MODEL 1
REMARK VINA RESULT: -6.246912862      0.000      0.000
REMARK  7 active torsions:
REMARK  status: ('A' for Active; 'I' for Inactive)
REMARK    1  A    between atoms: C2_2  and  C3_3 
REMARK    2  A    between atoms: C2_2  and  N3_13 
REMARK    3  A    between atoms: C3_3  and  C4_4 
REMARK    4  A    between atoms: C6_8  and  N2_9 
REMARK    5  A    between atoms: C7_14  and  S2_15 
REMARK    6  A    between atoms: S2_15  and  N4_16 
REMARK    7  A    between atoms: C9_24  and  N6_25 
ROOT
HETATM    1  N3  UNL     1      26.007  33.100  53.507  1.00  0.00    -0.301 N 
HETATM    2  C7  UNL     1      26.390  32.920  52.231  1.00  0.00     0.228 A 
HETATM    3  N5  UNL     1      26.107  31.636  51.904  1.00  0.00    -0.325 N 
ATOM      4  H5  UNL     1      26.292  31.218  50.992  1.00  0.00     0.168 HD
HETATM    5  C8  UNL     1      25.554  30.989  52.937  1.00  0.00     0.123 A 
HETATM    6  C9  UNL     1      25.104  29.695  53.090  1.00  0.00     0.131 A 
HETATM    7  N7  UNL     1      24.586  29.350  54.290  1.00  0.00    -0.337 N 
ATOM      8  H7  UNL     1      24.243  28.402  54.439  1.00  0.00     0.168 HD
HETATM    9  C10 UNL     1      24.521  30.246  55.285  1.00  0.00     0.183 A 
HETATM   10  N8  UNL     1      24.967  31.502  55.106  1.00  0.00    -0.336 N 
ATOM     11  H8  UNL     1      24.899  32.155  55.886  1.00  0.00     0.168 HD
HETATM   12  C11 UNL     1      25.496  31.941  53.954  1.00  0.00     0.142 A 
ENDROOT
BRANCH   1  13
HETATM   13  C2  UNL     1      26.135  34.311  54.219  1.00  0.00     0.094 C 
HETATM   14  C1  UNL     1      27.350  34.318  55.159  1.00  0.00     0.033 C 
BRANCH  13  15
HETATM   15  C3  UNL     1      24.972  34.704  55.072  1.00  0.00     0.073 C 
BRANCH  15  16
HETATM   16  C4  UNL     1      23.878  35.289  54.232  1.00  0.00     0.003 A 
HETATM   17  C5  UNL     1      23.728  36.588  53.854  1.00  0.00     0.105 A 
HETATM   18  N1  UNL     1      22.703  36.903  53.116  1.00  0.00    -0.346 N 
HETATM   19  C6  UNL     1      21.851  35.939  52.766  1.00  0.00     0.142 A 
ATOM     20  H1  UNL     1      22.555  37.865  52.814  1.00  0.00     0.167 HD
HETATM   21  S1  UNL     1      22.514  34.550  53.499  1.00  0.00    -0.058 SA
BRANCH  19  22
HETATM   22  N2  UNL     1      20.767  36.066  52.031  1.00  0.00    -0.380 N 
ATOM     23  H22 UNL     1      20.657  36.014  51.018  1.00  0.00     0.158 HD
ATOM     24  H21 UNL     1      19.818  36.242  52.359  1.00  0.00     0.158 HD
ENDBRANCH  19  22
ENDBRANCH  15  16
ENDBRANCH  13  15
ENDBRANCH   1  13
BRANCH   2  25
HETATM   25  S2  UNL     1      27.106  34.006  51.098  1.00  0.00     0.289 S 
HETATM   26  O1  UNL     1      27.447  33.256  49.844  1.00  0.00    -0.198 OA
HETATM   27  O2  UNL     1      28.354  34.657  51.573  1.00  0.00    -0.198 OA
BRANCH  25  28
HETATM   28  N4  UNL     1      25.991  35.258  50.655  1.00  0.00    -0.322 N 
ATOM     29  H42 UNL     1      25.191  35.113  50.039  1.00  0.00     0.169 HD
ATOM     30  H41 UNL     1      26.247  36.143  51.094  1.00  0.00     0.169 HD
ENDBRANCH  25  28
ENDBRANCH   2  25
BRANCH   6  31
HETATM   31  N6  UNL     1      25.171  28.837  52.128  1.00  0.00    -0.383 N 
ATOM     32  H62 UNL     1      25.402  27.860  52.313  1.00  0.00     0.157 HD
ATOM     33  H61 UNL     1      24.998  29.105  51.159  1.00  0.00     0.157 HD
ENDBRANCH   6  31
TORSDOF 7
ENDMDL
MODEL 2
REMARK VINA RESULT: -6.100871718      2.781      6.065
REMARK  7 active torsions:
REMARK  status: ('A' for Active; 'I' for Inactive)
REMARK    1  A    between atoms: C2_2  and  C3_3 
REMARK    2  A    between atoms: C2_2  and  N3_13 
REMARK    3  A    between atoms: C3_3  and  C4_4 
REMARK    4  A    between atoms: C6_8  and  N2_9 
REMARK    5  A    between atoms: C7_14  and  S2_15 
REMARK    6  A    between atoms: S2_15  and  N4_16 
REMARK    7  A    between atoms: C9_24  and  N6_25 
ROOT
HETATM    1  N3  UNL     1      24.120  35.323  53.991  1.00  0.00    -0.301 N 
HETATM    2  C7  UNL     1      24.207  35.632  55.296  1.00  0.00     0.228 A 
HETATM    3  N5  UNL     1      22.963  35.968  55.714  1.00  0.00    -0.325 N 
ATOM      4  H5  UNL     1      22.728  36.250  56.666  1.00  0.00     0.168 HD
HETATM    5  C8  UNL     1      22.081  35.882  54.709  1.00  0.00     0.123 A 
HETATM    6  C9  UNL     1      20.724  36.118  54.641  1.00  0.00     0.131 A 
HETATM    7  N7  UNL     1      20.117  35.933  53.447  1.00  0.00    -0.337 N 
ATOM      8  H7  UNL     1      19.114  36.098  53.359  1.00  0.00     0.168 HD
HETATM    9  C10 UNL     1      20.822  35.536  52.379  1.00  0.00     0.183 A 
HETATM   10  N8  UNL     1      22.144  35.313  52.477  1.00  0.00    -0.336 N 
ATOM     11  H8  UNL     1      22.647  35.011  51.643  1.00  0.00     0.168 HD
HETATM   12  C11 UNL     1      22.839  35.467  53.615  1.00  0.00     0.142 A 
ENDROOT
BRANCH   1  13
HETATM   13  C2  UNL     1      25.208  34.920  53.189  1.00  0.00     0.094 C 
HETATM   14  C1  UNL     1      25.820  36.085  52.397  1.00  0.00     0.033 C 
BRANCH  13  15
HETATM   15  C3  UNL     1      24.926  33.858  52.176  1.00  0.00     0.073 C 
BRANCH  15  16
HETATM   16  C4  UNL     1      24.997  32.500  52.805  1.00  0.00     0.003 A 
HETATM   17  C5  UNL     1      24.910  32.193  54.128  1.00  0.00     0.105 A 
HETATM   18  N1  UNL     1      24.994  30.943  54.480  1.00  0.00    -0.346 N 
HETATM   19  C6  UNL     1      25.161  30.024  53.530  1.00  0.00     0.142 A 
ATOM     20  H1  UNL     1      24.934  30.674  55.462  1.00  0.00     0.167 HD
HETATM   21  S1  UNL     1      25.201  30.950  52.098  1.00  0.00    -0.058 SA
BRANCH  19  22
HETATM   22  N2  UNL     1      25.267  28.723  53.692  1.00  0.00    -0.380 N 
ATOM     23  H22 UNL     1      24.900  28.127  54.434  1.00  0.00     0.158 HD
ATOM     24  H21 UNL     1      25.750  28.063  53.083  1.00  0.00     0.158 HD
ENDBRANCH  19  22
ENDBRANCH  15  16
ENDBRANCH  13  15
ENDBRANCH   1  13
BRANCH   2  25
HETATM   25  S2  UNL     1      25.556  35.644  56.371  1.00  0.00     0.289 S 
HETATM   26  O1  UNL     1      26.563  36.645  55.887  1.00  0.00    -0.198 OA
HETATM   27  O2  UNL     1      26.257  34.340  56.495  1.00  0.00    -0.198 OA
BRANCH  25  28
HETATM   28  N4  UNL     1      25.071  36.138  57.962  1.00  0.00    -0.322 N 
ATOM     29  H42 UNL     1      24.582  37.011  58.160  1.00  0.00     0.169 HD
ATOM     30  H41 UNL     1      25.340  35.440  58.655  1.00  0.00     0.169 HD
ENDBRANCH  25  28
ENDBRANCH   2  25
BRANCH   6  31
HETATM   31  N6  UNL     1      20.051  36.502  55.673  1.00  0.00    -0.383 N 
ATOM     32  H62 UNL     1      20.512  36.656  56.570  1.00  0.00     0.157 HD
ATOM     33  H61 UNL     1      19.044  36.661  55.626  1.00  0.00     0.157 HD
ENDBRANCH   6  31
TORSDOF 7
ENDMDL
MODEL 3
REMARK VINA RESULT: -5.993890823      2.948      5.959
REMARK  7 active torsions:
REMARK  status: ('A' for Active; 'I' for Inactive)
REMARK    1  A    between atoms: C2_2  and  C3_3 
REMARK    2  A    between atoms: C2_2  and  N3_13 
REMARK    3  A    between atoms: C3_3  and  C4_4 
REMARK    4  A    between atoms: C6_8  and  N2_9 
REMARK    5  A    between atoms: C7_14  and  S2_15 
REMARK    6  A    between atoms: S2_15  and  N4_16 
REMARK    7  A    between atoms: C9_24  and  N6_25 
ROOT
HETATM    1  N3  UNL     1      24.197  35.058  54.220  1.00  0.00    -0.301 N 
HETATM    2  C7  UNL     1      24.329  35.461  55.496  1.00  0.00     0.228 A 
HETATM    3  N5  UNL     1      23.088  35.745  55.959  1.00  0.00    -0.325 N 
ATOM      4  H5  UNL     1      22.884  36.075  56.902  1.00  0.00     0.168 HD
HETATM    5  C8  UNL     1      22.164  35.534  55.013  1.00  0.00     0.123 A 
HETATM    6  C9  UNL     1      20.793  35.678  55.005  1.00  0.00     0.131 A 
HETATM    7  N7  UNL     1      20.139  35.374  53.861  1.00  0.00    -0.337 N 
ATOM      8  H7  UNL     1      19.125  35.468  53.818  1.00  0.00     0.168 HD
HETATM    9  C10 UNL     1      20.814  34.950  52.783  1.00  0.00     0.183 A 
HETATM   10  N8  UNL     1      22.152  34.819  52.822  1.00  0.00    -0.336 N 
ATOM     11  H8  UNL     1      22.630  34.494  51.982  1.00  0.00     0.168 HD
HETATM   12  C11 UNL     1      22.891  35.095  53.907  1.00  0.00     0.142 A 
ENDROOT
BRANCH   1  13
HETATM   13  C2  UNL     1      25.267  34.672  53.387  1.00  0.00     0.094 C 
HETATM   14  C1  UNL     1      25.919  35.866  52.672  1.00  0.00     0.033 C 
BRANCH  13  15
HETATM   15  C3  UNL     1      24.944  33.692  52.305  1.00  0.00     0.073 C 
BRANCH  15  16
HETATM   16  C4  UNL     1      24.975  32.293  52.839  1.00  0.00     0.003 A 
HETATM   17  C5  UNL     1      25.045  31.135  52.126  1.00  0.00     0.105 A 
HETATM   18  N1  UNL     1      25.063  30.008  52.776  1.00  0.00    -0.346 N 
HETATM   19  C6  UNL     1      25.013  30.041  54.108  1.00  0.00     0.142 A 
ATOM     20  H1  UNL     1      25.113  29.120  52.278  1.00  0.00     0.167 HD
HETATM   21  S1  UNL     1      24.937  31.710  54.452  1.00  0.00    -0.058 SA
BRANCH  19  22
HETATM   22  N2  UNL     1      25.020  29.013  54.929  1.00  0.00    -0.380 N 
ATOM     23  H22 UNL     1      25.142  28.020  54.729  1.00  0.00     0.158 HD
ATOM     24  H21 UNL     1      24.903  29.032  55.941  1.00  0.00     0.158 HD
ENDBRANCH  19  22
ENDBRANCH  15  16
ENDBRANCH  13  15
ENDBRANCH   1  13
BRANCH   2  25
HETATM   25  S2  UNL     1      25.727  35.632  56.491  1.00  0.00     0.289 S 
HETATM   26  O1  UNL     1      26.820  34.751  55.962  1.00  0.00    -0.198 OA
HETATM   27  O2  UNL     1      25.519  35.266  57.916  1.00  0.00    -0.198 OA
BRANCH  25  28
HETATM   28  N4  UNL     1      26.320  37.262  56.445  1.00  0.00    -0.322 N 
ATOM     29  H42 UNL     1      26.762  37.681  55.627  1.00  0.00     0.169 HD
ATOM     30  H41 UNL     1      26.164  37.729  57.338  1.00  0.00     0.169 HD
ENDBRANCH  25  28
ENDBRANCH   2  25
BRANCH   6  31
HETATM   31  N6  UNL     1      20.149  36.087  56.045  1.00  0.00    -0.383 N 
ATOM     32  H62 UNL     1      20.429  35.796  56.982  1.00  0.00     0.157 HD
ATOM     33  H61 UNL     1      19.345  36.710  55.966  1.00  0.00     0.157 HD
ENDBRANCH   6  31
TORSDOF 7
ENDMDL
MODEL 4
REMARK VINA RESULT: -5.950465575      1.205      1.371
REMARK  7 active torsions:
REMARK  status: ('A' for Active; 'I' for Inactive)
REMARK    1  A    between atoms: C2_2  and  C3_3 
REMARK    2  A    between atoms: C2_2  and  N3_13 
REMARK    3  A    between atoms: C3_3  and  C4_4 
REMARK    4  A    between atoms: C6_8  and  N2_9 
REMARK    5  A    between atoms: C7_14  and  S2_15 
REMARK    6  A    between atoms: S2_15  and  N4_16 
REMARK    7  A    between atoms: C9_24  and  N6_25 
ROOT
HETATM    1  N3  UNL     1      26.006  32.639  53.523  1.00  0.00    -0.301 N 
HETATM    2  C7  UNL     1      26.560  32.359  52.329  1.00  0.00     0.228 A 
HETATM    3  N5  UNL     1      26.473  31.019  52.150  1.00  0.00    -0.325 N 
ATOM      4  H5  UNL     1      26.816  30.523  51.328  1.00  0.00     0.168 HD
HETATM    5  C8  UNL     1      25.878  30.433  53.197  1.00  0.00     0.123 A 
HETATM    6  C9  UNL     1      25.569  29.118  53.474  1.00  0.00     0.131 A 
HETATM    7  N7  UNL     1      24.954  28.855  54.649  1.00  0.00    -0.337 N 
ATOM      8  H7  UNL     1      24.710  27.894  54.887  1.00  0.00     0.168 HD
HETATM    9  C10 UNL     1      24.662  29.847  55.501  1.00  0.00     0.183 A 
HETATM   10  N8  UNL     1      24.975  31.120  55.203  1.00  0.00    -0.336 N 
ATOM     11  H8  UNL     1      24.737  31.848  55.877  1.00  0.00     0.168 HD
HETATM   12  C11 UNL     1      25.586  31.485  54.065  1.00  0.00     0.142 A 
ENDROOT
BRANCH   1  13
HETATM   13  C2  UNL     1      25.903  33.933  54.074  1.00  0.00     0.094 C 
HETATM   14  C1  UNL     1      27.065  34.265  55.022  1.00  0.00     0.033 C 
BRANCH  13  15
HETATM   15  C3  UNL     1      24.661  34.223  54.853  1.00  0.00     0.073 C 
BRANCH  15  16
HETATM   16  C4  UNL     1      23.561  34.672  53.940  1.00  0.00     0.003 A 
HETATM   17  C5  UNL     1      23.330  34.270  52.660  1.00  0.00     0.105 A 
HETATM   18  N1  UNL     1      22.314  34.778  52.026  1.00  0.00    -0.346 N 
HETATM   19  C6  UNL     1      21.548  35.666  52.660  1.00  0.00     0.142 A 
ATOM     20  H1  UNL     1      22.109  34.504  51.066  1.00  0.00     0.167 HD
HETATM   21  S1  UNL     1      22.284  35.788  54.194  1.00  0.00    -0.058 SA
BRANCH  19  22
HETATM   22  N2  UNL     1      20.487  36.283  52.185  1.00  0.00    -0.380 N 
ATOM     23  H22 UNL     1      20.127  37.214  52.392  1.00  0.00     0.158 HD
ATOM     24  H21 UNL     1      19.819  35.923  51.503  1.00  0.00     0.158 HD
ENDBRANCH  19  22
ENDBRANCH  15  16
ENDBRANCH  13  15
ENDBRANCH   1  13
BRANCH   2  25
HETATM   25  S2  UNL     1      27.276  33.386  51.143  1.00  0.00     0.289 S 
HETATM   26  O1  UNL     1      26.363  34.548  50.881  1.00  0.00    -0.198 OA
HETATM   27  O2  UNL     1      27.538  32.730  49.837  1.00  0.00    -0.198 OA
BRANCH  25  28
HETATM   28  N4  UNL     1      28.776  34.038  51.719  1.00  0.00    -0.322 N 
ATOM     29  H42 UNL     1      29.566  33.466  52.018  1.00  0.00     0.169 HD
ATOM     30  H41 UNL     1      28.753  35.059  51.714  1.00  0.00     0.169 HD
ENDBRANCH  25  28
ENDBRANCH   2  25
BRANCH   6  31
HETATM   31  N6  UNL     1      25.854  28.168  52.650  1.00  0.00    -0.383 N 
ATOM     32  H62 UNL     1      26.806  27.807  52.575  1.00  0.00     0.157 HD
ATOM     33  H61 UNL     1      25.143  27.750  52.050  1.00  0.00     0.157 HD
ENDBRANCH   6  31
TORSDOF 7
ENDMDL
MODEL 5
REMARK VINA RESULT: -5.834727515      3.242      6.872
REMARK  7 active torsions:
REMARK  status: ('A' for Active; 'I' for Inactive)
REMARK    1  A    between atoms: C2_2  and  C3_3 
REMARK    2  A    between atoms: C2_2  and  N3_13 
REMARK    3  A    between atoms: C3_3  and  C4_4 
REMARK    4  A    between atoms: C6_8  and  N2_9 
REMARK    5  A    between atoms: C7_14  and  S2_15 
REMARK    6  A    between atoms: S2_15  and  N4_16 
REMARK    7  A    between atoms: C9_24  and  N6_25 
ROOT
HETATM    1  N3  UNL     1      23.678  36.432  54.049  1.00  0.00    -0.301 N 
HETATM    2  C7  UNL     1      22.563  36.662  53.333  1.00  0.00     0.228 A 
HETATM    3  N5  UNL     1      22.503  37.996  53.101  1.00  0.00    -0.325 N 
ATOM      4  H5  UNL     1      21.759  38.459  52.578  1.00  0.00     0.168 HD
HETATM    5  C8  UNL     1      23.549  38.625  53.650  1.00  0.00     0.123 A 
HETATM    6  C9  UNL     1      23.922  39.953  53.685  1.00  0.00     0.131 A 
HETATM    7  N7  UNL     1      25.063  40.264  54.339  1.00  0.00    -0.337 N 
ATOM      8  H7  UNL     1      25.370  41.236  54.385  1.00  0.00     0.168 HD
HETATM    9  C10 UNL     1      25.794  39.307  54.927  1.00  0.00     0.183 A 
HETATM   10  N8  UNL     1      25.405  38.021  54.875  1.00  0.00    -0.336 N 
ATOM     11  H8  UNL     1      25.988  37.321  55.334  1.00  0.00     0.168 HD
HETATM   12  C11 UNL     1      24.291  37.609  54.252  1.00  0.00     0.142 A 
ENDROOT
BRANCH   1  13
HETATM   13  C2  UNL     1      24.097  35.160  54.492  1.00  0.00     0.094 C 
HETATM   14  C1  UNL     1      24.357  35.118  56.005  1.00  0.00     0.033 C 
BRANCH  13  15
HETATM   15  C3  UNL     1      25.338  34.616  53.862  1.00  0.00     0.073 C 
BRANCH  15  16
HETATM   16  C4  UNL     1      25.182  33.154  53.573  1.00  0.00     0.003 A 
HETATM   17  C5  UNL     1      25.044  32.559  52.356  1.00  0.00     0.105 A 
HETATM   18  N1  UNL     1      24.921  31.264  52.311  1.00  0.00    -0.346 N 
HETATM   19  C6  UNL     1      24.939  30.583  53.457  1.00  0.00     0.142 A 
ATOM     20  H1  UNL     1      24.814  30.782  51.419  1.00  0.00     0.167 HD
HETATM   21  S1  UNL     1      25.132  31.804  54.631  1.00  0.00    -0.058 SA
BRANCH  19  22
HETATM   22  N2  UNL     1      24.830  29.280  53.608  1.00  0.00    -0.380 N 
ATOM     23  H22 UNL     1      23.994  28.702  53.692  1.00  0.00     0.158 HD
ATOM     24  H21 UNL     1      25.588  28.601  53.668  1.00  0.00     0.158 HD
ENDBRANCH  19  22
ENDBRANCH  15  16
ENDBRANCH  13  15
ENDBRANCH   1  13
BRANCH   2  25
HETATM   25  S2  UNL     1      21.352  35.585  52.742  1.00  0.00     0.289 S 
HETATM   26  O1  UNL     1      20.227  36.385  52.153  1.00  0.00    -0.198 OA
HETATM   27  O2  UNL     1      20.764  34.693  53.774  1.00  0.00    -0.198 OA
BRANCH  25  28
HETATM   28  N4  UNL     1      21.984  34.585  51.474  1.00  0.00    -0.322 N 
ATOM     29  H42 UNL     1      21.744  33.600  51.356  1.00  0.00     0.169 HD
ATOM     30  H41 UNL     1      22.618  35.116  50.876  1.00  0.00     0.169 HD
ENDBRANCH  25  28
ENDBRANCH   2  25
BRANCH   6  31
HETATM   31  N6  UNL     1      23.213  40.869  53.118  1.00  0.00    -0.383 N 
ATOM     32  H62 UNL     1      23.648  41.571  52.518  1.00  0.00     0.157 HD
ATOM     33  H61 UNL     1      22.203  40.923  53.250  1.00  0.00     0.157 HD
ENDBRANCH   6  31
TORSDOF 7
ENDMDL
