MODEL 1
REMARK VINA RESULT: -7.699028924      0.000      0.000
REMARK  7 active torsions:
REMARK  status: ('A' for Active; 'I' for Inactive)
REMARK    1  A    between atoms: N3_7  and  C4_8 
REMARK    2  A    between atoms: C7_11  and  C8_12 
REMARK    3  A    between atoms: C8_12  and  N4_13 
REMARK    4  A    between atoms: C11_18  and  N6_19 
REMARK    5  A    between atoms: C12_24  and  N8_25 
REMARK    6  A    between atoms: C14_31  and  C15_32 
REMARK    7  A    between atoms: C15_32  and  N10_33 
ROOT
HETATM    1  C1  UNL     1     -14.552  28.024  -6.014  1.00  0.00     0.021 C 
HETATM    2  C2  UNL     1     -15.237  29.022  -6.065  1.00  0.00    -0.039 C 
HETATM    3  C3  UNL     1     -16.041  30.204  -6.100  1.00  0.00     0.189 A 
HETATM    4  N1  UNL     1     -16.829  30.636  -5.101  1.00  0.00    -0.260 N 
ATOM      5  H1  UNL     1     -16.948  30.173  -4.200  1.00  0.00     0.186 HD
HETATM    6  N2  UNL     1     -17.434  31.773  -5.477  1.00  0.00    -0.002 NA
HETATM    7  N3  UNL     1     -17.032  32.062  -6.715  1.00  0.00    -0.211 N 
HETATM    8  N11 UNL     1     -16.190  31.114  -7.091  1.00  0.00    -0.262 N 
ATOM      9  H11 UNL     1     -15.720  31.075  -7.996  1.00  0.00     0.190 HD
ENDROOT
BRANCH   7  10
HETATM   10  C4  UNL     1     -17.446  33.208  -7.497  1.00  0.00     0.125 C 
HETATM   11  C5  UNL     1     -17.834  34.342  -6.555  1.00  0.00     0.029 C 
HETATM   12  C6  UNL     1     -18.328  35.539  -7.332  1.00  0.00     0.009 C 
HETATM   13  C7  UNL     1     -17.891  35.418  -8.746  1.00  0.00     0.010 C 
HETATM   14  C14 UNL     1     -16.411  35.093  -8.744  1.00  0.00     0.018 C 
HETATM   15  C16 UNL     1     -16.265  33.637  -8.371  1.00  0.00     0.035 C 
BRANCH  13  16
HETATM   16  C8  UNL     1     -18.193  36.640  -9.581  1.00  0.00     0.136 C 
BRANCH  16  17
HETATM   17  N4  UNL     1     -19.060  36.376 -10.676  1.00  0.00    -0.327 N 
HETATM   18  C9  UNL     1     -18.732  36.420 -11.975  1.00  0.00     0.185 A 
HETATM   19  N5  UNL     1     -19.823  36.110 -12.695  1.00  0.00    -0.346 N 
HETATM   20  C10 UNL     1     -20.850  35.866 -11.887  1.00  0.00     0.123 A 
ATOM     21  H5  UNL     1     -19.859  36.067 -13.714  1.00  0.00     0.167 HD
HETATM   22  C11 UNL     1     -22.169  35.511 -12.142  1.00  0.00     0.145 A 
HETATM   23  C13 UNL     1     -20.370  36.035 -10.596  1.00  0.00     0.155 A 
HETATM   24  N7  UNL     1     -22.948  35.341 -11.062  1.00  0.00    -0.175 N 
HETATM   25  C12 UNL     1     -22.517  35.495  -9.788  1.00  0.00     0.679 A 
ATOM     26  H7  UNL     1     -23.923  35.080 -11.210  1.00  0.00     0.186 HD
HETATM   27  N9  UNL     1     -21.232  35.840  -9.588  1.00  0.00    -0.174 N 
ATOM     28  H9  UNL     1     -20.900  35.959  -8.631  1.00  0.00     0.186 HD
BRANCH  22  29
HETATM   29  N6  UNL     1     -22.600  35.358 -13.351  1.00  0.00    -0.383 N 
ATOM     30  H62 UNL     1     -23.048  36.107 -13.879  1.00  0.00     0.157 HD
ATOM     31  H61 UNL     1     -22.508  34.466 -13.836  1.00  0.00     0.157 HD
ENDBRANCH  22  29
BRANCH  25  32
HETATM   32  N8  UNL     1     -23.332  35.314  -8.776  1.00  0.00    -0.234 N 
ATOM     33  H82 UNL     1     -23.631  36.099  -8.195  1.00  0.00     0.174 HD
ATOM     34  H81 UNL     1     -23.684  34.384  -8.547  1.00  0.00     0.174 HD
ENDBRANCH  25  32
ENDBRANCH  16  17
ENDBRANCH  13  16
BRANCH  14  35
HETATM   35  C15 UNL     1     -15.819  35.449 -10.061  1.00  0.00     0.234 C 
BRANCH  35  36
HETATM   36  N10 UNL     1     -14.358  35.491  -9.975  1.00  0.00    -0.079 N 
ATOM     37 3H10 UNL     1     -13.953  36.082 -10.701  1.00  0.00     0.274 HD
ATOM     38 2H10 UNL     1     -14.041  36.013  -9.158  1.00  0.00     0.274 HD
ATOM     39 1H10 UNL     1     -13.969  34.548  -9.995  1.00  0.00     0.274 HD
ENDBRANCH  35  36
ENDBRANCH  14  35
ENDBRANCH   7  10
TORSDOF 7
ENDMDL
MODEL 2
REMARK VINA RESULT: -7.646412608      2.395      3.278
REMARK  7 active torsions:
REMARK  status: ('A' for Active; 'I' for Inactive)
REMARK    1  A    between atoms: N3_7  and  C4_8 
REMARK    2  A    between atoms: C7_11  and  C8_12 
REMARK    3  A    between atoms: C8_12  and  N4_13 
REMARK    4  A    between atoms: C11_18  and  N6_19 
REMARK    5  A    between atoms: C12_24  and  N8_25 
REMARK    6  A    between atoms: C14_31  and  C15_32 
REMARK    7  A    between atoms: C15_32  and  N10_33 
ROOT
HETATM    1  C1  UNL     1     -15.262  28.916  -8.139  1.00  0.00     0.021 C 
HETATM    2  C2  UNL     1     -15.302  30.104  -8.374  1.00  0.00    -0.039 C 
HETATM    3  C3  UNL     1     -15.323  31.507  -8.653  1.00  0.00     0.189 A 
HETATM    4  N1  UNL     1     -14.387  32.388  -8.266  1.00  0.00    -0.260 N 
ATOM      5  H1  UNL     1     -13.551  32.165  -7.727  1.00  0.00     0.186 HD
HETATM    6  N2  UNL     1     -14.728  33.611  -8.701  1.00  0.00    -0.002 NA
HETATM    7  N3  UNL     1     -15.880  33.505  -9.364  1.00  0.00    -0.211 N 
HETATM    8  N11 UNL     1     -16.240  32.233  -9.335  1.00  0.00    -0.262 N 
ATOM      9  H11 UNL     1     -17.084  31.855  -9.764  1.00  0.00     0.190 HD
ENDROOT
BRANCH   7  10
HETATM   10  C4  UNL     1     -16.599  34.591  -9.998  1.00  0.00     0.125 C 
HETATM   11  C5  UNL     1     -15.894  35.907  -9.684  1.00  0.00     0.029 C 
HETATM   12  C6  UNL     1     -16.648  37.073 -10.280  1.00  0.00     0.009 C 
HETATM   13  C7  UNL     1     -17.575  36.572 -11.326  1.00  0.00     0.010 C 
HETATM   14  C14 UNL     1     -16.788  35.652 -12.238  1.00  0.00     0.018 C 
HETATM   15  C16 UNL     1     -16.595  34.344 -11.507  1.00  0.00     0.035 C 
BRANCH  13  16
HETATM   16  C8  UNL     1     -18.265  37.670 -12.101  1.00  0.00     0.136 C 
BRANCH  16  17
HETATM   17  N4  UNL     1     -19.578  37.951 -11.637  1.00  0.00    -0.327 N 
HETATM   18  C9  UNL     1     -19.954  39.021 -10.924  1.00  0.00     0.185 A 
HETATM   19  N5  UNL     1     -21.273  38.923 -10.681  1.00  0.00    -0.346 N 
HETATM   20  C10 UNL     1     -21.755  37.810 -11.223  1.00  0.00     0.123 A 
ATOM     21  H5  UNL     1     -21.823  39.604 -10.157  1.00  0.00     0.167 HD
HETATM   22  C11 UNL     1     -23.035  37.268 -11.249  1.00  0.00     0.145 A 
HETATM   23  C13 UNL     1     -20.678  37.184 -11.835  1.00  0.00     0.155 A 
HETATM   24  N7  UNL     1     -23.162  36.102 -11.902  1.00  0.00    -0.175 N 
HETATM   25  C12 UNL     1     -22.138  35.461 -12.512  1.00  0.00     0.679 A 
ATOM     26  H7  UNL     1     -24.088  35.674 -11.942  1.00  0.00     0.186 HD
HETATM   27  N9  UNL     1     -20.916  36.023 -12.461  1.00  0.00    -0.174 N 
ATOM     28  H9  UNL     1     -20.139  35.545 -12.918  1.00  0.00     0.186 HD
BRANCH  22  29
HETATM   29  N6  UNL     1     -24.026  37.864 -10.673  1.00  0.00    -0.383 N 
ATOM     30  H62 UNL     1     -24.037  38.089  -9.679  1.00  0.00     0.157 HD
ATOM     31  H61 UNL     1     -24.855  38.140 -11.200  1.00  0.00     0.157 HD
ENDBRANCH  22  29
BRANCH  25  32
HETATM   32  N8  UNL     1     -22.332  34.322 -13.134  1.00  0.00    -0.234 N 
ATOM     33  H82 UNL     1     -23.198  34.143 -13.643  1.00  0.00     0.174 HD
ATOM     34  H81 UNL     1     -21.620  33.592 -13.122  1.00  0.00     0.174 HD
ENDBRANCH  25  32
ENDBRANCH  16  17
ENDBRANCH  13  16
BRANCH  14  35
HETATM   35  C15 UNL     1     -17.486  35.526 -13.545  1.00  0.00     0.234 C 
BRANCH  35  36
HETATM   36  N10 UNL     1     -16.794  34.567 -14.409  1.00  0.00    -0.079 N 
ATOM     37 3H10 UNL     1     -17.300  34.408 -15.279  1.00  0.00     0.274 HD
ATOM     38 2H10 UNL     1     -15.937  34.960 -14.799  1.00  0.00     0.274 HD
ATOM     39 1H10 UNL     1     -16.617  33.696 -13.909  1.00  0.00     0.274 HD
ENDBRANCH  35  36
ENDBRANCH  14  35
ENDBRANCH   7  10
TORSDOF 7
ENDMDL
MODEL 3
REMARK VINA RESULT: -7.530357291      4.347      7.370
REMARK  7 active torsions:
REMARK  status: ('A' for Active; 'I' for Inactive)
REMARK    1  A    between atoms: N3_7  and  C4_8 
REMARK    2  A    between atoms: C7_11  and  C8_12 
REMARK    3  A    between atoms: C8_12  and  N4_13 
REMARK    4  A    between atoms: C11_18  and  N6_19 
REMARK    5  A    between atoms: C12_24  and  N8_25 
REMARK    6  A    between atoms: C14_31  and  C15_32 
REMARK    7  A    between atoms: C15_32  and  N10_33 
ROOT
HETATM    1  C1  UNL     1     -18.992  28.235  -8.233  1.00  0.00     0.021 C 
HETATM    2  C2  UNL     1     -18.463  29.171  -7.677  1.00  0.00    -0.039 C 
HETATM    3  C3  UNL     1     -17.820  30.262  -7.010  1.00  0.00     0.189 A 
HETATM    4  N1  UNL     1     -17.244  30.198  -5.799  1.00  0.00    -0.260 N 
ATOM      5  H1  UNL     1     -17.197  29.367  -5.210  1.00  0.00     0.186 HD
HETATM    6  N2  UNL     1     -16.742  31.402  -5.486  1.00  0.00    -0.002 NA
HETATM    7  N3  UNL     1     -16.999  32.230  -6.499  1.00  0.00    -0.211 N 
HETATM    8  N11 UNL     1     -17.651  31.541  -7.420  1.00  0.00    -0.262 N 
ATOM      9  H11 UNL     1     -17.978  31.917  -8.310  1.00  0.00     0.190 HD
ENDROOT
BRANCH   7  10
HETATM   10  C4  UNL     1     -16.629  33.628  -6.569  1.00  0.00     0.125 C 
HETATM   11  C5  UNL     1     -16.669  34.083  -8.024  1.00  0.00     0.029 C 
HETATM   12  C6  UNL     1     -16.232  35.524  -8.147  1.00  0.00     0.009 C 
HETATM   13  C7  UNL     1     -16.311  36.174  -6.814  1.00  0.00     0.010 C 
HETATM   14  C14 UNL     1     -17.673  35.858  -6.229  1.00  0.00     0.018 C 
HETATM   15  C16 UNL     1     -17.640  34.428  -5.745  1.00  0.00     0.035 C 
BRANCH  13  16
HETATM   16  C8  UNL     1     -16.049  37.661  -6.849  1.00  0.00     0.136 C 
BRANCH  16  17
HETATM   17  N4  UNL     1     -14.677  37.997  -6.694  1.00  0.00    -0.327 N 
HETATM   18  C9  UNL     1     -13.787  38.167  -7.682  1.00  0.00     0.185 A 
HETATM   19  N5  UNL     1     -12.601  38.476  -7.131  1.00  0.00    -0.346 N 
HETATM   20  C10 UNL     1     -12.708  38.510  -5.806  1.00  0.00     0.123 A 
ATOM     21  H5  UNL     1     -11.744  38.659  -7.652  1.00  0.00     0.167 HD
HETATM   22  C11 UNL     1     -11.780  38.777  -4.806  1.00  0.00     0.145 A 
HETATM   23  C13 UNL     1     -14.031  38.205  -5.521  1.00  0.00     0.155 A 
HETATM   24  N7  UNL     1     -12.246  38.722  -3.548  1.00  0.00    -0.175 N 
HETATM   25  C12 UNL     1     -13.527  38.429  -3.229  1.00  0.00     0.679 A 
ATOM     26  H7  UNL     1     -11.593  38.912  -2.787  1.00  0.00     0.186 HD
HETATM   27  N9  UNL     1     -14.391  38.176  -4.230  1.00  0.00    -0.174 N 
ATOM     28  H9  UNL     1     -15.359  37.955  -3.997  1.00  0.00     0.186 HD
BRANCH  22  29
HETATM   29  N6  UNL     1     -10.551  39.059  -5.090  1.00  0.00    -0.383 N 
ATOM     30  H62 UNL     1     -10.281  39.595  -5.915  1.00  0.00     0.157 HD
ATOM     31  H61 UNL     1      -9.787  38.752  -4.490  1.00  0.00     0.157 HD
ENDBRANCH  22  29
BRANCH  25  32
HETATM   32  N8  UNL     1     -13.918  38.391  -1.976  1.00  0.00    -0.234 N 
ATOM     33  H82 UNL     1     -13.253  38.534  -1.215  1.00  0.00     0.174 HD
ATOM     34  H81 UNL     1     -14.894  38.219  -1.737  1.00  0.00     0.174 HD
ENDBRANCH  25  32
ENDBRANCH  16  17
ENDBRANCH  13  16
BRANCH  14  35
HETATM   35  C15 UNL     1     -18.007  36.853  -5.174  1.00  0.00     0.234 C 
BRANCH  35  36
HETATM   36  N10 UNL     1     -19.303  37.476  -5.446  1.00  0.00    -0.079 N 
ATOM     37 3H10 UNL     1     -19.214  38.476  -5.621  1.00  0.00     0.274 HD
ATOM     38 2H10 UNL     1     -19.676  37.195  -6.352  1.00  0.00     0.274 HD
ATOM     39 1H10 UNL     1     -19.960  37.282  -4.690  1.00  0.00     0.274 HD
ENDBRANCH  35  36
ENDBRANCH  14  35
ENDBRANCH   7  10
TORSDOF 7
ENDMDL
MODEL 4
REMARK VINA RESULT: -7.434725868      4.419      7.523
REMARK  7 active torsions:
REMARK  status: ('A' for Active; 'I' for Inactive)
REMARK    1  A    between atoms: N3_7  and  C4_8 
REMARK    2  A    between atoms: C7_11  and  C8_12 
REMARK    3  A    between atoms: C8_12  and  N4_13 
REMARK    4  A    between atoms: C11_18  and  N6_19 
REMARK    5  A    between atoms: C12_24  and  N8_25 
REMARK    6  A    between atoms: C14_31  and  C15_32 
REMARK    7  A    between atoms: C15_32  and  N10_33 
ROOT
HETATM    1  C1  UNL     1     -17.037  27.616  -9.776  1.00  0.00     0.021 C 
HETATM    2  C2  UNL     1     -17.142  28.602  -9.081  1.00  0.00    -0.039 C 
HETATM    3  C3  UNL     1     -17.268  29.752  -8.239  1.00  0.00     0.189 A 
HETATM    4  N1  UNL     1     -18.016  29.819  -7.125  1.00  0.00    -0.260 N 
ATOM      5  H1  UNL     1     -18.582  29.060  -6.747  1.00  0.00     0.186 HD
HETATM    6  N2  UNL     1     -17.899  31.043  -6.589  1.00  0.00    -0.002 NA
HETATM    7  N3  UNL     1     -17.078  31.754  -7.363  1.00  0.00    -0.211 N 
HETATM    8  N11 UNL     1     -16.696  30.973  -8.360  1.00  0.00    -0.262 N 
ATOM      9  H11 UNL     1     -16.064  31.250  -9.111  1.00  0.00     0.190 HD
ENDROOT
BRANCH   7  10
HETATM   10  C4  UNL     1     -16.681  33.129  -7.144  1.00  0.00     0.125 C 
HETATM   11  C5  UNL     1     -15.436  33.428  -7.974  1.00  0.00     0.029 C 
HETATM   12  C6  UNL     1     -14.955  34.838  -7.728  1.00  0.00     0.009 C 
HETATM   13  C7  UNL     1     -16.051  35.628  -7.109  1.00  0.00     0.010 C 
HETATM   14  C14 UNL     1     -17.302  35.402  -7.934  1.00  0.00     0.018 C 
HETATM   15  C16 UNL     1     -17.833  34.031  -7.589  1.00  0.00     0.035 C 
BRANCH  13  16
HETATM   16  C8  UNL     1     -15.733  37.097  -6.966  1.00  0.00     0.136 C 
BRANCH  16  17
HETATM   17  N4  UNL     1     -15.313  37.461  -5.658  1.00  0.00    -0.327 N 
HETATM   18  C9  UNL     1     -15.970  37.208  -4.517  1.00  0.00     0.185 A 
HETATM   19  N5  UNL     1     -15.251  37.709  -3.498  1.00  0.00    -0.346 N 
HETATM   20  C10 UNL     1     -14.142  38.280  -3.959  1.00  0.00     0.123 A 
ATOM     21  H5  UNL     1     -15.516  37.659  -2.514  1.00  0.00     0.167 HD
HETATM   22  C11 UNL     1     -13.094  38.927  -3.315  1.00  0.00     0.145 A 
HETATM   23  C13 UNL     1     -14.176  38.125  -5.337  1.00  0.00     0.155 A 
HETATM   24  N7  UNL     1     -12.118  39.392  -4.111  1.00  0.00    -0.175 N 
HETATM   25  C12 UNL     1     -12.114  39.260  -5.458  1.00  0.00     0.679 A 
ATOM     26  H7  UNL     1     -11.331  39.873  -3.674  1.00  0.00     0.186 HD
HETATM   27  N9  UNL     1     -13.150  38.626  -6.039  1.00  0.00    -0.174 N 
ATOM     28  H9  UNL     1     -13.154  38.524  -7.054  1.00  0.00     0.186 HD
BRANCH  22  29
HETATM   29  N6  UNL     1     -13.079  39.063  -2.030  1.00  0.00    -0.383 N 
ATOM     30  H62 UNL     1     -13.007  39.969  -1.569  1.00  0.00     0.157 HD
ATOM     31  H61 UNL     1     -13.138  38.254  -1.413  1.00  0.00     0.157 HD
ENDBRANCH  22  29
BRANCH  25  32
HETATM   32  N8  UNL     1     -11.126  39.738  -6.178  1.00  0.00    -0.234 N 
ATOM     33  H82 UNL     1     -10.211  39.915  -5.762  1.00  0.00     0.174 HD
ATOM     34  H81 UNL     1     -11.253  39.942  -7.170  1.00  0.00     0.174 HD
ENDBRANCH  25  32
ENDBRANCH  16  17
ENDBRANCH  13  16
BRANCH  14  35
HETATM   35  C15 UNL     1     -18.266  36.510  -7.692  1.00  0.00     0.234 C 
BRANCH  35  36
HETATM   36  N10 UNL     1     -19.079  36.236  -6.506  1.00  0.00    -0.079 N 
ATOM     37 3H10 UNL     1     -20.076  36.259  -6.717  1.00  0.00     0.274 HD
ATOM     38 2H10 UNL     1     -19.006  35.262  -6.213  1.00  0.00     0.274 HD
ATOM     39 1H10 UNL     1     -18.838  36.877  -5.750  1.00  0.00     0.274 HD
ENDBRANCH  35  36
ENDBRANCH  14  35
ENDBRANCH   7  10
TORSDOF 7
ENDMDL
MODEL 5
REMARK VINA RESULT: -7.381751500      3.950      7.545
REMARK  7 active torsions:
REMARK  status: ('A' for Active; 'I' for Inactive)
REMARK    1  A    between atoms: N3_7  and  C4_8 
REMARK    2  A    between atoms: C7_11  and  C8_12 
REMARK    3  A    between atoms: C8_12  and  N4_13 
REMARK    4  A    between atoms: C11_18  and  N6_19 
REMARK    5  A    between atoms: C12_24  and  N8_25 
REMARK    6  A    between atoms: C14_31  and  C15_32 
REMARK    7  A    between atoms: C15_32  and  N10_33 
ROOT
HETATM    1  C1  UNL     1     -26.230  34.596  -7.691  1.00  0.00     0.021 C 
HETATM    2  C2  UNL     1     -25.530  35.124  -8.526  1.00  0.00    -0.039 C 
HETATM    3  C3  UNL     1     -24.718  35.768  -9.513  1.00  0.00     0.189 A 
HETATM    4  N1  UNL     1     -25.180  36.532 -10.517  1.00  0.00    -0.260 N 
ATOM      5  H1  UNL     1     -26.161  36.743 -10.696  1.00  0.00     0.186 HD
HETATM    6  N2  UNL     1     -24.143  36.972 -11.247  1.00  0.00    -0.002 NA
HETATM    7  N3  UNL     1     -23.025  36.488 -10.707  1.00  0.00    -0.211 N 
HETATM    8  N11 UNL     1     -23.373  35.761  -9.658  1.00  0.00    -0.262 N 
ATOM      9  H11 UNL     1     -22.722  35.266  -9.049  1.00  0.00     0.190 HD
ENDROOT
BRANCH   7  10
HETATM   10  C4  UNL     1     -21.679  36.721 -11.186  1.00  0.00     0.125 C 
HETATM   11  C5  UNL     1     -21.333  38.196 -11.006  1.00  0.00     0.029 C 
HETATM   12  C6  UNL     1     -19.956  38.493 -11.549  1.00  0.00     0.009 C 
HETATM   13  C7  UNL     1     -19.202  37.222 -11.692  1.00  0.00     0.010 C 
HETATM   14  C14 UNL     1     -19.339  36.457 -10.391  1.00  0.00     0.018 C 
HETATM   15  C16 UNL     1     -20.725  35.858 -10.359  1.00  0.00     0.035 C 
BRANCH  13  16
HETATM   16  C8  UNL     1     -17.754  37.415 -12.076  1.00  0.00     0.136 C 
BRANCH  16  17
HETATM   17  N4  UNL     1     -17.514  37.267 -13.470  1.00  0.00    -0.327 N 
HETATM   18  C9  UNL     1     -16.985  36.193 -14.072  1.00  0.00     0.185 A 
HETATM   19  N5  UNL     1     -16.921  36.440 -15.392  1.00  0.00    -0.346 N 
HETATM   20  C10 UNL     1     -17.399  37.653 -15.653  1.00  0.00     0.123 A 
ATOM     21  H5  UNL     1     -16.559  35.792 -16.091  1.00  0.00     0.167 HD
HETATM   22  C11 UNL     1     -17.544  38.358 -16.842  1.00  0.00     0.145 A 
HETATM   23  C13 UNL     1     -17.779  38.186 -14.430  1.00  0.00     0.155 A 
HETATM   24  N7  UNL     1     -18.076  39.586 -16.731  1.00  0.00    -0.175 N 
HETATM   25  C12 UNL     1     -18.459  40.141 -15.558  1.00  0.00     0.679 A 
ATOM     26  H7  UNL     1     -18.197  40.134 -17.584  1.00  0.00     0.186 HD
HETATM   27  N9  UNL     1     -18.299  39.421 -14.432  1.00  0.00    -0.174 N 
ATOM     28  H9  UNL     1     -18.586  39.833 -13.543  1.00  0.00     0.186 HD
BRANCH  22  29
HETATM   29  N6  UNL     1     -17.184  37.846 -17.972  1.00  0.00    -0.383 N 
ATOM     30  H62 UNL     1     -16.259  37.448 -18.132  1.00  0.00     0.157 HD
ATOM     31  H61 UNL     1     -17.823  37.818 -18.767  1.00  0.00     0.157 HD
ENDBRANCH  22  29
BRANCH  25  32
HETATM   32  N8  UNL     1     -18.972  41.348 -15.521  1.00  0.00    -0.234 N 
ATOM     33  H82 UNL     1     -18.406  42.166 -15.747  1.00  0.00     0.174 HD
ATOM     34  H81 UNL     1     -19.949  41.494 -15.264  1.00  0.00     0.174 HD
ENDBRANCH  25  32
ENDBRANCH  16  17
ENDBRANCH  13  16
BRANCH  14  35
HETATM   35  C15 UNL     1     -18.239  35.461 -10.278  1.00  0.00     0.234 C 
BRANCH  35  36
HETATM   36  N10 UNL     1     -18.576  34.430  -9.295  1.00  0.00    -0.079 N 
ATOM     37 3H10 UNL     1     -19.479  33.998  -9.493  1.00  0.00     0.274 HD
ATOM     38 2H10 UNL     1     -17.986  33.604  -9.394  1.00  0.00     0.274 HD
ATOM     39 1H10 UNL     1     -18.538  34.810  -8.349  1.00  0.00     0.274 HD
ENDBRANCH  35  36
ENDBRANCH  14  35
ENDBRANCH   7  10
TORSDOF 7
ENDMDL
