MODEL 1
REMARK VINA RESULT: -6.604088843      0.000      0.000
REMARK  3 active torsions:
REMARK  status: ('A' for Active; 'I' for Inactive)
REMARK    1  A    between atoms: C6_6  and  C7_7 
REMARK    2  A    between atoms: N1_8  and  N2_10 
REMARK    3  A    between atoms: N2_10  and  O1_12 
ROOT
HETATM    1  C1  UNL     1      22.552  18.140  15.921  1.00  0.00     0.010 C 
HETATM    2  C2  UNL     1      22.437  17.772  14.434  1.00  0.00    -0.019 C 
HETATM    3  C3  UNL     1      20.984  17.562  14.157  1.00  0.00     0.004 C 
HETATM    4  C4  UNL     1      20.617  17.661  12.710  1.00  0.00     0.001 C 
HETATM    5  C5  UNL     1      21.399  16.731  11.831  1.00  0.00     0.010 C 
HETATM    6  C6  UNL     1      22.866  17.043  11.801  1.00  0.00     0.025 C 
HETATM    7  C9  UNL     1      23.557  16.199  12.825  1.00  0.00     0.010 C 
HETATM    8  C10 UNL     1      23.191  16.497  14.232  1.00  0.00     0.005 C 
ENDROOT
BRANCH   6   9
HETATM    9  C7  UNL     1      23.462  16.688  10.467  1.00  0.00     0.086 C 
HETATM   10  N1  UNL     1      24.124  17.550   9.782  1.00  0.00    -0.294 N 
ATOM     11  H1  UNL     1      24.264  18.501  10.123  1.00  0.00     0.187 HD
BRANCH  10  12
HETATM   12  N2  UNL     1      24.643  17.140   8.554  1.00  0.00    -0.207 N 
HETATM   13  C8  UNL     1      25.731  16.195   8.538  1.00  0.00     0.207 C 
BRANCH  12  14
HETATM   14  O1  UNL     1      24.146  17.612   7.401  1.00  0.00    -0.273 OA
ATOM     15  H1  UNL     1      24.562  17.412   6.570  1.00  0.00     0.246 HD
ENDBRANCH  12  14
ENDBRANCH  10  12
ENDBRANCH   6   9
TORSDOF 3
ENDMDL
MODEL 2
REMARK VINA RESULT: -6.216389969      1.082      1.082
REMARK  3 active torsions:
REMARK  status: ('A' for Active; 'I' for Inactive)
REMARK    1  A    between atoms: C6_6  and  C7_7 
REMARK    2  A    between atoms: N1_8  and  N2_10 
REMARK    3  A    between atoms: N2_10  and  O1_12 
ROOT
HETATM    1  C1  UNL     1      22.769  17.795  16.477  1.00  0.00     0.010 C 
HETATM    2  C2  UNL     1      22.597  17.549  14.970  1.00  0.00    -0.019 C 
HETATM    3  C3  UNL     1      21.130  17.603  14.694  1.00  0.00     0.004 C 
HETATM    4  C4  UNL     1      20.787  17.856  13.260  1.00  0.00     0.001 C 
HETATM    5  C5  UNL     1      21.403  16.868  12.315  1.00  0.00     0.010 C 
HETATM    6  C6  UNL     1      22.902  16.932  12.291  1.00  0.00     0.025 C 
HETATM    7  C9  UNL     1      23.440  15.920  13.252  1.00  0.00     0.010 C 
HETATM    8  C10 UNL     1      23.128  16.183  14.679  1.00  0.00     0.005 C 
ENDROOT
BRANCH   6   9
HETATM    9  C7  UNL     1      23.432  16.571  10.932  1.00  0.00     0.086 C 
HETATM   10  N1  UNL     1      24.234  17.351  10.300  1.00  0.00    -0.294 N 
ATOM     11  H1  UNL     1      24.535  18.238  10.702  1.00  0.00     0.187 HD
BRANCH  10  12
HETATM   12  N2  UNL     1      24.679  16.941   9.044  1.00  0.00    -0.207 N 
HETATM   13  C8  UNL     1      24.334  17.731   7.889  1.00  0.00     0.207 C 
BRANCH  12  14
HETATM   14  O1  UNL     1      25.415  15.828   8.901  1.00  0.00    -0.273 OA
ATOM     15  H1  UNL     1      25.375  15.313   8.103  1.00  0.00     0.246 HD
ENDBRANCH  12  14
ENDBRANCH  10  12
ENDBRANCH   6   9
TORSDOF 3
ENDMDL
MODEL 3
REMARK VINA RESULT: -6.080691017      4.255      6.145
REMARK  3 active torsions:
REMARK  status: ('A' for Active; 'I' for Inactive)
REMARK    1  A    between atoms: C6_6  and  C7_7 
REMARK    2  A    between atoms: N1_8  and  N2_10 
REMARK    3  A    between atoms: N2_10  and  O1_12 
ROOT
HETATM    1  C1  UNL     1      22.371  17.802   9.055  1.00  0.00     0.010 C 
HETATM    2  C2  UNL     1      22.433  17.558  10.570  1.00  0.00    -0.019 C 
HETATM    3  C3  UNL     1      23.417  16.454  10.784  1.00  0.00     0.004 C 
HETATM    4  C4  UNL     1      23.966  16.386  12.174  1.00  0.00     0.001 C 
HETATM    5  C5  UNL     1      22.906  16.277  13.230  1.00  0.00     0.010 C 
HETATM    6  C6  UNL     1      22.023  17.488  13.305  1.00  0.00     0.025 C 
HETATM    7  C9  UNL     1      20.809  17.248  12.464  1.00  0.00     0.010 C 
HETATM    8  C10 UNL     1      21.071  17.127  11.008  1.00  0.00     0.005 C 
ENDROOT
BRANCH   6   9
HETATM    9  C7  UNL     1      21.543  17.715  14.711  1.00  0.00     0.086 C 
HETATM   10  N1  UNL     1      22.087  17.113  15.707  1.00  0.00    -0.294 N 
ATOM     11  H1  UNL     1      22.861  16.464  15.573  1.00  0.00     0.187 HD
BRANCH  10  12
HETATM   12  N2  UNL     1      21.581  17.380  16.979  1.00  0.00    -0.207 N 
HETATM   13  C8  UNL     1      21.178  18.725  17.301  1.00  0.00     0.207 C 
BRANCH  12  14
HETATM   14  O1  UNL     1      21.470  16.407  17.897  1.00  0.00    -0.273 OA
ATOM     15  H1  UNL     1      22.199  15.828  18.087  1.00  0.00     0.246 HD
ENDBRANCH  12  14
ENDBRANCH  10  12
ENDBRANCH   6   9
TORSDOF 3
ENDMDL
MODEL 4
REMARK VINA RESULT: -5.945554793      4.162      6.053
REMARK  3 active torsions:
REMARK  status: ('A' for Active; 'I' for Inactive)
REMARK    1  A    between atoms: C6_6  and  C7_7 
REMARK    2  A    between atoms: N1_8  and  N2_10 
REMARK    3  A    between atoms: N2_10  and  O1_12 
ROOT
HETATM    1  C1  UNL     1      22.296  17.875   9.176  1.00  0.00     0.010 C 
HETATM    2  C2  UNL     1      22.439  17.565  10.674  1.00  0.00    -0.019 C 
HETATM    3  C3  UNL     1      23.442  16.464  10.788  1.00  0.00     0.004 C 
HETATM    4  C4  UNL     1      24.062  16.341  12.144  1.00  0.00     0.001 C 
HETATM    5  C5  UNL     1      23.059  16.174  13.247  1.00  0.00     0.010 C 
HETATM    6  C6  UNL     1      22.170  17.371  13.420  1.00  0.00     0.025 C 
HETATM    7  C9  UNL     1      20.917  17.155  12.632  1.00  0.00     0.010 C 
HETATM    8  C10 UNL     1      21.104  17.101  11.161  1.00  0.00     0.005 C 
ENDROOT
BRANCH   6   9
HETATM    9  C7  UNL     1      21.761  17.531  14.857  1.00  0.00     0.086 C 
HETATM   10  N1  UNL     1      22.552  18.060  15.721  1.00  0.00    -0.294 N 
ATOM     11  H1  UNL     1      23.481  18.387  15.456  1.00  0.00     0.187 HD
BRANCH  10  12
HETATM   12  N2  UNL     1      22.095  18.171  17.034  1.00  0.00    -0.207 N 
HETATM   13  C8  UNL     1      21.900  16.972  17.808  1.00  0.00     0.207 C 
BRANCH  12  14
HETATM   14  O1  UNL     1      21.836  19.371  17.576  1.00  0.00    -0.273 OA
ATOM     15  H1  UNL     1      21.676  19.463  18.509  1.00  0.00     0.246 HD
ENDBRANCH  12  14
ENDBRANCH  10  12
ENDBRANCH   6   9
TORSDOF 3
ENDMDL
MODEL 5
REMARK VINA RESULT: -5.589669141      2.209      3.119
REMARK  3 active torsions:
REMARK  status: ('A' for Active; 'I' for Inactive)
REMARK    1  A    between atoms: C6_6  and  C7_7 
REMARK    2  A    between atoms: N1_8  and  N2_10 
REMARK    3  A    between atoms: N2_10  and  O1_12 
ROOT
HETATM    1  C1  UNL     1      21.541  17.182  17.924  1.00  0.00     0.010 C 
HETATM    2  C2  UNL     1      21.755  17.015  16.412  1.00  0.00    -0.019 C 
HETATM    3  C3  UNL     1      23.097  16.383  16.238  1.00  0.00     0.004 C 
HETATM    4  C4  UNL     1      23.292  15.718  14.912  1.00  0.00     0.001 C 
HETATM    5  C5  UNL     1      23.050  16.629  13.746  1.00  0.00     0.010 C 
HETATM    6  C6  UNL     1      21.628  17.099  13.650  1.00  0.00     0.025 C 
HETATM    7  C9  UNL     1      21.513  18.420  14.342  1.00  0.00     0.010 C 
HETATM    8  C10 UNL     1      21.744  18.382  15.808  1.00  0.00     0.005 C 
ENDROOT
BRANCH   6   9
HETATM    9  C7  UNL     1      21.231  17.319  12.218  1.00  0.00     0.086 C 
HETATM   10  N1  UNL     1      22.102  17.293  11.273  1.00  0.00    -0.294 N 
ATOM     11  H1  UNL     1      23.087  17.121  11.467  1.00  0.00     0.187 HD
BRANCH  10  12
HETATM   12  N2  UNL     1      21.650  17.507   9.971  1.00  0.00    -0.207 N 
HETATM   13  C8  UNL     1      22.573  18.010   8.986  1.00  0.00     0.207 C 
BRANCH  12  14
HETATM   14  O1  UNL     1      20.376  17.255   9.631  1.00  0.00    -0.273 OA
ATOM     15  H1  UNL     1      20.119  16.407   9.289  1.00  0.00     0.246 HD
ENDBRANCH  12  14
ENDBRANCH  10  12
ENDBRANCH   6   9
TORSDOF 3
ENDMDL
