MODEL 1
REMARK VINA RESULT: -7.712535512      0.000      0.000
REMARK  20 active torsions:
REMARK  status: ('A' for Active; 'I' for Inactive)
REMARK    1  A    between atoms: O1_2  and  C2_3 
REMARK    2  A    between atoms: C2_3  and  C3_5 
REMARK    3  A    between atoms: C3_5  and  O3_6 
REMARK    4  A    between atoms: C5_9  and  O4_10 
REMARK    5  A    between atoms: O4_10  and  C6_11 
REMARK    6  A    between atoms: C6_11  and  O5_12 
REMARK    7  A    between atoms: O5_12  and  C7_13 
REMARK    8  A    between atoms: C7_13  and  C8_15 
REMARK    9  A    between atoms: C10_18  and  C11_19 
REMARK   10  A    between atoms: C11_19  and  N1_20 
REMARK   11  A    between atoms: C11_19  and  C12_24 
REMARK   12  A    between atoms: C12_24  and  O7_25 
REMARK   13  A    between atoms: C12_24  and  O8_27 
REMARK   14  A    between atoms: C12_24  and  C13_29 
REMARK   15  A    between atoms: C15_33  and  O11_34 
REMARK   16  A    between atoms: C15_33  and  C16_36 
REMARK   17  A    between atoms: C17_39  and  N2_40 
REMARK   18  A    between atoms: C17_39  and  C18_44 
REMARK   19  A    between atoms: C18_44  and  O14_45 
REMARK   20  A    between atoms: C19_47  and  O15_48 
ROOT
HETATM    1  C3  UNL     1      33.362  -5.590   1.051  1.00  0.00     0.176 C 
HETATM    2  C4  UNL     1      32.215  -5.155   1.874  1.00  0.00     0.087 C 
HETATM    3  C5  UNL     1      31.198  -4.278   1.164  1.00  0.00     0.175 C 
HETATM    4  C15 UNL     1      31.793  -3.584  -0.030  1.00  0.00     0.210 C 
HETATM    5  C17 UNL     1      32.393  -4.510  -1.029  1.00  0.00     0.216 C 
HETATM    6  C19 UNL     1      33.138  -5.667  -0.412  1.00  0.00     0.204 C 
ENDROOT
BRANCH   3   7
HETATM    7  O4  UNL     1      30.687  -3.317   2.020  1.00  0.00    -0.357 OA
BRANCH   7   8
HETATM    8  C6  UNL     1      29.630  -3.712   2.795  1.00  0.00     0.348 C 
BRANCH   8   9
HETATM    9  O5  UNL     1      29.725  -2.968   4.020  1.00  0.00    -0.292 OA
BRANCH   9  10
HETATM   10  C7  UNL     1      29.099  -1.741   4.126  1.00  0.00     0.295 C 
HETATM   11  O6  UNL     1      28.454  -1.323   3.150  1.00  0.00    -0.259 OA
BRANCH  10  12
HETATM   12  C8  UNL     1      29.167  -0.905   5.358  1.00  0.00     0.047 A 
HETATM   13  C9  UNL     1      29.935  -1.270   6.430  1.00  0.00     0.067 A 
HETATM   14  S1  UNL     1      29.673  -0.019   7.549  1.00  0.00    -0.103 SA
HETATM   15  C10 UNL     1      28.605   0.942   6.656  1.00  0.00     0.020 A 
HETATM   16  C14 UNL     1      28.472   0.251   5.477  1.00  0.00     0.035 A 
BRANCH  15  17
HETATM   17  C11 UNL     1      27.898   2.259   6.973  1.00  0.00     0.296 C 
BRANCH  17  18
HETATM   18  N1  UNL     1      26.582   2.088   6.311  1.00  0.00    -0.065 N 
ATOM     19  H13 UNL     1      26.320   1.121   6.124  1.00  0.00     0.275 HD
ATOM     20  H12 UNL     1      25.776   2.299   6.899  1.00  0.00     0.275 HD
ATOM     21  H11 UNL     1      26.672   2.675   5.482  1.00  0.00     0.275 HD
ENDBRANCH  17  18
BRANCH  17  22
HETATM   22  C12 UNL     1      27.745   2.384   8.444  1.00  0.00     0.285 C 
BRANCH  22  23
HETATM   23  O7  UNL     1      26.453   2.938   8.697  1.00  0.00    -0.355 OA
ATOM     24  H7  UNL     1      26.407   3.776   8.252  1.00  0.00     0.213 HD
ENDBRANCH  22  23
BRANCH  22  25
HETATM   25  O8  UNL     1      27.859   1.247   9.185  1.00  0.00    -0.355 OA
ATOM     26  H8  UNL     1      28.542   1.222   9.845  1.00  0.00     0.213 HD
ENDBRANCH  22  25
BRANCH  22  27
HETATM   27  C13 UNL     1      28.689   3.441   8.942  1.00  0.00     0.241 C 
HETATM   28  O9  UNL     1      28.365   4.133   9.971  1.00  0.00    -0.644 OA
HETATM   29  O10 UNL     1      29.883   3.710   8.358  1.00  0.00    -0.644 OA
ENDBRANCH  22  27
ENDBRANCH  17  22
ENDBRANCH  15  17
ENDBRANCH  10  12
ENDBRANCH   9  10
ENDBRANCH   8   9
ENDBRANCH   7   8
ENDBRANCH   3   7
BRANCH   4  30
HETATM   30  O11 UNL     1      32.832  -2.698   0.406  1.00  0.00    -0.374 OA
ATOM     31  H11 UNL     1      32.478  -1.821   0.502  1.00  0.00     0.211 HD
ENDBRANCH   4  30
BRANCH   4  32
HETATM   32  C16 UNL     1      30.792  -2.693  -0.648  1.00  0.00     0.214 C 
HETATM   33  O12 UNL     1      29.553  -2.759  -0.453  1.00  0.00    -0.646 OA
HETATM   34  O13 UNL     1      31.166  -1.662  -1.540  1.00  0.00    -0.646 OA
ENDBRANCH   4  32
BRANCH   1  35
HETATM   35  C2  UNL     1      33.703  -6.991   1.504  1.00  0.00     0.296 C 
HETATM   36  O2  UNL     1      32.932  -7.588   2.298  1.00  0.00    -0.262 OA
BRANCH  35  37
HETATM   37  O1  UNL     1      34.840  -7.657   1.082  1.00  0.00    -0.324 OA
HETATM   38  C1  UNL     1      34.774  -9.054   0.871  1.00  0.00     0.213 C 
ENDBRANCH  35  37
ENDBRANCH   1  35
BRANCH   1  39
HETATM   39  O3  UNL     1      34.492  -4.822   1.376  1.00  0.00    -0.377 OA
ATOM     40  H3  UNL     1      34.649  -4.284   0.608  1.00  0.00     0.211 HD
ENDBRANCH   1  39
BRANCH   5  41
HETATM   41  N2  UNL     1      33.387  -3.699  -1.765  1.00  0.00    -0.062 N 
ATOM     42  H23 UNL     1      33.483  -3.958  -2.747  1.00  0.00     0.275 HD
ATOM     43  H22 UNL     1      33.095  -2.735  -1.925  1.00  0.00     0.275 HD
ATOM     44  H21 UNL     1      34.252  -3.783  -1.231  1.00  0.00     0.275 HD
ENDBRANCH   5  41
BRANCH   5  45
HETATM   45  C18 UNL     1      31.433  -4.974  -2.096  1.00  0.00     0.209 C 
BRANCH  45  46
HETATM   46  O14 UNL     1      32.036  -5.393  -3.264  1.00  0.00    -0.398 OA
ATOM     47  H14 UNL     1      31.672  -6.190  -3.631  1.00  0.00     0.209 HD
ENDBRANCH  45  46
ENDBRANCH   5  45
BRANCH   6  48
HETATM   48  O15 UNL     1      32.450  -6.860  -0.733  1.00  0.00    -0.389 OA
ATOM     49  H15 UNL     1      32.621  -7.101  -1.637  1.00  0.00     0.210 HD
ENDBRANCH   6  48
TORSDOF 20
ENDMDL
MODEL 2
REMARK VINA RESULT: -7.503513395      2.189      3.928
REMARK  20 active torsions:
REMARK  status: ('A' for Active; 'I' for Inactive)
REMARK    1  A    between atoms: O1_2  and  C2_3 
REMARK    2  A    between atoms: C2_3  and  C3_5 
REMARK    3  A    between atoms: C3_5  and  O3_6 
REMARK    4  A    between atoms: C5_9  and  O4_10 
REMARK    5  A    between atoms: O4_10  and  C6_11 
REMARK    6  A    between atoms: C6_11  and  O5_12 
REMARK    7  A    between atoms: O5_12  and  C7_13 
REMARK    8  A    between atoms: C7_13  and  C8_15 
REMARK    9  A    between atoms: C10_18  and  C11_19 
REMARK   10  A    between atoms: C11_19  and  N1_20 
REMARK   11  A    between atoms: C11_19  and  C12_24 
REMARK   12  A    between atoms: C12_24  and  O7_25 
REMARK   13  A    between atoms: C12_24  and  O8_27 
REMARK   14  A    between atoms: C12_24  and  C13_29 
REMARK   15  A    between atoms: C15_33  and  O11_34 
REMARK   16  A    between atoms: C15_33  and  C16_36 
REMARK   17  A    between atoms: C17_39  and  N2_40 
REMARK   18  A    between atoms: C17_39  and  C18_44 
REMARK   19  A    between atoms: C18_44  and  O14_45 
REMARK   20  A    between atoms: C19_47  and  O15_48 
ROOT
HETATM    1  C3  UNL     1      32.489  -1.512   0.432  1.00  0.00     0.176 C 
HETATM    2  C4  UNL     1      31.811  -0.912   1.600  1.00  0.00     0.087 C 
HETATM    3  C5  UNL     1      30.789  -1.802   2.288  1.00  0.00     0.175 C 
HETATM    4  C15 UNL     1      30.271  -2.874   1.371  1.00  0.00     0.210 C 
HETATM    5  C17 UNL     1      31.335  -3.741   0.795  1.00  0.00     0.216 C 
HETATM    6  C19 UNL     1      32.585  -2.990   0.407  1.00  0.00     0.204 C 
ENDROOT
BRANCH   3   7
HETATM    7  O4  UNL     1      29.713  -1.059   2.747  1.00  0.00    -0.357 OA
BRANCH   7   8
HETATM    8  C6  UNL     1      29.956  -0.272   3.839  1.00  0.00     0.348 C 
BRANCH   8   9
HETATM    9  O5  UNL     1      29.274  -0.890   4.943  1.00  0.00    -0.292 OA
BRANCH   9  10
HETATM   10  C7  UNL     1      29.722  -0.671   6.232  1.00  0.00     0.295 C 
HETATM   11  O6  UNL     1      30.702  -1.319   6.633  1.00  0.00    -0.259 OA
BRANCH  10  12
HETATM   12  C8  UNL     1      29.077   0.306   7.154  1.00  0.00     0.047 A 
HETATM   13  C9  UNL     1      28.770  -0.023   8.448  1.00  0.00     0.067 A 
HETATM   14  S1  UNL     1      28.066   1.397   9.061  1.00  0.00    -0.103 SA
HETATM   15  C10 UNL     1      28.167   2.380   7.688  1.00  0.00     0.020 A 
HETATM   16  C14 UNL     1      28.761   1.562   6.759  1.00  0.00     0.035 A 
BRANCH  15  17
HETATM   17  C11 UNL     1      27.738   3.822   7.424  1.00  0.00     0.296 C 
BRANCH  17  18
HETATM   18  N1  UNL     1      26.592   3.994   8.349  1.00  0.00    -0.065 N 
ATOM     19  H13 UNL     1      26.000   4.800   8.152  1.00  0.00     0.275 HD
ATOM     20  H12 UNL     1      25.852   3.299   8.248  1.00  0.00     0.275 HD
ATOM     21  H11 UNL     1      27.043   4.008   9.263  1.00  0.00     0.275 HD
ENDBRANCH  17  18
BRANCH  17  22
HETATM   22  C12 UNL     1      28.854   4.732   7.780  1.00  0.00     0.285 C 
BRANCH  22  23
HETATM   23  O7  UNL     1      30.002   3.924   8.043  1.00  0.00    -0.355 OA
ATOM     24  H7  UNL     1      29.717   3.018   8.065  1.00  0.00     0.213 HD
ENDBRANCH  22  23
BRANCH  22  25
HETATM   25  O8  UNL     1      29.213   5.673   6.861  1.00  0.00    -0.355 OA
ATOM     26  H8  UNL     1      30.123   5.946   6.848  1.00  0.00     0.213 HD
ENDBRANCH  22  25
BRANCH  22  27
HETATM   27  C13 UNL     1      28.557   5.370   9.106  1.00  0.00     0.241 C 
HETATM   28  O9  UNL     1      28.791   4.714  10.182  1.00  0.00    -0.644 OA
HETATM   29  O10 UNL     1      28.048   6.620   9.236  1.00  0.00    -0.644 OA
ENDBRANCH  22  27
ENDBRANCH  17  22
ENDBRANCH  15  17
ENDBRANCH  10  12
ENDBRANCH   9  10
ENDBRANCH   8   9
ENDBRANCH   7   8
ENDBRANCH   3   7
BRANCH   4  30
HETATM   30  O11 UNL     1      29.579  -2.265   0.273  1.00  0.00    -0.374 OA
ATOM     31  H11 UNL     1      28.792  -2.763   0.082  1.00  0.00     0.211 HD
ENDBRANCH   4  30
BRANCH   4  32
HETATM   32  C16 UNL     1      29.235  -3.670   2.057  1.00  0.00     0.214 C 
HETATM   33  O12 UNL     1      29.088  -3.738   3.303  1.00  0.00    -0.646 OA
HETATM   34  O13 UNL     1      28.297  -4.444   1.338  1.00  0.00    -0.646 OA
ENDBRANCH   4  32
BRANCH   1  35
HETATM   35  C2  UNL     1      33.909  -0.993   0.452  1.00  0.00     0.296 C 
HETATM   36  O2  UNL     1      34.631  -1.134  -0.567  1.00  0.00    -0.262 OA
BRANCH  35  37
HETATM   37  O1  UNL     1      34.459  -0.363   1.553  1.00  0.00    -0.324 OA
HETATM   38  C1  UNL     1      35.792  -0.665   1.918  1.00  0.00     0.213 C 
ENDBRANCH  35  37
ENDBRANCH   1  35
BRANCH   1  39
HETATM   39  O3  UNL     1      31.934  -0.995  -0.750  1.00  0.00    -0.377 OA
ATOM     40  H3  UNL     1      31.060  -0.712  -0.505  1.00  0.00     0.211 HD
ENDBRANCH   1  39
BRANCH   5  41
HETATM   41  N2  UNL     1      30.758  -4.292  -0.451  1.00  0.00    -0.062 N 
ATOM     42  H23 UNL     1      29.750  -4.157  -0.531  1.00  0.00     0.275 HD
ATOM     43  H22 UNL     1      31.015  -3.773  -1.290  1.00  0.00     0.275 HD
ATOM     44  H21 UNL     1      31.044  -5.271  -0.469  1.00  0.00     0.275 HD
ENDBRANCH   5  41
BRANCH   5  45
HETATM   45  C18 UNL     1      31.655  -4.960   1.624  1.00  0.00     0.209 C 
BRANCH  45  46
HETATM   46  O14 UNL     1      32.219  -6.001   0.915  1.00  0.00    -0.398 OA
ATOM     47  H14 UNL     1      32.814  -6.544   1.420  1.00  0.00     0.209 HD
ENDBRANCH  45  46
ENDBRANCH   5  45
BRANCH   6  48
HETATM   48  O15 UNL     1      33.640  -3.421   1.245  1.00  0.00    -0.389 OA
ATOM     49  H15 UNL     1      33.303  -3.996   1.922  1.00  0.00     0.210 HD
ENDBRANCH   6  48
TORSDOF 20
ENDMDL
MODEL 3
REMARK VINA RESULT: -7.311051787      4.332     12.744
REMARK  20 active torsions:
REMARK  status: ('A' for Active; 'I' for Inactive)
REMARK    1  A    between atoms: O1_2  and  C2_3 
REMARK    2  A    between atoms: C2_3  and  C3_5 
REMARK    3  A    between atoms: C3_5  and  O3_6 
REMARK    4  A    between atoms: C5_9  and  O4_10 
REMARK    5  A    between atoms: O4_10  and  C6_11 
REMARK    6  A    between atoms: C6_11  and  O5_12 
REMARK    7  A    between atoms: O5_12  and  C7_13 
REMARK    8  A    between atoms: C7_13  and  C8_15 
REMARK    9  A    between atoms: C10_18  and  C11_19 
REMARK   10  A    between atoms: C11_19  and  N1_20 
REMARK   11  A    between atoms: C11_19  and  C12_24 
REMARK   12  A    between atoms: C12_24  and  O7_25 
REMARK   13  A    between atoms: C12_24  and  O8_27 
REMARK   14  A    between atoms: C12_24  and  C13_29 
REMARK   15  A    between atoms: C15_33  and  O11_34 
REMARK   16  A    between atoms: C15_33  and  C16_36 
REMARK   17  A    between atoms: C17_39  and  N2_40 
REMARK   18  A    between atoms: C17_39  and  C18_44 
REMARK   19  A    between atoms: C18_44  and  O14_45 
REMARK   20  A    between atoms: C19_47  and  O15_48 
ROOT
HETATM    1  C3  UNL     1      29.477   7.889   9.663  1.00  0.00     0.176 C 
HETATM    2  C4  UNL     1      30.141   6.569   9.673  1.00  0.00     0.087 C 
HETATM    3  C5  UNL     1      31.307   6.419   8.711  1.00  0.00     0.175 C 
HETATM    4  C15 UNL     1      31.232   7.405   7.579  1.00  0.00     0.210 C 
HETATM    5  C17 UNL     1      31.167   8.825   8.021  1.00  0.00     0.216 C 
HETATM    6  C19 UNL     1      30.302   9.043   9.237  1.00  0.00     0.204 C 
ENDROOT
BRANCH   3   7
HETATM    7  O4  UNL     1      31.350   5.141   8.178  1.00  0.00    -0.357 OA
BRANCH   7   8
HETATM    8  C6  UNL     1      30.356   4.293   8.583  1.00  0.00     0.348 C 
BRANCH   8   9
HETATM    9  O5  UNL     1      29.437   4.190   7.483  1.00  0.00    -0.292 OA
BRANCH   9  10
HETATM   10  C7  UNL     1      28.344   3.351   7.581  1.00  0.00     0.295 C 
HETATM   11  O6  UNL     1      27.235   3.854   7.827  1.00  0.00    -0.259 OA
BRANCH  10  12
HETATM   12  C8  UNL     1      28.443   1.874   7.404  1.00  0.00     0.047 A 
HETATM   13  C9  UNL     1      28.770   1.048   8.445  1.00  0.00     0.067 A 
HETATM   14  S1  UNL     1      28.754  -0.499   7.742  1.00  0.00    -0.103 SA
HETATM   15  C10 UNL     1      28.338  -0.086   6.155  1.00  0.00     0.020 A 
HETATM   16  C14 UNL     1      28.218   1.280   6.208  1.00  0.00     0.035 A 
BRANCH  15  17
HETATM   17  C11 UNL     1      28.126  -0.927   4.897  1.00  0.00     0.296 C 
BRANCH  17  18
HETATM   18  N1  UNL     1      28.456   0.027   3.811  1.00  0.00    -0.065 N 
ATOM     19  H13 UNL     1      27.729   0.711   3.606  1.00  0.00     0.275 HD
ATOM     20  H12 UNL     1      29.175   0.712   4.046  1.00  0.00     0.275 HD
ATOM     21  H11 UNL     1      28.692  -0.591   3.035  1.00  0.00     0.275 HD
ENDBRANCH  17  18
BRANCH  17  22
HETATM   22  C12 UNL     1      29.073  -2.069   4.913  1.00  0.00     0.285 C 
BRANCH  22  23
HETATM   23  O7  UNL     1      30.379  -1.543   5.152  1.00  0.00    -0.355 OA
ATOM     24  H7  UNL     1      30.646  -1.819   6.021  1.00  0.00     0.213 HD
ENDBRANCH  22  23
BRANCH  22  25
HETATM   25  O8  UNL     1      28.852  -3.054   5.829  1.00  0.00    -0.355 OA
ATOM     26  H8  UNL     1      29.439  -3.097   6.575  1.00  0.00     0.213 HD
ENDBRANCH  22  25
BRANCH  22  27
HETATM   27  C13 UNL     1      29.168  -2.641   3.528  1.00  0.00     0.241 C 
HETATM   28  O9  UNL     1      30.217  -3.297   3.194  1.00  0.00    -0.644 OA
HETATM   29  O10 UNL     1      28.193  -2.502   2.596  1.00  0.00    -0.644 OA
ENDBRANCH  22  27
ENDBRANCH  17  22
ENDBRANCH  15  17
ENDBRANCH  10  12
ENDBRANCH   9  10
ENDBRANCH   8   9
ENDBRANCH   7   8
ENDBRANCH   3   7
BRANCH   4  30
HETATM   30  O11 UNL     1      30.054   7.147   6.804  1.00  0.00    -0.374 OA
ATOM     31  H11 UNL     1      30.262   6.529   6.112  1.00  0.00     0.211 HD
ENDBRANCH   4  30
BRANCH   4  32
HETATM   32  C16 UNL     1      32.344   7.180   6.637  1.00  0.00     0.214 C 
HETATM   33  O12 UNL     1      32.303   7.420   5.405  1.00  0.00    -0.646 OA
HETATM   34  O13 UNL     1      33.585   6.656   7.065  1.00  0.00    -0.646 OA
ENDBRANCH   4  32
BRANCH   1  35
HETATM   35  C2  UNL     1      29.062   8.166  11.090  1.00  0.00     0.296 C 
HETATM   36  O2  UNL     1      29.620   7.542  12.028  1.00  0.00    -0.262 OA
BRANCH  35  37
HETATM   37  O1  UNL     1      28.082   9.085  11.418  1.00  0.00    -0.324 OA
HETATM   38  C1  UNL     1      27.331   8.891  12.600  1.00  0.00     0.213 C 
ENDBRANCH  35  37
ENDBRANCH   1  35
BRANCH   1  39
HETATM   39  O3  UNL     1      28.272   7.804   8.948  1.00  0.00    -0.377 OA
ATOM     40  H3  UNL     1      28.476   8.147   8.086  1.00  0.00     0.211 HD
ENDBRANCH   1  39
BRANCH   5  41
HETATM   41  N2  UNL     1      30.530   9.553   6.901  1.00  0.00    -0.062 N 
ATOM     42  H23 UNL     1      29.600   9.208   6.662  1.00  0.00     0.275 HD
ATOM     43  H22 UNL     1      30.246  10.504   7.136  1.00  0.00     0.275 HD
ATOM     44  H21 UNL     1      31.198   9.501   6.132  1.00  0.00     0.275 HD
ENDBRANCH   5  41
BRANCH   5  45
HETATM   45  C18 UNL     1      32.514   9.488   8.171  1.00  0.00     0.209 C 
BRANCH  45  46
HETATM   46  O14 UNL     1      32.486  10.865   8.088  1.00  0.00    -0.398 OA
ATOM     47  H14 UNL     1      32.284  11.304   8.906  1.00  0.00     0.209 HD
ENDBRANCH  45  46
ENDBRANCH   5  45
BRANCH   6  48
HETATM   48  O15 UNL     1      31.132   9.464  10.302  1.00  0.00    -0.389 OA
ATOM     49  H15 UNL     1      31.418  10.358  10.158  1.00  0.00     0.210 HD
ENDBRANCH   6  48
TORSDOF 20
ENDMDL
MODEL 4
REMARK VINA RESULT: -7.289840712      5.243      7.429
REMARK  20 active torsions:
REMARK  status: ('A' for Active; 'I' for Inactive)
REMARK    1  A    between atoms: O1_2  and  C2_3 
REMARK    2  A    between atoms: C2_3  and  C3_5 
REMARK    3  A    between atoms: C3_5  and  O3_6 
REMARK    4  A    between atoms: C5_9  and  O4_10 
REMARK    5  A    between atoms: O4_10  and  C6_11 
REMARK    6  A    between atoms: C6_11  and  O5_12 
REMARK    7  A    between atoms: O5_12  and  C7_13 
REMARK    8  A    between atoms: C7_13  and  C8_15 
REMARK    9  A    between atoms: C10_18  and  C11_19 
REMARK   10  A    between atoms: C11_19  and  N1_20 
REMARK   11  A    between atoms: C11_19  and  C12_24 
REMARK   12  A    between atoms: C12_24  and  O7_25 
REMARK   13  A    between atoms: C12_24  and  O8_27 
REMARK   14  A    between atoms: C12_24  and  C13_29 
REMARK   15  A    between atoms: C15_33  and  O11_34 
REMARK   16  A    between atoms: C15_33  and  C16_36 
REMARK   17  A    between atoms: C17_39  and  N2_40 
REMARK   18  A    between atoms: C17_39  and  C18_44 
REMARK   19  A    between atoms: C18_44  and  O14_45 
REMARK   20  A    between atoms: C19_47  and  O15_48 
ROOT
HETATM    1  C3  UNL     1      32.152  -1.909  -0.101  1.00  0.00     0.176 C 
HETATM    2  C4  UNL     1      31.098  -2.777   0.463  1.00  0.00     0.087 C 
HETATM    3  C5  UNL     1      31.376  -4.268   0.394  1.00  0.00     0.175 C 
HETATM    4  C15 UNL     1      32.370  -4.605  -0.683  1.00  0.00     0.210 C 
HETATM    5  C17 UNL     1      33.669  -3.890  -0.549  1.00  0.00     0.216 C 
HETATM    6  C19 UNL     1      33.529  -2.455  -0.107  1.00  0.00     0.204 C 
ENDROOT
BRANCH   3   7
HETATM    7  O4  UNL     1      30.212  -4.981   0.154  1.00  0.00    -0.357 OA
BRANCH   7   8
HETATM    8  C6  UNL     1      29.068  -4.236   0.064  1.00  0.00     0.348 C 
BRANCH   8   9
HETATM    9  O5  UNL     1      28.113  -4.854   0.943  1.00  0.00    -0.292 OA
BRANCH   9  10
HETATM   10  C7  UNL     1      27.033  -5.533   0.411  1.00  0.00     0.295 C 
HETATM   11  O6  UNL     1      27.071  -6.774   0.390  1.00  0.00    -0.259 OA
BRANCH  10  12
HETATM   12  C8  UNL     1      25.833  -4.838  -0.133  1.00  0.00     0.047 A 
HETATM   13  C9  UNL     1      24.802  -5.532  -0.709  1.00  0.00     0.067 A 
HETATM   14  S1  UNL     1      23.708  -4.312  -1.160  1.00  0.00    -0.103 SA
HETATM   15  C10 UNL     1      24.558  -2.953  -0.621  1.00  0.00     0.020 A 
HETATM   16  C14 UNL     1      25.704  -3.490  -0.089  1.00  0.00     0.035 A 
BRANCH  15  17
HETATM   17  C11 UNL     1      24.241  -1.459  -0.664  1.00  0.00     0.296 C 
BRANCH  17  18
HETATM   18  N1  UNL     1      25.029  -0.994  -1.831  1.00  0.00    -0.065 N 
ATOM     19  H13 UNL     1      25.690  -0.245  -1.629  1.00  0.00     0.275 HD
ATOM     20  H12 UNL     1      25.727  -1.657  -2.168  1.00  0.00     0.275 HD
ATOM     21  H11 UNL     1      24.304  -0.754  -2.507  1.00  0.00     0.275 HD
ENDBRANCH  17  18
BRANCH  17  22
HETATM   22  C12 UNL     1      22.786  -1.280  -0.893  1.00  0.00     0.285 C 
BRANCH  22  23
HETATM   23  O7  UNL     1      22.536  -1.516  -2.280  1.00  0.00    -0.355 OA
ATOM     24  H7  UNL     1      21.661  -1.201  -2.471  1.00  0.00     0.213 HD
ENDBRANCH  22  23
BRANCH  22  25
HETATM   25  O8  UNL     1      21.937  -2.071  -0.180  1.00  0.00    -0.355 OA
ATOM     26  H8  UNL     1      21.216  -2.475  -0.650  1.00  0.00     0.213 HD
ENDBRANCH  22  25
BRANCH  22  27
HETATM   27  C13 UNL     1      22.441   0.170  -0.712  1.00  0.00     0.241 C 
HETATM   28  O9  UNL     1      21.309   0.484  -0.198  1.00  0.00    -0.644 OA
HETATM   29  O10 UNL     1      23.269   1.184  -1.066  1.00  0.00    -0.644 OA
ENDBRANCH  22  27
ENDBRANCH  17  22
ENDBRANCH  15  17
ENDBRANCH  10  12
ENDBRANCH   9  10
ENDBRANCH   8   9
ENDBRANCH   7   8
ENDBRANCH   3   7
BRANCH   4  30
HETATM   30  O11 UNL     1      31.822  -4.253  -1.960  1.00  0.00    -0.374 OA
ATOM     31  H11 UNL     1      32.114  -4.880  -2.612  1.00  0.00     0.211 HD
ENDBRANCH   4  30
BRANCH   4  32
HETATM   32  C16 UNL     1      32.559  -6.066  -0.759  1.00  0.00     0.214 C 
HETATM   33  O12 UNL     1      32.618  -6.836   0.232  1.00  0.00    -0.646 OA
HETATM   34  O13 UNL     1      32.694  -6.734  -1.998  1.00  0.00    -0.646 OA
ENDBRANCH   4  32
BRANCH   1  35
HETATM   35  C2  UNL     1      32.189  -0.669   0.764  1.00  0.00     0.296 C 
HETATM   36  O2  UNL     1      31.416  -0.582   1.751  1.00  0.00    -0.262 OA
BRANCH  35  37
HETATM   37  O1  UNL     1      33.045   0.389   0.517  1.00  0.00    -0.324 OA
HETATM   38  C1  UNL     1      33.113   1.445   1.454  1.00  0.00     0.213 C 
ENDBRANCH  35  37
ENDBRANCH   1  35
BRANCH   1  39
HETATM   39  O3  UNL     1      31.756  -1.451  -1.368  1.00  0.00    -0.377 OA
ATOM     40  H3  UNL     1      32.186  -2.034  -1.983  1.00  0.00     0.211 HD
ENDBRANCH   1  39
BRANCH   5  41
HETATM   41  N2  UNL     1      34.246  -3.870  -1.911  1.00  0.00    -0.062 N 
ATOM     42  H23 UNL     1      34.077  -4.725  -2.442  1.00  0.00     0.275 HD
ATOM     43  H22 UNL     1      33.767  -3.236  -2.552  1.00  0.00     0.275 HD
ATOM     44  H21 UNL     1      35.234  -3.655  -1.782  1.00  0.00     0.275 HD
ENDBRANCH   5  41
BRANCH   5  45
HETATM   45  C18 UNL     1      34.697  -4.627   0.274  1.00  0.00     0.209 C 
BRANCH  45  46
HETATM   46  O14 UNL     1      34.295  -4.920   1.561  1.00  0.00    -0.398 OA
ATOM     47  H14 UNL     1      34.922  -4.681   2.234  1.00  0.00     0.209 HD
ENDBRANCH  45  46
ENDBRANCH   5  45
BRANCH   6  48
HETATM   48  O15 UNL     1      34.106  -2.327   1.178  1.00  0.00    -0.389 OA
ATOM     49  H15 UNL     1      34.900  -2.847   1.231  1.00  0.00     0.210 HD
ENDBRANCH   6  48
TORSDOF 20
ENDMDL
MODEL 5
REMARK VINA RESULT: -7.245702067      3.676     11.686
REMARK  20 active torsions:
REMARK  status: ('A' for Active; 'I' for Inactive)
REMARK    1  A    between atoms: O1_2  and  C2_3 
REMARK    2  A    between atoms: C2_3  and  C3_5 
REMARK    3  A    between atoms: C3_5  and  O3_6 
REMARK    4  A    between atoms: C5_9  and  O4_10 
REMARK    5  A    between atoms: O4_10  and  C6_11 
REMARK    6  A    between atoms: C6_11  and  O5_12 
REMARK    7  A    between atoms: O5_12  and  C7_13 
REMARK    8  A    between atoms: C7_13  and  C8_15 
REMARK    9  A    between atoms: C10_18  and  C11_19 
REMARK   10  A    between atoms: C11_19  and  N1_20 
REMARK   11  A    between atoms: C11_19  and  C12_24 
REMARK   12  A    between atoms: C12_24  and  O7_25 
REMARK   13  A    between atoms: C12_24  and  O8_27 
REMARK   14  A    between atoms: C12_24  and  C13_29 
REMARK   15  A    between atoms: C15_33  and  O11_34 
REMARK   16  A    between atoms: C15_33  and  C16_36 
REMARK   17  A    between atoms: C17_39  and  N2_40 
REMARK   18  A    between atoms: C17_39  and  C18_44 
REMARK   19  A    between atoms: C18_44  and  O14_45 
REMARK   20  A    between atoms: C19_47  and  O15_48 
ROOT
HETATM    1  C3  UNL     1      30.938   6.464   6.101  1.00  0.00     0.176 C 
HETATM    2  C4  UNL     1      30.087   5.261   6.205  1.00  0.00     0.087 C 
HETATM    3  C5  UNL     1      29.567   4.949   7.598  1.00  0.00     0.175 C 
HETATM    4  C15 UNL     1      30.421   5.569   8.668  1.00  0.00     0.210 C 
HETATM    5  C17 UNL     1      30.567   7.045   8.542  1.00  0.00     0.216 C 
HETATM    6  C19 UNL     1      30.721   7.520   7.118  1.00  0.00     0.204 C 
ENDROOT
BRANCH   3   7
HETATM    7  O4  UNL     1      29.518   3.581   7.815  1.00  0.00    -0.357 OA
BRANCH   7   8
HETATM    8  C6  UNL     1      28.439   2.932   7.278  1.00  0.00     0.348 C 
BRANCH   8   9
HETATM    9  O5  UNL     1      28.965   1.836   6.513  1.00  0.00    -0.292 OA
BRANCH   9  10
HETATM   10  C7  UNL     1      28.102   1.013   5.814  1.00  0.00     0.295 C 
HETATM   11  O6  UNL     1      26.993   1.465   5.486  1.00  0.00    -0.259 OA
BRANCH  10  12
HETATM   12  C8  UNL     1      28.450  -0.387   5.440  1.00  0.00     0.047 A 
HETATM   13  C9  UNL     1      28.992  -1.258   6.347  1.00  0.00     0.067 A 
HETATM   14  S1  UNL     1      29.202  -2.685   5.448  1.00  0.00    -0.103 SA
HETATM   15  C10 UNL     1      28.608  -2.168   3.951  1.00  0.00     0.020 A 
HETATM   16  C14 UNL     1      28.250  -0.864   4.188  1.00  0.00     0.035 A 
BRANCH  15  17
HETATM   17  C11 UNL     1      28.461  -2.876   2.605  1.00  0.00     0.296 C 
BRANCH  17  18
HETATM   18  N1  UNL     1      27.747  -1.867   1.785  1.00  0.00    -0.065 N 
ATOM     19  H13 UNL     1      27.448  -1.036   2.294  1.00  0.00     0.275 HD
ATOM     20  H12 UNL     1      28.332  -1.369   1.114  1.00  0.00     0.275 HD
ATOM     21  H11 UNL     1      26.990  -2.411   1.372  1.00  0.00     0.275 HD
ENDBRANCH  17  18
BRANCH  17  22
HETATM   22  C12 UNL     1      29.810  -3.155   2.055  1.00  0.00     0.285 C 
BRANCH  22  23
HETATM   23  O7  UNL     1      30.518  -1.916   1.999  1.00  0.00    -0.355 OA
ATOM     24  H7  UNL     1      31.428  -2.113   1.810  1.00  0.00     0.213 HD
ENDBRANCH  22  23
BRANCH  22  25
HETATM   25  O8  UNL     1      30.590  -4.045   2.731  1.00  0.00    -0.355 OA
ATOM     26  H8  UNL     1      31.491  -4.143   2.444  1.00  0.00     0.213 HD
ENDBRANCH  22  25
BRANCH  22  27
HETATM   27  C13 UNL     1      29.675  -3.553   0.614  1.00  0.00     0.241 C 
HETATM   28  O9  UNL     1      29.754  -2.651  -0.294  1.00  0.00    -0.644 OA
HETATM   29  O10 UNL     1      29.470  -4.831   0.209  1.00  0.00    -0.644 OA
ENDBRANCH  22  27
ENDBRANCH  17  22
ENDBRANCH  15  17
ENDBRANCH  10  12
ENDBRANCH   9  10
ENDBRANCH   8   9
ENDBRANCH   7   8
ENDBRANCH   3   7
BRANCH   4  30
HETATM   30  O11 UNL     1      31.738   5.006   8.610  1.00  0.00    -0.374 OA
ATOM     31  H11 UNL     1      31.708   4.106   8.915  1.00  0.00     0.211 HD
ENDBRANCH   4  30
BRANCH   4  32
HETATM   32  C16 UNL     1      29.920   5.186  10.001  1.00  0.00     0.214 C 
HETATM   33  O12 UNL     1      28.765   4.752  10.238  1.00  0.00    -0.646 OA
HETATM   34  O13 UNL     1      30.730   5.282  11.155  1.00  0.00    -0.646 OA
ENDBRANCH   4  32
BRANCH   1  35
HETATM   35  C2  UNL     1      30.625   7.092   4.762  1.00  0.00     0.296 C 
HETATM   36  O2  UNL     1      29.624   6.694   4.113  1.00  0.00    -0.262 OA
BRANCH  35  37
HETATM   37  O1  UNL     1      31.397   8.097   4.209  1.00  0.00    -0.324 OA
HETATM   38  C1  UNL     1      31.444   8.226   2.802  1.00  0.00     0.213 C 
ENDBRANCH  35  37
ENDBRANCH   1  35
BRANCH   1  39
HETATM   39  O3  UNL     1      32.286   6.081   6.012  1.00  0.00    -0.377 OA
ATOM     40  H3  UNL     1      32.376   5.708   5.142  1.00  0.00     0.211 HD
ENDBRANCH   1  39
BRANCH   5  41
HETATM   41  N2  UNL     1      31.825   7.375   9.246  1.00  0.00    -0.062 N 
ATOM     42  H23 UNL     1      32.451   6.578   9.364  1.00  0.00     0.275 HD
ATOM     43  H22 UNL     1      32.467   7.949   8.698  1.00  0.00     0.275 HD
ATOM     44  H21 UNL     1      31.537   7.805  10.125  1.00  0.00     0.275 HD
ENDBRANCH   5  41
BRANCH   5  45
HETATM   45  C18 UNL     1      29.515   7.836   9.279  1.00  0.00     0.209 C 
BRANCH  45  46
HETATM   46  O14 UNL     1      28.216   7.494   8.962  1.00  0.00    -0.398 OA
ATOM     47  H14 UNL     1      27.642   8.234   8.803  1.00  0.00     0.209 HD
ENDBRANCH  45  46
ENDBRANCH   5  45
BRANCH   6  48
HETATM   48  O15 UNL     1      29.584   8.290   6.781  1.00  0.00    -0.389 OA
ATOM     49  H15 UNL     1      29.132   8.564   7.571  1.00  0.00     0.210 HD
ENDBRANCH   6  48
TORSDOF 20
ENDMDL
