MODEL 1
REMARK VINA RESULT: -5.215624636      0.000      0.000
REMARK  5 active torsions:
REMARK  status: ('A' for Active; 'I' for Inactive)
REMARK    1  A    between atoms: N1_1  and  C1_4 
REMARK    2  A    between atoms: C2_7  and  C3_8 
REMARK    3  A    between atoms: C4_13  and  N5_14 
REMARK    4  A    between atoms: N5_14  and  N6_16 
REMARK    5  A    between atoms: N6_16  and  N7_18 
ROOT
HETATM    1  C1  UNL     1      11.746  -3.953   4.780  1.00  0.00     0.692 A 
HETATM    2  N2  UNL     1      12.610  -3.257   4.018  1.00  0.00    -0.171 N 
ATOM      3  H2  UNL     1      12.256  -2.610   3.314  1.00  0.00     0.186 HD
HETATM    4  C2  UNL     1      13.919  -3.408   4.175  1.00  0.00     0.201 A 
HETATM    5  N4  UNL     1      14.343  -4.272   5.114  1.00  0.00    -0.169 N 
ATOM      6  H4  UNL     1      15.346  -4.397   5.242  1.00  0.00     0.186 HD
HETATM    7  C4  UNL     1      13.505  -4.979   5.889  1.00  0.00     0.714 A 
HETATM    8  N8  UNL     1      12.186  -4.819   5.721  1.00  0.00    -0.021 N 
ATOM      9  H8  UNL     1      11.524  -5.342   6.295  1.00  0.00     0.203 HD
ENDROOT
BRANCH   7  10
HETATM   10  N5  UNL     1      14.020  -5.780   6.759  1.00  0.00    -0.117 N 
ATOM     11  H5  UNL     1      14.593  -6.557   6.432  1.00  0.00     0.207 HD
BRANCH  10  12
HETATM   12  N6  UNL     1      13.822  -5.621   8.129  1.00  0.00    -0.235 N 
ATOM     13  H6  UNL     1      14.237  -4.837   8.633  1.00  0.00     0.208 HD
BRANCH  12  14
HETATM   14  N7  UNL     1      13.038  -6.571   8.790  1.00  0.00    -0.330 N 
ATOM     15  H72 UNL     1      12.109  -6.801   8.438  1.00  0.00     0.178 HD
ATOM     16  H71 UNL     1      13.428  -7.015   9.622  1.00  0.00     0.178 HD
ENDBRANCH  12  14
ENDBRANCH  10  12
ENDBRANCH   7  10
BRANCH   4  17
HETATM   17  C3  UNL     1      14.909  -2.679   3.375  1.00  0.00     0.299 C 
HETATM   18  N3  UNL     1      14.928  -1.276   3.291  1.00  0.00    -0.054 NA
HETATM   19  O1  UNL     1      15.783  -3.308   2.730  1.00  0.00    -0.268 OA
ENDBRANCH   4  17
BRANCH   1  20
HETATM   20  N1  UNL     1      10.470  -3.806   4.627  1.00  0.00    -0.234 N 
ATOM     21  H12 UNL     1      10.108  -2.872   4.430  1.00  0.00     0.174 HD
ATOM     22  H11 UNL     1       9.844  -4.608   4.702  1.00  0.00     0.174 HD
ENDBRANCH   1  20
TORSDOF 5
ENDMDL
MODEL 2
REMARK VINA RESULT: -5.153729862      2.125      3.085
REMARK  5 active torsions:
REMARK  status: ('A' for Active; 'I' for Inactive)
REMARK    1  A    between atoms: N1_1  and  C1_4 
REMARK    2  A    between atoms: C2_7  and  C3_8 
REMARK    3  A    between atoms: C4_13  and  N5_14 
REMARK    4  A    between atoms: N5_14  and  N6_16 
REMARK    5  A    between atoms: N6_16  and  N7_18 
ROOT
HETATM    1  C1  UNL     1      14.561  -3.204   3.986  1.00  0.00     0.692 A 
HETATM    2  N2  UNL     1      13.450  -2.713   3.408  1.00  0.00    -0.171 N 
ATOM      3  H2  UNL     1      13.529  -1.995   2.687  1.00  0.00     0.186 HD
HETATM    4  C2  UNL     1      12.252  -3.156   3.767  1.00  0.00     0.201 A 
HETATM    5  N4  UNL     1      12.192  -4.102   4.720  1.00  0.00    -0.169 N 
ATOM      6  H4  UNL     1      11.277  -4.448   5.005  1.00  0.00     0.186 HD
HETATM    7  C4  UNL     1      13.283  -4.611   5.314  1.00  0.00     0.714 A 
HETATM    8  N8  UNL     1      14.487  -4.156   4.944  1.00  0.00    -0.021 N 
ATOM      9  H8  UNL     1      15.334  -4.523   5.377  1.00  0.00     0.203 HD
ENDROOT
BRANCH   7  10
HETATM   10  N5  UNL     1      13.110  -5.516   6.216  1.00  0.00    -0.117 N 
ATOM     11  H5  UNL     1      12.349  -6.185   6.101  1.00  0.00     0.207 HD
BRANCH  10  12
HETATM   12  N6  UNL     1      13.925  -5.613   7.342  1.00  0.00    -0.235 N 
ATOM     13  H6  UNL     1      14.873  -5.236   7.341  1.00  0.00     0.208 HD
BRANCH  12  14
HETATM   14  N7  UNL     1      13.402  -6.245   8.474  1.00  0.00    -0.330 N 
ATOM     15  H72 UNL     1      13.292  -5.726   9.345  1.00  0.00     0.178 HD
ATOM     16  H71 UNL     1      13.140  -7.228   8.393  1.00  0.00     0.178 HD
ENDBRANCH  12  14
ENDBRANCH  10  12
ENDBRANCH   7  10
BRANCH   4  17
HETATM   17  C3  UNL     1      11.005  -2.658   3.172  1.00  0.00     0.299 C 
HETATM   18  N3  UNL     1      10.960  -1.512   2.360  1.00  0.00    -0.054 NA
HETATM   19  O1  UNL     1       9.925  -3.262   3.382  1.00  0.00    -0.268 OA
ENDBRANCH   4  17
BRANCH   1  20
HETATM   20  N1  UNL     1      15.729  -2.772   3.636  1.00  0.00    -0.234 N 
ATOM     21  H12 UNL     1      16.206  -3.235   2.862  1.00  0.00     0.174 HD
ATOM     22  H11 UNL     1      16.159  -1.988   4.126  1.00  0.00     0.174 HD
ENDBRANCH   1  20
TORSDOF 5
ENDMDL
MODEL 3
REMARK VINA RESULT: -4.905169118      2.197      4.284
REMARK  5 active torsions:
REMARK  status: ('A' for Active; 'I' for Inactive)
REMARK    1  A    between atoms: N1_1  and  C1_4 
REMARK    2  A    between atoms: C2_7  and  C3_8 
REMARK    3  A    between atoms: C4_13  and  N5_14 
REMARK    4  A    between atoms: N5_14  and  N6_16 
REMARK    5  A    between atoms: N6_16  and  N7_18 
ROOT
HETATM    1  C1  UNL     1      13.262  -4.702   5.542  1.00  0.00     0.692 A 
HETATM    2  N2  UNL     1      12.142  -4.217   4.974  1.00  0.00    -0.171 N 
ATOM      3  H2  UNL     1      11.230  -4.526   5.309  1.00  0.00     0.186 HD
HETATM    4  C2  UNL     1      12.217  -3.339   3.982  1.00  0.00     0.201 A 
HETATM    5  N4  UNL     1      13.439  -2.958   3.571  1.00  0.00    -0.169 N 
ATOM      6  H4  UNL     1      13.508  -2.285   2.808  1.00  0.00     0.186 HD
HETATM    7  C4  UNL     1      14.573  -3.424   4.118  1.00  0.00     0.714 A 
HETATM    8  N8  UNL     1      14.486  -4.310   5.119  1.00  0.00    -0.021 N 
ATOM      9  H8  UNL     1      15.329  -4.683   5.555  1.00  0.00     0.203 HD
ENDROOT
BRANCH   7  10
HETATM   10  N5  UNL     1      15.692  -2.991   3.647  1.00  0.00    -0.117 N 
ATOM     11  H5  UNL     1      16.342  -3.659   3.232  1.00  0.00     0.207 HD
BRANCH  10  12
HETATM   12  N6  UNL     1      16.045  -1.644   3.682  1.00  0.00    -0.235 N 
ATOM     13  H6  UNL     1      15.335  -0.912   3.660  1.00  0.00     0.208 HD
BRANCH  12  14
HETATM   14  N7  UNL     1      17.405  -1.327   3.748  1.00  0.00    -0.330 N 
ATOM     15  H72 UNL     1      17.927  -1.491   4.609  1.00  0.00     0.178 HD
ATOM     16  H71 UNL     1      17.844  -0.932   2.916  1.00  0.00     0.178 HD
ENDBRANCH  12  14
ENDBRANCH  10  12
ENDBRANCH   7  10
BRANCH   4  17
HETATM   17  C3  UNL     1      11.032  -2.775   3.323  1.00  0.00     0.299 C 
HETATM   18  N3  UNL     1      11.108  -1.692   2.430  1.00  0.00    -0.054 NA
HETATM   19  O1  UNL     1       9.897  -3.260   3.550  1.00  0.00    -0.268 OA
ENDBRANCH   4  17
BRANCH   1  20
HETATM   20  N1  UNL     1      13.190  -5.557   6.509  1.00  0.00    -0.234 N 
ATOM     21  H12 UNL     1      12.349  -6.130   6.589  1.00  0.00     0.174 HD
ATOM     22  H11 UNL     1      13.957  -5.653   7.174  1.00  0.00     0.174 HD
ENDBRANCH   1  20
TORSDOF 5
ENDMDL
MODEL 4
REMARK VINA RESULT: -4.842796491      2.515      4.472
REMARK  5 active torsions:
REMARK  status: ('A' for Active; 'I' for Inactive)
REMARK    1  A    between atoms: N1_1  and  C1_4 
REMARK    2  A    between atoms: C2_7  and  C3_8 
REMARK    3  A    between atoms: C4_13  and  N5_14 
REMARK    4  A    between atoms: N5_14  and  N6_16 
REMARK    5  A    between atoms: N6_16  and  N7_18 
ROOT
HETATM    1  C1  UNL     1      12.049  -2.303   2.990  1.00  0.00     0.692 A 
HETATM    2  N2  UNL     1      11.542  -3.252   3.798  1.00  0.00    -0.171 N 
ATOM      3  H2  UNL     1      10.534  -3.406   3.829  1.00  0.00     0.186 HD
HETATM    4  C2  UNL     1      12.344  -3.990   4.556  1.00  0.00     0.201 A 
HETATM    5  N4  UNL     1      13.665  -3.755   4.486  1.00  0.00    -0.169 N 
ATOM      6  H4  UNL     1      14.290  -4.315   5.064  1.00  0.00     0.186 HD
HETATM    7  C4  UNL     1      14.200  -2.816   3.689  1.00  0.00     0.714 A 
HETATM    8  N8  UNL     1      13.382  -2.077   2.929  1.00  0.00    -0.021 N 
ATOM      9  H8  UNL     1      13.757  -1.356   2.314  1.00  0.00     0.203 HD
ENDROOT
BRANCH   7  10
HETATM   10  N5  UNL     1      15.482  -2.676   3.700  1.00  0.00    -0.117 N 
ATOM     11  H5  UNL     1      15.876  -1.787   4.009  1.00  0.00     0.207 HD
BRANCH  10  12
HETATM   12  N6  UNL     1      16.348  -3.693   3.304  1.00  0.00    -0.235 N 
ATOM     13  H6  UNL     1      16.040  -4.665   3.275  1.00  0.00     0.208 HD
BRANCH  12  14
HETATM   14  N7  UNL     1      17.652  -3.339   2.949  1.00  0.00    -0.330 N 
ATOM     15  H72 UNL     1      17.813  -2.637   2.227  1.00  0.00     0.178 HD
ATOM     16  H71 UNL     1      18.421  -3.803   3.434  1.00  0.00     0.178 HD
ENDBRANCH  12  14
ENDBRANCH  10  12
ENDBRANCH   7  10
BRANCH   4  17
HETATM   17  C3  UNL     1      11.850  -5.039   5.456  1.00  0.00     0.299 C 
HETATM   18  N3  UNL     1      12.601  -5.517   6.544  1.00  0.00    -0.054 NA
HETATM   19  O1  UNL     1      10.716  -5.544   5.270  1.00  0.00    -0.268 OA
ENDBRANCH   4  17
BRANCH   1  20
HETATM   20  N1  UNL     1      11.268  -1.584   2.252  1.00  0.00    -0.234 N 
ATOM     21  H12 UNL     1      10.594  -2.059   1.651  1.00  0.00     0.174 HD
ATOM     22  H11 UNL     1      11.329  -0.566   2.273  1.00  0.00     0.174 HD
ENDBRANCH   1  20
TORSDOF 5
ENDMDL
MODEL 5
REMARK VINA RESULT: -4.798182218      2.181      4.409
REMARK  5 active torsions:
REMARK  status: ('A' for Active; 'I' for Inactive)
REMARK    1  A    between atoms: N1_1  and  C1_4 
REMARK    2  A    between atoms: C2_7  and  C3_8 
REMARK    3  A    between atoms: C4_13  and  N5_14 
REMARK    4  A    between atoms: N5_14  and  N6_16 
REMARK    5  A    between atoms: N6_16  and  N7_18 
ROOT
HETATM    1  C1  UNL     1      13.658  -4.479   5.312  1.00  0.00     0.692 A 
HETATM    2  N2  UNL     1      12.474  -4.066   4.823  1.00  0.00    -0.171 N 
ATOM      3  H2  UNL     1      11.608  -4.435   5.215  1.00  0.00     0.186 HD
HETATM    4  C2  UNL     1      12.425  -3.183   3.833  1.00  0.00     0.201 A 
HETATM    5  N4  UNL     1      13.590  -2.723   3.345  1.00  0.00    -0.169 N 
ATOM      6  H4  UNL     1      13.565  -2.045   2.584  1.00  0.00     0.186 HD
HETATM    7  C4  UNL     1      14.786  -3.116   3.813  1.00  0.00     0.714 A 
HETATM    8  N8  UNL     1      14.822  -4.008   4.811  1.00  0.00    -0.021 N 
ATOM      9  H8  UNL     1      15.715  -4.326   5.188  1.00  0.00     0.203 HD
ENDROOT
BRANCH   7  10
HETATM   10  N5  UNL     1      15.841  -2.610   3.271  1.00  0.00    -0.117 N 
ATOM     11  H5  UNL     1      15.867  -1.607   3.091  1.00  0.00     0.207 HD
BRANCH  10  12
HETATM   12  N6  UNL     1      16.946  -3.384   2.923  1.00  0.00    -0.235 N 
ATOM     13  H6  UNL     1      16.835  -4.267   2.425  1.00  0.00     0.208 HD
BRANCH  12  14
HETATM   14  N7  UNL     1      18.212  -2.910   3.279  1.00  0.00    -0.330 N 
ATOM     15  H72 UNL     1      18.387  -1.907   3.332  1.00  0.00     0.178 HD
ATOM     16  H71 UNL     1      18.939  -3.598   3.480  1.00  0.00     0.178 HD
ENDBRANCH  12  14
ENDBRANCH  10  12
ENDBRANCH   7  10
BRANCH   4  17
HETATM   17  C3  UNL     1      11.166  -2.696   3.259  1.00  0.00     0.299 C 
HETATM   18  N3  UNL     1       9.938  -3.346   3.469  1.00  0.00    -0.054 NA
HETATM   19  O1  UNL     1      11.158  -1.661   2.548  1.00  0.00    -0.268 OA
ENDBRANCH   4  17
BRANCH   1  20
HETATM   20  N1  UNL     1      13.705  -5.340   6.276  1.00  0.00    -0.234 N 
ATOM     21  H12 UNL     1      14.114  -6.256   6.090  1.00  0.00     0.174 HD
ATOM     22  H11 UNL     1      13.340  -5.104   7.199  1.00  0.00     0.174 HD
ENDBRANCH   1  20
TORSDOF 5
ENDMDL
