MODEL 1
REMARK VINA RESULT: -3.840624335      0.000      0.000
REMARK  2 active torsions:
REMARK  status: ('A' for Active; 'I' for Inactive)
REMARK    1  A    between atoms: O1_1  and  C1_3 
REMARK    2  A    between atoms: C1_3  and  C2_4 
ROOT
HETATM    1  C2  UNL     1      21.249   6.499  -2.960  1.00  0.00    -0.018 C 
HETATM    2  C3  UNL     1      19.963   5.906  -2.471  1.00  0.00     0.012 C 
HETATM    3  C4  UNL     1      19.143   6.983  -1.790  1.00  0.00     0.001 C 
HETATM    4  C5  UNL     1      19.272   8.299  -2.478  1.00  0.00     0.005 C 
HETATM    5  C6  UNL     1      20.637   8.490  -3.084  1.00  0.00    -0.013 C 
HETATM    6  C7  UNL     1      21.620   7.750  -2.164  1.00  0.00     0.016 C 
HETATM    7  C8  UNL     1      20.941   7.412  -4.118  1.00  0.00     0.016 C 
ENDROOT
BRANCH   1   8
HETATM    8  C1  UNL     1      22.378   5.526  -3.167  1.00  0.00     0.173 C 
BRANCH   8   9
HETATM    9  O1  UNL     1      21.971   4.213  -3.138  1.00  0.00    -0.400 OA
ATOM     10  H1  UNL     1      22.650   3.618  -2.840  1.00  0.00     0.209 HD
ENDBRANCH   8   9
ENDBRANCH   1   8
TORSDOF 2
ENDMDL
MODEL 2
REMARK VINA RESULT: -3.759164976      1.647      2.966
REMARK  2 active torsions:
REMARK  status: ('A' for Active; 'I' for Inactive)
REMARK    1  A    between atoms: O1_1  and  C1_3 
REMARK    2  A    between atoms: C1_3  and  C2_4 
ROOT
HETATM    1  C2  UNL     1      18.938   6.363  -1.778  1.00  0.00    -0.018 C 
HETATM    2  C3  UNL     1      20.230   5.993  -2.439  1.00  0.00     0.012 C 
HETATM    3  C4  UNL     1      20.731   7.169  -3.252  1.00  0.00     0.001 C 
HETATM    4  C5  UNL     1      20.459   8.469  -2.575  1.00  0.00     0.005 C 
HETATM    5  C6  UNL     1      19.181   8.435  -1.779  1.00  0.00    -0.013 C 
HETATM    6  C7  UNL     1      18.233   7.490  -2.532  1.00  0.00     0.016 C 
HETATM    7  C8  UNL     1      19.231   7.366  -0.694  1.00  0.00     0.016 C 
ENDROOT
BRANCH   1   8
HETATM    8  C1  UNL     1      18.050   5.211  -1.391  1.00  0.00     0.173 C 
BRANCH   8   9
HETATM    9  O1  UNL     1      18.733   4.025  -1.257  1.00  0.00    -0.400 OA
ATOM     10  H1  UNL     1      18.486   3.538  -0.479  1.00  0.00     0.209 HD
ENDBRANCH   8   9
ENDBRANCH   1   8
TORSDOF 2
ENDMDL
MODEL 3
REMARK VINA RESULT: -3.713631277      2.036      2.780
REMARK  2 active torsions:
REMARK  status: ('A' for Active; 'I' for Inactive)
REMARK    1  A    between atoms: O1_1  and  C1_3 
REMARK    2  A    between atoms: C1_3  and  C2_4 
ROOT
HETATM    1  C2  UNL     1      19.935   7.116  -2.029  1.00  0.00    -0.018 C 
HETATM    2  C3  UNL     1      19.845   5.661  -2.374  1.00  0.00     0.012 C 
HETATM    3  C4  UNL     1      18.641   5.057  -1.680  1.00  0.00     0.001 C 
HETATM    4  C5  UNL     1      17.488   6.001  -1.644  1.00  0.00     0.005 C 
HETATM    5  C6  UNL     1      17.934   7.435  -1.533  1.00  0.00    -0.013 C 
HETATM    6  C7  UNL     1      19.229   7.417  -0.708  1.00  0.00     0.016 C 
HETATM    7  C8  UNL     1      18.807   7.838  -2.717  1.00  0.00     0.016 C 
ENDROOT
BRANCH   1   8
HETATM    8  C1  UNL     1      21.300   7.735  -2.170  1.00  0.00     0.173 C 
BRANCH   8   9
HETATM    9  O1  UNL     1      21.342   8.740  -3.108  1.00  0.00    -0.400 OA
ATOM     10  H1  UNL     1      22.208   9.118  -3.212  1.00  0.00     0.209 HD
ENDBRANCH   8   9
ENDBRANCH   1   8
TORSDOF 2
ENDMDL
MODEL 4
REMARK VINA RESULT: -3.658378311      1.995      3.174
REMARK  2 active torsions:
REMARK  status: ('A' for Active; 'I' for Inactive)
REMARK    1  A    between atoms: O1_1  and  C1_3 
REMARK    2  A    between atoms: C1_3  and  C2_4 
ROOT
HETATM    1  C2  UNL     1      20.474   7.417  -2.769  1.00  0.00    -0.018 C 
HETATM    2  C3  UNL     1      20.003   6.072  -2.305  1.00  0.00     0.012 C 
HETATM    3  C4  UNL     1      20.785   4.993  -3.024  1.00  0.00     0.001 C 
HETATM    4  C5  UNL     1      22.212   5.377  -3.222  1.00  0.00     0.005 C 
HETATM    5  C6  UNL     1      22.374   6.860  -3.428  1.00  0.00    -0.013 C 
HETATM    6  C7  UNL     1      21.108   7.332  -4.157  1.00  0.00     0.016 C 
HETATM    7  C8  UNL     1      21.860   7.646  -2.227  1.00  0.00     0.016 C 
ENDROOT
BRANCH   1   8
HETATM    8  C1  UNL     1      19.498   8.547  -2.589  1.00  0.00     0.173 C 
BRANCH   8   9
HETATM    9  O1  UNL     1      18.608   8.334  -1.563  1.00  0.00    -0.400 OA
ATOM     10  H1  UNL     1      17.935   9.003  -1.507  1.00  0.00     0.209 HD
ENDBRANCH   8   9
ENDBRANCH   1   8
TORSDOF 2
ENDMDL
MODEL 5
REMARK VINA RESULT: -3.584917442      1.987      2.381
REMARK  2 active torsions:
REMARK  status: ('A' for Active; 'I' for Inactive)
REMARK    1  A    between atoms: O1_1  and  C1_3 
REMARK    2  A    between atoms: C1_3  and  C2_4 
ROOT
HETATM    1  C2  UNL     1      21.325   7.668  -3.528  1.00  0.00    -0.018 C 
HETATM    2  C3  UNL     1      20.918   6.237  -3.706  1.00  0.00     0.012 C 
HETATM    3  C4  UNL     1      20.106   5.795  -2.507  1.00  0.00     0.001 C 
HETATM    4  C5  UNL     1      19.215   6.881  -2.007  1.00  0.00     0.005 C 
HETATM    5  C6  UNL     1      19.825   8.245  -2.197  1.00  0.00    -0.013 C 
HETATM    6  C7  UNL     1      21.342   8.059  -2.051  1.00  0.00     0.016 C 
HETATM    7  C8  UNL     1      20.098   8.531  -3.669  1.00  0.00     0.016 C 
ENDROOT
BRANCH   1   8
HETATM    8  C1  UNL     1      22.534   8.105  -4.310  1.00  0.00     0.173 C 
BRANCH   8   9
HETATM    9  O1  UNL     1      22.519   9.444  -4.624  1.00  0.00    -0.400 OA
ATOM     10  H1  UNL     1      21.744   9.705  -5.108  1.00  0.00     0.209 HD
ENDBRANCH   8   9
ENDBRANCH   1   8
TORSDOF 2
ENDMDL
