MODEL 1
REMARK VINA RESULT: -4.334228471      0.000      0.000
REMARK  1 active torsions:
REMARK  status: ('A' for Active; 'I' for Inactive)
REMARK    1  A    between atoms: N1_1  and  C1_5 
ROOT
HETATM    1  C1  UNL     1      22.284   7.655  -3.373  1.00  0.00     0.184 C 
HETATM    2  C2  UNL     1      21.235   8.346  -4.251  1.00  0.00     0.033 C 
HETATM    3  C3  UNL     1      19.904   8.092  -3.549  1.00  0.00     0.011 C 
HETATM    4  C4  UNL     1      20.240   7.413  -2.248  1.00  0.00    -0.038 C 
HETATM    5  C5  UNL     1      19.284   7.893  -1.151  1.00  0.00     0.010 C 
HETATM    6  C6  UNL     1      18.044   7.078  -1.517  1.00  0.00     0.001 C 
HETATM    7  C7  UNL     1      18.652   5.685  -1.632  1.00  0.00     0.001 C 
HETATM    8  C8  UNL     1      20.002   5.946  -2.248  1.00  0.00     0.010 C 
HETATM    9  C9  UNL     1      21.647   7.832  -2.000  1.00  0.00     0.042 C 
ENDROOT
BRANCH   1  10
HETATM   10  N1  UNL     1      22.388   6.273  -3.749  1.00  0.00    -0.075 N 
ATOM     11  H13 UNL     1      22.028   6.101  -4.689  1.00  0.00     0.274 HD
ATOM     12  H12 UNL     1      23.354   5.987  -3.908  1.00  0.00     0.274 HD
ATOM     13  H11 UNL     1      21.925   5.694  -3.048  1.00  0.00     0.274 HD
ENDBRANCH   1  10
TORSDOF 1
ENDMDL
MODEL 2
REMARK VINA RESULT: -3.930229858      1.432      2.725
REMARK  1 active torsions:
REMARK  status: ('A' for Active; 'I' for Inactive)
REMARK    1  A    between atoms: N1_1  and  C1_5 
ROOT
HETATM    1  C1  UNL     1      23.326   5.672  -2.992  1.00  0.00     0.184 C 
HETATM    2  C2  UNL     1      23.734   6.738  -1.969  1.00  0.00     0.033 C 
HETATM    3  C3  UNL     1      22.555   7.707  -1.917  1.00  0.00     0.011 C 
HETATM    4  C4  UNL     1      21.477   7.099  -2.774  1.00  0.00    -0.038 C 
HETATM    5  C5  UNL     1      20.104   7.378  -2.155  1.00  0.00     0.010 C 
HETATM    6  C6  UNL     1      19.926   8.838  -2.571  1.00  0.00     0.001 C 
HETATM    7  C7  UNL     1      20.237   8.741  -4.061  1.00  0.00     0.001 C 
HETATM    8  C8  UNL     1      21.344   7.721  -4.117  1.00  0.00     0.010 C 
HETATM    9  C9  UNL     1      21.818   5.650  -2.772  1.00  0.00     0.042 C 
ENDROOT
BRANCH   1  10
HETATM   10  N1  UNL     1      23.676   6.116  -4.312  1.00  0.00    -0.075 N 
ATOM     11  H13 UNL     1      24.470   6.756  -4.305  1.00  0.00     0.274 HD
ATOM     12  H12 UNL     1      24.093   5.371  -4.871  1.00  0.00     0.274 HD
ATOM     13  H11 UNL     1      22.856   6.523  -4.762  1.00  0.00     0.274 HD
ENDBRANCH   1  10
TORSDOF 1
ENDMDL
MODEL 3
REMARK VINA RESULT: -3.929338191      1.473      1.924
REMARK  1 active torsions:
REMARK  status: ('A' for Active; 'I' for Inactive)
REMARK    1  A    between atoms: N1_1  and  C1_5 
ROOT
HETATM    1  C1  UNL     1      23.106   5.548  -3.569  1.00  0.00     0.184 C 
HETATM    2  C2  UNL     1      22.576   6.220  -4.841  1.00  0.00     0.033 C 
HETATM    3  C3  UNL     1      21.436   7.118  -4.368  1.00  0.00     0.011 C 
HETATM    4  C4  UNL     1      21.448   7.051  -2.864  1.00  0.00    -0.038 C 
HETATM    5  C5  UNL     1      21.084   8.420  -2.281  1.00  0.00     0.010 C 
HETATM    6  C6  UNL     1      19.571   8.397  -2.496  1.00  0.00     0.001 C 
HETATM    7  C7  UNL     1      19.227   7.042  -1.888  1.00  0.00     0.001 C 
HETATM    8  C8  UNL     1      20.395   6.178  -2.285  1.00  0.00     0.010 C 
HETATM    9  C9  UNL     1      22.849   6.655  -2.553  1.00  0.00     0.042 C 
ENDROOT
BRANCH   1  10
HETATM   10  N1  UNL     1      22.335   4.368  -3.293  1.00  0.00    -0.075 N 
ATOM     11  H13 UNL     1      22.898   3.630  -2.870  1.00  0.00     0.274 HD
ATOM     12  H12 UNL     1      21.677   4.509  -2.526  1.00  0.00     0.274 HD
ATOM     13  H11 UNL     1      21.871   4.058  -4.147  1.00  0.00     0.274 HD
ENDBRANCH   1  10
TORSDOF 1
ENDMDL
MODEL 4
REMARK VINA RESULT: -3.848925090      1.875      3.734
REMARK  1 active torsions:
REMARK  status: ('A' for Active; 'I' for Inactive)
REMARK    1  A    between atoms: N1_1  and  C1_5 
ROOT
HETATM    1  C1  UNL     1      18.140   6.235  -0.971  1.00  0.00     0.184 C 
HETATM    2  C2  UNL     1      18.934   5.087  -1.605  1.00  0.00     0.033 C 
HETATM    3  C3  UNL     1      20.050   5.768  -2.392  1.00  0.00     0.011 C 
HETATM    4  C4  UNL     1      19.956   7.235  -2.070  1.00  0.00    -0.038 C 
HETATM    5  C5  UNL     1      21.360   7.841  -1.993  1.00  0.00     0.010 C 
HETATM    6  C6  UNL     1      21.672   7.958  -3.485  1.00  0.00     0.001 C 
HETATM    7  C7  UNL     1      20.413   8.666  -3.975  1.00  0.00     0.001 C 
HETATM    8  C8  UNL     1      19.322   8.053  -3.137  1.00  0.00     0.010 C 
HETATM    9  C9  UNL     1      19.257   7.249  -0.755  1.00  0.00     0.042 C 
ENDROOT
BRANCH   1  10
HETATM   10  N1  UNL     1      17.152   6.705  -1.901  1.00  0.00    -0.075 N 
ATOM     11  H13 UNL     1      16.812   7.638  -1.663  1.00  0.00     0.274 HD
ATOM     12  H12 UNL     1      17.555   6.925  -2.812  1.00  0.00     0.274 HD
ATOM     13  H11 UNL     1      16.396   6.024  -1.967  1.00  0.00     0.274 HD
ENDBRANCH   1  10
TORSDOF 1
ENDMDL
MODEL 5
REMARK VINA RESULT: -3.829306924      1.924      3.642
REMARK  1 active torsions:
REMARK  status: ('A' for Active; 'I' for Inactive)
REMARK    1  A    between atoms: N1_1  and  C1_5 
ROOT
HETATM    1  C1  UNL     1      19.675   8.330  -2.826  1.00  0.00     0.184 C 
HETATM    2  C2  UNL     1      20.309   8.554  -4.204  1.00  0.00     0.033 C 
HETATM    3  C3  UNL     1      21.701   7.936  -4.103  1.00  0.00     0.011 C 
HETATM    4  C4  UNL     1      21.763   7.262  -2.758  1.00  0.00    -0.038 C 
HETATM    5  C5  UNL     1      22.576   5.969  -2.863  1.00  0.00     0.010 C 
HETATM    6  C6  UNL     1      23.988   6.553  -2.887  1.00  0.00     0.001 C 
HETATM    7  C7  UNL     1      23.924   7.478  -1.677  1.00  0.00     0.001 C 
HETATM    8  C8  UNL     1      22.521   8.023  -1.730  1.00  0.00     0.010 C 
HETATM    9  C9  UNL     1      20.331   7.010  -2.439  1.00  0.00     0.042 C 
ENDROOT
BRANCH   1  10
HETATM   10  N1  UNL     1      20.050   9.401  -1.947  1.00  0.00    -0.075 N 
ATOM     11  H13 UNL     1      19.306  10.091  -1.841  1.00  0.00     0.274 HD
ATOM     12  H12 UNL     1      20.108   9.099  -0.974  1.00  0.00     0.274 HD
ATOM     13  H11 UNL     1      20.920   9.820  -2.273  1.00  0.00     0.274 HD
ENDBRANCH   1  10
TORSDOF 1
ENDMDL
