MODEL 1
REMARK VINA RESULT: -5.074468390      0.000      0.000
REMARK  0 active torsions:
REMARK  status: ('A' for Active; 'I' for Inactive)
ROOT
HETATM    1  C1  UNL     1      18.708   7.181  -1.052  1.00  0.00     0.000 C 
HETATM    2  C2  UNL     1      18.132   5.863  -1.403  1.00  0.00     0.000 C 
HETATM    3  C3  UNL     1      19.128   4.722  -1.705  1.00  0.00     0.002 C 
HETATM    4  C4  UNL     1      20.219   5.409  -2.393  1.00  0.00     0.020 C 
HETATM    5  C5  UNL     1      21.381   4.866  -3.064  1.00  0.00     0.118 C 
HETATM    6  N1  UNL     1      21.969   6.032  -3.763  1.00  0.00    -0.402 N 
ATOM      7  H1  UNL     1      22.355   5.947  -4.703  1.00  0.00     0.158 HD
HETATM    8  C6  UNL     1      21.975   7.264  -3.079  1.00  0.00     0.055 C 
HETATM    9  C7  UNL     1      20.955   8.297  -3.440  1.00  0.00     0.044 C 
HETATM   10  C8  UNL     1      20.162   8.888  -2.282  1.00  0.00     0.005 C 
HETATM   11  C9  UNL     1      18.793   8.233  -2.109  1.00  0.00     0.000 C 
ENDROOT
TORSDOF 0
ENDMDL
MODEL 2
REMARK VINA RESULT: -4.881978702      1.598      3.170
REMARK  0 active torsions:
REMARK  status: ('A' for Active; 'I' for Inactive)
ROOT
HETATM    1  C1  UNL     1      21.501   7.391  -3.537  1.00  0.00     0.000 C 
HETATM    2  C2  UNL     1      22.230   6.138  -3.237  1.00  0.00     0.000 C 
HETATM    3  C3  UNL     1      21.379   4.860  -3.060  1.00  0.00     0.002 C 
HETATM    4  C4  UNL     1      20.178   5.354  -2.389  1.00  0.00     0.020 C 
HETATM    5  C5  UNL     1      19.068   4.623  -1.816  1.00  0.00     0.118 C 
HETATM    6  N1  UNL     1      18.301   5.655  -1.080  1.00  0.00    -0.402 N 
ATOM      7  H1  UNL     1      17.888   5.457  -0.168  1.00  0.00     0.158 HD
HETATM    8  C6  UNL     1      18.164   6.919  -1.686  1.00  0.00     0.055 C 
HETATM    9  C7  UNL     1      19.023   8.047  -1.209  1.00  0.00     0.044 C 
HETATM   10  C8  UNL     1      19.783   8.812  -2.284  1.00  0.00     0.005 C 
HETATM   11  C9  UNL     1      21.232   8.351  -2.424  1.00  0.00     0.000 C 
ENDROOT
TORSDOF 0
ENDMDL
MODEL 3
REMARK VINA RESULT: -4.503725301      1.603      3.905
REMARK  0 active torsions:
REMARK  status: ('A' for Active; 'I' for Inactive)
ROOT
HETATM    1  C1  UNL     1      20.986   4.979  -2.684  1.00  0.00     0.000 C 
HETATM    2  C2  UNL     1      21.506   5.694  -3.871  1.00  0.00     0.000 C 
HETATM    3  C3  UNL     1      21.747   7.213  -3.722  1.00  0.00     0.002 C 
HETATM    4  C4  UNL     1      20.648   7.638  -2.859  1.00  0.00     0.020 C 
HETATM    5  C5  UNL     1      20.232   8.970  -2.475  1.00  0.00     0.118 C 
HETATM    6  N1  UNL     1      18.930   8.758  -1.799  1.00  0.00    -0.402 N 
ATOM      7  H1  UNL     1      18.150   9.400  -1.939  1.00  0.00     0.158 HD
HETATM    8  C6  UNL     1      18.812   7.637  -0.954  1.00  0.00     0.055 C 
HETATM    9  C7  UNL     1      18.090   6.427  -1.456  1.00  0.00     0.044 C 
HETATM   10  C8  UNL     1      18.827   5.102  -1.319  1.00  0.00     0.005 C 
HETATM   11  C9  UNL     1      19.525   4.677  -2.608  1.00  0.00     0.000 C 
ENDROOT
TORSDOF 0
ENDMDL
MODEL 4
REMARK VINA RESULT: -4.496551736      1.285      3.046
REMARK  0 active torsions:
REMARK  status: ('A' for Active; 'I' for Inactive)
ROOT
HETATM    1  C1  UNL     1      21.012   8.618  -2.375  1.00  0.00     0.000 C 
HETATM    2  C2  UNL     1      19.610   9.019  -2.120  1.00  0.00     0.000 C 
HETATM    3  C3  UNL     1      18.742   8.042  -1.296  1.00  0.00     0.002 C 
HETATM    4  C4  UNL     1      19.208   6.731  -1.743  1.00  0.00     0.020 C 
HETATM    5  C5  UNL     1      18.683   5.413  -1.456  1.00  0.00     0.118 C 
HETATM    6  N1  UNL     1      19.423   4.523  -2.381  1.00  0.00    -0.402 N 
ATOM      7  H1  UNL     1      18.958   3.750  -2.858  1.00  0.00     0.158 HD
HETATM    8  C6  UNL     1      20.793   4.785  -2.577  1.00  0.00     0.055 C 
HETATM    9  C7  UNL     1      21.225   5.482  -3.828  1.00  0.00     0.044 C 
HETATM   10  C8  UNL     1      22.125   6.696  -3.642  1.00  0.00     0.005 C 
HETATM   11  C9  UNL     1      21.358   8.014  -3.697  1.00  0.00     0.000 C 
ENDROOT
TORSDOF 0
ENDMDL
MODEL 5
REMARK VINA RESULT: -4.426520321      1.025      3.048
REMARK  0 active torsions:
REMARK  status: ('A' for Active; 'I' for Inactive)
ROOT
HETATM    1  C1  UNL     1      19.021   8.500  -2.117  1.00  0.00     0.000 C 
HETATM    2  C2  UNL     1      20.418   8.977  -2.001  1.00  0.00     0.000 C 
HETATM    3  C3  UNL     1      21.496   8.180  -2.769  1.00  0.00     0.002 C 
HETATM    4  C4  UNL     1      21.032   6.799  -2.648  1.00  0.00     0.020 C 
HETATM    5  C5  UNL     1      21.687   5.564  -3.025  1.00  0.00     0.118 C 
HETATM    6  N1  UNL     1      20.831   4.509  -2.434  1.00  0.00    -0.402 N 
ATOM      7  H1  UNL     1      21.236   3.680  -1.999  1.00  0.00     0.158 HD
HETATM    8  C6  UNL     1      19.435   4.696  -2.494  1.00  0.00     0.055 C 
HETATM    9  C7  UNL     1      18.713   5.157  -1.268  1.00  0.00     0.044 C 
HETATM   10  C8  UNL     1      17.796   6.359  -1.443  1.00  0.00     0.005 C 
HETATM   11  C9  UNL     1      18.451   7.670  -1.014  1.00  0.00     0.000 C 
ENDROOT
TORSDOF 0
ENDMDL
