MODEL 1
REMARK VINA RESULT: -5.006330325      0.000      0.000
REMARK  1 active torsions:
REMARK  status: ('A' for Active; 'I' for Inactive)
REMARK    1  A    between atoms: N1_1  and  C1_5 
ROOT
HETATM    1  C1  UNL     1      21.673   8.114  -3.987  1.00  0.00     0.124 C 
HETATM    2  C2  UNL     1      21.683   9.123  -2.848  1.00  0.00     0.043 C 
HETATM    3  C3  UNL     1      20.230   9.393  -3.179  1.00  0.00    -0.009 C 
HETATM    4  C4  UNL     1      19.283   8.690  -2.271  1.00  0.00     0.010 C 
HETATM    5  C5  UNL     1      19.580   7.284  -1.969  1.00  0.00    -0.010 C 
HETATM    6  C6  UNL     1      18.315   6.520  -1.572  1.00  0.00     0.005 C 
HETATM    7  C7  UNL     1      18.695   5.079  -1.762  1.00  0.00     0.001 C 
HETATM    8  C8  UNL     1      20.032   5.042  -2.440  1.00  0.00     0.005 C 
HETATM    9  C9  UNL     1      20.077   6.438  -3.083  1.00  0.00    -0.008 C 
HETATM   10  C10 UNL     1      21.499   6.762  -3.409  1.00  0.00     0.043 C 
HETATM   11  C11 UNL     1      20.437   8.766  -4.502  1.00  0.00     0.043 C 
ENDROOT
BRANCH   1  12
HETATM   12  N1  UNL     1      22.788   8.215  -4.888  1.00  0.00    -0.070 N 
ATOM     13  H13 UNL     1      23.441   7.448  -4.730  1.00  0.00     0.275 HD
ATOM     14  H12 UNL     1      22.494   8.002  -5.841  1.00  0.00     0.275 HD
ATOM     15  H11 UNL     1      23.277   9.109  -4.860  1.00  0.00     0.275 HD
ENDBRANCH   1  12
TORSDOF 1
ENDMDL
MODEL 2
REMARK VINA RESULT: -4.980559729      1.163      2.453
REMARK  1 active torsions:
REMARK  status: ('A' for Active; 'I' for Inactive)
REMARK    1  A    between atoms: N1_1  and  C1_5 
ROOT
HETATM    1  C1  UNL     1      21.393   8.664  -2.801  1.00  0.00     0.124 C 
HETATM    2  C2  UNL     1      21.746   7.841  -4.031  1.00  0.00     0.043 C 
HETATM    3  C3  UNL     1      22.208   6.759  -3.079  1.00  0.00    -0.009 C 
HETATM    4  C4  UNL     1      21.207   5.674  -2.897  1.00  0.00     0.010 C 
HETATM    5  C5  UNL     1      19.812   6.088  -2.703  1.00  0.00    -0.010 C 
HETATM    6  C6  UNL     1      19.012   5.023  -1.952  1.00  0.00     0.005 C 
HETATM    7  C7  UNL     1      17.814   5.771  -1.441  1.00  0.00     0.001 C 
HETATM    8  C8  UNL     1      18.037   7.230  -1.705  1.00  0.00     0.005 C 
HETATM    9  C9  UNL     1      19.567   7.275  -1.847  1.00  0.00    -0.008 C 
HETATM   10  C10 UNL     1      19.938   8.537  -2.558  1.00  0.00     0.043 C 
HETATM   11  C11 UNL     1      22.268   7.766  -1.998  1.00  0.00     0.043 C 
ENDROOT
BRANCH   1  12
HETATM   12  N1  UNL     1      21.853  10.025  -2.836  1.00  0.00    -0.070 N 
ATOM     13  H13 UNL     1      21.080  10.665  -2.652  1.00  0.00     0.275 HD
ATOM     14  H12 UNL     1      22.441  10.222  -2.027  1.00  0.00     0.275 HD
ATOM     15  H11 UNL     1      22.334  10.289  -3.696  1.00  0.00     0.275 HD
ENDBRANCH   1  12
TORSDOF 1
ENDMDL
MODEL 3
REMARK VINA RESULT: -4.870221401      0.936      1.114
REMARK  1 active torsions:
REMARK  status: ('A' for Active; 'I' for Inactive)
REMARK    1  A    between atoms: N1_1  and  C1_5 
ROOT
HETATM    1  C1  UNL     1      22.001   6.938  -3.430  1.00  0.00     0.124 C 
HETATM    2  C2  UNL     1      22.215   8.114  -2.488  1.00  0.00     0.043 C 
HETATM    3  C3  UNL     1      21.053   8.785  -3.189  1.00  0.00    -0.009 C 
HETATM    4  C4  UNL     1      19.775   8.679  -2.433  1.00  0.00     0.010 C 
HETATM    5  C5  UNL     1      19.453   7.367  -1.860  1.00  0.00    -0.010 C 
HETATM    6  C6  UNL     1      17.946   7.199  -1.660  1.00  0.00     0.005 C 
HETATM    7  C7  UNL     1      17.767   5.713  -1.534  1.00  0.00     0.001 C 
HETATM    8  C8  UNL     1      19.078   5.062  -1.865  1.00  0.00     0.005 C 
HETATM    9  C9  UNL     1      19.760   6.170  -2.683  1.00  0.00    -0.008 C 
HETATM   10  C10 UNL     1      21.230   5.900  -2.711  1.00  0.00     0.043 C 
HETATM   11  C11 UNL     1      21.214   7.840  -4.314  1.00  0.00     0.043 C 
ENDROOT
BRANCH   1  12
HETATM   12  N1  UNL     1      23.199   6.439  -4.048  1.00  0.00    -0.070 N 
ATOM     13  H13 UNL     1      23.387   5.486  -3.738  1.00  0.00     0.275 HD
ATOM     14  H12 UNL     1      23.043   6.273  -5.042  1.00  0.00     0.275 HD
ATOM     15  H11 UNL     1      24.023   7.025  -3.913  1.00  0.00     0.275 HD
ENDBRANCH   1  12
TORSDOF 1
ENDMDL
MODEL 4
REMARK VINA RESULT: -4.574547123      1.102      2.813
REMARK  1 active torsions:
REMARK  status: ('A' for Active; 'I' for Inactive)
REMARK    1  A    between atoms: N1_1  and  C1_5 
ROOT
HETATM    1  C1  UNL     1      22.490   7.012  -3.731  1.00  0.00     0.124 C 
HETATM    2  C2  UNL     1      22.010   5.831  -4.562  1.00  0.00     0.043 C 
HETATM    3  C3  UNL     1      21.954   5.045  -3.269  1.00  0.00    -0.009 C 
HETATM    4  C4  UNL     1      20.580   4.941  -2.707  1.00  0.00     0.010 C 
HETATM    5  C5  UNL     1      19.776   6.169  -2.699  1.00  0.00    -0.010 C 
HETATM    6  C6  UNL     1      18.699   6.123  -1.614  1.00  0.00     0.005 C 
HETATM    7  C7  UNL     1      18.314   7.564  -1.434  1.00  0.00     0.001 C 
HETATM    8  C8  UNL     1      19.279   8.399  -2.220  1.00  0.00     0.005 C 
HETATM    9  C9  UNL     1      20.469   7.434  -2.350  1.00  0.00    -0.008 C 
HETATM   10  C10 UNL     1      21.334   7.901  -3.476  1.00  0.00     0.043 C 
HETATM   11  C11 UNL     1      22.831   6.056  -2.641  1.00  0.00     0.043 C 
ENDROOT
BRANCH   1  12
HETATM   12  N1  UNL     1      23.635   7.696  -4.266  1.00  0.00    -0.070 N 
ATOM     13  H13 UNL     1      23.475   7.943  -5.243  1.00  0.00     0.275 HD
ATOM     14  H12 UNL     1      23.712   8.628  -3.860  1.00  0.00     0.275 HD
ATOM     15  H11 UNL     1      24.516   7.193  -4.167  1.00  0.00     0.275 HD
ENDBRANCH   1  12
TORSDOF 1
ENDMDL
MODEL 5
REMARK VINA RESULT: -4.564964313      1.774      2.796
REMARK  1 active torsions:
REMARK  status: ('A' for Active; 'I' for Inactive)
REMARK    1  A    between atoms: N1_1  and  C1_5 
ROOT
HETATM    1  C1  UNL     1      22.209   5.114  -3.340  1.00  0.00     0.124 C 
HETATM    2  C2  UNL     1      23.221   5.986  -2.612  1.00  0.00     0.043 C 
HETATM    3  C3  UNL     1      22.835   7.096  -3.566  1.00  0.00    -0.009 C 
HETATM    4  C4  UNL     1      21.880   8.071  -2.973  1.00  0.00     0.010 C 
HETATM    5  C5  UNL     1      20.754   7.513  -2.213  1.00  0.00    -0.010 C 
HETATM    6  C6  UNL     1      19.570   8.480  -2.179  1.00  0.00     0.005 C 
HETATM    7  C7  UNL     1      18.407   7.607  -1.805  1.00  0.00     0.001 C 
HETATM    8  C8  UNL     1      18.873   6.181  -1.841  1.00  0.00     0.005 C 
HETATM    9  C9  UNL     1      20.103   6.295  -2.756  1.00  0.00    -0.008 C 
HETATM   10  C10 UNL     1      20.960   5.088  -2.546  1.00  0.00     0.043 C 
HETATM   11  C11 UNL     1      22.244   6.085  -4.469  1.00  0.00     0.043 C 
ENDROOT
BRANCH   1  12
HETATM   12  N1  UNL     1      22.690   3.808  -3.698  1.00  0.00    -0.070 N 
ATOM     13  H13 UNL     1      22.081   3.386  -4.399  1.00  0.00     0.275 HD
ATOM     14  H12 UNL     1      23.552   3.883  -4.236  1.00  0.00     0.275 HD
ATOM     15  H11 UNL     1      22.818   3.172  -2.911  1.00  0.00     0.275 HD
ENDBRANCH   1  12
TORSDOF 1
ENDMDL
