MODEL 1
REMARK VINA RESULT: -4.639590652      0.000      0.000
REMARK  1 active torsions:
REMARK  status: ('A' for Active; 'I' for Inactive)
REMARK    1  A    between atoms: N1_1  and  C1_5 
ROOT
HETATM    1  C1  UNL     1      11.018  16.562  21.089  1.00  0.00     0.184 C 
HETATM    2  C2  UNL     1       9.857  16.141  21.873  1.00  0.00     0.044 C 
HETATM    3  C3  UNL     1       9.428  14.640  21.745  1.00  0.00     0.082 C 
HETATM    4  C4  UNL     1       9.643  14.338  20.390  1.00  0.00    -0.183 C 
HETATM    5  C5  UNL     1       9.774  13.647  19.175  1.00  0.00     0.080 C 
HETATM    6  C6  UNL     1      10.355  14.713  18.186  1.00  0.00     0.011 C 
HETATM    7  C7  UNL     1      11.322  15.662  18.753  1.00  0.00     0.003 C 
HETATM    8  C8  UNL     1      10.907  16.839  19.596  1.00  0.00     0.033 C 
ENDROOT
BRANCH   1   9
HETATM    9  N1  UNL     1      11.446  17.834  21.729  1.00  0.00    -0.075 N 
ATOM     10  H13 UNL     1      11.190  18.673  21.207  1.00  0.00     0.274 HD
ATOM     11  H12 UNL     1      10.933  18.070  22.578  1.00  0.00     0.274 HD
ATOM     12  H11 UNL     1      12.451  17.719  21.867  1.00  0.00     0.274 HD
ENDBRANCH   1   9
TORSDOF 1
ENDMDL
MODEL 2
REMARK VINA RESULT: -4.437363206      1.638      3.051
REMARK  1 active torsions:
REMARK  status: ('A' for Active; 'I' for Inactive)
REMARK    1  A    between atoms: N1_1  and  C1_5 
ROOT
HETATM    1  C1  UNL     1      10.755  15.872  19.394  1.00  0.00     0.184 C 
HETATM    2  C2  UNL     1      10.778  14.447  19.723  1.00  0.00     0.044 C 
HETATM    3  C3  UNL     1       9.600  13.909  20.605  1.00  0.00     0.082 C 
HETATM    4  C4  UNL     1       9.356  14.948  21.518  1.00  0.00    -0.183 C 
HETATM    5  C5  UNL     1       8.781  15.742  22.523  1.00  0.00     0.080 C 
HETATM    6  C6  UNL     1       9.598  17.076  22.477  1.00  0.00     0.011 C 
HETATM    7  C7  UNL     1      10.017  17.532  21.144  1.00  0.00     0.003 C 
HETATM    8  C8  UNL     1      11.182  16.926  20.407  1.00  0.00     0.033 C 
ENDROOT
BRANCH   1   9
HETATM    9  N1  UNL     1      11.681  15.993  18.236  1.00  0.00    -0.075 N 
ATOM     10  H13 UNL     1      12.393  16.715  18.343  1.00  0.00     0.274 HD
ATOM     11  H12 UNL     1      12.328  15.212  18.135  1.00  0.00     0.274 HD
ATOM     12  H11 UNL     1      11.063  16.131  17.436  1.00  0.00     0.274 HD
ENDBRANCH   1   9
TORSDOF 1
ENDMDL
MODEL 3
REMARK VINA RESULT: -4.325237430      1.240      2.558
REMARK  1 active torsions:
REMARK  status: ('A' for Active; 'I' for Inactive)
REMARK    1  A    between atoms: N1_1  and  C1_5 
ROOT
HETATM    1  C1  UNL     1       9.574  16.198  21.813  1.00  0.00     0.184 C 
HETATM    2  C2  UNL     1      10.626  17.210  21.706  1.00  0.00     0.044 C 
HETATM    3  C3  UNL     1      11.074  17.611  20.260  1.00  0.00     0.082 C 
HETATM    4  C4  UNL     1      11.036  16.404  19.543  1.00  0.00    -0.183 C 
HETATM    5  C5  UNL     1      11.065  15.460  18.505  1.00  0.00     0.080 C 
HETATM    6  C6  UNL     1      10.612  14.124  19.184  1.00  0.00     0.011 C 
HETATM    7  C7  UNL     1       9.577  14.244  20.219  1.00  0.00     0.003 C 
HETATM    8  C8  UNL     1       9.876  14.718  21.617  1.00  0.00     0.033 C 
ENDROOT
BRANCH   1   9
HETATM    9  N1  UNL     1       9.063  16.350  23.200  1.00  0.00    -0.075 N 
ATOM     10  H13 UNL     1       9.791  16.475  23.904  1.00  0.00     0.274 HD
ATOM     11  H12 UNL     1       8.585  17.234  23.376  1.00  0.00     0.274 HD
ATOM     12  H11 UNL     1       8.480  15.525  23.343  1.00  0.00     0.274 HD
ENDBRANCH   1   9
TORSDOF 1
ENDMDL
MODEL 4
REMARK VINA RESULT: -4.317409370      1.665      3.260
REMARK  1 active torsions:
REMARK  status: ('A' for Active; 'I' for Inactive)
REMARK    1  A    between atoms: N1_1  and  C1_5 
ROOT
HETATM    1  C1  UNL     1      11.238  15.859  19.522  1.00  0.00     0.184 C 
HETATM    2  C2  UNL     1      11.206  17.261  19.939  1.00  0.00     0.044 C 
HETATM    3  C3  UNL     1      11.317  17.542  21.476  1.00  0.00     0.082 C 
HETATM    4  C4  UNL     1      10.577  16.505  22.067  1.00  0.00    -0.183 C 
HETATM    5  C5  UNL     1      10.006  15.632  23.006  1.00  0.00     0.080 C 
HETATM    6  C6  UNL     1       9.326  14.520  22.138  1.00  0.00     0.011 C 
HETATM    7  C7  UNL     1      10.038  14.131  20.913  1.00  0.00     0.003 C 
HETATM    8  C8  UNL     1      10.013  14.965  19.659  1.00  0.00     0.033 C 
ENDROOT
BRANCH   1   9
HETATM    9  N1  UNL     1      11.564  15.918  18.073  1.00  0.00    -0.075 N 
ATOM     10  H13 UNL     1      11.216  15.126  17.533  1.00  0.00     0.274 HD
ATOM     11  H12 UNL     1      11.054  16.636  17.558  1.00  0.00     0.274 HD
ATOM     12  H11 UNL     1      12.578  16.027  18.049  1.00  0.00     0.274 HD
ENDBRANCH   1   9
TORSDOF 1
ENDMDL
MODEL 5
REMARK VINA RESULT: -4.244771769      2.063      3.181
REMARK  1 active torsions:
REMARK  status: ('A' for Active; 'I' for Inactive)
REMARK    1  A    between atoms: N1_1  and  C1_5 
ROOT
HETATM    1  C1  UNL     1       9.713  14.491  20.140  1.00  0.00     0.184 C 
HETATM    2  C2  UNL     1       9.376  14.361  21.558  1.00  0.00     0.044 C 
HETATM    3  C3  UNL     1       8.935  15.668  22.300  1.00  0.00     0.082 C 
HETATM    4  C4  UNL     1       9.757  16.666  21.751  1.00  0.00    -0.183 C 
HETATM    5  C5  UNL     1      10.320  17.910  21.425  1.00  0.00     0.080 C 
HETATM    6  C6  UNL     1      11.360  17.582  20.302  1.00  0.00     0.011 C 
HETATM    7  C7  UNL     1      10.976  16.527  19.354  1.00  0.00     0.003 C 
HETATM    8  C8  UNL     1      11.052  15.062  19.693  1.00  0.00     0.033 C 
ENDROOT
BRANCH   1   9
HETATM    9  N1  UNL     1       9.646  13.100  19.621  1.00  0.00    -0.075 N 
ATOM     10  H13 UNL     1       8.699  12.732  19.529  1.00  0.00     0.274 HD
ATOM     11  H12 UNL     1       9.898  13.007  18.637  1.00  0.00     0.274 HD
ATOM     12  H11 UNL     1      10.241  12.568  20.257  1.00  0.00     0.274 HD
ENDBRANCH   1   9
TORSDOF 1
ENDMDL
