MODEL 1
REMARK VINA RESULT: -3.482469200      0.000      0.000
REMARK  1 active torsions:
REMARK  status: ('A' for Active; 'I' for Inactive)
REMARK    1  A    between atoms: N1_1  and  N2_4 
ROOT
HETATM    1  N2  UNL     1      27.362  49.440  50.934  1.00  0.00    -0.293 N 
HETATM    2  C1  UNL     1      26.356  48.446  50.889  1.00  0.00     0.195 C 
HETATM    3  N3  UNL     1      26.666  47.435  51.599  1.00  0.00    -0.383 N 
ATOM      4  H3  UNL     1      26.093  46.599  51.715  1.00  0.00     0.160 HD
HETATM    5  C2  UNL     1      27.950  47.653  52.214  1.00  0.00     0.142 C 
HETATM    6  C3  UNL     1      28.554  48.725  51.341  1.00  0.00     0.168 C 
ENDROOT
BRANCH   1   7
HETATM    7  N1  UNL     1      27.220  50.786  50.648  1.00  0.00    -0.342 N 
ATOM      8  H12 UNL     1      26.444  51.406  50.880  1.00  0.00     0.177 HD
ATOM      9  H11 UNL     1      27.881  51.383  50.152  1.00  0.00     0.177 HD
ENDBRANCH   1   7
TORSDOF 1
ENDMDL
MODEL 2
REMARK VINA RESULT: -3.445888759      0.939      1.681
REMARK  1 active torsions:
REMARK  status: ('A' for Active; 'I' for Inactive)
REMARK    1  A    between atoms: N1_1  and  N2_4 
ROOT
HETATM    1  N2  UNL     1      27.293  49.389  50.942  1.00  0.00    -0.293 N 
HETATM    2  C1  UNL     1      28.386  48.683  51.497  1.00  0.00     0.195 C 
HETATM    3  N3  UNL     1      28.307  47.434  51.253  1.00  0.00    -0.383 N 
ATOM      4  H3  UNL     1      28.982  46.732  51.556  1.00  0.00     0.160 HD
HETATM    5  C2  UNL     1      27.119  47.166  50.485  1.00  0.00     0.142 C 
HETATM    6  C3  UNL     1      26.268  48.381  50.763  1.00  0.00     0.168 C 
ENDROOT
BRANCH   1   7
HETATM    7  N1  UNL     1      27.234  50.739  50.644  1.00  0.00    -0.342 N 
ATOM      8  H12 UNL     1      27.996  51.417  50.620  1.00  0.00     0.177 HD
ATOM      9  H11 UNL     1      26.406  51.280  50.398  1.00  0.00     0.177 HD
ENDBRANCH   1   7
TORSDOF 1
ENDMDL
MODEL 3
REMARK VINA RESULT: -3.324336627      1.063      2.492
REMARK  1 active torsions:
REMARK  status: ('A' for Active; 'I' for Inactive)
REMARK    1  A    between atoms: N1_1  and  N2_4 
ROOT
HETATM    1  N2  UNL     1      27.313  47.260  50.823  1.00  0.00    -0.293 N 
HETATM    2  C1  UNL     1      26.308  48.249  50.702  1.00  0.00     0.195 C 
HETATM    3  N3  UNL     1      26.777  49.417  50.897  1.00  0.00    -0.383 N 
ATOM      4  H3  UNL     1      26.237  50.281  50.862  1.00  0.00     0.160 HD
HETATM    5  C2  UNL     1      28.187  49.331  51.176  1.00  0.00     0.142 C 
HETATM    6  C3  UNL     1      28.348  47.895  51.611  1.00  0.00     0.168 C 
ENDROOT
BRANCH   1   7
HETATM    7  N1  UNL     1      27.292  45.979  50.300  1.00  0.00    -0.342 N 
ATOM      8  H12 UNL     1      27.633  45.658  49.394  1.00  0.00     0.177 HD
ATOM      9  H11 UNL     1      26.927  45.138  50.746  1.00  0.00     0.177 HD
ENDBRANCH   1   7
TORSDOF 1
ENDMDL
MODEL 4
REMARK VINA RESULT: -3.221168483      1.453      2.073
REMARK  1 active torsions:
REMARK  status: ('A' for Active; 'I' for Inactive)
REMARK    1  A    between atoms: N1_1  and  N2_4 
ROOT
HETATM    1  N2  UNL     1      26.341  48.301  51.020  1.00  0.00    -0.293 N 
HETATM    2  C1  UNL     1      27.349  49.290  50.928  1.00  0.00     0.195 C 
HETATM    3  N3  UNL     1      28.480  48.839  51.303  1.00  0.00    -0.383 N 
ATOM      4  H3  UNL     1      29.349  49.373  51.322  1.00  0.00     0.160 HD
HETATM    5  C2  UNL     1      28.345  47.461  51.696  1.00  0.00     0.142 C 
HETATM    6  C3  UNL     1      26.866  47.342  51.970  1.00  0.00     0.168 C 
ENDROOT
BRANCH   1   7
HETATM    7  N1  UNL     1      25.132  48.275  50.348  1.00  0.00    -0.342 N 
ATOM      8  H12 UNL     1      24.424  49.007  50.285  1.00  0.00     0.177 HD
ATOM      9  H11 UNL     1      24.750  47.505  49.798  1.00  0.00     0.177 HD
ENDBRANCH   1   7
TORSDOF 1
ENDMDL
MODEL 5
REMARK VINA RESULT: -3.168395334      1.495      2.660
REMARK  1 active torsions:
REMARK  status: ('A' for Active; 'I' for Inactive)
REMARK    1  A    between atoms: N1_1  and  N2_4 
ROOT
HETATM    1  N2  UNL     1      28.317  47.762  51.494  1.00  0.00    -0.293 N 
HETATM    2  C1  UNL     1      28.143  49.147  51.266  1.00  0.00     0.195 C 
HETATM    3  N3  UNL     1      26.966  49.408  50.855  1.00  0.00    -0.383 N 
ATOM      4  H3  UNL     1      26.615  50.338  50.626  1.00  0.00     0.160 HD
HETATM    5  C2  UNL     1      26.205  48.189  50.765  1.00  0.00     0.142 C 
HETATM    6  C3  UNL     1      27.282  47.135  50.700  1.00  0.00     0.168 C 
ENDROOT
BRANCH   1   7
HETATM    7  N1  UNL     1      29.269  47.161  52.298  1.00  0.00    -0.342 N 
ATOM      8  H12 UNL     1      29.655  47.493  53.183  1.00  0.00     0.177 HD
ATOM      9  H11 UNL     1      29.744  46.274  52.132  1.00  0.00     0.177 HD
ENDBRANCH   1   7
TORSDOF 1
ENDMDL
