MODEL 1
REMARK VINA RESULT: -7.899833555      0.000      0.000
REMARK  6 active torsions:
REMARK  status: ('A' for Active; 'I' for Inactive)
REMARK    1  A    between atoms: C2_2  and  C3_3 
REMARK    2  A    between atoms: C3_3  and  N1_4 
REMARK    3  A    between atoms: N1_4  and  C4_6 
REMARK    4  A    between atoms: C5_9  and  N3_10 
REMARK    5  A    between atoms: C11_20  and  N6_21 
REMARK    6  A    between atoms: N6_21  and  C12_23 
ROOT
HETATM    1  C4  UNL     1      24.695  48.190 -16.557  1.00  0.00     0.707 A 
HETATM    2  N2  UNL     1      24.576  48.009 -15.232  1.00  0.00    -0.021 N 
ATOM      3  H2  UNL     1      25.347  47.569 -14.730  1.00  0.00     0.203 HD
HETATM    4  C5  UNL     1      23.488  48.381 -14.537  1.00  0.00     0.709 A 
HETATM    5  N5  UNL     1      22.486  48.956 -15.219  1.00  0.00    -0.021 N 
ATOM      6  H5  UNL     1      21.646  49.249 -14.721  1.00  0.00     0.203 HD
HETATM    7  C11 UNL     1      22.568  49.155 -16.553  1.00  0.00     0.709 A 
HETATM    8  N8  UNL     1      23.669  48.773 -17.220  1.00  0.00    -0.021 N 
ATOM      9  H8  UNL     1      23.733  48.923 -18.227  1.00  0.00     0.203 HD
ENDROOT
BRANCH   7  10
HETATM   10  N6  UNL     1      21.617  49.701 -17.204  1.00  0.00    -0.196 N 
ATOM     11  H6  UNL     1      20.748  49.176 -17.305  1.00  0.00     0.180 HD
BRANCH  10  12
HETATM   12  C12 UNL     1      21.685  51.010 -17.808  1.00  0.00     0.299 C 
HETATM   13  C13 UNL     1      22.662  51.010 -18.959  1.00  0.00     0.057 C 
HETATM   14  C14 UNL     1      21.818  50.728 -20.178  1.00  0.00     0.031 C 
HETATM   15  C15 UNL     1      20.404  50.942 -19.748  1.00  0.00     0.235 C 
HETATM   16  N7  UNL     1      20.388  51.310 -18.370  1.00  0.00    -0.054 N 
ATOM     17  H72 UNL     1      19.625  50.871 -17.855  1.00  0.00     0.279 HD
ATOM     18  H71 UNL     1      20.111  52.281 -18.224  1.00  0.00     0.279 HD
ENDBRANCH  10  12
ENDBRANCH   7  10
BRANCH   4  19
HETATM   19  N3  UNL     1      23.468  48.142 -13.135  1.00  0.00    -0.215 N 
HETATM   20  C6  UNL     1      22.156  47.980 -12.589  1.00  0.00     0.146 C 
HETATM   21  C7  UNL     1      22.089  47.790 -11.124  1.00  0.00     0.064 C 
HETATM   22  C8  UNL     1      23.044  48.566 -10.300  1.00  0.00     0.057 C 
HETATM   23  N4  UNL     1      23.705  49.644 -10.919  1.00  0.00    -0.401 N 
HETATM   24  C9  UNL     1      24.884  49.349 -11.646  1.00  0.00     0.139 C 
ATOM     25  H4  UNL     1      23.349  50.597 -10.847  1.00  0.00     0.158 HD
HETATM   26  C10 UNL     1      24.749  48.094 -12.463  1.00  0.00     0.160 C 
ENDBRANCH   4  19
BRANCH   1  27
HETATM   27  N1  UNL     1      25.755  47.821 -17.193  1.00  0.00    -0.225 N 
ATOM     28  H1  UNL     1      25.878  46.851 -17.481  1.00  0.00     0.177 HD
BRANCH  27  29
HETATM   29  C3  UNL     1      26.769  48.815 -17.491  1.00  0.00     0.137 C 
BRANCH  29  30
HETATM   30  C2  UNL     1      26.651  49.098 -18.994  1.00  0.00     0.016 C 
HETATM   31  C1  UNL     1      26.557  50.612 -19.119  1.00  0.00     0.006 C 
ENDBRANCH  29  30
ENDBRANCH  27  29
ENDBRANCH   1  27
TORSDOF 6
ENDMDL
MODEL 2
REMARK VINA RESULT: -7.852113880      1.283      3.601
REMARK  6 active torsions:
REMARK  status: ('A' for Active; 'I' for Inactive)
REMARK    1  A    between atoms: C2_2  and  C3_3 
REMARK    2  A    between atoms: C3_3  and  N1_4 
REMARK    3  A    between atoms: N1_4  and  C4_6 
REMARK    4  A    between atoms: C5_9  and  N3_10 
REMARK    5  A    between atoms: C11_20  and  N6_21 
REMARK    6  A    between atoms: N6_21  and  C12_23 
ROOT
HETATM    1  C4  UNL     1      22.439  49.552 -16.842  1.00  0.00     0.707 A 
HETATM    2  N2  UNL     1      22.788  49.255 -15.580  1.00  0.00    -0.021 N 
ATOM      3  H2  UNL     1      22.125  49.457 -14.832  1.00  0.00     0.203 HD
HETATM    4  C5  UNL     1      23.970  48.706 -15.257  1.00  0.00     0.709 A 
HETATM    5  N5  UNL     1      24.827  48.451 -16.257  1.00  0.00    -0.021 N 
ATOM      6  H5  UNL     1      25.734  48.034 -16.046  1.00  0.00     0.203 HD
HETATM    7  C11 UNL     1      24.512  48.735 -17.541  1.00  0.00     0.709 A 
HETATM    8  N8  UNL     1      23.322  49.284 -17.833  1.00  0.00    -0.021 N 
ATOM      9  H8  UNL     1      23.083  49.499 -18.801  1.00  0.00     0.203 HD
ENDROOT
BRANCH   7  10
HETATM   10  N6  UNL     1      25.325  48.494 -18.494  1.00  0.00    -0.196 N 
ATOM     11  H6  UNL     1      25.237  47.600 -18.977  1.00  0.00     0.180 HD
BRANCH  10  12
HETATM   12  C12 UNL     1      26.357  49.399 -18.938  1.00  0.00     0.299 C 
HETATM   13  C13 UNL     1      26.443  49.404 -20.445  1.00  0.00     0.057 C 
HETATM   14  C14 UNL     1      25.557  50.549 -20.875  1.00  0.00     0.031 C 
HETATM   15  C15 UNL     1      25.310  51.352 -19.641  1.00  0.00     0.235 C 
HETATM   16  N7  UNL     1      25.980  50.736 -18.543  1.00  0.00    -0.054 N 
ATOM     17  H72 UNL     1      25.428  50.752 -17.685  1.00  0.00     0.279 HD
ATOM     18  H71 UNL     1      26.771  51.285 -18.206  1.00  0.00     0.279 HD
ENDBRANCH  10  12
ENDBRANCH   7  10
BRANCH   4  19
HETATM   19  N3  UNL     1      24.236  48.432 -13.887  1.00  0.00    -0.215 N 
HETATM   20  C6  UNL     1      23.096  47.992 -13.147  1.00  0.00     0.146 C 
HETATM   21  C7  UNL     1      23.318  47.755 -11.704  1.00  0.00     0.064 C 
HETATM   22  C8  UNL     1      24.227  48.689 -11.000  1.00  0.00     0.057 C 
HETATM   23  N4  UNL     1      24.545  49.895 -11.654  1.00  0.00    -0.401 N 
HETATM   24  C9  UNL     1      25.619  49.866 -12.577  1.00  0.00     0.139 C 
ATOM     25  H4  UNL     1      24.026  50.753 -11.469  1.00  0.00     0.158 HD
HETATM   26  C10 UNL     1      25.597  48.631 -13.435  1.00  0.00     0.160 C 
ENDBRANCH   4  19
BRANCH   1  27
HETATM   27  N1  UNL     1      21.294  50.079 -17.117  1.00  0.00    -0.225 N 
ATOM     28  H1  UNL     1      20.430  49.645 -16.793  1.00  0.00     0.177 HD
BRANCH  27  29
HETATM   29  C3  UNL     1      21.260  51.303 -17.895  1.00  0.00     0.137 C 
BRANCH  29  30
HETATM   30  C2  UNL     1      20.483  50.966 -19.174  1.00  0.00     0.016 C 
HETATM   31  C1  UNL     1      21.535  50.812 -20.263  1.00  0.00     0.006 C 
ENDBRANCH  29  30
ENDBRANCH  27  29
ENDBRANCH   1  27
TORSDOF 6
ENDMDL
MODEL 3
REMARK VINA RESULT: -7.800527747      1.137      3.707
REMARK  6 active torsions:
REMARK  status: ('A' for Active; 'I' for Inactive)
REMARK    1  A    between atoms: C2_2  and  C3_3 
REMARK    2  A    between atoms: C3_3  and  N1_4 
REMARK    3  A    between atoms: N1_4  and  C4_6 
REMARK    4  A    between atoms: C5_9  and  N3_10 
REMARK    5  A    between atoms: C11_20  and  N6_21 
REMARK    6  A    between atoms: N6_21  and  C12_23 
ROOT
HETATM    1  C4  UNL     1      22.135  49.764 -16.643  1.00  0.00     0.707 A 
HETATM    2  N2  UNL     1      22.223  49.195 -15.429  1.00  0.00    -0.021 N 
ATOM      3  H2  UNL     1      21.408  49.226 -14.818  1.00  0.00     0.203 HD
HETATM    4  C5  UNL     1      23.335  48.588 -14.984  1.00  0.00     0.709 A 
HETATM    5  N5  UNL     1      24.396  48.562 -15.806  1.00  0.00    -0.021 N 
ATOM      6  H5  UNL     1      25.256  48.109 -15.498  1.00  0.00     0.203 HD
HETATM    7  C11 UNL     1      24.347  49.123 -17.035  1.00  0.00     0.709 A 
HETATM    8  N8  UNL     1      23.219  49.722 -17.452  1.00  0.00    -0.021 N 
ATOM      9  H8  UNL     1      23.180  50.146 -18.379  1.00  0.00     0.203 HD
ENDROOT
BRANCH   7  10
HETATM   10  N6  UNL     1      25.353  49.100 -17.818  1.00  0.00    -0.196 N 
ATOM     11  H6  UNL     1      26.274  48.961 -17.402  1.00  0.00     0.180 HD
BRANCH  10  12
HETATM   12  C12 UNL     1      25.278  49.256 -19.250  1.00  0.00     0.299 C 
HETATM   13  C13 UNL     1      24.755  50.626 -19.606  1.00  0.00     0.057 C 
HETATM   14  C14 UNL     1      25.992  51.471 -19.795  1.00  0.00     0.031 C 
HETATM   15  C15 UNL     1      27.126  50.507 -19.906  1.00  0.00     0.235 C 
HETATM   16  N7  UNL     1      26.622  49.178 -19.778  1.00  0.00    -0.054 N 
ATOM     17  H72 UNL     1      27.229  48.578 -19.221  1.00  0.00     0.279 HD
ATOM     18  H71 UNL     1      26.672  48.652 -20.651  1.00  0.00     0.279 HD
ENDBRANCH  10  12
ENDBRANCH   7  10
BRANCH   4  19
HETATM   19  N3  UNL     1      23.319  48.019 -13.682  1.00  0.00    -0.215 N 
HETATM   20  C6  UNL     1      22.096  48.223 -12.970  1.00  0.00     0.146 C 
HETATM   21  C7  UNL     1      22.061  47.698 -11.588  1.00  0.00     0.064 C 
HETATM   22  C8  UNL     1      23.304  47.817 -10.790  1.00  0.00     0.057 C 
HETATM   23  N4  UNL     1      24.298  48.691 -11.270  1.00  0.00    -0.401 N 
HETATM   24  C9  UNL     1      25.203  48.176 -12.230  1.00  0.00     0.139 C 
ATOM     25  H4  UNL     1      24.363  49.654 -10.941  1.00  0.00     0.158 HD
HETATM   26  C10 UNL     1      24.516  47.322 -13.259  1.00  0.00     0.160 C 
ENDBRANCH   4  19
BRANCH   1  27
HETATM   27  N1  UNL     1      21.050  50.338 -17.039  1.00  0.00    -0.225 N 
ATOM     28  H1  UNL     1      20.141  50.018 -16.707  1.00  0.00     0.177 HD
BRANCH  27  29
HETATM   29  C3  UNL     1      21.149  51.450 -17.965  1.00  0.00     0.137 C 
BRANCH  29  30
HETATM   30  C2  UNL     1      20.367  51.026 -19.215  1.00  0.00     0.016 C 
HETATM   31  C1  UNL     1      21.416  50.757 -20.283  1.00  0.00     0.006 C 
ENDBRANCH  29  30
ENDBRANCH  27  29
ENDBRANCH   1  27
TORSDOF 6
ENDMDL
MODEL 4
REMARK VINA RESULT: -7.745330150      1.547      3.810
REMARK  6 active torsions:
REMARK  status: ('A' for Active; 'I' for Inactive)
REMARK    1  A    between atoms: C2_2  and  C3_3 
REMARK    2  A    between atoms: C3_3  and  N1_4 
REMARK    3  A    between atoms: N1_4  and  C4_6 
REMARK    4  A    between atoms: C5_9  and  N3_10 
REMARK    5  A    between atoms: C11_20  and  N6_21 
REMARK    6  A    between atoms: N6_21  and  C12_23 
ROOT
HETATM    1  C4  UNL     1      22.040  49.844 -17.115  1.00  0.00     0.707 A 
HETATM    2  N2  UNL     1      22.216  49.270 -15.914  1.00  0.00    -0.021 N 
ATOM      3  H2  UNL     1      21.532  49.458 -15.181  1.00  0.00     0.203 HD
HETATM    4  C5  UNL     1      23.250  48.460 -15.633  1.00  0.00     0.709 A 
HETATM    5  N5  UNL     1      24.137  48.229 -16.612  1.00  0.00    -0.021 N 
ATOM      6  H5  UNL     1      24.934  47.618 -16.431  1.00  0.00     0.203 HD
HETATM    7  C11 UNL     1      23.996  48.788 -17.835  1.00  0.00     0.709 A 
HETATM    8  N8  UNL     1      22.950  49.593 -18.085  1.00  0.00    -0.021 N 
ATOM      9  H8  UNL     1      22.842  50.016 -19.007  1.00  0.00     0.203 HD
ENDROOT
BRANCH   7  10
HETATM   10  N6  UNL     1      24.837  48.570 -18.768  1.00  0.00    -0.196 N 
ATOM     11  H6  UNL     1      24.645  47.801 -19.410  1.00  0.00     0.180 HD
BRANCH  10  12
HETATM   12  C12 UNL     1      26.042  49.336 -18.979  1.00  0.00     0.299 C 
HETATM   13  C13 UNL     1      26.397  49.367 -20.446  1.00  0.00     0.057 C 
HETATM   14  C14 UNL     1      25.759  50.633 -20.966  1.00  0.00     0.031 C 
HETATM   15  C15 UNL     1      25.401  51.431 -19.757  1.00  0.00     0.235 C 
HETATM   16  N7  UNL     1      25.777  50.702 -18.590  1.00  0.00    -0.054 N 
ATOM     17  H72 UNL     1      25.086  50.771 -17.843  1.00  0.00     0.279 HD
ATOM     18  H71 UNL     1      26.559  51.129 -18.093  1.00  0.00     0.279 HD
ENDBRANCH  10  12
ENDBRANCH   7  10
BRANCH   4  19
HETATM   19  N3  UNL     1      23.338  47.906 -14.327  1.00  0.00    -0.215 N 
HETATM   20  C6  UNL     1      22.253  48.261 -13.466  1.00  0.00     0.146 C 
HETATM   21  C7  UNL     1      22.338  47.754 -12.080  1.00  0.00     0.064 C 
HETATM   22  C8  UNL     1      23.681  47.727 -11.454  1.00  0.00     0.057 C 
HETATM   23  N4  UNL     1      24.700  48.471 -12.079  1.00  0.00    -0.401 N 
HETATM   24  C9  UNL     1      25.403  47.844 -13.137  1.00  0.00     0.139 C 
ATOM     25  H4  UNL     1      24.922  49.421 -11.783  1.00  0.00     0.158 HD
HETATM   26  C10 UNL     1      24.488  47.072 -14.048  1.00  0.00     0.160 C 
ENDBRANCH   4  19
BRANCH   1  27
HETATM   27  N1  UNL     1      21.035  50.617 -17.350  1.00  0.00    -0.225 N 
ATOM     28  H1  UNL     1      20.401  50.888 -16.600  1.00  0.00     0.177 HD
BRANCH  27  29
HETATM   29  C3  UNL     1      20.825  51.092 -18.705  1.00  0.00     0.137 C 
BRANCH  29  30
HETATM   30  C2  UNL     1      21.252  52.565 -18.704  1.00  0.00     0.016 C 
HETATM   31  C1  UNL     1      20.515  53.204 -17.536  1.00  0.00     0.006 C 
ENDBRANCH  29  30
ENDBRANCH  27  29
ENDBRANCH   1  27
TORSDOF 6
ENDMDL
MODEL 5
REMARK VINA RESULT: -7.249844470      1.558      4.046
REMARK  6 active torsions:
REMARK  status: ('A' for Active; 'I' for Inactive)
REMARK    1  A    between atoms: C2_2  and  C3_3 
REMARK    2  A    between atoms: C3_3  and  N1_4 
REMARK    3  A    between atoms: N1_4  and  C4_6 
REMARK    4  A    between atoms: C5_9  and  N3_10 
REMARK    5  A    between atoms: C11_20  and  N6_21 
REMARK    6  A    between atoms: N6_21  and  C12_23 
ROOT
HETATM    1  C4  UNL     1      22.623  49.412 -17.351  1.00  0.00     0.707 A 
HETATM    2  N2  UNL     1      22.951  49.359 -16.051  1.00  0.00    -0.021 N 
ATOM      3  H2  UNL     1      22.232  49.569 -15.359  1.00  0.00     0.203 HD
HETATM    4  C5  UNL     1      24.183  49.041 -15.618  1.00  0.00     0.709 A 
HETATM    5  N5  UNL     1      25.112  48.769 -16.547  1.00  0.00    -0.021 N 
ATOM      6  H5  UNL     1      26.058  48.525 -16.251  1.00  0.00     0.203 HD
HETATM    7  C11 UNL     1      24.821  48.813 -17.866  1.00  0.00     0.709 A 
HETATM    8  N8  UNL     1      23.580  49.133 -18.267  1.00  0.00    -0.021 N 
ATOM      9  H8  UNL     1      23.358  49.165 -19.262  1.00  0.00     0.203 HD
ENDROOT
BRANCH   7  10
HETATM   10  N6  UNL     1      25.703  48.556 -18.751  1.00  0.00    -0.196 N 
ATOM     11  H6  UNL     1      25.777  47.592 -19.080  1.00  0.00     0.180 HD
BRANCH  10  12
HETATM   12  C12 UNL     1      26.601  49.531 -19.320  1.00  0.00     0.299 C 
HETATM   13  C13 UNL     1      26.373  49.655 -20.806  1.00  0.00     0.057 C 
HETATM   14  C14 UNL     1      25.391  50.795 -20.948  1.00  0.00     0.031 C 
HETATM   15  C15 UNL     1      25.388  51.491 -19.628  1.00  0.00     0.235 C 
HETATM   16  N7  UNL     1      26.284  50.818 -18.745  1.00  0.00    -0.054 N 
ATOM     17  H72 UNL     1      25.921  50.747 -17.795  1.00  0.00     0.279 HD
ATOM     18  H71 UNL     1      27.116  51.370 -18.532  1.00  0.00     0.279 HD
ENDBRANCH  10  12
ENDBRANCH   7  10
BRANCH   4  19
HETATM   19  N3  UNL     1      24.420  49.014 -14.217  1.00  0.00    -0.215 N 
HETATM   20  C6  UNL     1      25.803  48.946 -13.860  1.00  0.00     0.146 C 
HETATM   21  C7  UNL     1      26.090  48.855 -12.412  1.00  0.00     0.064 C 
HETATM   22  C8  UNL     1      25.167  48.035 -11.593  1.00  0.00     0.057 C 
HETATM   23  N4  UNL     1      24.303  47.158 -12.276  1.00  0.00    -0.401 N 
HETATM   24  C9  UNL     1      23.081  47.694 -12.752  1.00  0.00     0.139 C 
ATOM     25  H4  UNL     1      24.547  46.179 -12.422  1.00  0.00     0.158 HD
HETATM   26  C10 UNL     1      23.257  49.059 -13.357  1.00  0.00     0.160 C 
ENDBRANCH   4  19
BRANCH   1  27
HETATM   27  N1  UNL     1      21.429  49.720 -17.732  1.00  0.00    -0.225 N 
ATOM     28  H1  UNL     1      20.619  49.428 -17.187  1.00  0.00     0.177 HD
BRANCH  27  29
HETATM   29  C3  UNL     1      21.265  50.491 -18.949  1.00  0.00     0.137 C 
BRANCH  29  30
HETATM   30  C2  UNL     1      21.262  51.963 -18.517  1.00  0.00     0.016 C 
HETATM   31  C1  UNL     1      20.183  52.073 -17.449  1.00  0.00     0.006 C 
ENDBRANCH  29  30
ENDBRANCH  27  29
ENDBRANCH   1  27
TORSDOF 6
ENDMDL
