MODEL 1
REMARK VINA RESULT: -6.705837847      0.000      0.000
REMARK  11 active torsions:
REMARK  status: ('A' for Active; 'I' for Inactive)
REMARK    1  A    between atoms: C2_5  and  N2_6 
REMARK    2  A    between atoms: N2_6  and  C3_8 
REMARK    3  A    between atoms: C3_8  and  C4_9 
REMARK    4  A    between atoms: C4_9  and  C5_10 
REMARK    5  A    between atoms: C5_10  and  C6_11 
REMARK    6  A    between atoms: C6_11  and  C7_12 
REMARK    7  A    between atoms: C7_12  and  C8_13 
REMARK    8  A    between atoms: C8_13  and  C9_14 
REMARK    9  A    between atoms: C9_14  and  C10_15 
REMARK   10  A    between atoms: C10_15  and  C11_16 
REMARK   11  A    between atoms: C11_16  and  C12_17 
ROOT
HETATM    1  N2  UNL     1      -0.731  14.336 -41.459  1.00  0.00    -0.226 N 
ATOM      2  H2  UNL     1      -1.221  14.540 -42.330  1.00  0.00     0.177 HD
ENDROOT
BRANCH   1   3
HETATM    3  C2  UNL     1      -1.344  14.431 -40.332  1.00  0.00     0.680 A 
HETATM    4  N1  UNL     1      -0.913  13.720 -39.280  1.00  0.00    -0.155 N 
HETATM    5  C1  UNL     1      -1.540  13.802 -38.086  1.00  0.00     0.278 A 
ATOM      6  H1  UNL     1      -0.102  13.109 -39.383  1.00  0.00     0.187 HD
HETATM    7  O1  UNL     1      -1.115  13.126 -37.119  1.00  0.00    -0.266 OA
HETATM    8  C14 UNL     1      -2.643  14.636 -37.957  1.00  0.00     0.095 A 
HETATM    9  C13 UNL     1      -3.082  15.364 -39.041  1.00  0.00     0.131 A 
HETATM   10 BR2  UNL     1      -3.514  14.739 -36.267  1.00  0.00    -0.044 Br
HETATM   11  N3  UNL     1      -2.408  15.230 -40.193  1.00  0.00    -0.200 N 
ATOM     12  H3  UNL     1      -2.722  15.765 -41.004  1.00  0.00     0.183 HD
ENDBRANCH   1   3
BRANCH   1  13
HETATM   13  C3  UNL     1       0.677  13.933 -41.481  1.00  0.00     0.138 C 
BRANCH  13  14
HETATM   14  C4  UNL     1       1.536  15.040 -42.049  1.00  0.00     0.020 C 
BRANCH  14  15
HETATM   15  C5  UNL     1       1.633  16.238 -41.146  1.00  0.00     0.002 C 
BRANCH  15  16
HETATM   16  C6  UNL     1       2.887  16.154 -40.309  1.00  0.00     0.000 C 
BRANCH  16  17
HETATM   17  C7  UNL     1       3.400  17.518 -39.920  1.00  0.00     0.000 C 
BRANCH  17  18
HETATM   18  C8  UNL     1       4.860  17.509 -39.525  1.00  0.00     0.000 C 
BRANCH  18  19
HETATM   19  C9  UNL     1       5.415  16.169 -39.955  1.00  0.00     0.000 C 
BRANCH  19  20
HETATM   20  C10 UNL     1       6.222  15.516 -38.859  1.00  0.00     0.001 C 
BRANCH  20  21
HETATM   21  C11 UNL     1       5.328  15.020 -37.752  1.00  0.00     0.011 C 
BRANCH  21  22
HETATM   22  C12 UNL     1       5.961  13.856 -37.031  1.00  0.00     0.085 C 
HETATM   23 BR1  UNL     1       7.665  13.469 -37.847  1.00  0.00    -0.097 Br
ENDBRANCH  21  22
ENDBRANCH  20  21
ENDBRANCH  19  20
ENDBRANCH  18  19
ENDBRANCH  17  18
ENDBRANCH  16  17
ENDBRANCH  15  16
ENDBRANCH  14  15
ENDBRANCH  13  14
ENDBRANCH   1  13
TORSDOF 11
ENDMDL
MODEL 2
REMARK VINA RESULT: -6.629868176      2.781      7.144
REMARK  11 active torsions:
REMARK  status: ('A' for Active; 'I' for Inactive)
REMARK    1  A    between atoms: C2_5  and  N2_6 
REMARK    2  A    between atoms: N2_6  and  C3_8 
REMARK    3  A    between atoms: C3_8  and  C4_9 
REMARK    4  A    between atoms: C4_9  and  C5_10 
REMARK    5  A    between atoms: C5_10  and  C6_11 
REMARK    6  A    between atoms: C6_11  and  C7_12 
REMARK    7  A    between atoms: C7_12  and  C8_13 
REMARK    8  A    between atoms: C8_13  and  C9_14 
REMARK    9  A    between atoms: C9_14  and  C10_15 
REMARK   10  A    between atoms: C10_15  and  C11_16 
REMARK   11  A    between atoms: C11_16  and  C12_17 
ROOT
HETATM    1  N2  UNL     1      -0.135  14.661 -41.239  1.00  0.00    -0.226 N 
ATOM      2  H2  UNL     1      -0.909  15.319 -41.326  1.00  0.00     0.177 HD
ENDROOT
BRANCH   1   3
HETATM    3  C2  UNL     1       1.034  15.076 -40.902  1.00  0.00     0.680 A 
HETATM    4  N1  UNL     1       2.034  14.195 -40.753  1.00  0.00    -0.155 N 
HETATM    5  C1  UNL     1       3.272  14.606 -40.400  1.00  0.00     0.278 A 
ATOM      6  H1  UNL     1       1.858  13.202 -40.909  1.00  0.00     0.187 HD
HETATM    7  O1  UNL     1       4.188  13.760 -40.268  1.00  0.00    -0.266 OA
HETATM    8  C14 UNL     1       3.502  15.960 -40.190  1.00  0.00     0.095 A 
HETATM    9  C13 UNL     1       2.471  16.862 -40.344  1.00  0.00     0.131 A 
HETATM   10 BR2  UNL     1       5.251  16.521 -39.692  1.00  0.00    -0.044 Br
HETATM   11  N3  UNL     1       1.270  16.377 -40.697  1.00  0.00    -0.200 N 
ATOM     12  H3  UNL     1       0.498  17.034 -40.815  1.00  0.00     0.183 HD
ENDBRANCH   1   3
BRANCH   1  13
HETATM   13  C3  UNL     1      -0.346  13.235 -41.498  1.00  0.00     0.138 C 
BRANCH  13  14
HETATM   14  C4  UNL     1      -1.818  12.944 -41.689  1.00  0.00     0.020 C 
BRANCH  14  15
HETATM   15  C5  UNL     1      -2.558  12.755 -40.394  1.00  0.00     0.002 C 
BRANCH  15  16
HETATM   16  C6  UNL     1      -1.803  11.800 -39.501  1.00  0.00     0.000 C 
BRANCH  16  17
HETATM   17  C7  UNL     1      -1.721  12.299 -38.080  1.00  0.00     0.000 C 
BRANCH  17  18
HETATM   18  C8  UNL     1      -1.677  13.807 -37.985  1.00  0.00     0.000 C 
BRANCH  18  19
HETATM   19  C9  UNL     1      -2.606  14.195 -36.855  1.00  0.00     0.000 C 
BRANCH  19  20
HETATM   20  C10 UNL     1      -3.369  15.461 -37.162  1.00  0.00     0.001 C 
BRANCH  20  21
HETATM   21  C11 UNL     1      -3.387  15.736 -38.643  1.00  0.00     0.011 C 
BRANCH  21  22
HETATM   22  C12 UNL     1      -4.802  15.789 -39.162  1.00  0.00     0.085 C 
HETATM   23 BR1  UNL     1      -4.762  15.737 -41.089  1.00  0.00    -0.097 Br
ENDBRANCH  21  22
ENDBRANCH  20  21
ENDBRANCH  19  20
ENDBRANCH  18  19
ENDBRANCH  17  18
ENDBRANCH  16  17
ENDBRANCH  15  16
ENDBRANCH  14  15
ENDBRANCH  13  14
ENDBRANCH   1  13
TORSDOF 11
ENDMDL
MODEL 3
REMARK VINA RESULT: -6.622155393      1.052      1.529
REMARK  11 active torsions:
REMARK  status: ('A' for Active; 'I' for Inactive)
REMARK    1  A    between atoms: C2_5  and  N2_6 
REMARK    2  A    between atoms: N2_6  and  C3_8 
REMARK    3  A    between atoms: C3_8  and  C4_9 
REMARK    4  A    between atoms: C4_9  and  C5_10 
REMARK    5  A    between atoms: C5_10  and  C6_11 
REMARK    6  A    between atoms: C6_11  and  C7_12 
REMARK    7  A    between atoms: C7_12  and  C8_13 
REMARK    8  A    between atoms: C8_13  and  C9_14 
REMARK    9  A    between atoms: C9_14  and  C10_15 
REMARK   10  A    between atoms: C10_15  and  C11_16 
REMARK   11  A    between atoms: C11_16  and  C12_17 
ROOT
HETATM    1  N2  UNL     1      -0.360  14.649 -41.089  1.00  0.00    -0.226 N 
ATOM      2  H2  UNL     1      -0.796  14.760 -42.005  1.00  0.00     0.177 HD
ENDROOT
BRANCH   1   3
HETATM    3  C2  UNL     1      -1.081  14.651 -40.024  1.00  0.00     0.680 A 
HETATM    4  N1  UNL     1      -0.779  13.818 -39.017  1.00  0.00    -0.155 N 
HETATM    5  C1  UNL     1      -1.520  13.800 -37.887  1.00  0.00     0.278 A 
ATOM      6  H1  UNL     1       0.021  13.190 -39.106  1.00  0.00     0.187 HD
HETATM    7  O1  UNL     1      -1.214  13.011 -36.962  1.00  0.00    -0.266 OA
HETATM    8  C14 UNL     1      -2.606  14.659 -37.777  1.00  0.00     0.095 A 
HETATM    9  C13 UNL     1      -2.913  15.512 -38.815  1.00  0.00     0.131 A 
HETATM   10 BR2  UNL     1      -3.639  14.620 -36.179  1.00  0.00    -0.044 Br
HETATM   11  N3  UNL     1      -2.130  15.472 -39.904  1.00  0.00    -0.200 N 
ATOM     12  H3  UNL     1      -2.345  16.100 -40.679  1.00  0.00     0.183 HD
ENDBRANCH   1   3
BRANCH   1  13
HETATM   13  C3  UNL     1       1.091  14.487 -40.978  1.00  0.00     0.138 C 
BRANCH  13  14
HETATM   14  C4  UNL     1       1.752  15.818 -40.696  1.00  0.00     0.020 C 
BRANCH  14  15
HETATM   15  C5  UNL     1       3.252  15.764 -40.780  1.00  0.00     0.002 C 
BRANCH  15  16
HETATM   16  C6  UNL     1       3.859  16.810 -39.876  1.00  0.00     0.000 C 
BRANCH  16  17
HETATM   17  C7  UNL     1       5.086  16.299 -39.163  1.00  0.00     0.000 C 
BRANCH  17  18
HETATM   18  C8  UNL     1       4.764  15.297 -38.077  1.00  0.00     0.000 C 
BRANCH  18  19
HETATM   19  C9  UNL     1       5.443  14.003 -38.469  1.00  0.00     0.000 C 
BRANCH  19  20
HETATM   20  C10 UNL     1       6.647  14.242 -39.348  1.00  0.00     0.001 C 
BRANCH  20  21
HETATM   21  C11 UNL     1       7.925  13.924 -38.616  1.00  0.00     0.011 C 
BRANCH  21  22
HETATM   22  C12 UNL     1       7.649  13.083 -37.395  1.00  0.00     0.085 C 
HETATM   23 BR1  UNL     1       8.125  14.093 -35.823  1.00  0.00    -0.097 Br
ENDBRANCH  21  22
ENDBRANCH  20  21
ENDBRANCH  19  20
ENDBRANCH  18  19
ENDBRANCH  17  18
ENDBRANCH  16  17
ENDBRANCH  15  16
ENDBRANCH  14  15
ENDBRANCH  13  14
ENDBRANCH   1  13
TORSDOF 11
ENDMDL
MODEL 4
REMARK VINA RESULT: -6.405859974      1.362      1.848
REMARK  11 active torsions:
REMARK  status: ('A' for Active; 'I' for Inactive)
REMARK    1  A    between atoms: C2_5  and  N2_6 
REMARK    2  A    between atoms: N2_6  and  C3_8 
REMARK    3  A    between atoms: C3_8  and  C4_9 
REMARK    4  A    between atoms: C4_9  and  C5_10 
REMARK    5  A    between atoms: C5_10  and  C6_11 
REMARK    6  A    between atoms: C6_11  and  C7_12 
REMARK    7  A    between atoms: C7_12  and  C8_13 
REMARK    8  A    between atoms: C8_13  and  C9_14 
REMARK    9  A    between atoms: C9_14  and  C10_15 
REMARK   10  A    between atoms: C10_15  and  C11_16 
REMARK   11  A    between atoms: C11_16  and  C12_17 
ROOT
HETATM    1  N2  UNL     1      -0.435  13.960 -41.610  1.00  0.00    -0.226 N 
ATOM      2  H2  UNL     1      -0.937  13.764 -42.477  1.00  0.00     0.177 HD
ENDROOT
BRANCH   1   3
HETATM    3  C2  UNL     1      -1.082  14.155 -40.517  1.00  0.00     0.680 A 
HETATM    4  N1  UNL     1      -2.193  14.907 -40.529  1.00  0.00    -0.155 N 
HETATM    5  C1  UNL     1      -2.892  15.128 -39.393  1.00  0.00     0.278 A 
ATOM      6  H1  UNL     1      -2.514  15.317 -41.406  1.00  0.00     0.187 HD
HETATM    7  O1  UNL     1      -3.927  15.835 -39.435  1.00  0.00    -0.266 OA
HETATM    8  C14 UNL     1      -2.446  14.566 -38.204  1.00  0.00     0.095 A 
HETATM    9  C13 UNL     1      -1.303  13.795 -38.197  1.00  0.00     0.131 A 
HETATM   10 BR2  UNL     1      -3.442  14.888 -36.615  1.00  0.00    -0.044 Br
HETATM   11  N3  UNL     1      -0.665  13.620 -39.364  1.00  0.00    -0.200 N 
ATOM     12  H3  UNL     1       0.182  13.050 -39.373  1.00  0.00     0.183 HD
ENDBRANCH   1   3
BRANCH   1  13
HETATM   13  C3  UNL     1       1.028  14.020 -41.603  1.00  0.00     0.138 C 
BRANCH  13  14
HETATM   14  C4  UNL     1       1.504  15.394 -42.017  1.00  0.00     0.020 C 
BRANCH  14  15
HETATM   15  C5  UNL     1       1.831  16.285 -40.850  1.00  0.00     0.002 C 
BRANCH  15  16
HETATM   16  C6  UNL     1       3.018  15.735 -40.096  1.00  0.00     0.000 C 
BRANCH  16  17
HETATM   17  C7  UNL     1       4.106  16.766 -39.924  1.00  0.00     0.000 C 
BRANCH  17  18
HETATM   18  C8  UNL     1       5.218  16.303 -39.008  1.00  0.00     0.000 C 
BRANCH  18  19
HETATM   19  C9  UNL     1       4.670  15.134 -38.220  1.00  0.00     0.000 C 
BRANCH  19  20
HETATM   20  C10 UNL     1       5.599  13.946 -38.256  1.00  0.00     0.001 C 
BRANCH  20  21
HETATM   21  C11 UNL     1       6.753  14.188 -39.195  1.00  0.00     0.011 C 
BRANCH  21  22
HETATM   22  C12 UNL     1       8.021  13.574 -38.659  1.00  0.00     0.085 C 
HETATM   23 BR1  UNL     1       7.685  12.897 -36.885  1.00  0.00    -0.097 Br
ENDBRANCH  21  22
ENDBRANCH  20  21
ENDBRANCH  19  20
ENDBRANCH  18  19
ENDBRANCH  17  18
ENDBRANCH  16  17
ENDBRANCH  15  16
ENDBRANCH  14  15
ENDBRANCH  13  14
ENDBRANCH   1  13
TORSDOF 11
ENDMDL
MODEL 5
REMARK VINA RESULT: -6.393118375      1.259      2.016
REMARK  11 active torsions:
REMARK  status: ('A' for Active; 'I' for Inactive)
REMARK    1  A    between atoms: C2_5  and  N2_6 
REMARK    2  A    between atoms: N2_6  and  C3_8 
REMARK    3  A    between atoms: C3_8  and  C4_9 
REMARK    4  A    between atoms: C4_9  and  C5_10 
REMARK    5  A    between atoms: C5_10  and  C6_11 
REMARK    6  A    between atoms: C6_11  and  C7_12 
REMARK    7  A    between atoms: C7_12  and  C8_13 
REMARK    8  A    between atoms: C8_13  and  C9_14 
REMARK    9  A    between atoms: C9_14  and  C10_15 
REMARK   10  A    between atoms: C10_15  and  C11_16 
REMARK   11  A    between atoms: C11_16  and  C12_17 
ROOT
HETATM    1  N2  UNL     1      -0.463  12.062 -40.756  1.00  0.00    -0.226 N 
ATOM      2  H2  UNL     1      -0.221  11.103 -40.509  1.00  0.00     0.177 HD
ENDROOT
BRANCH   1   3
HETATM    3  C2  UNL     1      -1.097  12.806 -39.921  1.00  0.00     0.680 A 
HETATM    4  N1  UNL     1      -1.250  12.398 -38.653  1.00  0.00    -0.155 N 
HETATM    5  C1  UNL     1      -1.913  13.161 -37.755  1.00  0.00     0.278 A 
ATOM      6  H1  UNL     1      -0.862  11.501 -38.362  1.00  0.00     0.187 HD
HETATM    7  O1  UNL     1      -2.041  12.754 -36.576  1.00  0.00    -0.266 OA
HETATM    8  C14 UNL     1      -2.438  14.381 -38.162  1.00  0.00     0.095 A 
HETATM    9  C13 UNL     1      -2.278  14.796 -39.466  1.00  0.00     0.131 A 
HETATM   10 BR2  UNL     1      -3.368  15.443 -36.885  1.00  0.00    -0.044 Br
HETATM   11  N3  UNL     1      -1.607  13.984 -40.298  1.00  0.00    -0.200 N 
ATOM     12  H3  UNL     1      -1.481  14.279 -41.267  1.00  0.00     0.183 HD
ENDBRANCH   1   3
BRANCH   1  13
HETATM   13  C3  UNL     1      -0.091  12.603 -42.065  1.00  0.00     0.138 C 
BRANCH  13  14
HETATM   14  C4  UNL     1       1.413  12.622 -42.223  1.00  0.00     0.020 C 
BRANCH  14  15
HETATM   15  C5  UNL     1       2.067  13.787 -41.533  1.00  0.00     0.002 C 
BRANCH  15  16
HETATM   16  C6  UNL     1       1.562  15.084 -42.119  1.00  0.00     0.000 C 
BRANCH  16  17
HETATM   17  C7  UNL     1       1.665  16.225 -41.138  1.00  0.00     0.000 C 
BRANCH  17  18
HETATM   18  C8  UNL     1       2.739  16.014 -40.095  1.00  0.00     0.000 C 
BRANCH  18  19
HETATM   19  C9  UNL     1       3.531  17.301 -40.025  1.00  0.00     0.000 C 
BRANCH  19  20
HETATM   20  C10 UNL     1       4.951  17.065 -39.572  1.00  0.00     0.001 C 
BRANCH  20  21
HETATM   21  C11 UNL     1       5.524  15.825 -40.208  1.00  0.00     0.011 C 
BRANCH  21  22
HETATM   22  C12 UNL     1       6.353  15.047 -39.219  1.00  0.00     0.085 C 
HETATM   23 BR1  UNL     1       5.335  14.815 -37.597  1.00  0.00    -0.097 Br
ENDBRANCH  21  22
ENDBRANCH  20  21
ENDBRANCH  19  20
ENDBRANCH  18  19
ENDBRANCH  17  18
ENDBRANCH  16  17
ENDBRANCH  15  16
ENDBRANCH  14  15
ENDBRANCH  13  14
ENDBRANCH   1  13
TORSDOF 11
ENDMDL
