MODEL 1
REMARK VINA RESULT: -6.800344004      0.000      0.000
REMARK  10 active torsions:
REMARK  status: ('A' for Active; 'I' for Inactive)
REMARK    1  A    between atoms: N1_1  and  C1_5 
REMARK    2  A    between atoms: C1_5  and  C2_6 
REMARK    3  A    between atoms: C1_5  and  C13_22 
REMARK    4  A    between atoms: C2_6  and  C3_7 
REMARK    5  A    between atoms: N3_19  and  O1_20 
REMARK    6  A    between atoms: C13_22  and  C14_23 
REMARK    7  A    between atoms: C14_23  and  O2_24 
REMARK    8  A    between atoms: O2_24  and  C15_25 
REMARK    9  A    between atoms: C15_25  and  C16_26 
REMARK   10  A    between atoms: C16_26  and  O3_27 
ROOT
HETATM    1  C3  UNL     1      20.230  21.646 -42.940  1.00  0.00    -0.036 A 
HETATM    2  C4  UNL     1      21.068  21.844 -44.008  1.00  0.00     0.012 A 
HETATM    3  C5  UNL     1      22.146  22.728 -43.922  1.00  0.00     0.017 A 
HETATM    4  C6  UNL     1      22.395  23.423 -42.765  1.00  0.00     0.022 A 
HETATM    5  C7  UNL     1      23.362  24.340 -42.400  1.00  0.00     0.101 A 
HETATM    6  C8  UNL     1      23.118  24.713 -41.089  1.00  0.00     0.064 A 
HETATM    7  N2  UNL     1      22.026  24.020 -40.709  1.00  0.00    -0.354 N 
ATOM      8  H2  UNL     1      21.602  24.087 -39.784  1.00  0.00     0.166 HD
HETATM    9  C9  UNL     1      21.560  23.231 -41.689  1.00  0.00     0.046 A 
HETATM   10  C10 UNL     1      20.484  22.345 -41.781  1.00  0.00     0.041 A 
HETATM   11  C11 UNL     1      24.036  25.596 -40.715  1.00  0.00     0.051 A 
HETATM   12  C12 UNL     1      24.936  25.820 -41.834  1.00  0.00     0.126 A 
HETATM   13  N3  UNL     1      24.514  25.076 -42.794  1.00  0.00    -0.233 N 
ENDROOT
BRANCH   1  14
HETATM   14  C2  UNL     1      19.187  20.799 -43.003  1.00  0.00     0.017 C 
BRANCH  14  15
HETATM   15  C1  UNL     1      19.201  19.532 -42.261  1.00  0.00     0.209 C 
BRANCH  15  16
HETATM   16  N1  UNL     1      19.074  19.837 -40.850  1.00  0.00    -0.072 N 
ATOM     17  H13 UNL     1      18.745  20.787 -40.681  1.00  0.00     0.275 HD
ATOM     18  H12 UNL     1      18.299  19.344 -40.408  1.00  0.00     0.275 HD
ATOM     19  H11 UNL     1      19.971  19.644 -40.404  1.00  0.00     0.275 HD
ENDBRANCH  15  16
BRANCH  15  20
HETATM   20  C13 UNL     1      20.481  18.811 -42.591  1.00  0.00     0.063 C 
BRANCH  20  21
HETATM   21  C14 UNL     1      21.061  18.231 -41.316  1.00  0.00     0.170 C 
BRANCH  21  22
HETATM   22  O2  UNL     1      21.846  19.114 -40.633  1.00  0.00    -0.389 OA
BRANCH  22  23
HETATM   23  C15 UNL     1      22.881  19.697 -41.297  1.00  0.00     0.193 C 
BRANCH  23  24
HETATM   24  C16 UNL     1      24.235  19.574 -40.691  1.00  0.00     0.190 C 
BRANCH  24  25
HETATM   25  O3  UNL     1      24.612  18.303 -40.316  1.00  0.00    -0.399 OA
ATOM     26  H3  UNL     1      24.173  17.591 -40.767  1.00  0.00     0.209 HD
ENDBRANCH  24  25
ENDBRANCH  23  24
ENDBRANCH  22  23
ENDBRANCH  21  22
ENDBRANCH  20  21
ENDBRANCH  15  20
ENDBRANCH  14  15
ENDBRANCH   1  14
BRANCH  13  27
HETATM   27  O1  UNL     1      25.104  25.007 -44.027  1.00  0.00    -0.283 OA
ATOM     28  H1  UNL     1      25.249  25.749 -44.603  1.00  0.00     0.245 HD
ENDBRANCH  13  27
TORSDOF 10
ENDMDL
MODEL 2
REMARK VINA RESULT: -6.499347870      3.719      6.503
REMARK  10 active torsions:
REMARK  status: ('A' for Active; 'I' for Inactive)
REMARK    1  A    between atoms: N1_1  and  C1_5 
REMARK    2  A    between atoms: C1_5  and  C2_6 
REMARK    3  A    between atoms: C1_5  and  C13_22 
REMARK    4  A    between atoms: C2_6  and  C3_7 
REMARK    5  A    between atoms: N3_19  and  O1_20 
REMARK    6  A    between atoms: C13_22  and  C14_23 
REMARK    7  A    between atoms: C14_23  and  O2_24 
REMARK    8  A    between atoms: O2_24  and  C15_25 
REMARK    9  A    between atoms: C15_25  and  C16_26 
REMARK   10  A    between atoms: C16_26  and  O3_27 
ROOT
HETATM    1  C3  UNL     1      25.168  19.806 -41.228  1.00  0.00    -0.036 A 
HETATM    2  C4  UNL     1      24.292  19.231 -40.342  1.00  0.00     0.012 A 
HETATM    3  C5  UNL     1      22.912  19.391 -40.489  1.00  0.00     0.017 A 
HETATM    4  C6  UNL     1      22.396  20.127 -41.526  1.00  0.00     0.022 A 
HETATM    5  C7  UNL     1      21.108  20.447 -41.912  1.00  0.00     0.101 A 
HETATM    6  C8  UNL     1      21.191  21.229 -43.053  1.00  0.00     0.064 A 
HETATM    7  N2  UNL     1      22.507  21.356 -43.314  1.00  0.00    -0.354 N 
ATOM      8  H2  UNL     1      22.882  21.884 -44.102  1.00  0.00     0.166 HD
HETATM    9  C9  UNL     1      23.266  20.707 -42.419  1.00  0.00     0.046 A 
HETATM   10  C10 UNL     1      24.646  20.544 -42.267  1.00  0.00     0.041 A 
HETATM   11  C11 UNL     1      19.963  21.550 -43.443  1.00  0.00     0.051 A 
HETATM   12  C12 UNL     1      19.018  20.950 -42.516  1.00  0.00     0.126 A 
HETATM   13  N3  UNL     1      19.717  20.319 -41.642  1.00  0.00    -0.233 N 
ENDROOT
BRANCH   1  14
HETATM   14  C2  UNL     1      26.499  19.665 -41.103  1.00  0.00     0.017 C 
BRANCH  14  15
HETATM   15  C1  UNL     1      27.302  19.098 -42.195  1.00  0.00     0.209 C 
BRANCH  15  16
HETATM   16  N1  UNL     1      27.006  17.682 -42.280  1.00  0.00    -0.072 N 
ATOM     17  H13 UNL     1      26.209  17.410 -41.704  1.00  0.00     0.275 HD
ATOM     18  H12 UNL     1      26.618  17.414 -43.184  1.00  0.00     0.275 HD
ATOM     19  H11 UNL     1      27.855  17.167 -42.047  1.00  0.00     0.275 HD
ENDBRANCH  15  16
BRANCH  15  20
HETATM   20  C13 UNL     1      28.752  19.376 -41.900  1.00  0.00     0.063 C 
BRANCH  20  21
HETATM   21  C14 UNL     1      29.478  18.057 -41.718  1.00  0.00     0.170 C 
BRANCH  21  22
HETATM   22  O2  UNL     1      29.308  17.518 -40.475  1.00  0.00    -0.389 OA
BRANCH  22  23
HETATM   23  C15 UNL     1      30.050  16.427 -40.144  1.00  0.00     0.193 C 
BRANCH  23  24
HETATM   24  C16 UNL     1      29.440  15.090 -40.380  1.00  0.00     0.190 C 
BRANCH  24  25
HETATM   25  O3  UNL     1      28.115  15.093 -40.761  1.00  0.00    -0.399 OA
ATOM     26  H3  UNL     1      27.543  14.513 -40.272  1.00  0.00     0.209 HD
ENDBRANCH  24  25
ENDBRANCH  23  24
ENDBRANCH  22  23
ENDBRANCH  21  22
ENDBRANCH  20  21
ENDBRANCH  15  20
ENDBRANCH  14  15
ENDBRANCH   1  14
BRANCH  13  27
HETATM   27  O1  UNL     1      19.185  19.618 -40.594  1.00  0.00    -0.283 OA
ATOM     28  H1  UNL     1      18.276  19.658 -40.318  1.00  0.00     0.245 HD
ENDBRANCH  13  27
TORSDOF 10
ENDMDL
MODEL 3
REMARK VINA RESULT: -6.469963638      1.906      2.702
REMARK  10 active torsions:
REMARK  status: ('A' for Active; 'I' for Inactive)
REMARK    1  A    between atoms: N1_1  and  C1_5 
REMARK    2  A    between atoms: C1_5  and  C2_6 
REMARK    3  A    between atoms: C1_5  and  C13_22 
REMARK    4  A    between atoms: C2_6  and  C3_7 
REMARK    5  A    between atoms: N3_19  and  O1_20 
REMARK    6  A    between atoms: C13_22  and  C14_23 
REMARK    7  A    between atoms: C14_23  and  O2_24 
REMARK    8  A    between atoms: O2_24  and  C15_25 
REMARK    9  A    between atoms: C15_25  and  C16_26 
REMARK   10  A    between atoms: C16_26  and  O3_27 
ROOT
HETATM    1  C3  UNL     1      20.648  22.152 -42.982  1.00  0.00    -0.036 A 
HETATM    2  C4  UNL     1      21.420  22.684 -41.980  1.00  0.00     0.012 A 
HETATM    3  C5  UNL     1      22.703  23.171 -42.242  1.00  0.00     0.017 A 
HETATM    4  C6  UNL     1      23.224  23.132 -43.511  1.00  0.00     0.022 A 
HETATM    5  C7  UNL     1      24.432  23.531 -44.052  1.00  0.00     0.101 A 
HETATM    6  C8  UNL     1      24.404  23.243 -45.406  1.00  0.00     0.064 A 
HETATM    7  N2  UNL     1      23.198  22.686 -45.637  1.00  0.00    -0.354 N 
ATOM      8  H2  UNL     1      22.885  22.366 -46.553  1.00  0.00     0.166 HD
HETATM    9  C9  UNL     1      22.457  22.601 -44.522  1.00  0.00     0.046 A 
HETATM   10  C10 UNL     1      21.175  22.115 -44.254  1.00  0.00     0.041 A 
HETATM   11  C11 UNL     1      25.556  23.618 -45.949  1.00  0.00     0.051 A 
HETATM   12  C12 UNL     1      26.390  24.185 -44.902  1.00  0.00     0.126 A 
HETATM   13  N3  UNL     1      25.706  24.118 -43.816  1.00  0.00    -0.233 N 
ENDROOT
BRANCH   1  14
HETATM   14  C2  UNL     1      19.412  21.678 -42.750  1.00  0.00     0.017 C 
BRANCH  14  15
HETATM   15  C1  UNL     1      19.202  20.273 -42.373  1.00  0.00     0.209 C 
BRANCH  15  16
HETATM   16  N1  UNL     1      18.976  20.222 -40.943  1.00  0.00    -0.072 N 
ATOM     17  H13 UNL     1      19.836  20.087 -40.412  1.00  0.00     0.275 HD
ATOM     18  H12 UNL     1      18.715  21.127 -40.552  1.00  0.00     0.275 HD
ATOM     19  H11 UNL     1      18.281  19.498 -40.759  1.00  0.00     0.275 HD
ENDBRANCH  15  16
BRANCH  15  20
HETATM   20  C13 UNL     1      20.414  19.489 -42.802  1.00  0.00     0.063 C 
BRANCH  20  21
HETATM   21  C14 UNL     1      20.444  18.176 -42.045  1.00  0.00     0.170 C 
BRANCH  21  22
HETATM   22  O2  UNL     1      21.322  18.180 -40.999  1.00  0.00    -0.389 OA
BRANCH  22  23
HETATM   23  C15 UNL     1      22.289  19.136 -40.981  1.00  0.00     0.193 C 
BRANCH  23  24
HETATM   24  C16 UNL     1      22.490  19.879 -39.706  1.00  0.00     0.190 C 
BRANCH  24  25
HETATM   25  O3  UNL     1      21.373  20.503 -39.193  1.00  0.00    -0.399 OA
ATOM     26  H3  UNL     1      21.431  20.771 -38.284  1.00  0.00     0.209 HD
ENDBRANCH  24  25
ENDBRANCH  23  24
ENDBRANCH  22  23
ENDBRANCH  21  22
ENDBRANCH  20  21
ENDBRANCH  15  20
ENDBRANCH  14  15
ENDBRANCH   1  14
BRANCH  13  27
HETATM   27  O1  UNL     1      26.154  24.556 -42.599  1.00  0.00    -0.283 OA
ATOM     28  H1  UNL     1      26.048  25.439 -42.267  1.00  0.00     0.245 HD
ENDBRANCH  13  27
TORSDOF 10
ENDMDL
MODEL 4
REMARK VINA RESULT: -6.464733825      3.445      6.325
REMARK  10 active torsions:
REMARK  status: ('A' for Active; 'I' for Inactive)
REMARK    1  A    between atoms: N1_1  and  C1_5 
REMARK    2  A    between atoms: C1_5  and  C2_6 
REMARK    3  A    between atoms: C1_5  and  C13_22 
REMARK    4  A    between atoms: C2_6  and  C3_7 
REMARK    5  A    between atoms: N3_19  and  O1_20 
REMARK    6  A    between atoms: C13_22  and  C14_23 
REMARK    7  A    between atoms: C14_23  and  O2_24 
REMARK    8  A    between atoms: O2_24  and  C15_25 
REMARK    9  A    between atoms: C15_25  and  C16_26 
REMARK   10  A    between atoms: C16_26  and  O3_27 
ROOT
HETATM    1  C3  UNL     1      25.450  19.913 -41.579  1.00  0.00    -0.036 A 
HETATM    2  C4  UNL     1      24.750  19.236 -40.613  1.00  0.00     0.012 A 
HETATM    3  C5  UNL     1      23.355  19.286 -40.567  1.00  0.00     0.017 A 
HETATM    4  C6  UNL     1      22.647  20.013 -41.491  1.00  0.00     0.022 A 
HETATM    5  C7  UNL     1      21.297  20.239 -41.687  1.00  0.00     0.101 A 
HETATM    6  C8  UNL     1      21.163  21.066 -42.790  1.00  0.00     0.064 A 
HETATM    7  N2  UNL     1      22.418  21.310 -43.218  1.00  0.00    -0.354 N 
ATOM      8  H2  UNL     1      22.640  21.896 -44.023  1.00  0.00     0.166 HD
HETATM    9  C9  UNL     1      23.340  20.695 -42.464  1.00  0.00     0.046 A 
HETATM   10  C10 UNL     1      24.736  20.642 -42.504  1.00  0.00     0.041 A 
HETATM   11  C11 UNL     1      19.872  21.297 -42.998  1.00  0.00     0.051 A 
HETATM   12  C12 UNL     1      19.112  20.588 -41.983  1.00  0.00     0.126 A 
HETATM   13  N3  UNL     1      19.971  19.986 -41.240  1.00  0.00    -0.233 N 
ENDROOT
BRANCH   1  14
HETATM   14  C2  UNL     1      26.793  19.878 -41.639  1.00  0.00     0.017 C 
BRANCH  14  15
HETATM   15  C1  UNL     1      27.525  18.627 -41.402  1.00  0.00     0.209 C 
BRANCH  15  16
HETATM   16  N1  UNL     1      28.909  18.961 -41.134  1.00  0.00    -0.072 N 
ATOM     17  H13 UNL     1      29.058  19.290 -40.180  1.00  0.00     0.275 HD
ATOM     18  H12 UNL     1      29.512  18.141 -41.091  1.00  0.00     0.275 HD
ATOM     19  H11 UNL     1      29.212  19.637 -41.836  1.00  0.00     0.275 HD
ENDBRANCH  15  16
BRANCH  15  20
HETATM   20  C13 UNL     1      27.359  17.752 -42.616  1.00  0.00     0.063 C 
BRANCH  20  21
HETATM   21  C14 UNL     1      27.660  16.316 -42.232  1.00  0.00     0.170 C 
BRANCH  21  22
HETATM   22  O2  UNL     1      26.704  15.762 -41.431  1.00  0.00    -0.389 OA
BRANCH  22  23
HETATM   23  C15 UNL     1      26.509  14.418 -41.504  1.00  0.00     0.193 C 
BRANCH  23  24
HETATM   24  C16 UNL     1      25.171  13.900 -41.109  1.00  0.00     0.190 C 
BRANCH  24  25
HETATM   25  O3  UNL     1      24.337  13.539 -42.145  1.00  0.00    -0.399 OA
ATOM     26  H3  UNL     1      23.426  13.400 -41.914  1.00  0.00     0.209 HD
ENDBRANCH  24  25
ENDBRANCH  23  24
ENDBRANCH  22  23
ENDBRANCH  21  22
ENDBRANCH  20  21
ENDBRANCH  15  20
ENDBRANCH  14  15
ENDBRANCH   1  14
BRANCH  13  27
HETATM   27  O1  UNL     1      19.642  19.206 -40.165  1.00  0.00    -0.283 OA
ATOM     28  H1  UNL     1      20.228  18.991 -39.449  1.00  0.00     0.245 HD
ENDBRANCH  13  27
TORSDOF 10
ENDMDL
MODEL 5
REMARK VINA RESULT: -6.435424434      2.803      4.670
REMARK  10 active torsions:
REMARK  status: ('A' for Active; 'I' for Inactive)
REMARK    1  A    between atoms: N1_1  and  C1_5 
REMARK    2  A    between atoms: C1_5  and  C2_6 
REMARK    3  A    between atoms: C1_5  and  C13_22 
REMARK    4  A    between atoms: C2_6  and  C3_7 
REMARK    5  A    between atoms: N3_19  and  O1_20 
REMARK    6  A    between atoms: C13_22  and  C14_23 
REMARK    7  A    between atoms: C14_23  and  O2_24 
REMARK    8  A    between atoms: O2_24  and  C15_25 
REMARK    9  A    between atoms: C15_25  and  C16_26 
REMARK   10  A    between atoms: C16_26  and  O3_27 
ROOT
HETATM    1  C3  UNL     1      21.990  20.037 -42.087  1.00  0.00    -0.036 A 
HETATM    2  C4  UNL     1      22.435  19.581 -40.872  1.00  0.00     0.012 A 
HETATM    3  C5  UNL     1      23.792  19.619 -40.542  1.00  0.00     0.017 A 
HETATM    4  C6  UNL     1      24.717  20.116 -41.426  1.00  0.00     0.022 A 
HETATM    5  C7  UNL     1      26.089  20.275 -41.373  1.00  0.00     0.101 A 
HETATM    6  C8  UNL     1      26.496  20.838 -42.572  1.00  0.00     0.064 A 
HETATM    7  N2  UNL     1      25.373  20.998 -43.300  1.00  0.00    -0.354 N 
ATOM      8  H2  UNL     1      25.356  21.394 -44.240  1.00  0.00     0.166 HD
HETATM    9  C9  UNL     1      24.280  20.577 -42.646  1.00  0.00     0.046 A 
HETATM   10  C10 UNL     1      22.922  20.535 -42.971  1.00  0.00     0.041 A 
HETATM   11  C11 UNL     1      27.813  21.000 -42.544  1.00  0.00     0.051 A 
HETATM   12  C12 UNL     1      28.305  20.522 -41.263  1.00  0.00     0.126 A 
HETATM   13  N3  UNL     1      27.278  20.108 -40.610  1.00  0.00    -0.233 N 
ENDROOT
BRANCH   1  14
HETATM   14  C2  UNL     1      20.689  20.007 -42.424  1.00  0.00     0.017 C 
BRANCH  14  15
HETATM   15  C1  UNL     1      19.687  20.718 -41.618  1.00  0.00     0.209 C 
BRANCH  15  16
HETATM   16  N1  UNL     1      18.374  20.284 -42.051  1.00  0.00    -0.072 N 
ATOM     17  H13 UNL     1      18.409  19.685 -42.876  1.00  0.00     0.275 HD
ATOM     18  H12 UNL     1      17.950  19.613 -41.412  1.00  0.00     0.275 HD
ATOM     19  H11 UNL     1      17.798  21.114 -42.192  1.00  0.00     0.275 HD
ENDBRANCH  15  16
BRANCH  15  20
HETATM   20  C13 UNL     1      19.904  22.197 -41.801  1.00  0.00     0.063 C 
BRANCH  20  21
HETATM   21  C14 UNL     1      20.289  22.806 -40.467  1.00  0.00     0.170 C 
BRANCH  21  22
HETATM   22  O2  UNL     1      21.078  23.913 -40.590  1.00  0.00    -0.389 OA
BRANCH  22  23
HETATM   23  C15 UNL     1      22.105  23.870 -41.482  1.00  0.00     0.193 C 
BRANCH  23  24
HETATM   24  C16 UNL     1      23.406  24.451 -41.052  1.00  0.00     0.190 C 
BRANCH  24  25
HETATM   25  O3  UNL     1      24.388  23.542 -40.718  1.00  0.00    -0.399 OA
ATOM     26  H3  UNL     1      25.159  23.903 -40.297  1.00  0.00     0.209 HD
ENDBRANCH  24  25
ENDBRANCH  23  24
ENDBRANCH  22  23
ENDBRANCH  21  22
ENDBRANCH  20  21
ENDBRANCH  15  20
ENDBRANCH  14  15
ENDBRANCH   1  14
BRANCH  13  27
HETATM   27  O1  UNL     1      27.332  19.581 -39.349  1.00  0.00    -0.283 OA
ATOM     28  H1  UNL     1      28.023  19.746 -38.719  1.00  0.00     0.245 HD
ENDBRANCH  13  27
TORSDOF 10
ENDMDL
