MODEL 1
REMARK VINA RESULT: -6.835002062      0.000      0.000
REMARK  6 active torsions:
REMARK  status: ('A' for Active; 'I' for Inactive)
REMARK       I    between atoms: C1_4  and  N3_6 
REMARK    1  A    between atoms: N3_6  and  N4_8 
REMARK    2  A    between atoms: C2_10  and  C3_11 
REMARK    3  A    between atoms: N5_14  and  C6_15 
REMARK    4  A    between atoms: C6_15  and  C7_16 
REMARK    5  A    between atoms: C7_16  and  C8_17 
REMARK    6  A    between atoms: C8_17  and  N6_18 
ROOT
HETATM    1  C3  UNL     1      20.097  21.692 -42.511  1.00  0.00    -0.017 A 
HETATM    2  C4  UNL     1      20.480  22.293 -41.300  1.00  0.00     0.030 A 
HETATM    3  C5  UNL     1      21.476  23.229 -41.243  1.00  0.00     0.091 A 
HETATM    4  N5  UNL     1      22.140  23.626 -42.334  1.00  0.00    -0.366 N 
HETATM    5  C12 UNL     1      21.797  23.073 -43.493  1.00  0.00     0.091 A 
HETATM    6  C13 UNL     1      20.787  22.111 -43.609  1.00  0.00     0.030 A 
ENDROOT
BRANCH   1   7
HETATM    7  C2  UNL     1      19.032  20.709 -42.482  1.00  0.00     0.118 C 
HETATM    8  N4  UNL     1      19.129  19.468 -42.367  1.00  0.00    -0.309 N 
ATOM      9  H4  UNL     1      18.224  18.999 -42.376  1.00  0.00     0.186 HD
BRANCH   8  10
HETATM   10  N3  UNL     1      20.159  18.614 -42.235  1.00  0.00    -0.274 N 
HETATM   11  C1  UNL     1      20.837  18.412 -40.979  1.00  0.00     0.200 C 
HETATM   12  N1  UNL     1      22.063  18.064 -41.009  1.00  0.00    -0.372 N 
HETATM   13  N2  UNL     1      20.157  18.598 -39.751  1.00  0.00    -0.062 NA
ATOM     14  H12 UNL     1      22.544  17.921 -40.121  1.00  0.00     0.158 HD
ATOM     15  H11 UNL     1      22.554  17.930 -41.894  1.00  0.00     0.158 HD
ATOM     16  H3  UNL     1      20.471  18.090 -43.052  1.00  0.00     0.189 HD
ENDBRANCH   8  10
ENDBRANCH   1   7
BRANCH   4  17
HETATM   17  C6  UNL     1      23.192  24.620 -42.253  1.00  0.00     0.129 C 
BRANCH  17  18
HETATM   18  C7  UNL     1      24.308  24.049 -41.443  1.00  0.00     0.041 C 
BRANCH  18  19
HETATM   19  C8  UNL     1      25.323  23.304 -42.278  1.00  0.00     0.138 C 
BRANCH  19  20
HETATM   20  N6  UNL     1      25.534  21.942 -41.766  1.00  0.00    -0.328 N 
HETATM   21  C9  UNL     1      26.647  21.419 -41.260  1.00  0.00     0.099 A 
HETATM   22  C10 UNL     1      26.611  20.143 -40.851  1.00  0.00     0.026 A 
HETATM   23  C11 UNL     1      25.420  19.481 -40.991  1.00  0.00     0.069 A 
HETATM   24  S1  UNL     1      24.423  20.683 -41.687  1.00  0.00    -0.025 SA
ENDBRANCH  19  20
ENDBRANCH  18  19
ENDBRANCH  17  18
ENDBRANCH   4  17
TORSDOF 6
ENDMDL
MODEL 2
REMARK VINA RESULT: -6.819103069      0.110      1.036
REMARK  6 active torsions:
REMARK  status: ('A' for Active; 'I' for Inactive)
REMARK       I    between atoms: C1_4  and  N3_6 
REMARK    1  A    between atoms: N3_6  and  N4_8 
REMARK    2  A    between atoms: C2_10  and  C3_11 
REMARK    3  A    between atoms: N5_14  and  C6_15 
REMARK    4  A    between atoms: C6_15  and  C7_16 
REMARK    5  A    between atoms: C7_16  and  C8_17 
REMARK    6  A    between atoms: C8_17  and  N6_18 
ROOT
HETATM    1  C3  UNL     1      20.046  21.729 -42.246  1.00  0.00    -0.017 A 
HETATM    2  C4  UNL     1      20.765  22.069 -43.404  1.00  0.00     0.030 A 
HETATM    3  C5  UNL     1      21.768  23.001 -43.382  1.00  0.00     0.091 A 
HETATM    4  N5  UNL     1      22.120  23.638 -42.261  1.00  0.00    -0.366 N 
HETATM    5  C12 UNL     1      21.455  23.335 -41.150  1.00  0.00     0.091 A 
HETATM    6  C13 UNL     1      20.422  22.391 -41.116  1.00  0.00     0.030 A 
ENDROOT
BRANCH   1   7
HETATM    7  C2  UNL     1      19.000  20.732 -42.357  1.00  0.00     0.118 C 
HETATM    8  N4  UNL     1      19.113  19.488 -42.342  1.00  0.00    -0.309 N 
ATOM      9  H4  UNL     1      18.218  19.009 -42.440  1.00  0.00     0.186 HD
BRANCH   8  10
HETATM   10  N3  UNL     1      20.150  18.640 -42.225  1.00  0.00    -0.274 N 
HETATM   11  C1  UNL     1      20.833  18.425 -40.974  1.00  0.00     0.200 C 
HETATM   12  N1  UNL     1      22.062  18.087 -41.013  1.00  0.00    -0.372 N 
HETATM   13  N2  UNL     1      20.155  18.587 -39.742  1.00  0.00    -0.062 NA
ATOM     14  H12 UNL     1      22.546  17.934 -40.129  1.00  0.00     0.158 HD
ATOM     15  H11 UNL     1      22.551  17.970 -41.901  1.00  0.00     0.158 HD
ATOM     16  H3  UNL     1      20.464  18.130 -43.051  1.00  0.00     0.189 HD
ENDBRANCH   8  10
ENDBRANCH   1   7
BRANCH   4  17
HETATM   17  C6  UNL     1      23.185  24.622 -42.259  1.00  0.00     0.129 C 
BRANCH  17  18
HETATM   18  C7  UNL     1      24.321  24.074 -41.462  1.00  0.00     0.041 C 
BRANCH  18  19
HETATM   19  C8  UNL     1      25.330  23.329 -42.306  1.00  0.00     0.138 C 
BRANCH  19  20
HETATM   20  N6  UNL     1      25.540  21.964 -41.800  1.00  0.00    -0.328 N 
HETATM   21  C9  UNL     1      26.650  21.442 -41.286  1.00  0.00     0.099 A 
HETATM   22  C10 UNL     1      26.614  20.164 -40.885  1.00  0.00     0.026 A 
HETATM   23  C11 UNL     1      25.428  19.499 -41.041  1.00  0.00     0.069 A 
HETATM   24  S1  UNL     1      24.433  20.701 -41.739  1.00  0.00    -0.025 SA
ENDBRANCH  19  20
ENDBRANCH  18  19
ENDBRANCH  17  18
ENDBRANCH   4  17
TORSDOF 6
ENDMDL
MODEL 3
REMARK VINA RESULT: -6.676194725      1.543      1.847
REMARK  6 active torsions:
REMARK  status: ('A' for Active; 'I' for Inactive)
REMARK       I    between atoms: C1_4  and  N3_6 
REMARK    1  A    between atoms: N3_6  and  N4_8 
REMARK    2  A    between atoms: C2_10  and  C3_11 
REMARK    3  A    between atoms: N5_14  and  C6_15 
REMARK    4  A    between atoms: C6_15  and  C7_16 
REMARK    5  A    between atoms: C7_16  and  C8_17 
REMARK    6  A    between atoms: C8_17  and  N6_18 
ROOT
HETATM    1  C3  UNL     1      19.977  21.536 -42.203  1.00  0.00    -0.017 A 
HETATM    2  C4  UNL     1      19.942  22.187 -40.958  1.00  0.00     0.030 A 
HETATM    3  C5  UNL     1      20.823  23.186 -40.642  1.00  0.00     0.091 A 
HETATM    4  N5  UNL     1      21.764  23.599 -41.497  1.00  0.00    -0.366 N 
HETATM    5  C12 UNL     1      21.819  22.999 -42.682  1.00  0.00     0.091 A 
HETATM    6  C13 UNL     1      20.944  21.973 -43.057  1.00  0.00     0.030 A 
ENDROOT
BRANCH   1   7
HETATM    7  C2  UNL     1      19.008  20.489 -42.456  1.00  0.00     0.118 C 
HETATM    8  N4  UNL     1      19.187  19.252 -42.453  1.00  0.00    -0.309 N 
ATOM      9  H4  UNL     1      18.338  18.729 -42.664  1.00  0.00     0.186 HD
BRANCH   8  10
HETATM   10  N3  UNL     1      20.249  18.457 -42.235  1.00  0.00    -0.274 N 
HETATM   11  C1  UNL     1      20.940  18.422 -40.969  1.00  0.00     0.200 C 
HETATM   12  N1  UNL     1      22.178  18.119 -40.971  1.00  0.00    -0.372 N 
HETATM   13  N2  UNL     1      20.258  18.718 -39.765  1.00  0.00    -0.062 NA
ATOM     14  H12 UNL     1      22.667  18.094 -40.076  1.00  0.00     0.158 HD
ATOM     15  H11 UNL     1      22.670  17.906 -41.839  1.00  0.00     0.158 HD
ATOM     16  H3  UNL     1      20.579  17.857 -42.991  1.00  0.00     0.189 HD
ENDBRANCH   8  10
ENDBRANCH   1   7
BRANCH   4  17
HETATM   17  C6  UNL     1      22.688  24.659 -41.143  1.00  0.00     0.129 C 
BRANCH  17  18
HETATM   18  C7  UNL     1      23.370  25.115 -42.389  1.00  0.00     0.041 C 
BRANCH  18  19
HETATM   19  C8  UNL     1      24.874  25.171 -42.253  1.00  0.00     0.138 C 
BRANCH  19  20
HETATM   20  N6  UNL     1      25.507  23.999 -42.876  1.00  0.00    -0.328 N 
HETATM   21  C9  UNL     1      26.129  23.930 -44.049  1.00  0.00     0.099 A 
HETATM   22  C10 UNL     1      26.637  22.746 -44.422  1.00  0.00     0.026 A 
HETATM   23  C11 UNL     1      26.469  21.700 -43.554  1.00  0.00     0.069 A 
HETATM   24  S1  UNL     1      25.611  22.435 -42.270  1.00  0.00    -0.025 SA
ENDBRANCH  19  20
ENDBRANCH  18  19
ENDBRANCH  17  18
ENDBRANCH   4  17
TORSDOF 6
ENDMDL
MODEL 4
REMARK VINA RESULT: -6.605020369      1.176      1.788
REMARK  6 active torsions:
REMARK  status: ('A' for Active; 'I' for Inactive)
REMARK       I    between atoms: C1_4  and  N3_6 
REMARK    1  A    between atoms: N3_6  and  N4_8 
REMARK    2  A    between atoms: C2_10  and  C3_11 
REMARK    3  A    between atoms: N5_14  and  C6_15 
REMARK    4  A    between atoms: C6_15  and  C7_16 
REMARK    5  A    between atoms: C7_16  and  C8_17 
REMARK    6  A    between atoms: C8_17  and  N6_18 
ROOT
HETATM    1  C3  UNL     1      19.957  21.717 -42.013  1.00  0.00    -0.017 A 
HETATM    2  C4  UNL     1      20.909  22.090 -42.977  1.00  0.00     0.030 A 
HETATM    3  C5  UNL     1      21.838  23.065 -42.732  1.00  0.00     0.091 A 
HETATM    4  N5  UNL     1      21.894  23.715 -41.566  1.00  0.00    -0.366 N 
HETATM    5  C12 UNL     1      21.005  23.382 -40.636  1.00  0.00     0.091 A 
HETATM    6  C13 UNL     1      20.033  22.393 -40.832  1.00  0.00     0.030 A 
ENDROOT
BRANCH   1   7
HETATM    7  C2  UNL     1      19.009  20.675 -42.354  1.00  0.00     0.118 C 
HETATM    8  N4  UNL     1      19.209  19.445 -42.436  1.00  0.00    -0.309 N 
ATOM      9  H4  UNL     1      18.371  18.925 -42.697  1.00  0.00     0.186 HD
BRANCH   8  10
HETATM   10  N3  UNL     1      20.280  18.653 -42.258  1.00  0.00    -0.274 N 
HETATM   11  C1  UNL     1      20.919  18.496 -40.975  1.00  0.00     0.200 C 
HETATM   12  N1  UNL     1      22.164  18.220 -40.956  1.00  0.00    -0.372 N 
HETATM   13  N2  UNL     1      20.182  18.646 -39.777  1.00  0.00    -0.062 NA
ATOM     14  H12 UNL     1      22.616  18.109 -40.048  1.00  0.00     0.158 HD
ATOM     15  H11 UNL     1      22.696  18.112 -41.819  1.00  0.00     0.158 HD
ATOM     16  H3  UNL     1      20.655  18.144 -43.059  1.00  0.00     0.189 HD
ENDBRANCH   8  10
ENDBRANCH   1   7
BRANCH   4  17
HETATM   17  C6  UNL     1      22.887  24.745 -41.327  1.00  0.00     0.129 C 
BRANCH  17  18
HETATM   18  C7  UNL     1      23.590  25.018 -42.614  1.00  0.00     0.041 C 
BRANCH  18  19
HETATM   19  C8  UNL     1      25.076  24.753 -42.543  1.00  0.00     0.138 C 
BRANCH  19  20
HETATM   20  N6  UNL     1      25.377  23.339 -42.817  1.00  0.00    -0.328 N 
HETATM   21  C9  UNL     1      25.575  22.757 -43.995  1.00  0.00     0.099 A 
HETATM   22  C10 UNL     1      25.838  21.442 -44.009  1.00  0.00     0.026 A 
HETATM   23  C11 UNL     1      25.879  20.807 -42.797  1.00  0.00     0.069 A 
HETATM   24  S1  UNL     1      25.549  22.085 -41.711  1.00  0.00    -0.025 SA
ENDBRANCH  19  20
ENDBRANCH  18  19
ENDBRANCH  17  18
ENDBRANCH   4  17
TORSDOF 6
ENDMDL
MODEL 5
REMARK VINA RESULT: -6.504995273      2.302      2.787
REMARK  6 active torsions:
REMARK  status: ('A' for Active; 'I' for Inactive)
REMARK       I    between atoms: C1_4  and  N3_6 
REMARK    1  A    between atoms: N3_6  and  N4_8 
REMARK    2  A    between atoms: C2_10  and  C3_11 
REMARK    3  A    between atoms: N5_14  and  C6_15 
REMARK    4  A    between atoms: C6_15  and  C7_16 
REMARK    5  A    between atoms: C7_16  and  C8_17 
REMARK    6  A    between atoms: C8_17  and  N6_18 
ROOT
HETATM    1  C3  UNL     1      19.947  21.722 -41.979  1.00  0.00    -0.017 A 
HETATM    2  C4  UNL     1      20.925  22.073 -42.925  1.00  0.00     0.030 A 
HETATM    3  C5  UNL     1      21.855  23.044 -42.673  1.00  0.00     0.091 A 
HETATM    4  N5  UNL     1      21.888  23.712 -41.515  1.00  0.00    -0.366 N 
HETATM    5  C12 UNL     1      20.974  23.400 -40.603  1.00  0.00     0.091 A 
HETATM    6  C13 UNL     1      19.999  22.415 -40.808  1.00  0.00     0.030 A 
ENDROOT
BRANCH   1   7
HETATM    7  C2  UNL     1      18.999  20.682 -42.328  1.00  0.00     0.118 C 
HETATM    8  N4  UNL     1      19.201  19.453 -42.423  1.00  0.00    -0.309 N 
ATOM      9  H4  UNL     1      18.363  18.934 -42.686  1.00  0.00     0.186 HD
BRANCH   8  10
HETATM   10  N3  UNL     1      20.274  18.661 -42.257  1.00  0.00    -0.274 N 
HETATM   11  C1  UNL     1      20.909  18.481 -40.975  1.00  0.00     0.200 C 
HETATM   12  N1  UNL     1      22.155  18.208 -40.957  1.00  0.00    -0.372 N 
HETATM   13  N2  UNL     1      20.168  18.606 -39.776  1.00  0.00    -0.062 NA
ATOM     14  H12 UNL     1      22.605  18.081 -40.050  1.00  0.00     0.158 HD
ATOM     15  H11 UNL     1      22.690  18.119 -41.820  1.00  0.00     0.158 HD
ATOM     16  H3  UNL     1      20.653  18.169 -43.066  1.00  0.00     0.189 HD
ENDBRANCH   8  10
ENDBRANCH   1   7
BRANCH   4  17
HETATM   17  C6  UNL     1      22.883  24.738 -41.268  1.00  0.00     0.129 C 
BRANCH  17  18
HETATM   18  C7  UNL     1      23.546  25.063 -42.565  1.00  0.00     0.041 C 
BRANCH  18  19
HETATM   19  C8  UNL     1      25.045  24.875 -42.526  1.00  0.00     0.138 C 
BRANCH  19  20
HETATM   20  N6  UNL     1      25.527  24.203 -43.741  1.00  0.00    -0.328 N 
HETATM   21  C9  UNL     1      24.814  23.771 -44.777  1.00  0.00     0.099 A 
HETATM   22  C10 UNL     1      25.469  23.180 -45.787  1.00  0.00     0.026 A 
HETATM   23  C11 UNL     1      26.829  23.071 -45.663  1.00  0.00     0.069 A 
HETATM   24  S1  UNL     1      27.109  23.801 -44.143  1.00  0.00    -0.025 SA
ENDBRANCH  19  20
ENDBRANCH  18  19
ENDBRANCH  17  18
ENDBRANCH   4  17
TORSDOF 6
ENDMDL
