MODEL 1
REMARK VINA RESULT: -7.852350880      0.000      0.000
REMARK  13 active torsions:
REMARK  status: ('A' for Active; 'I' for Inactive)
REMARK    1  A    between atoms: N1_5  and  C5_6 
REMARK    2  A    between atoms: C5_6  and  C6_7 
REMARK    3  A    between atoms: C6_7  and  C7_8 
REMARK    4  A    between atoms: C7_8  and  C8_9 
REMARK    5  A    between atoms: C8_9  and  C9_10 
REMARK    6  A    between atoms: C9_10  and  C10_11 
REMARK    7  A    between atoms: C10_11  and  C11_12 
REMARK    8  A    between atoms: C11_12  and  C12_13 
REMARK    9  A    between atoms: C12_13  and  C13_14 
REMARK   10  A    between atoms: C14_15  and  C15_16 
REMARK   11  A    between atoms: C15_16  and  N2_17 
REMARK       I    between atoms: N4_21  and  C17_23 
REMARK       I    between atoms: C17_23  and  N6_27 
REMARK   12  A    between atoms: N6_27  and  N7_29 
REMARK   13  A    between atoms: C18_34  and  N9_35 
ROOT
HETATM    1  N2  UNL     1      15.260 -15.189  21.115  1.00  0.00    -0.252 N 
HETATM    2  N3  UNL     1      15.539 -13.944  20.770  1.00  0.00    -0.276 N 
ATOM      3  H3  UNL     1      16.405 -13.754  20.266  1.00  0.00     0.189 HD
HETATM    4  C16 UNL     1      14.709 -12.905  21.064  1.00  0.00     0.186 A 
HETATM    5  N4  UNL     1      14.979 -11.690  20.729  1.00  0.00    -0.170 N 
ATOM      6  H4  UNL     1      14.346 -10.924  20.958  1.00  0.00     0.186 HD
HETATM    7  C17 UNL     1      16.193 -11.458  20.026  1.00  0.00     0.693 C 
HETATM    8  N5  UNL     1      17.317 -11.239  20.626  1.00  0.00    -0.233 N 
ATOM      9  H51 UNL     1      18.188 -11.073  20.122  1.00  0.00     0.174 HD
ATOM     10  H52 UNL     1      17.328 -11.233  21.646  1.00  0.00     0.174 HD
HETATM   11  N6  UNL     1      16.177 -11.466  18.590  1.00  0.00    -0.118 N 
ATOM     12  H6  UNL     1      16.975 -11.857  18.088  1.00  0.00     0.207 HD
HETATM   13  C18 UNL     1      13.533 -13.133  21.746  1.00  0.00     0.222 A 
HETATM   14  N10 UNL     1      13.251 -14.400  22.096  1.00  0.00    -0.307 N 
ATOM     15  H10 UNL     1      12.390 -14.609  22.600  1.00  0.00     0.170 HD
HETATM   16  C19 UNL     1      14.109 -15.400  21.779  1.00  0.00     0.212 A 
HETATM   17  N11 UNL     1      13.806 -16.740  22.153  1.00  0.00    -0.062 NA
ENDROOT
BRANCH   1  18
HETATM   18  C15 UNL     1      16.138 -16.306  20.806  1.00  0.00     0.245 C 
BRANCH  18  19
HETATM   19  C14 UNL     1      17.491 -15.911  21.246  1.00  0.00    -0.085 C 
HETATM   20  C13 UNL     1      18.601 -15.595  21.594  1.00  0.00    -0.105 C 
BRANCH  20  21
HETATM   21  C12 UNL     1      19.955 -15.213  21.995  1.00  0.00     0.094 C 
BRANCH  21  22
HETATM   22  C11 UNL     1      20.093 -13.697  22.070  1.00  0.00     0.012 C 
BRANCH  22  23
HETATM   23  C10 UNL     1      20.833 -13.215  23.250  1.00  0.00     0.001 C 
BRANCH  23  24
HETATM   24  C9  UNL     1      20.148 -12.879  24.499  1.00  0.00     0.000 C 
BRANCH  24  25
HETATM   25  C8  UNL     1      20.892 -12.559  25.722  1.00  0.00     0.000 C 
BRANCH  25  26
HETATM   26  C7  UNL     1      20.885 -13.533  26.836  1.00  0.00     0.002 C 
BRANCH  26  27
HETATM   27  C6  UNL     1      19.875 -14.651  26.483  1.00  0.00     0.020 C 
BRANCH  27  28
HETATM   28  C5  UNL     1      20.618 -15.893  26.051  1.00  0.00     0.128 C 
BRANCH  28  29
HETATM   29  N1  UNL     1      19.655 -16.724  25.341  1.00  0.00    -0.366 N 
HETATM   30  C4  UNL     1      20.031 -17.823  24.662  1.00  0.00     0.091 A 
HETATM   31  C3  UNL     1      19.119 -18.610  23.990  1.00  0.00     0.024 A 
HETATM   32  C2  UNL     1      17.769 -18.302  23.986  1.00  0.00    -0.059 A 
HETATM   33  C1  UNL     1      16.759 -19.130  23.271  1.00  0.00     0.048 C 
HETATM   34  C21 UNL     1      17.390 -17.172  24.687  1.00  0.00     0.024 A 
HETATM   35  C20 UNL     1      18.345 -16.418  25.342  1.00  0.00     0.091 A 
ENDBRANCH  28  29
ENDBRANCH  27  28
ENDBRANCH  26  27
ENDBRANCH  25  26
ENDBRANCH  24  25
ENDBRANCH  23  24
ENDBRANCH  22  23
ENDBRANCH  21  22
ENDBRANCH  20  21
ENDBRANCH  18  19
ENDBRANCH   1  18
BRANCH  13  36
HETATM   36  N9  UNL     1      12.752 -12.156  22.023  1.00  0.00    -0.094 N 
HETATM   37  O1  UNL     1      12.409 -11.888  23.314  1.00  0.00    -0.530 OA
HETATM   38  O2  UNL     1      12.226 -11.342  21.047  1.00  0.00    -0.530 OA
ENDBRANCH  13  36
BRANCH  11  39
HETATM   39  N7  UNL     1      15.105 -10.957  17.862  1.00  0.00    -0.235 N 
HETATM   40  N8  UNL     1      15.293 -10.610  16.671  1.00  0.00    -0.330 N 
ATOM     41  H82 UNL     1      16.221 -10.706  16.258  1.00  0.00     0.178 HD
ATOM     42  H81 UNL     1      14.507 -10.236  16.138  1.00  0.00     0.178 HD
ATOM     43  H7  UNL     1      14.183 -10.867  18.289  1.00  0.00     0.208 HD
ENDBRANCH  11  39
TORSDOF 13
ENDMDL
MODEL 2
REMARK VINA RESULT: -7.835830424      0.996      1.266
REMARK  13 active torsions:
REMARK  status: ('A' for Active; 'I' for Inactive)
REMARK    1  A    between atoms: N1_5  and  C5_6 
REMARK    2  A    between atoms: C5_6  and  C6_7 
REMARK    3  A    between atoms: C6_7  and  C7_8 
REMARK    4  A    between atoms: C7_8  and  C8_9 
REMARK    5  A    between atoms: C8_9  and  C9_10 
REMARK    6  A    between atoms: C9_10  and  C10_11 
REMARK    7  A    between atoms: C10_11  and  C11_12 
REMARK    8  A    between atoms: C11_12  and  C12_13 
REMARK    9  A    between atoms: C12_13  and  C13_14 
REMARK   10  A    between atoms: C14_15  and  C15_16 
REMARK   11  A    between atoms: C15_16  and  N2_17 
REMARK       I    between atoms: N4_21  and  C17_23 
REMARK       I    between atoms: C17_23  and  N6_27 
REMARK   12  A    between atoms: N6_27  and  N7_29 
REMARK   13  A    between atoms: C18_34  and  N9_35 
ROOT
HETATM    1  N2  UNL     1      15.522 -15.076  21.345  1.00  0.00    -0.252 N 
HETATM    2  N3  UNL     1      15.735 -13.828  20.964  1.00  0.00    -0.276 N 
ATOM      3  H3  UNL     1      16.615 -13.596  20.502  1.00  0.00     0.189 HD
HETATM    4  C16 UNL     1      14.820 -12.841  21.168  1.00  0.00     0.186 A 
HETATM    5  N4  UNL     1      15.025 -11.623  20.798  1.00  0.00    -0.170 N 
ATOM      6  H4  UNL     1      14.329 -10.896  20.959  1.00  0.00     0.186 HD
HETATM    7  C17 UNL     1      16.260 -11.332  20.155  1.00  0.00     0.693 C 
HETATM    8  N5  UNL     1      17.329 -11.011  20.808  1.00  0.00    -0.233 N 
ATOM      9  H51 UNL     1      18.215 -10.803  20.347  1.00  0.00     0.174 HD
ATOM     10  H52 UNL     1      17.280 -10.966  21.826  1.00  0.00     0.174 HD
HETATM   11  N6  UNL     1      16.330 -11.395  18.723  1.00  0.00    -0.118 N 
ATOM     12  H6  UNL     1      17.181 -11.747  18.283  1.00  0.00     0.207 HD
HETATM   13  C18 UNL     1      13.625 -13.125  21.791  1.00  0.00     0.222 A 
HETATM   14  N10 UNL     1      13.410 -14.395  22.177  1.00  0.00    -0.307 N 
ATOM     15  H10 UNL     1      12.537 -14.645  22.641  1.00  0.00     0.170 HD
HETATM   16  C19 UNL     1      14.351 -15.343  21.951  1.00  0.00     0.212 A 
HETATM   17  N11 UNL     1      14.120 -16.686  22.363  1.00  0.00    -0.062 NA
ENDROOT
BRANCH   1  18
HETATM   18  C15 UNL     1      16.492 -16.139  21.132  1.00  0.00     0.245 C 
BRANCH  18  19
HETATM   19  C14 UNL     1      17.782 -15.640  21.649  1.00  0.00    -0.085 C 
HETATM   20  C13 UNL     1      18.841 -15.245  22.069  1.00  0.00    -0.105 C 
BRANCH  20  21
HETATM   21  C12 UNL     1      20.136 -14.781  22.563  1.00  0.00     0.094 C 
BRANCH  21  22
HETATM   22  C11 UNL     1      20.002 -13.430  23.257  1.00  0.00     0.012 C 
BRANCH  22  23
HETATM   23  C10 UNL     1      21.131 -13.088  24.140  1.00  0.00     0.001 C 
BRANCH  23  24
HETATM   24  C9  UNL     1      20.916 -12.553  25.485  1.00  0.00     0.000 C 
BRANCH  24  25
HETATM   25  C8  UNL     1      20.580 -13.425  26.615  1.00  0.00     0.000 C 
BRANCH  25  26
HETATM   26  C7  UNL     1      20.916 -14.864  26.529  1.00  0.00     0.002 C 
BRANCH  26  27
HETATM   27  C6  UNL     1      19.595 -15.649  26.346  1.00  0.00     0.020 C 
BRANCH  27  28
HETATM   28  C5  UNL     1      19.893 -17.122  26.194  1.00  0.00     0.128 C 
BRANCH  28  29
HETATM   29  N1  UNL     1      18.637 -17.762  25.825  1.00  0.00    -0.366 N 
HETATM   30  C4  UNL     1      18.254 -18.935  26.361  1.00  0.00     0.091 A 
HETATM   31  C3  UNL     1      17.064 -19.539  26.012  1.00  0.00     0.024 A 
HETATM   32  C2  UNL     1      16.208 -18.963  25.090  1.00  0.00    -0.059 A 
HETATM   33  C1  UNL     1      14.918 -19.588  24.691  1.00  0.00     0.048 C 
HETATM   34  C21 UNL     1      16.608 -17.756  24.544  1.00  0.00     0.024 A 
HETATM   35  C20 UNL     1      17.810 -17.194  24.928  1.00  0.00     0.091 A 
ENDBRANCH  28  29
ENDBRANCH  27  28
ENDBRANCH  26  27
ENDBRANCH  25  26
ENDBRANCH  24  25
ENDBRANCH  23  24
ENDBRANCH  22  23
ENDBRANCH  21  22
ENDBRANCH  20  21
ENDBRANCH  18  19
ENDBRANCH   1  18
BRANCH  13  36
HETATM   36  N9  UNL     1      12.763 -12.197  21.983  1.00  0.00    -0.094 N 
HETATM   37  O1  UNL     1      12.230 -11.517  20.928  1.00  0.00    -0.530 OA
HETATM   38  O2  UNL     1      12.339 -11.842  23.242  1.00  0.00    -0.530 OA
ENDBRANCH  13  36
BRANCH  11  39
HETATM   39  N7  UNL     1      15.269 -10.991  17.915  1.00  0.00    -0.235 N 
HETATM   40  N8  UNL     1      15.511 -10.623  16.740  1.00  0.00    -0.330 N 
ATOM     41  H82 UNL     1      16.472 -10.626  16.397  1.00  0.00     0.178 HD
ATOM     42  H81 UNL     1      14.734 -10.326  16.148  1.00  0.00     0.178 HD
ATOM     43  H7  UNL     1      14.314 -10.994  18.272  1.00  0.00     0.208 HD
ENDBRANCH  11  39
TORSDOF 13
ENDMDL
MODEL 3
REMARK VINA RESULT: -7.803298893      1.463      2.327
REMARK  13 active torsions:
REMARK  status: ('A' for Active; 'I' for Inactive)
REMARK    1  A    between atoms: N1_5  and  C5_6 
REMARK    2  A    between atoms: C5_6  and  C6_7 
REMARK    3  A    between atoms: C6_7  and  C7_8 
REMARK    4  A    between atoms: C7_8  and  C8_9 
REMARK    5  A    between atoms: C8_9  and  C9_10 
REMARK    6  A    between atoms: C9_10  and  C10_11 
REMARK    7  A    between atoms: C10_11  and  C11_12 
REMARK    8  A    between atoms: C11_12  and  C12_13 
REMARK    9  A    between atoms: C12_13  and  C13_14 
REMARK   10  A    between atoms: C14_15  and  C15_16 
REMARK   11  A    between atoms: C15_16  and  N2_17 
REMARK       I    between atoms: N4_21  and  C17_23 
REMARK       I    between atoms: C17_23  and  N6_27 
REMARK   12  A    between atoms: N6_27  and  N7_29 
REMARK   13  A    between atoms: C18_34  and  N9_35 
ROOT
HETATM    1  N2  UNL     1      16.443 -15.235  21.462  1.00  0.00    -0.252 N 
HETATM    2  N3  UNL     1      16.446 -13.989  21.018  1.00  0.00    -0.276 N 
ATOM      3  H3  UNL     1      17.310 -13.604  20.636  1.00  0.00     0.189 HD
HETATM    4  C16 UNL     1      15.334 -13.204  21.054  1.00  0.00     0.186 A 
HETATM    5  N4  UNL     1      15.334 -11.989  20.623  1.00  0.00    -0.170 N 
ATOM      6  H4  UNL     1      14.493 -11.414  20.658  1.00  0.00     0.186 HD
HETATM    7  C17 UNL     1      16.553 -11.480  20.095  1.00  0.00     0.693 C 
HETATM    8  N5  UNL     1      17.453 -10.915  20.832  1.00  0.00    -0.233 N 
ATOM      9  H51 UNL     1      18.326 -10.551  20.454  1.00  0.00     0.174 HD
ATOM     10  H52 UNL     1      17.276 -10.833  21.833  1.00  0.00     0.174 HD
HETATM   11  N6  UNL     1      16.802 -11.596  18.686  1.00  0.00    -0.118 N 
ATOM     12  H6  UNL     1      17.752 -11.785  18.364  1.00  0.00     0.207 HD
HETATM   13  C18 UNL     1      14.155 -13.698  21.567  1.00  0.00     0.222 A 
HETATM   14  N10 UNL     1      14.155 -14.965  22.017  1.00  0.00    -0.307 N 
ATOM     15  H10 UNL     1      13.300 -15.368  22.402  1.00  0.00     0.170 HD
HETATM   16  C19 UNL     1      15.286 -15.709  21.959  1.00  0.00     0.212 A 
HETATM   17  N11 UNL     1      15.281 -17.049  22.437  1.00  0.00    -0.062 NA
ENDROOT
BRANCH   1  18
HETATM   18  C15 UNL     1      17.623 -16.084  21.428  1.00  0.00     0.245 C 
BRANCH  18  19
HETATM   19  C14 UNL     1      18.727 -15.292  22.008  1.00  0.00    -0.085 C 
HETATM   20  C13 UNL     1      19.618 -14.638  22.490  1.00  0.00    -0.105 C 
BRANCH  20  21
HETATM   21  C12 UNL     1      20.686 -13.842  23.092  1.00  0.00     0.094 C 
BRANCH  21  22
HETATM   22  C11 UNL     1      20.120 -12.833  24.084  1.00  0.00     0.012 C 
BRANCH  22  23
HETATM   23  C10 UNL     1      20.998 -12.559  25.236  1.00  0.00     0.001 C 
BRANCH  23  24
HETATM   24  C9  UNL     1      20.776 -13.196  26.535  1.00  0.00     0.000 C 
BRANCH  24  25
HETATM   25  C8  UNL     1      20.550 -14.640  26.655  1.00  0.00     0.000 C 
BRANCH  25  26
HETATM   26  C7  UNL     1      19.159 -15.148  26.633  1.00  0.00     0.002 C 
BRANCH  26  27
HETATM   27  C6  UNL     1      19.145 -16.455  25.805  1.00  0.00     0.020 C 
BRANCH  27  28
HETATM   28  C5  UNL     1      20.464 -17.174  25.962  1.00  0.00     0.128 C 
BRANCH  28  29
HETATM   29  N1  UNL     1      20.957 -17.431  24.615  1.00  0.00    -0.366 N 
HETATM   30  C4  UNL     1      20.239 -18.131  23.719  1.00  0.00     0.091 A 
HETATM   31  C3  UNL     1      20.707 -18.373  22.444  1.00  0.00     0.024 A 
HETATM   32  C2  UNL     1      21.941 -17.904  22.029  1.00  0.00    -0.059 A 
HETATM   33  C1  UNL     1      22.476 -18.148  20.661  1.00  0.00     0.048 C 
HETATM   34  C21 UNL     1      22.673 -17.185  22.957  1.00  0.00     0.024 A 
HETATM   35  C20 UNL     1      22.158 -16.971  24.220  1.00  0.00     0.091 A 
ENDBRANCH  28  29
ENDBRANCH  27  28
ENDBRANCH  26  27
ENDBRANCH  25  26
ENDBRANCH  24  25
ENDBRANCH  23  24
ENDBRANCH  22  23
ENDBRANCH  21  22
ENDBRANCH  20  21
ENDBRANCH  18  19
ENDBRANCH   1  18
BRANCH  13  36
HETATM   36  N9  UNL     1      13.109 -12.960  21.600  1.00  0.00    -0.094 N 
HETATM   37  O1  UNL     1      12.269 -12.899  20.529  1.00  0.00    -0.530 OA
HETATM   38  O2  UNL     1      12.786 -12.201  22.701  1.00  0.00    -0.530 OA
ENDBRANCH  13  36
BRANCH  11  39
HETATM   39  N7  UNL     1      15.784 -11.458  17.744  1.00  0.00    -0.235 N 
HETATM   40  N8  UNL     1      15.975 -10.712  16.753  1.00  0.00    -0.330 N 
ATOM     41  H82 UNL     1      16.864 -10.222  16.654  1.00  0.00     0.178 HD
ATOM     42  H81 UNL     1      15.230 -10.611  16.064  1.00  0.00     0.178 HD
ATOM     43  H7  UNL     1      14.901 -11.955  17.858  1.00  0.00     0.208 HD
ENDBRANCH  11  39
TORSDOF 13
ENDMDL
MODEL 4
REMARK VINA RESULT: -7.722670756      0.893      1.473
REMARK  13 active torsions:
REMARK  status: ('A' for Active; 'I' for Inactive)
REMARK    1  A    between atoms: N1_5  and  C5_6 
REMARK    2  A    between atoms: C5_6  and  C6_7 
REMARK    3  A    between atoms: C6_7  and  C7_8 
REMARK    4  A    between atoms: C7_8  and  C8_9 
REMARK    5  A    between atoms: C8_9  and  C9_10 
REMARK    6  A    between atoms: C9_10  and  C10_11 
REMARK    7  A    between atoms: C10_11  and  C11_12 
REMARK    8  A    between atoms: C11_12  and  C12_13 
REMARK    9  A    between atoms: C12_13  and  C13_14 
REMARK   10  A    between atoms: C14_15  and  C15_16 
REMARK   11  A    between atoms: C15_16  and  N2_17 
REMARK       I    between atoms: N4_21  and  C17_23 
REMARK       I    between atoms: C17_23  and  N6_27 
REMARK   12  A    between atoms: N6_27  and  N7_29 
REMARK   13  A    between atoms: C18_34  and  N9_35 
ROOT
HETATM    1  N2  UNL     1      15.283 -15.068  21.290  1.00  0.00    -0.252 N 
HETATM    2  N3  UNL     1      15.553 -13.831  20.907  1.00  0.00    -0.276 N 
ATOM      3  H3  UNL     1      16.435 -13.645  20.430  1.00  0.00     0.189 HD
HETATM    4  C16 UNL     1      14.694 -12.799  21.129  1.00  0.00     0.186 A 
HETATM    5  N4  UNL     1      14.956 -11.592  20.758  1.00  0.00    -0.170 N 
ATOM      6  H4  UNL     1      14.301 -10.831  20.933  1.00  0.00     0.186 HD
HETATM    7  C17 UNL     1      16.192 -11.364  20.093  1.00  0.00     0.693 C 
HETATM    8  N5  UNL     1      17.288 -11.101  20.727  1.00  0.00    -0.233 N 
ATOM      9  H51 UNL     1      18.175 -10.937  20.251  1.00  0.00     0.174 HD
ATOM     10  H52 UNL     1      17.259 -11.056  21.746  1.00  0.00     0.174 HD
HETATM   11  N6  UNL     1      16.233 -11.427  18.660  1.00  0.00    -0.118 N 
ATOM     12  H6  UNL     1      17.057 -11.822  18.204  1.00  0.00     0.207 HD
HETATM   13  C18 UNL     1      13.498 -13.022  21.774  1.00  0.00     0.222 A 
HETATM   14  N10 UNL     1      13.224 -14.280  22.161  1.00  0.00    -0.307 N 
ATOM     15  H10 UNL     1      12.347 -14.486  22.640  1.00  0.00     0.170 HD
HETATM   16  C19 UNL     1      14.111 -15.276  21.917  1.00  0.00     0.212 A 
HETATM   17  N11 UNL     1      13.818 -16.606  22.330  1.00  0.00    -0.062 NA
ENDROOT
BRANCH   1  18
HETATM   18  C15 UNL     1      16.192 -16.179  21.058  1.00  0.00     0.245 C 
BRANCH  18  19
HETATM   19  C14 UNL     1      17.559 -15.624  21.124  1.00  0.00    -0.085 C 
HETATM   20  C13 UNL     1      18.677 -15.175  21.164  1.00  0.00    -0.105 C 
BRANCH  20  21
HETATM   21  C12 UNL     1      20.033 -14.627  21.191  1.00  0.00     0.094 C 
BRANCH  21  22
HETATM   22  C11 UNL     1      20.060 -13.276  21.895  1.00  0.00     0.012 C 
BRANCH  22  23
HETATM   23  C10 UNL     1      20.805 -13.270  23.166  1.00  0.00     0.001 C 
BRANCH  23  24
HETATM   24  C9  UNL     1      20.143 -12.986  24.440  1.00  0.00     0.000 C 
BRANCH  24  25
HETATM   25  C8  UNL     1      20.901 -12.558  25.621  1.00  0.00     0.000 C 
BRANCH  25  26
HETATM   26  C7  UNL     1      20.782 -13.346  26.869  1.00  0.00     0.002 C 
BRANCH  26  27
HETATM   27  C6  UNL     1      20.277 -14.759  26.491  1.00  0.00     0.020 C 
BRANCH  27  28
HETATM   28  C5  UNL     1      21.450 -15.645  26.144  1.00  0.00     0.128 C 
BRANCH  28  29
HETATM   29  N1  UNL     1      21.035 -16.452  25.003  1.00  0.00    -0.366 N 
HETATM   30  C4  UNL     1      19.770 -16.889  24.866  1.00  0.00     0.091 A 
HETATM   31  C3  UNL     1      19.379 -17.653  23.786  1.00  0.00     0.024 A 
HETATM   32  C2  UNL     1      20.274 -18.004  22.791  1.00  0.00    -0.059 A 
HETATM   33  C1  UNL     1      19.885 -18.826  21.613  1.00  0.00     0.048 C 
HETATM   34  C21 UNL     1      21.573 -17.550  22.939  1.00  0.00     0.024 A 
HETATM   35  C20 UNL     1      21.912 -16.789  24.041  1.00  0.00     0.091 A 
ENDBRANCH  28  29
ENDBRANCH  27  28
ENDBRANCH  26  27
ENDBRANCH  25  26
ENDBRANCH  24  25
ENDBRANCH  23  24
ENDBRANCH  22  23
ENDBRANCH  21  22
ENDBRANCH  20  21
ENDBRANCH  18  19
ENDBRANCH   1  18
BRANCH  13  36
HETATM   36  N9  UNL     1      12.689 -12.051  21.982  1.00  0.00    -0.094 N 
HETATM   37  O1  UNL     1      12.223 -11.301  20.943  1.00  0.00    -0.530 OA
HETATM   38  O2  UNL     1      12.256 -11.719  23.244  1.00  0.00    -0.530 OA
ENDBRANCH  13  36
BRANCH  11  39
HETATM   39  N7  UNL     1      15.181 -10.966  17.872  1.00  0.00    -0.235 N 
HETATM   40  N8  UNL     1      15.424 -10.585  16.701  1.00  0.00    -0.330 N 
ATOM     41  H82 UNL     1      16.380 -10.620  16.348  1.00  0.00     0.178 HD
ATOM     42  H81 UNL     1      14.653 -10.248  16.124  1.00  0.00     0.178 HD
ATOM     43  H7  UNL     1      14.230 -10.939  18.240  1.00  0.00     0.208 HD
ENDBRANCH  11  39
TORSDOF 13
ENDMDL
MODEL 5
REMARK VINA RESULT: -7.528071815      2.042      3.086
REMARK  13 active torsions:
REMARK  status: ('A' for Active; 'I' for Inactive)
REMARK    1  A    between atoms: N1_5  and  C5_6 
REMARK    2  A    between atoms: C5_6  and  C6_7 
REMARK    3  A    between atoms: C6_7  and  C7_8 
REMARK    4  A    between atoms: C7_8  and  C8_9 
REMARK    5  A    between atoms: C8_9  and  C9_10 
REMARK    6  A    between atoms: C9_10  and  C10_11 
REMARK    7  A    between atoms: C10_11  and  C11_12 
REMARK    8  A    between atoms: C11_12  and  C12_13 
REMARK    9  A    between atoms: C12_13  and  C13_14 
REMARK   10  A    between atoms: C14_15  and  C15_16 
REMARK   11  A    between atoms: C15_16  and  N2_17 
REMARK       I    between atoms: N4_21  and  C17_23 
REMARK       I    between atoms: C17_23  and  N6_27 
REMARK   12  A    between atoms: N6_27  and  N7_29 
REMARK   13  A    between atoms: C18_34  and  N9_35 
ROOT
HETATM    1  N2  UNL     1      16.360 -15.276  21.514  1.00  0.00    -0.252 N 
HETATM    2  N3  UNL     1      16.384 -14.037  21.053  1.00  0.00    -0.276 N 
ATOM      3  H3  UNL     1      17.255 -13.671  20.668  1.00  0.00     0.189 HD
HETATM    4  C16 UNL     1      15.286 -13.233  21.076  1.00  0.00     0.186 A 
HETATM    5  N4  UNL     1      15.307 -12.024  20.627  1.00  0.00    -0.170 N 
ATOM      6  H4  UNL     1      14.474 -11.435  20.653  1.00  0.00     0.186 HD
HETATM    7  C17 UNL     1      16.535 -11.543  20.095  1.00  0.00     0.693 C 
HETATM    8  N5  UNL     1      17.442 -10.982  20.827  1.00  0.00    -0.233 N 
ATOM      9  H51 UNL     1      18.322 -10.638  20.445  1.00  0.00     0.174 HD
ATOM     10  H52 UNL     1      17.264 -10.883  21.826  1.00  0.00     0.174 HD
HETATM   11  N6  UNL     1      16.784 -11.682  18.688  1.00  0.00    -0.118 N 
ATOM     12  H6  UNL     1      17.732 -11.892  18.372  1.00  0.00     0.207 HD
HETATM   13  C18 UNL     1      14.098 -13.701  21.592  1.00  0.00     0.222 A 
HETATM   14  N10 UNL     1      14.075 -14.961  22.060  1.00  0.00    -0.307 N 
ATOM     15  H10 UNL     1      13.214 -15.344  22.449  1.00  0.00     0.170 HD
HETATM   16  C19 UNL     1      15.194 -15.724  22.015  1.00  0.00     0.212 A 
HETATM   17  N11 UNL     1      15.166 -17.057  22.512  1.00  0.00    -0.062 NA
ENDROOT
BRANCH   1  18
HETATM   18  C15 UNL     1      17.526 -16.145  21.494  1.00  0.00     0.245 C 
BRANCH  18  19
HETATM   19  C14 UNL     1      18.637 -15.368  22.080  1.00  0.00    -0.085 C 
HETATM   20  C13 UNL     1      19.550 -14.731  22.545  1.00  0.00    -0.105 C 
BRANCH  20  21
HETATM   21  C12 UNL     1      20.656 -13.946  23.090  1.00  0.00     0.094 C 
BRANCH  21  22
HETATM   22  C11 UNL     1      20.150 -12.909  24.085  1.00  0.00     0.012 C 
BRANCH  22  23
HETATM   23  C10 UNL     1      20.973 -12.785  25.301  1.00  0.00     0.001 C 
BRANCH  23  24
HETATM   24  C9  UNL     1      20.981 -13.826  26.330  1.00  0.00     0.000 C 
BRANCH  24  25
HETATM   25  C8  UNL     1      19.750 -14.511  26.740  1.00  0.00     0.000 C 
BRANCH  25  26
HETATM   26  C7  UNL     1      19.434 -15.828  26.142  1.00  0.00     0.002 C 
BRANCH  26  27
HETATM   27  C6  UNL     1      20.759 -16.612  25.994  1.00  0.00     0.020 C 
BRANCH  27  28
HETATM   28  C5  UNL     1      20.754 -17.383  24.695  1.00  0.00     0.128 C 
BRANCH  28  29
HETATM   29  N1  UNL     1      22.074 -17.206  24.104  1.00  0.00    -0.366 N 
HETATM   30  C4  UNL     1      22.426 -17.815  22.957  1.00  0.00     0.091 A 
HETATM   31  C3  UNL     1      23.675 -17.646  22.398  1.00  0.00     0.024 A 
HETATM   32  C2  UNL     1      24.627 -16.838  22.995  1.00  0.00    -0.059 A 
HETATM   33  C1  UNL     1      25.985 -16.634  22.419  1.00  0.00     0.048 C 
HETATM   34  C21 UNL     1      24.258 -16.215  24.174  1.00  0.00     0.024 A 
HETATM   35  C20 UNL     1      22.994 -16.419  24.691  1.00  0.00     0.091 A 
ENDBRANCH  28  29
ENDBRANCH  27  28
ENDBRANCH  26  27
ENDBRANCH  25  26
ENDBRANCH  24  25
ENDBRANCH  23  24
ENDBRANCH  22  23
ENDBRANCH  21  22
ENDBRANCH  20  21
ENDBRANCH  18  19
ENDBRANCH   1  18
BRANCH  13  36
HETATM   36  N9  UNL     1      13.064 -12.944  21.614  1.00  0.00    -0.094 N 
HETATM   37  O1  UNL     1      12.254 -12.846  20.521  1.00  0.00    -0.530 OA
HETATM   38  O2  UNL     1      12.723 -12.203  22.720  1.00  0.00    -0.530 OA
ENDBRANCH  13  36
BRANCH  11  39
HETATM   39  N7  UNL     1      15.771 -11.541  17.743  1.00  0.00    -0.235 N 
HETATM   40  N8  UNL     1      15.899 -10.673  16.845  1.00  0.00    -0.330 N 
ATOM     41  H82 UNL     1      16.737 -10.091  16.822  1.00  0.00     0.178 HD
ATOM     42  H81 UNL     1      15.157 -10.570  16.153  1.00  0.00     0.178 HD
ATOM     43  H7  UNL     1      14.940 -12.131  17.779  1.00  0.00     0.208 HD
ENDBRANCH  11  39
TORSDOF 13
ENDMDL
