MODEL 1
REMARK VINA RESULT: -8.669669284      0.000      0.000
REMARK  11 active torsions:
REMARK  status: ('A' for Active; 'I' for Inactive)
REMARK    1  A    between atoms: N1_5  and  C5_6 
REMARK    2  A    between atoms: C5_6  and  C6_7 
REMARK    3  A    between atoms: C6_7  and  C7_8 
REMARK    4  A    between atoms: C7_8  and  C8_9 
REMARK    5  A    between atoms: N2_12  and  C11_13 
REMARK    6  A    between atoms: C11_13  and  C12_14 
REMARK    7  A    between atoms: C12_14  and  C13_15 
REMARK    8  A    between atoms: C13_15  and  C14_16 
REMARK    9  A    between atoms: C14_16  and  C15_17 
REMARK   10  A    between atoms: C15_17  and  C16_18 
REMARK   11  A    between atoms: N6_30  and  N7_31 
ROOT
HETATM    1  C14 UNL     1      16.460 -11.931  18.608  1.00  0.00     0.008 C 
ENDROOT
BRANCH   1   2
HETATM    2  C13 UNL     1      17.004 -11.205  19.796  1.00  0.00     0.002 C 
BRANCH   2   3
HETATM    3  C12 UNL     1      17.840 -12.023  20.720  1.00  0.00     0.020 C 
BRANCH   3   4
HETATM    4  C11 UNL     1      17.040 -12.858  21.675  1.00  0.00     0.128 C 
BRANCH   4   5
HETATM    5  N2  UNL     1      17.566 -14.153  21.947  1.00  0.00    -0.366 N 
HETATM    6  C10 UNL     1      16.757 -15.213  21.943  1.00  0.00     0.091 A 
HETATM    7  C9  UNL     1      17.202 -16.491  22.197  1.00  0.00     0.024 A 
HETATM    8  C8  UNL     1      18.516 -16.711  22.467  1.00  0.00    -0.056 A 
HETATM    9  C23 UNL     1      19.371 -15.598  22.473  1.00  0.00     0.024 A 
HETATM   10  C22 UNL     1      18.861 -14.355  22.211  1.00  0.00     0.091 A 
BRANCH   8  11
HETATM   11  C7  UNL     1      19.100 -18.060  22.732  1.00  0.00     0.040 C 
BRANCH  11  12
HETATM   12  C6  UNL     1      18.741 -18.701  23.993  1.00  0.00     0.025 C 
BRANCH  12  13
HETATM   13  C5  UNL     1      19.578 -18.658  25.195  1.00  0.00     0.128 C 
BRANCH  13  14
HETATM   14  N1  UNL     1      19.998 -17.340  25.592  1.00  0.00    -0.366 N 
HETATM   15  C4  UNL     1      19.035 -16.498  26.094  1.00  0.00     0.091 A 
HETATM   16  C3  UNL     1      19.298 -15.206  26.476  1.00  0.00     0.024 A 
HETATM   17  C2  UNL     1      20.566 -14.681  26.370  1.00  0.00    -0.059 A 
HETATM   18  C1  UNL     1      20.858 -13.285  26.781  1.00  0.00     0.048 C 
HETATM   19  C25 UNL     1      21.539 -15.516  25.866  1.00  0.00     0.024 A 
HETATM   20  C24 UNL     1      21.219 -16.822  25.493  1.00  0.00     0.091 A 
ENDBRANCH  13  14
ENDBRANCH  12  13
ENDBRANCH  11  12
ENDBRANCH   8  11
ENDBRANCH   4   5
ENDBRANCH   3   4
ENDBRANCH   2   3
ENDBRANCH   1   2
BRANCH   1  21
HETATM   21  C15 UNL     1      14.989 -11.735  18.428  1.00  0.00     0.079 C 
BRANCH  21  22
HETATM   22  C16 UNL     1      14.194 -12.298  19.541  1.00  0.00     0.124 A 
HETATM   23  N3  UNL     1      13.560 -11.582  20.486  1.00  0.00    -0.128 N 
HETATM   24  C17 UNL     1      13.537 -10.227  20.587  1.00  0.00     0.211 C 
HETATM   25  C20 UNL     1      12.907 -12.508  21.378  1.00  0.00     0.730 A 
HETATM   26  N4  UNL     1      13.182  -9.449  21.623  1.00  0.00    -0.314 N 
HETATM   27  C18 UNL     1      12.460  -9.823  22.720  1.00  0.00     0.315 C 
ATOM     28  H4  UNL     1      13.484  -8.475  21.587  1.00  0.00     0.170 HD
HETATM   29  O1  UNL     1      12.228  -8.855  23.506  1.00  0.00    -0.262 OA
HETATM   30  C19 UNL     1      11.968 -11.051  23.078  1.00  0.00     0.328 C 
HETATM   31  O2  UNL     1      11.256 -11.063  24.102  1.00  0.00    -0.261 OA
HETATM   32  N5  UNL     1      12.153 -12.229  22.473  1.00  0.00    -0.148 N 
ATOM     33  H5  UNL     1      11.665 -13.022  22.889  1.00  0.00     0.188 HD
HETATM   34  N6  UNL     1      13.202 -13.720  20.895  1.00  0.00    -0.023 N 
HETATM   35  N8  UNL     1      13.967 -13.578  19.805  1.00  0.00    -0.248 N 
HETATM   36  C21 UNL     1      14.464 -14.686  19.037  1.00  0.00     0.182 C 
BRANCH  34  37
HETATM   37  N7  UNL     1      12.770 -14.927  21.456  1.00  0.00    -0.309 N 
ATOM     38  H72 UNL     1      12.663 -15.130  22.449  1.00  0.00     0.179 HD
ATOM     39  H71 UNL     1      12.510 -15.755  20.919  1.00  0.00     0.179 HD
ENDBRANCH  34  37
ENDBRANCH  21  22
ENDBRANCH   1  21
TORSDOF 11
ENDMDL
MODEL 2
REMARK VINA RESULT: -8.642305463      1.103      2.814
REMARK  11 active torsions:
REMARK  status: ('A' for Active; 'I' for Inactive)
REMARK    1  A    between atoms: N1_5  and  C5_6 
REMARK    2  A    between atoms: C5_6  and  C6_7 
REMARK    3  A    between atoms: C6_7  and  C7_8 
REMARK    4  A    between atoms: C7_8  and  C8_9 
REMARK    5  A    between atoms: N2_12  and  C11_13 
REMARK    6  A    between atoms: C11_13  and  C12_14 
REMARK    7  A    between atoms: C12_14  and  C13_15 
REMARK    8  A    between atoms: C13_15  and  C14_16 
REMARK    9  A    between atoms: C14_16  and  C15_17 
REMARK   10  A    between atoms: C15_17  and  C16_18 
REMARK   11  A    between atoms: N6_30  and  N7_31 
ROOT
HETATM    1  C14 UNL     1      16.435 -11.949  18.548  1.00  0.00     0.008 C 
ENDROOT
BRANCH   1   2
HETATM    2  C13 UNL     1      17.007 -11.683  19.903  1.00  0.00     0.002 C 
BRANCH   2   3
HETATM    3  C12 UNL     1      18.398 -12.174  20.119  1.00  0.00     0.020 C 
BRANCH   3   4
HETATM    4  C11 UNL     1      18.465 -13.491  20.835  1.00  0.00     0.128 C 
BRANCH   4   5
HETATM    5  N2  UNL     1      19.036 -13.450  22.140  1.00  0.00    -0.366 N 
HETATM    6  C10 UNL     1      20.324 -13.136  22.292  1.00  0.00     0.091 A 
HETATM    7  C9  UNL     1      20.936 -13.078  23.524  1.00  0.00     0.024 A 
HETATM    8  C8  UNL     1      20.222 -13.348  24.649  1.00  0.00    -0.056 A 
HETATM    9  C23 UNL     1      18.868 -13.679  24.494  1.00  0.00     0.024 A 
HETATM   10  C22 UNL     1      18.323 -13.718  23.239  1.00  0.00     0.091 A 
BRANCH   8  11
HETATM   11  C7  UNL     1      20.788 -13.290  26.030  1.00  0.00     0.040 C 
BRANCH  11  12
HETATM   12  C6  UNL     1      20.992 -14.561  26.716  1.00  0.00     0.025 C 
BRANCH  12  13
HETATM   13  C5  UNL     1      21.483 -15.773  26.055  1.00  0.00     0.128 C 
BRANCH  13  14
HETATM   14  N1  UNL     1      20.456 -16.620  25.508  1.00  0.00    -0.366 N 
HETATM   15  C4  UNL     1      20.574 -16.978  24.187  1.00  0.00     0.091 A 
HETATM   16  C3  UNL     1      19.646 -17.753  23.537  1.00  0.00     0.024 A 
HETATM   17  C2  UNL     1      18.528 -18.217  24.193  1.00  0.00    -0.059 A 
HETATM   18  C1  UNL     1      17.520 -19.055  23.497  1.00  0.00     0.048 C 
HETATM   19  C25 UNL     1      18.399 -17.863  25.518  1.00  0.00     0.024 A 
HETATM   20  C24 UNL     1      19.372 -17.073  26.131  1.00  0.00     0.091 A 
ENDBRANCH  13  14
ENDBRANCH  12  13
ENDBRANCH  11  12
ENDBRANCH   8  11
ENDBRANCH   4   5
ENDBRANCH   3   4
ENDBRANCH   2   3
ENDBRANCH   1   2
BRANCH   1  21
HETATM   21  C15 UNL     1      14.982 -11.611  18.452  1.00  0.00     0.079 C 
BRANCH  21  22
HETATM   22  C16 UNL     1      14.182 -12.201  19.547  1.00  0.00     0.124 A 
HETATM   23  N3  UNL     1      13.547 -11.509  20.509  1.00  0.00    -0.128 N 
HETATM   24  C17 UNL     1      13.528 -10.157  20.646  1.00  0.00     0.211 C 
HETATM   25  C20 UNL     1      12.888 -12.457  21.374  1.00  0.00     0.730 A 
HETATM   26  N4  UNL     1      13.172  -9.406  21.702  1.00  0.00    -0.314 N 
HETATM   27  C18 UNL     1      12.446  -9.807  22.786  1.00  0.00     0.315 C 
ATOM     28  H4  UNL     1      13.478  -8.433  21.693  1.00  0.00     0.170 HD
HETATM   29  O1  UNL     1      12.214  -8.860  23.597  1.00  0.00    -0.262 OA
HETATM   30  C19 UNL     1      11.949 -11.043  23.109  1.00  0.00     0.328 C 
HETATM   31  O2  UNL     1      11.234 -11.080  24.131  1.00  0.00    -0.261 OA
HETATM   32  N5  UNL     1      12.133 -12.205  22.474  1.00  0.00    -0.148 N 
ATOM     33  H5  UNL     1      11.641 -13.007  22.867  1.00  0.00     0.188 HD
HETATM   34  N6  UNL     1      13.182 -13.656  20.859  1.00  0.00    -0.023 N 
HETATM   35  N8  UNL     1      13.950 -13.487  19.776  1.00  0.00    -0.248 N 
HETATM   36  C21 UNL     1      14.447 -14.576  18.980  1.00  0.00     0.182 C 
BRANCH  34  37
HETATM   37  N7  UNL     1      12.745 -14.877  21.386  1.00  0.00    -0.309 N 
ATOM     38  H72 UNL     1      13.333 -15.625  21.751  1.00  0.00     0.179 HD
ATOM     39  H71 UNL     1      11.767 -15.157  21.464  1.00  0.00     0.179 HD
ENDBRANCH  34  37
ENDBRANCH  21  22
ENDBRANCH   1  21
TORSDOF 11
ENDMDL
MODEL 3
REMARK VINA RESULT: -8.632585151      1.682      2.801
REMARK  11 active torsions:
REMARK  status: ('A' for Active; 'I' for Inactive)
REMARK    1  A    between atoms: N1_5  and  C5_6 
REMARK    2  A    between atoms: C5_6  and  C6_7 
REMARK    3  A    between atoms: C6_7  and  C7_8 
REMARK    4  A    between atoms: C7_8  and  C8_9 
REMARK    5  A    between atoms: N2_12  and  C11_13 
REMARK    6  A    between atoms: C11_13  and  C12_14 
REMARK    7  A    between atoms: C12_14  and  C13_15 
REMARK    8  A    between atoms: C13_15  and  C14_16 
REMARK    9  A    between atoms: C14_16  and  C15_17 
REMARK   10  A    between atoms: C15_17  and  C16_18 
REMARK   11  A    between atoms: N6_30  and  N7_31 
ROOT
HETATM    1  C14 UNL     1      16.492 -11.934  18.645  1.00  0.00     0.008 C 
ENDROOT
BRANCH   1   2
HETATM    2  C13 UNL     1      17.070 -11.529  19.963  1.00  0.00     0.002 C 
BRANCH   2   3
HETATM    3  C12 UNL     1      18.496 -11.904  20.179  1.00  0.00     0.020 C 
BRANCH   3   4
HETATM    4  C11 UNL     1      18.677 -13.295  20.711  1.00  0.00     0.128 C 
BRANCH   4   5
HETATM    5  N2  UNL     1      19.139 -13.383  22.056  1.00  0.00    -0.366 N 
HETATM    6  C10 UNL     1      18.303 -13.765  23.021  1.00  0.00     0.091 A 
HETATM    7  C9  UNL     1      18.686 -13.871  24.340  1.00  0.00     0.024 A 
HETATM    8  C8  UNL     1      19.964 -13.580  24.701  1.00  0.00    -0.056 A 
HETATM    9  C23 UNL     1      20.847 -13.177  23.687  1.00  0.00     0.024 A 
HETATM   10  C22 UNL     1      20.399 -13.094  22.396  1.00  0.00     0.091 A 
BRANCH   8  11
HETATM   11  C7  UNL     1      20.483 -13.686  26.097  1.00  0.00     0.040 C 
BRANCH  11  12
HETATM   12  C6  UNL     1      21.222 -14.896  26.439  1.00  0.00     0.025 C 
BRANCH  12  13
HETATM   13  C5  UNL     1      20.927 -16.217  25.876  1.00  0.00     0.128 C 
BRANCH  13  14
HETATM   14  N1  UNL     1      21.758 -16.598  24.765  1.00  0.00    -0.366 N 
HETATM   15  C4  UNL     1      21.125 -17.028  23.624  1.00  0.00     0.091 A 
HETATM   16  C3  UNL     1      21.801 -17.452  22.508  1.00  0.00     0.024 A 
HETATM   17  C2  UNL     1      23.178 -17.467  22.478  1.00  0.00    -0.059 A 
HETATM   18  C1  UNL     1      23.917 -17.923  21.275  1.00  0.00     0.048 C 
HETATM   19  C25 UNL     1      23.823 -17.039  23.617  1.00  0.00     0.024 A 
HETATM   20  C24 UNL     1      23.087 -16.618  24.725  1.00  0.00     0.091 A 
ENDBRANCH  13  14
ENDBRANCH  12  13
ENDBRANCH  11  12
ENDBRANCH   8  11
ENDBRANCH   4   5
ENDBRANCH   3   4
ENDBRANCH   2   3
ENDBRANCH   1   2
BRANCH   1  21
HETATM   21  C15 UNL     1      15.035 -11.623  18.527  1.00  0.00     0.079 C 
BRANCH  21  22
HETATM   22  C16 UNL     1      14.232 -12.205  19.624  1.00  0.00     0.124 A 
HETATM   23  N3  UNL     1      13.573 -11.506  20.565  1.00  0.00    -0.128 N 
HETATM   24  C17 UNL     1      13.528 -10.152  20.674  1.00  0.00     0.211 C 
HETATM   25  C20 UNL     1      12.921 -12.449  21.441  1.00  0.00     0.730 A 
HETATM   26  N4  UNL     1      13.145  -9.387  21.710  1.00  0.00    -0.314 N 
HETATM   27  C18 UNL     1      12.413  -9.780  22.793  1.00  0.00     0.315 C 
ATOM     28  H4  UNL     1      13.433  -8.409  21.685  1.00  0.00     0.170 HD
HETATM   29  O1  UNL     1      12.154  -8.822  23.583  1.00  0.00    -0.262 OA
HETATM   30  C19 UNL     1      11.935 -11.018  23.136  1.00  0.00     0.328 C 
HETATM   31  O2  UNL     1      11.207 -11.048  24.149  1.00  0.00    -0.261 OA
HETATM   32  N5  UNL     1      12.147 -12.189  22.526  1.00  0.00    -0.148 N 
ATOM     33  H5  UNL     1      11.665 -12.992  22.929  1.00  0.00     0.188 HD
HETATM   34  N6  UNL     1      13.243 -13.652  20.954  1.00  0.00    -0.023 N 
HETATM   35  N8  UNL     1      14.021 -13.491  19.876  1.00  0.00    -0.248 N 
HETATM   36  C21 UNL     1      14.547 -14.585  19.108  1.00  0.00     0.182 C 
BRANCH  34  37
HETATM   37  N7  UNL     1      12.821 -14.870  21.499  1.00  0.00    -0.309 N 
ATOM     38  H72 UNL     1      11.891 -15.281  21.419  1.00  0.00     0.179 HD
ATOM     39  H71 UNL     1      13.411 -15.494  22.050  1.00  0.00     0.179 HD
ENDBRANCH  34  37
ENDBRANCH  21  22
ENDBRANCH   1  21
TORSDOF 11
ENDMDL
MODEL 4
REMARK VINA RESULT: -8.622592740      1.095      2.632
REMARK  11 active torsions:
REMARK  status: ('A' for Active; 'I' for Inactive)
REMARK    1  A    between atoms: N1_5  and  C5_6 
REMARK    2  A    between atoms: C5_6  and  C6_7 
REMARK    3  A    between atoms: C6_7  and  C7_8 
REMARK    4  A    between atoms: C7_8  and  C8_9 
REMARK    5  A    between atoms: N2_12  and  C11_13 
REMARK    6  A    between atoms: C11_13  and  C12_14 
REMARK    7  A    between atoms: C12_14  and  C13_15 
REMARK    8  A    between atoms: C13_15  and  C14_16 
REMARK    9  A    between atoms: C14_16  and  C15_17 
REMARK   10  A    between atoms: C15_17  and  C16_18 
REMARK   11  A    between atoms: N6_30  and  N7_31 
ROOT
HETATM    1  C14 UNL     1      16.439 -11.949  18.555  1.00  0.00     0.008 C 
ENDROOT
BRANCH   1   2
HETATM    2  C13 UNL     1      17.023 -11.569  19.878  1.00  0.00     0.002 C 
BRANCH   2   3
HETATM    3  C12 UNL     1      18.387 -12.104  20.154  1.00  0.00     0.020 C 
BRANCH   3   4
HETATM    4  C11 UNL     1      18.381 -13.414  20.885  1.00  0.00     0.128 C 
BRANCH   4   5
HETATM    5  N2  UNL     1      18.998 -13.401  22.170  1.00  0.00    -0.366 N 
HETATM    6  C10 UNL     1      18.287 -13.726  23.251  1.00  0.00     0.091 A 
HETATM    7  C9  UNL     1      18.822 -13.734  24.520  1.00  0.00     0.024 A 
HETATM    8  C8  UNL     1      20.127 -13.402  24.708  1.00  0.00    -0.056 A 
HETATM    9  C23 UNL     1      20.878 -13.060  23.573  1.00  0.00     0.024 A 
HETATM   10  C22 UNL     1      20.282 -13.073  22.341  1.00  0.00     0.091 A 
BRANCH   8  11
HETATM   11  C7  UNL     1      20.806 -13.403  26.038  1.00  0.00     0.040 C 
BRANCH  11  12
HETATM   12  C6  UNL     1      21.067 -14.703  26.647  1.00  0.00     0.025 C 
BRANCH  12  13
HETATM   13  C5  UNL     1      21.540 -15.871  25.900  1.00  0.00     0.128 C 
BRANCH  13  14
HETATM   14  N1  UNL     1      20.499 -16.679  25.321  1.00  0.00    -0.366 N 
HETATM   15  C4  UNL     1      19.507 -17.123  26.162  1.00  0.00     0.091 A 
HETATM   16  C3  UNL     1      18.477 -17.927  25.743  1.00  0.00     0.024 A 
HETATM   17  C2  UNL     1      18.388 -18.338  24.432  1.00  0.00    -0.059 A 
HETATM   18  C1  UNL     1      17.278 -19.208  23.970  1.00  0.00     0.048 C 
HETATM   19  C25 UNL     1      19.379 -17.900  23.580  1.00  0.00     0.024 A 
HETATM   20  C24 UNL     1      20.404 -17.083  24.058  1.00  0.00     0.091 A 
ENDBRANCH  13  14
ENDBRANCH  12  13
ENDBRANCH  11  12
ENDBRANCH   8  11
ENDBRANCH   4   5
ENDBRANCH   3   4
ENDBRANCH   2   3
ENDBRANCH   1   2
BRANCH   1  21
HETATM   21  C15 UNL     1      14.981 -11.637  18.451  1.00  0.00     0.079 C 
BRANCH  21  22
HETATM   22  C16 UNL     1      14.188 -12.222  19.554  1.00  0.00     0.124 A 
HETATM   23  N3  UNL     1      13.552 -11.526  20.512  1.00  0.00    -0.128 N 
HETATM   24  C17 UNL     1      13.525 -10.173  20.637  1.00  0.00     0.211 C 
HETATM   25  C20 UNL     1      12.902 -12.470  21.387  1.00  0.00     0.730 A 
HETATM   26  N4  UNL     1      13.168  -9.415  21.688  1.00  0.00    -0.314 N 
HETATM   27  C18 UNL     1      12.448  -9.811  22.778  1.00  0.00     0.315 C 
ATOM     28  H4  UNL     1      13.468  -8.440  21.669  1.00  0.00     0.170 HD
HETATM   29  O1  UNL     1      12.213  -8.859  23.582  1.00  0.00    -0.262 OA
HETATM   30  C19 UNL     1      11.960 -11.047  23.114  1.00  0.00     0.328 C 
HETATM   31  O2  UNL     1      11.248 -11.080  24.137  1.00  0.00    -0.261 OA
HETATM   32  N5  UNL     1      12.148 -12.213  22.488  1.00  0.00    -0.148 N 
ATOM     33  H5  UNL     1      11.662 -13.015  22.889  1.00  0.00     0.188 HD
HETATM   34  N6  UNL     1      13.201 -13.672  20.882  1.00  0.00    -0.023 N 
HETATM   35  N8  UNL     1      13.965 -13.508  19.794  1.00  0.00    -0.248 N 
HETATM   36  C21 UNL     1      14.465 -14.600  19.006  1.00  0.00     0.182 C 
BRANCH  34  37
HETATM   37  N7  UNL     1      12.773 -14.891  21.421  1.00  0.00    -0.309 N 
ATOM     38  H72 UNL     1      12.126 -15.550  20.989  1.00  0.00     0.179 HD
ATOM     39  H71 UNL     1      13.067 -15.260  22.325  1.00  0.00     0.179 HD
ENDBRANCH  34  37
ENDBRANCH  21  22
ENDBRANCH   1  21
TORSDOF 11
ENDMDL
MODEL 5
REMARK VINA RESULT: -8.619989636      1.530      3.376
REMARK  11 active torsions:
REMARK  status: ('A' for Active; 'I' for Inactive)
REMARK    1  A    between atoms: N1_5  and  C5_6 
REMARK    2  A    between atoms: C5_6  and  C6_7 
REMARK    3  A    between atoms: C6_7  and  C7_8 
REMARK    4  A    between atoms: C7_8  and  C8_9 
REMARK    5  A    between atoms: N2_12  and  C11_13 
REMARK    6  A    between atoms: C11_13  and  C12_14 
REMARK    7  A    between atoms: C12_14  and  C13_15 
REMARK    8  A    between atoms: C13_15  and  C14_16 
REMARK    9  A    between atoms: C14_16  and  C15_17 
REMARK   10  A    between atoms: C15_17  and  C16_18 
REMARK   11  A    between atoms: N6_30  and  N7_31 
ROOT
HETATM    1  C14 UNL     1      13.098 -15.366  21.200  1.00  0.00     0.008 C 
ENDROOT
BRANCH   1   2
HETATM    2  C13 UNL     1      14.269 -16.217  20.829  1.00  0.00     0.002 C 
BRANCH   2   3
HETATM    3  C12 UNL     1      15.503 -15.996  21.634  1.00  0.00     0.020 C 
BRANCH   3   4
HETATM    4  C11 UNL     1      16.720 -15.717  20.804  1.00  0.00     0.128 C 
BRANCH   4   5
HETATM    5  N2  UNL     1      17.788 -15.060  21.482  1.00  0.00    -0.366 N 
HETATM    6  C10 UNL     1      18.855 -15.758  21.872  1.00  0.00     0.091 A 
HETATM    7  C9  UNL     1      19.920 -15.185  22.530  1.00  0.00     0.024 A 
HETATM    8  C8  UNL     1      19.910 -13.853  22.807  1.00  0.00    -0.056 A 
HETATM    9  C23 UNL     1      18.789 -13.116  22.398  1.00  0.00     0.024 A 
HETATM   10  C22 UNL     1      17.765 -13.750  21.747  1.00  0.00     0.091 A 
BRANCH   8  11
HETATM   11  C7  UNL     1      21.024 -13.135  23.494  1.00  0.00     0.040 C 
BRANCH  11  12
HETATM   12  C6  UNL     1      20.748 -12.602  24.824  1.00  0.00     0.025 C 
BRANCH  12  13
HETATM   13  C5  UNL     1      21.075 -13.306  26.067  1.00  0.00     0.128 C 
BRANCH  13  14
HETATM   14  N1  UNL     1      20.766 -14.712  26.063  1.00  0.00    -0.366 N 
HETATM   15  C4  UNL     1      19.461 -15.069  26.300  1.00  0.00     0.091 A 
HETATM   16  C3  UNL     1      19.042 -16.375  26.356  1.00  0.00     0.024 A 
HETATM   17  C2  UNL     1      19.930 -17.411  26.176  1.00  0.00    -0.059 A 
HETATM   18  C1  UNL     1      19.485 -18.826  26.235  1.00  0.00     0.048 C 
HETATM   19  C25 UNL     1      21.242 -17.065  25.939  1.00  0.00     0.024 A 
HETATM   20  C24 UNL     1      21.615 -15.721  25.891  1.00  0.00     0.091 A 
ENDBRANCH  13  14
ENDBRANCH  12  13
ENDBRANCH  11  12
ENDBRANCH   8  11
ENDBRANCH   4   5
ENDBRANCH   3   4
ENDBRANCH   2   3
ENDBRANCH   1   2
BRANCH   1  21
HETATM   21  C15 UNL     1      12.700 -14.417  20.116  1.00  0.00     0.079 C 
BRANCH  21  22
HETATM   22  C16 UNL     1      13.427 -13.130  20.184  1.00  0.00     0.124 A 
HETATM   23  N3  UNL     1      13.162 -12.129  21.042  1.00  0.00    -0.128 N 
HETATM   24  C17 UNL     1      12.188 -12.121  21.989  1.00  0.00     0.211 C 
HETATM   25  C20 UNL     1      14.096 -11.062  20.777  1.00  0.00     0.730 A 
HETATM   26  N4  UNL     1      11.674 -11.091  22.682  1.00  0.00    -0.314 N 
HETATM   27  C18 UNL     1      12.220  -9.849  22.831  1.00  0.00     0.315 C 
ATOM     28  H4  UNL     1      10.781 -11.254  23.147  1.00  0.00     0.170 HD
HETATM   29  O1  UNL     1      11.535  -9.101  23.593  1.00  0.00    -0.262 OA
HETATM   30  C19 UNL     1      13.363  -9.315  22.294  1.00  0.00     0.328 C 
HETATM   31  O2  UNL     1      13.657  -8.170  22.694  1.00  0.00    -0.261 OA
HETATM   32  N5  UNL     1      14.196  -9.861  21.403  1.00  0.00    -0.148 N 
ATOM     33  H5  UNL     1      15.013  -9.302  21.159  1.00  0.00     0.188 HD
HETATM   34  N6  UNL     1      14.856 -11.510  19.772  1.00  0.00    -0.023 N 
HETATM   35  N8  UNL     1      14.446 -12.738  19.431  1.00  0.00    -0.248 N 
HETATM   36  C21 UNL     1      15.050 -13.512  18.381  1.00  0.00     0.182 C 
BRANCH  34  37
HETATM   37  N7  UNL     1      15.905 -10.792  19.187  1.00  0.00    -0.309 N 
ATOM     38  H72 UNL     1      16.777 -10.517  19.638  1.00  0.00     0.179 HD
ATOM     39  H71 UNL     1      15.912 -10.457  18.223  1.00  0.00     0.179 HD
ENDBRANCH  34  37
ENDBRANCH  21  22
ENDBRANCH   1  21
TORSDOF 11
ENDMDL
