MODEL 1
REMARK VINA RESULT: -7.415753815      0.000      0.000
REMARK  13 active torsions:
REMARK  status: ('A' for Active; 'I' for Inactive)
REMARK    1  A    between atoms: C4_5  and  C5_6 
REMARK    2  A    between atoms: C5_6  and  C6_7 
REMARK    3  A    between atoms: C6_7  and  C7_8 
REMARK    4  A    between atoms: C7_8  and  N2_9 
REMARK    5  A    between atoms: C10_12  and  C11_13 
REMARK    6  A    between atoms: C11_13  and  C12_14 
REMARK    7  A    between atoms: C12_14  and  C13_15 
REMARK    8  A    between atoms: C13_15  and  N3_16 
REMARK    9  A    between atoms: N6_23  and  C17_24 
REMARK   10  A    between atoms: C17_24  and  C18_25 
REMARK   11  A    between atoms: C18_25  and  C19_26 
REMARK   12  A    between atoms: C20_27  and  C21_28 
REMARK   13  A    between atoms: N7_32  and  N8_34 
ROOT
HETATM    1  C1  UNL     1      12.176 -11.903  22.144  1.00  0.00     0.158 C 
HETATM    2  N1  UNL     1      13.479 -11.872  21.481  1.00  0.00    -0.339 N 
HETATM    3  C2  UNL     1      14.183 -10.726  21.508  1.00  0.00     0.094 A 
HETATM    4  C3  UNL     1      15.401 -10.744  20.873  1.00  0.00     0.042 A 
HETATM    5  C4  UNL     1      15.873 -11.903  20.238  1.00  0.00     0.015 A 
HETATM    6  N6  UNL     1      15.132 -13.015  20.243  1.00  0.00    -0.322 N 
HETATM    7  C25 UNL     1      13.923 -12.985  20.877  1.00  0.00     0.193 A 
HETATM    8  C26 UNL     1      13.052 -14.151  20.904  1.00  0.00     0.137 C 
HETATM    9  N9  UNL     1      12.372 -15.092  20.914  1.00  0.00    -0.188 NA
ENDROOT
BRANCH   6  10
HETATM   10  C17 UNL     1      15.538 -14.224  19.613  1.00  0.00     0.199 C 
BRANCH  10  11
HETATM   11  C18 UNL     1      15.182 -14.365  18.190  1.00  0.00     0.096 C 
HETATM   12  N7  UNL     1      14.552 -15.424  17.806  1.00  0.00    -0.301 N 
ATOM     13  H7  UNL     1      14.311 -15.510  16.819  1.00  0.00     0.186 HD
BRANCH  11  14
HETATM   14  C19 UNL     1      15.518 -13.400  17.185  1.00  0.00    -0.049 C 
HETATM   15  C20 UNL     1      15.833 -12.571  16.336  1.00  0.00    -0.091 C 
BRANCH  15  16
HETATM   16  C21 UNL     1      16.197 -11.565  15.335  1.00  0.00     0.013 C 
HETATM   17  C22 UNL     1      15.013 -10.659  15.014  1.00  0.00     0.028 C 
HETATM   18  C23 UNL     1      17.333 -10.696  15.833  1.00  0.00     0.028 C 
HETATM   19  C24 UNL     1      16.588 -12.293  14.060  1.00  0.00     0.028 C 
ENDBRANCH  15  16
ENDBRANCH  11  14
BRANCH  12  20
HETATM   20  N8  UNL     1      14.180 -16.463  18.669  1.00  0.00    -0.344 N 
ATOM     21  H82 UNL     1      14.071 -16.230  19.656  1.00  0.00     0.176 HD
ATOM     22  H81 UNL     1      14.018 -17.422  18.364  1.00  0.00     0.176 HD
ENDBRANCH  12  20
ENDBRANCH  10  11
ENDBRANCH   6  10
BRANCH   5  23
HETATM   23  C5  UNL     1      17.193 -11.821  19.583  1.00  0.00     0.059 C 
BRANCH  23  24
HETATM   24  C6  UNL     1      18.331 -11.591  20.556  1.00  0.00     0.026 C 
BRANCH  24  25
HETATM   25  C7  UNL     1      19.163 -12.865  20.612  1.00  0.00     0.128 C 
BRANCH  25  26
HETATM   26  N2  UNL     1      19.266 -13.317  21.992  1.00  0.00    -0.366 N 
HETATM   27  C8  UNL     1      20.124 -12.719  22.836  1.00  0.00     0.091 A 
HETATM   28  C9  UNL     1      20.247 -13.124  24.161  1.00  0.00     0.024 A 
HETATM   29  C10 UNL     1      19.486 -14.162  24.655  1.00  0.00    -0.056 A 
HETATM   30  C15 UNL     1      18.597 -14.774  23.766  1.00  0.00     0.024 A 
HETATM   31  C16 UNL     1      18.510 -14.337  22.459  1.00  0.00     0.091 A 
BRANCH  29  32
HETATM   32  C11 UNL     1      19.571 -14.636  26.044  1.00  0.00     0.040 C 
BRANCH  32  33
HETATM   33  C12 UNL     1      20.995 -14.853  26.449  1.00  0.00     0.024 C 
BRANCH  33  34
HETATM   34  C13 UNL     1      21.646 -16.011  25.764  1.00  0.00     0.122 C 
BRANCH  34  35
HETATM   35  N3  UNL     1      22.929 -15.534  25.217  1.00  0.00    -0.367 N 
HETATM   36  C14 UNL     1      23.108 -15.580  23.956  1.00  0.00     0.196 C 
HETATM   37  N4  UNL     1      24.358 -15.116  23.437  1.00  0.00    -0.067 NA
HETATM   38  N5  UNL     1      22.104 -16.075  23.094  1.00  0.00    -0.067 NA
ATOM     39  H3  UNL     1      23.658 -15.176  25.834  1.00  0.00     0.161 HD
ENDBRANCH  34  35
ENDBRANCH  33  34
ENDBRANCH  32  33
ENDBRANCH  29  32
ENDBRANCH  25  26
ENDBRANCH  24  25
ENDBRANCH  23  24
ENDBRANCH   5  23
TORSDOF 13
ENDMDL
MODEL 2
REMARK VINA RESULT: -7.291781289      2.395      4.576
REMARK  13 active torsions:
REMARK  status: ('A' for Active; 'I' for Inactive)
REMARK    1  A    between atoms: C4_5  and  C5_6 
REMARK    2  A    between atoms: C5_6  and  C6_7 
REMARK    3  A    between atoms: C6_7  and  C7_8 
REMARK    4  A    between atoms: C7_8  and  N2_9 
REMARK    5  A    between atoms: C10_12  and  C11_13 
REMARK    6  A    between atoms: C11_13  and  C12_14 
REMARK    7  A    between atoms: C12_14  and  C13_15 
REMARK    8  A    between atoms: C13_15  and  N3_16 
REMARK    9  A    between atoms: N6_23  and  C17_24 
REMARK   10  A    between atoms: C17_24  and  C18_25 
REMARK   11  A    between atoms: C18_25  and  C19_26 
REMARK   12  A    between atoms: C20_27  and  C21_28 
REMARK   13  A    between atoms: N7_32  and  N8_34 
ROOT
HETATM    1  C1  UNL     1      12.696 -10.805  22.706  1.00  0.00     0.158 C 
HETATM    2  N1  UNL     1      13.049 -11.865  21.761  1.00  0.00    -0.339 N 
HETATM    3  C2  UNL     1      12.757 -13.136  22.088  1.00  0.00     0.094 A 
HETATM    4  C3  UNL     1      13.107 -14.097  21.171  1.00  0.00     0.042 A 
HETATM    5  C4  UNL     1      13.733 -13.755  19.962  1.00  0.00     0.015 A 
HETATM    6  N6  UNL     1      14.000 -12.474  19.690  1.00  0.00    -0.322 N 
HETATM    7  C25 UNL     1      13.648 -11.528  20.609  1.00  0.00     0.193 A 
HETATM    8  C26 UNL     1      13.927 -10.117  20.390  1.00  0.00     0.137 C 
HETATM    9  N9  UNL     1      14.159  -8.996  20.196  1.00  0.00    -0.188 NA
ENDROOT
BRANCH   6  10
HETATM   10  C17 UNL     1      14.641 -12.051  18.492  1.00  0.00     0.199 C 
BRANCH  10  11
HETATM   11  C18 UNL     1      16.109 -11.924  18.552  1.00  0.00     0.096 C 
HETATM   12  N7  UNL     1      16.721 -11.304  17.599  1.00  0.00    -0.301 N 
ATOM     13  H7  UNL     1      17.736 -11.223  17.652  1.00  0.00     0.186 HD
BRANCH  11  14
HETATM   14  C19 UNL     1      16.914 -12.474  19.602  1.00  0.00    -0.049 C 
HETATM   15  C20 UNL     1      17.627 -12.942  20.484  1.00  0.00    -0.091 C 
BRANCH  15  16
HETATM   16  C21 UNL     1      18.471 -13.524  21.531  1.00  0.00     0.013 C 
HETATM   17  C22 UNL     1      17.794 -13.432  22.894  1.00  0.00     0.028 C 
HETATM   18  C23 UNL     1      18.755 -14.984  21.245  1.00  0.00     0.028 C 
HETATM   19  C24 UNL     1      19.759 -12.722  21.593  1.00  0.00     0.028 C 
ENDBRANCH  15  16
ENDBRANCH  11  14
BRANCH  12  20
HETATM   20  N8  UNL     1      16.069 -10.738  16.496  1.00  0.00    -0.344 N 
ATOM     21  H82 UNL     1      16.225 -11.177  15.588  1.00  0.00     0.176 HD
ATOM     22  H81 UNL     1      15.458  -9.924  16.556  1.00  0.00     0.176 HD
ENDBRANCH  12  20
ENDBRANCH  10  11
ENDBRANCH   6  10
BRANCH   5  23
HETATM   23  C5  UNL     1      14.071 -14.859  19.043  1.00  0.00     0.059 C 
BRANCH  23  24
HETATM   24  C6  UNL     1      15.361 -15.565  19.404  1.00  0.00     0.026 C 
BRANCH  24  25
HETATM   25  C7  UNL     1      15.005 -16.941  19.948  1.00  0.00     0.128 C 
BRANCH  25  26
HETATM   26  N2  UNL     1      15.810 -17.220  21.128  1.00  0.00    -0.366 N 
HETATM   27  C8  UNL     1      15.550 -16.591  22.287  1.00  0.00     0.091 A 
HETATM   28  C9  UNL     1      16.298 -16.834  23.434  1.00  0.00     0.024 A 
HETATM   29  C10 UNL     1      17.341 -17.735  23.419  1.00  0.00    -0.056 A 
HETATM   30  C15 UNL     1      17.601 -18.381  22.206  1.00  0.00     0.024 A 
HETATM   31  C16 UNL     1      16.830 -18.107  21.094  1.00  0.00     0.091 A 
BRANCH  29  32
HETATM   32  C11 UNL     1      18.169 -18.034  24.596  1.00  0.00     0.040 C 
BRANCH  32  33
HETATM   33  C12 UNL     1      18.717 -16.778  25.198  1.00  0.00     0.024 C 
BRANCH  33  34
HETATM   34  C13 UNL     1      19.990 -16.315  24.567  1.00  0.00     0.122 C 
BRANCH  34  35
HETATM   35  N3  UNL     1      20.265 -14.958  25.075  1.00  0.00    -0.367 N 
HETATM   36  C14 UNL     1      21.228 -14.300  24.561  1.00  0.00     0.196 C 
HETATM   37  N4  UNL     1      21.485 -12.984  25.063  1.00  0.00    -0.067 NA
HETATM   38  N5  UNL     1      22.018 -14.850  23.527  1.00  0.00    -0.067 NA
ATOM     39  H3  UNL     1      19.698 -14.555  25.821  1.00  0.00     0.161 HD
ENDBRANCH  34  35
ENDBRANCH  33  34
ENDBRANCH  32  33
ENDBRANCH  29  32
ENDBRANCH  25  26
ENDBRANCH  24  25
ENDBRANCH  23  24
ENDBRANCH   5  23
TORSDOF 13
ENDMDL
MODEL 3
REMARK VINA RESULT: -7.289214388      3.163      9.980
REMARK  13 active torsions:
REMARK  status: ('A' for Active; 'I' for Inactive)
REMARK    1  A    between atoms: C4_5  and  C5_6 
REMARK    2  A    between atoms: C5_6  and  C6_7 
REMARK    3  A    between atoms: C6_7  and  C7_8 
REMARK    4  A    between atoms: C7_8  and  N2_9 
REMARK    5  A    between atoms: C10_12  and  C11_13 
REMARK    6  A    between atoms: C11_13  and  C12_14 
REMARK    7  A    between atoms: C12_14  and  C13_15 
REMARK    8  A    between atoms: C13_15  and  N3_16 
REMARK    9  A    between atoms: N6_23  and  C17_24 
REMARK   10  A    between atoms: C17_24  and  C18_25 
REMARK   11  A    between atoms: C18_25  and  C19_26 
REMARK   12  A    between atoms: C20_27  and  C21_28 
REMARK   13  A    between atoms: N7_32  and  N8_34 
ROOT
HETATM    1  C1  UNL     1      23.094 -19.048  27.666  1.00  0.00     0.158 C 
HETATM    2  N1  UNL     1      22.521 -18.770  26.350  1.00  0.00    -0.339 N 
HETATM    3  C2  UNL     1      21.284 -19.224  26.082  1.00  0.00     0.094 A 
HETATM    4  C3  UNL     1      20.787 -18.939  24.833  1.00  0.00     0.042 A 
HETATM    5  C4  UNL     1      21.541 -18.211  23.899  1.00  0.00     0.015 A 
HETATM    6  N6  UNL     1      22.766 -17.784  24.220  1.00  0.00    -0.322 N 
HETATM    7  C25 UNL     1      23.249 -18.073  25.463  1.00  0.00     0.193 A 
HETATM    8  C26 UNL     1      24.582 -17.660  25.874  1.00  0.00     0.137 C 
HETATM    9  N9  UNL     1      25.649 -17.321  26.182  1.00  0.00    -0.188 NA
ENDROOT
BRANCH   6  10
HETATM   10  C17 UNL     1      23.593 -17.051  23.324  1.00  0.00     0.199 C 
BRANCH  10  11
HETATM   11  C18 UNL     1      23.621 -15.590  23.516  1.00  0.00     0.096 C 
HETATM   12  N7  UNL     1      24.643 -14.924  23.092  1.00  0.00    -0.301 N 
ATOM     13  H7  UNL     1      24.651 -13.914  23.231  1.00  0.00     0.186 HD
BRANCH  11  14
HETATM   14  C19 UNL     1      22.584 -14.852  24.176  1.00  0.00    -0.049 C 
HETATM   15  C20 UNL     1      21.682 -14.219  24.715  1.00  0.00    -0.091 C 
BRANCH  15  16
HETATM   16  C21 UNL     1      20.619 -13.442  25.358  1.00  0.00     0.013 C 
HETATM   17  C22 UNL     1      20.920 -11.948  25.297  1.00  0.00     0.028 C 
HETATM   18  C23 UNL     1      19.289 -13.682  24.677  1.00  0.00     0.028 C 
HETATM   19  C24 UNL     1      20.562 -13.848  26.821  1.00  0.00     0.028 C 
ENDBRANCH  15  16
ENDBRANCH  11  14
BRANCH  12  20
HETATM   20  N8  UNL     1      25.742 -15.512  22.453  1.00  0.00    -0.344 N 
ATOM     21  H82 UNL     1      25.780 -16.531  22.436  1.00  0.00     0.176 HD
ATOM     22  H81 UNL     1      26.492 -14.979  22.012  1.00  0.00     0.176 HD
ENDBRANCH  12  20
ENDBRANCH  10  11
ENDBRANCH   6  10
BRANCH   5  23
HETATM   23  C5  UNL     1      20.920 -17.958  22.585  1.00  0.00     0.059 C 
BRANCH  23  24
HETATM   24  C6  UNL     1      19.996 -16.757  22.580  1.00  0.00     0.026 C 
BRANCH  24  25
HETATM   25  C7  UNL     1      20.316 -15.925  21.347  1.00  0.00     0.128 C 
BRANCH  25  26
HETATM   26  N2  UNL     1      19.344 -14.848  21.224  1.00  0.00    -0.366 N 
HETATM   27  C8  UNL     1      18.031 -15.109  21.330  1.00  0.00     0.091 A 
HETATM   28  C9  UNL     1      17.075 -14.104  21.218  1.00  0.00     0.024 A 
HETATM   29  C10 UNL     1      17.449 -12.797  20.992  1.00  0.00    -0.056 A 
HETATM   30  C15 UNL     1      18.819 -12.540  20.883  1.00  0.00     0.024 A 
HETATM   31  C16 UNL     1      19.730 -13.571  21.001  1.00  0.00     0.091 A 
BRANCH  29  32
HETATM   32  C11 UNL     1      16.488 -11.692  20.864  1.00  0.00     0.040 C 
BRANCH  32  33
HETATM   33  C12 UNL     1      15.157 -12.072  21.432  1.00  0.00     0.024 C 
BRANCH  33  34
HETATM   34  C13 UNL     1      14.002 -11.404  20.759  1.00  0.00     0.122 C 
BRANCH  34  35
HETATM   35  N3  UNL     1      13.621 -10.244  21.585  1.00  0.00    -0.367 N 
HETATM   36  C14 UNL     1      12.611 -10.349  22.354  1.00  0.00     0.196 C 
HETATM   37  N4  UNL     1      12.251  -9.216  23.150  1.00  0.00    -0.067 NA
HETATM   38  N5  UNL     1      11.867 -11.549  22.422  1.00  0.00    -0.067 NA
ATOM     39  H3  UNL     1      14.154  -9.375  21.541  1.00  0.00     0.161 HD
ENDBRANCH  34  35
ENDBRANCH  33  34
ENDBRANCH  32  33
ENDBRANCH  29  32
ENDBRANCH  25  26
ENDBRANCH  24  25
ENDBRANCH  23  24
ENDBRANCH   5  23
TORSDOF 13
ENDMDL
MODEL 4
REMARK VINA RESULT: -7.257937655      2.712      7.780
REMARK  13 active torsions:
REMARK  status: ('A' for Active; 'I' for Inactive)
REMARK    1  A    between atoms: C4_5  and  C5_6 
REMARK    2  A    between atoms: C5_6  and  C6_7 
REMARK    3  A    between atoms: C6_7  and  C7_8 
REMARK    4  A    between atoms: C7_8  and  N2_9 
REMARK    5  A    between atoms: C10_12  and  C11_13 
REMARK    6  A    between atoms: C11_13  and  C12_14 
REMARK    7  A    between atoms: C12_14  and  C13_15 
REMARK    8  A    between atoms: C13_15  and  N3_16 
REMARK    9  A    between atoms: N6_23  and  C17_24 
REMARK   10  A    between atoms: C17_24  and  C18_25 
REMARK   11  A    between atoms: C18_25  and  C19_26 
REMARK   12  A    between atoms: C20_27  and  C21_28 
REMARK   13  A    between atoms: N7_32  and  N8_34 
ROOT
HETATM    1  C1  UNL     1      19.929 -15.053  26.317  1.00  0.00     0.158 C 
HETATM    2  N1  UNL     1      19.886 -14.710  24.895  1.00  0.00    -0.339 N 
HETATM    3  C2  UNL     1      19.687 -13.425  24.553  1.00  0.00     0.094 A 
HETATM    4  C3  UNL     1      19.655 -13.150  23.207  1.00  0.00     0.042 A 
HETATM    5  C4  UNL     1      19.823 -14.166  22.254  1.00  0.00     0.015 A 
HETATM    6  N6  UNL     1      20.018 -15.427  22.651  1.00  0.00    -0.322 N 
HETATM    7  C25 UNL     1      20.048 -15.688  23.991  1.00  0.00     0.193 A 
HETATM    8  C26 UNL     1      20.233 -17.039  24.496  1.00  0.00     0.137 C 
HETATM    9  N9  UNL     1      20.382 -18.126  24.879  1.00  0.00    -0.188 NA
ENDROOT
BRANCH   6  10
HETATM   10  C17 UNL     1      20.185 -16.511  21.745  1.00  0.00     0.199 C 
BRANCH  10  11
HETATM   11  C18 UNL     1      19.007 -17.371  21.537  1.00  0.00     0.096 C 
HETATM   12  N7  UNL     1      19.148 -18.652  21.615  1.00  0.00    -0.301 N 
ATOM     13  H7  UNL     1      18.324 -19.237  21.469  1.00  0.00     0.186 HD
BRANCH  11  14
HETATM   14  C19 UNL     1      17.701 -16.871  21.223  1.00  0.00    -0.049 C 
HETATM   15  C20 UNL     1      16.573 -16.471  20.951  1.00  0.00    -0.091 C 
BRANCH  15  16
HETATM   16  C21 UNL     1      15.235 -15.987  20.602  1.00  0.00     0.013 C 
HETATM   17  C22 UNL     1      14.251 -17.145  20.473  1.00  0.00     0.028 C 
HETATM   18  C23 UNL     1      14.711 -15.040  21.661  1.00  0.00     0.028 C 
HETATM   19  C24 UNL     1      15.324 -15.297  19.252  1.00  0.00     0.028 C 
ENDBRANCH  15  16
ENDBRANCH  11  14
BRANCH  12  20
HETATM   20  N8  UNL     1      20.367 -19.285  21.888  1.00  0.00    -0.344 N 
ATOM     21  H82 UNL     1      21.195 -18.692  21.944  1.00  0.00     0.176 HD
ATOM     22  H81 UNL     1      20.464 -20.290  22.030  1.00  0.00     0.176 HD
ENDBRANCH  12  20
ENDBRANCH  10  11
ENDBRANCH   6  10
BRANCH   5  23
HETATM   23  C5  UNL     1      19.770 -13.770  20.833  1.00  0.00     0.059 C 
BRANCH  23  24
HETATM   24  C6  UNL     1      19.974 -12.285  20.617  1.00  0.00     0.026 C 
BRANCH  24  25
HETATM   25  C7  UNL     1      19.257 -11.896  19.333  1.00  0.00     0.128 C 
BRANCH  25  26
HETATM   26  N2  UNL     1      17.829 -11.787  19.589  1.00  0.00    -0.366 N 
HETATM   27  C8  UNL     1      17.377 -11.646  20.846  1.00  0.00     0.091 A 
HETATM   28  C9  UNL     1      16.019 -11.538  21.127  1.00  0.00     0.024 A 
HETATM   29  C10 UNL     1      15.084 -11.574  20.115  1.00  0.00    -0.056 A 
HETATM   30  C15 UNL     1      15.568 -11.722  18.811  1.00  0.00     0.024 A 
HETATM   31  C16 UNL     1      16.926 -11.824  18.582  1.00  0.00     0.091 A 
BRANCH  29  32
HETATM   32  C11 UNL     1      13.636 -11.466  20.347  1.00  0.00     0.040 C 
BRANCH  32  33
HETATM   33  C12 UNL     1      13.305 -11.715  21.785  1.00  0.00     0.024 C 
BRANCH  33  34
HETATM   34  C13 UNL     1      11.912 -11.323  22.158  1.00  0.00     0.122 C 
BRANCH  34  35
HETATM   35  N3  UNL     1      11.958  -9.928  22.630  1.00  0.00    -0.367 N 
HETATM   36  C14 UNL     1      11.667  -9.687  23.847  1.00  0.00     0.196 C 
HETATM   37  N4  UNL     1      11.714  -8.328  24.294  1.00  0.00    -0.067 NA
HETATM   38  N5  UNL     1      11.308 -10.729  24.732  1.00  0.00    -0.067 NA
ATOM     39  H3  UNL     1      12.216  -9.171  21.997  1.00  0.00     0.161 HD
ENDBRANCH  34  35
ENDBRANCH  33  34
ENDBRANCH  32  33
ENDBRANCH  29  32
ENDBRANCH  25  26
ENDBRANCH  24  25
ENDBRANCH  23  24
ENDBRANCH   5  23
TORSDOF 13
ENDMDL
MODEL 5
REMARK VINA RESULT: -7.175567271      2.143      5.349
REMARK  13 active torsions:
REMARK  status: ('A' for Active; 'I' for Inactive)
REMARK    1  A    between atoms: C4_5  and  C5_6 
REMARK    2  A    between atoms: C5_6  and  C6_7 
REMARK    3  A    between atoms: C6_7  and  C7_8 
REMARK    4  A    between atoms: C7_8  and  N2_9 
REMARK    5  A    between atoms: C10_12  and  C11_13 
REMARK    6  A    between atoms: C11_13  and  C12_14 
REMARK    7  A    between atoms: C12_14  and  C13_15 
REMARK    8  A    between atoms: C13_15  and  N3_16 
REMARK    9  A    between atoms: N6_23  and  C17_24 
REMARK   10  A    between atoms: C17_24  and  C18_25 
REMARK   11  A    between atoms: C18_25  and  C19_26 
REMARK   12  A    between atoms: C20_27  and  C21_28 
REMARK   13  A    between atoms: N7_32  and  N8_34 
ROOT
HETATM    1  C1  UNL     1      15.160 -18.902  17.643  1.00  0.00     0.158 C 
HETATM    2  N1  UNL     1      14.982 -17.486  17.962  1.00  0.00    -0.339 N 
HETATM    3  C2  UNL     1      15.512 -16.572  17.130  1.00  0.00     0.094 A 
HETATM    4  C3  UNL     1      15.319 -15.254  17.469  1.00  0.00     0.042 A 
HETATM    5  C4  UNL     1      14.605 -14.898  18.624  1.00  0.00     0.015 A 
HETATM    6  N6  UNL     1      14.100 -15.849  19.415  1.00  0.00    -0.322 N 
HETATM    7  C25 UNL     1      14.297 -17.154  19.068  1.00  0.00     0.193 A 
HETATM    8  C26 UNL     1      13.795 -18.243  19.892  1.00  0.00     0.137 C 
HETATM    9  N9  UNL     1      13.387 -19.097  20.564  1.00  0.00    -0.188 NA
ENDROOT
BRANCH   6  10
HETATM   10  C17 UNL     1      13.374 -15.566  20.605  1.00  0.00     0.199 C 
BRANCH  10  11
HETATM   11  C18 UNL     1      14.174 -15.139  21.767  1.00  0.00     0.096 C 
HETATM   12  N7  UNL     1      13.782 -14.119  22.453  1.00  0.00    -0.301 N 
ATOM     13  H7  UNL     1      14.345 -13.833  23.255  1.00  0.00     0.186 HD
BRANCH  11  14
HETATM   14  C19 UNL     1      15.392 -15.777  22.173  1.00  0.00    -0.049 C 
HETATM   15  C20 UNL     1      16.449 -16.297  22.518  1.00  0.00    -0.091 C 
BRANCH  15  16
HETATM   16  C21 UNL     1      17.712 -16.928  22.907  1.00  0.00     0.013 C 
HETATM   17  C22 UNL     1      18.287 -16.275  24.159  1.00  0.00     0.028 C 
HETATM   18  C23 UNL     1      17.514 -18.401  23.194  1.00  0.00     0.028 C 
HETATM   19  C24 UNL     1      18.705 -16.723  21.775  1.00  0.00     0.028 C 
ENDBRANCH  15  16
ENDBRANCH  11  14
BRANCH  12  20
HETATM   20  N8  UNL     1      12.628 -13.381  22.160  1.00  0.00    -0.344 N 
ATOM     21  H82 UNL     1      11.838 -13.892  21.767  1.00  0.00     0.176 HD
ATOM     22  H81 UNL     1      12.543 -12.377  22.316  1.00  0.00     0.176 HD
ENDBRANCH  12  20
ENDBRANCH  10  11
ENDBRANCH   6  10
BRANCH   5  23
HETATM   23  C5  UNL     1      14.454 -13.456  18.902  1.00  0.00     0.059 C 
BRANCH  23  24
HETATM   24  C6  UNL     1      15.585 -12.617  18.345  1.00  0.00     0.026 C 
BRANCH  24  25
HETATM   25  C7  UNL     1      15.953 -11.575  19.392  1.00  0.00     0.128 C 
BRANCH  25  26
HETATM   26  N2  UNL     1      17.108 -12.034  20.149  1.00  0.00    -0.366 N 
HETATM   27  C8  UNL     1      18.341 -11.933  19.626  1.00  0.00     0.091 A 
HETATM   28  C9  UNL     1      19.468 -12.361  20.321  1.00  0.00     0.024 A 
HETATM   29  C10 UNL     1      19.352 -12.908  21.581  1.00  0.00    -0.056 A 
HETATM   30  C15 UNL     1      18.063 -13.007  22.113  1.00  0.00     0.024 A 
HETATM   31  C16 UNL     1      16.976 -12.568  21.384  1.00  0.00     0.091 A 
BRANCH  29  32
HETATM   32  C11 UNL     1      20.503 -13.379  22.366  1.00  0.00     0.040 C 
BRANCH  32  33
HETATM   33  C12 UNL     1      20.320 -13.072  23.820  1.00  0.00     0.024 C 
BRANCH  33  34
HETATM   34  C13 UNL     1      21.530 -13.352  24.651  1.00  0.00     0.122 C 
BRANCH  34  35
HETATM   35  N3  UNL     1      22.481 -14.098  23.807  1.00  0.00    -0.367 N 
HETATM   36  C14 UNL     1      22.772 -15.296  24.129  1.00  0.00     0.196 C 
HETATM   37  N4  UNL     1      23.698 -16.008  23.303  1.00  0.00    -0.067 NA
HETATM   38  N5  UNL     1      22.199 -15.904  25.268  1.00  0.00    -0.067 NA
ATOM     39  H3  UNL     1      22.898 -13.664  22.983  1.00  0.00     0.161 HD
ENDBRANCH  34  35
ENDBRANCH  33  34
ENDBRANCH  32  33
ENDBRANCH  29  32
ENDBRANCH  25  26
ENDBRANCH  24  25
ENDBRANCH  23  24
ENDBRANCH   5  23
TORSDOF 13
ENDMDL
