MODEL 1
REMARK VINA RESULT: -7.416213464      0.000      0.000
REMARK  6 active torsions:
REMARK  status: ('A' for Active; 'I' for Inactive)
REMARK    1  A    between atoms: N1_1  and  C1_4 
REMARK    2  A    between atoms: C4_14  and  C5_15 
REMARK    3  A    between atoms: C5_15  and  N5_16 
REMARK    4  A    between atoms: C5_15  and  C6_22 
REMARK    5  A    between atoms: N5_16  and  N6_18 
REMARK    6  A    between atoms: N6_18  and  N7_19 
ROOT
HETATM    1  C1  UNL     1      52.703  31.916  16.094  1.00  0.00     0.679 A 
HETATM    2  N2  UNL     1      52.279  31.931  17.369  1.00  0.00    -0.175 N 
ATOM      3  H2  UNL     1      52.971  31.967  18.118  1.00  0.00     0.186 HD
HETATM    4  C2  UNL     1      50.973  31.899  17.692  1.00  0.00     0.145 A 
HETATM    5  N3  UNL     1      50.592  31.915  18.933  1.00  0.00    -0.383 N 
ATOM      6  H31 UNL     1      49.602  31.891  19.178  1.00  0.00     0.157 HD
ATOM      7  H32 UNL     1      51.293  31.952  19.673  1.00  0.00     0.157 HD
HETATM    8  C3  UNL     1      50.023  31.849  16.692  1.00  0.00     0.124 A 
HETATM    9  N4  UNL     1      48.692  31.816  16.988  1.00  0.00    -0.337 N 
ATOM     10  H4  UNL     1      48.385  31.829  17.961  1.00  0.00     0.167 HD
HETATM   11  C4  UNL     1      47.784  31.768  15.999  1.00  0.00     0.130 A 
HETATM   12  N9  UNL     1      48.237  31.754  14.739  1.00  0.00    -0.285 N 
ATOM     13  H9  UNL     1      47.554  31.716  13.983  1.00  0.00     0.188 HD
HETATM   14  N10 UNL     1      49.515  31.785  14.420  1.00  0.00    -0.282 N 
ATOM     15  H10 UNL     1      49.794  31.773  13.440  1.00  0.00     0.188 HD
HETATM   16  C7  UNL     1      50.448  31.833  15.379  1.00  0.00     0.166 A 
HETATM   17  N11 UNL     1      51.759  31.868  15.140  1.00  0.00    -0.173 N 
ATOM     18  H11 UNL     1      52.066  31.856  14.168  1.00  0.00     0.186 HD
ENDROOT
BRANCH  11  19
HETATM   19  C5  UNL     1      46.349  31.731  16.290  1.00  0.00     0.255 C 
BRANCH  19  20
HETATM   20  N5  UNL     1      45.769  30.430  16.233  1.00  0.00    -0.299 N 
ATOM     21  H5  UNL     1      44.854  30.265  15.814  1.00  0.00     0.179 HD
BRANCH  20  22
HETATM   22  N6  UNL     1      46.514  29.416  16.774  1.00  0.00    -0.033 NA
BRANCH  22  23
HETATM   23  N7  UNL     1      45.779  28.865  17.848  1.00  0.00    -0.329 N 
ATOM     24  H72 UNL     1      45.042  29.344  18.365  1.00  0.00     0.174 HD
ATOM     25  H71 UNL     1      46.119  27.916  18.005  1.00  0.00     0.174 HD
ENDBRANCH  22  23
ENDBRANCH  20  22
ENDBRANCH  19  20
BRANCH  19  26
HETATM   26  C6  UNL     1      46.103  32.309  17.632  1.00  0.00     0.262 C 
HETATM   27  N8  UNL     1      45.088  31.795  18.481  1.00  0.00    -0.060 NA
HETATM   28  O1  UNL     1      46.807  33.268  18.018  1.00  0.00    -0.274 OA
ENDBRANCH  19  26
ENDBRANCH  11  19
BRANCH   1  29
HETATM   29  N1  UNL     1      53.966  31.948  15.817  1.00  0.00    -0.234 N 
ATOM     30  H12 UNL     1      54.683  31.972  16.542  1.00  0.00     0.174 HD
ATOM     31  H11 UNL     1      54.288  31.951  14.849  1.00  0.00     0.174 HD
ENDBRANCH   1  29
TORSDOF 6
ENDMDL
MODEL 2
REMARK VINA RESULT: -7.378521336      1.587      2.000
REMARK  6 active torsions:
REMARK  status: ('A' for Active; 'I' for Inactive)
REMARK    1  A    between atoms: N1_1  and  C1_4 
REMARK    2  A    between atoms: C4_14  and  C5_15 
REMARK    3  A    between atoms: C5_15  and  N5_16 
REMARK    4  A    between atoms: C5_15  and  C6_22 
REMARK    5  A    between atoms: N5_16  and  N6_18 
REMARK    6  A    between atoms: N6_18  and  N7_19 
ROOT
HETATM    1  C1  UNL     1      53.002  32.192  16.229  1.00  0.00     0.679 A 
HETATM    2  N2  UNL     1      52.496  32.258  17.471  1.00  0.00    -0.175 N 
ATOM      3  H2  UNL     1      53.115  32.504  18.243  1.00  0.00     0.186 HD
HETATM    4  C2  UNL     1      51.198  32.012  17.732  1.00  0.00     0.145 A 
HETATM    5  N3  UNL     1      50.736  32.084  18.943  1.00  0.00    -0.383 N 
ATOM      6  H31 UNL     1      49.753  31.898  19.140  1.00  0.00     0.157 HD
ATOM      7  H32 UNL     1      51.365  32.332  19.706  1.00  0.00     0.157 HD
HETATM    8  C3  UNL     1      50.346  31.677  16.699  1.00  0.00     0.124 A 
HETATM    9  N4  UNL     1      49.026  31.423  16.932  1.00  0.00    -0.337 N 
ATOM     10  H4  UNL     1      48.656  31.478  17.881  1.00  0.00     0.167 HD
HETATM   11  C4  UNL     1      48.213  31.098  15.912  1.00  0.00     0.130 A 
HETATM   12  N9  UNL     1      48.748  31.039  14.687  1.00  0.00    -0.285 N 
ATOM     13  H9  UNL     1      48.137  30.794  13.908  1.00  0.00     0.188 HD
HETATM   14  N10 UNL     1      50.017  31.280  14.429  1.00  0.00    -0.282 N 
ATOM     15  H10 UNL     1      50.361  31.219  13.471  1.00  0.00     0.188 HD
HETATM   16  C7  UNL     1      50.857  31.606  15.420  1.00  0.00     0.166 A 
HETATM   17  N11 UNL     1      52.152  31.864  15.242  1.00  0.00    -0.173 N 
ATOM     18  H11 UNL     1      52.523  31.810  14.293  1.00  0.00     0.186 HD
ENDROOT
BRANCH  11  19
HETATM   19  C5  UNL     1      46.794  30.819  16.136  1.00  0.00     0.255 C 
BRANCH  19  20
HETATM   20  N5  UNL     1      46.080  31.871  16.779  1.00  0.00    -0.299 N 
ATOM     21  H5  UNL     1      46.070  32.822  16.409  1.00  0.00     0.179 HD
BRANCH  20  22
HETATM   22  N6  UNL     1      45.408  31.530  17.923  1.00  0.00    -0.033 NA
BRANCH  22  23
HETATM   23  N7  UNL     1      45.418  30.121  18.027  1.00  0.00    -0.329 N 
ATOM     24  H72 UNL     1      46.071  29.500  17.551  1.00  0.00     0.174 HD
ATOM     25  H71 UNL     1      44.662  29.849  18.656  1.00  0.00     0.174 HD
ENDBRANCH  22  23
ENDBRANCH  20  22
ENDBRANCH  19  20
BRANCH  19  26
HETATM   26  C6  UNL     1      46.141  30.514  14.842  1.00  0.00     0.262 C 
HETATM   27  N8  UNL     1      45.661  31.548  13.996  1.00  0.00    -0.060 NA
HETATM   28  O1  UNL     1      46.013  29.319  14.492  1.00  0.00    -0.274 OA
ENDBRANCH  19  26
ENDBRANCH  11  19
BRANCH   1  29
HETATM   29  N1  UNL     1      54.255  32.435  16.012  1.00  0.00    -0.234 N 
ATOM     30  H12 UNL     1      54.985  32.160  16.668  1.00  0.00     0.174 HD
ATOM     31  H11 UNL     1      54.553  32.917  15.164  1.00  0.00     0.174 HD
ENDBRANCH   1  29
TORSDOF 6
ENDMDL
MODEL 3
REMARK VINA RESULT: -7.358100366      1.696      2.403
REMARK  6 active torsions:
REMARK  status: ('A' for Active; 'I' for Inactive)
REMARK    1  A    between atoms: N1_1  and  C1_4 
REMARK    2  A    between atoms: C4_14  and  C5_15 
REMARK    3  A    between atoms: C5_15  and  N5_16 
REMARK    4  A    between atoms: C5_15  and  C6_22 
REMARK    5  A    between atoms: N5_16  and  N6_18 
REMARK    6  A    between atoms: N6_18  and  N7_19 
ROOT
HETATM    1  C1  UNL     1      52.881  31.903  16.204  1.00  0.00     0.679 A 
HETATM    2  N2  UNL     1      52.344  32.302  17.368  1.00  0.00    -0.175 N 
ATOM      3  H2  UNL     1      52.955  32.692  18.085  1.00  0.00     0.186 HD
HETATM    4  C2  UNL     1      51.026  32.204  17.622  1.00  0.00     0.145 A 
HETATM    5  N3  UNL     1      50.533  32.599  18.758  1.00  0.00    -0.383 N 
ATOM      6  H31 UNL     1      49.535  32.525  18.950  1.00  0.00     0.157 HD
ATOM      7  H32 UNL     1      51.156  32.988  19.466  1.00  0.00     0.157 HD
HETATM    8  C3  UNL     1      50.183  31.678  16.664  1.00  0.00     0.124 A 
HETATM    9  N4  UNL     1      48.842  31.567  16.892  1.00  0.00    -0.337 N 
ATOM     10  H4  UNL     1      48.449  31.875  17.782  1.00  0.00     0.167 HD
HETATM   11  C4  UNL     1      48.040  31.051  15.946  1.00  0.00     0.130 A 
HETATM   12  N9  UNL     1      48.604  30.662  14.797  1.00  0.00    -0.285 N 
ATOM     13  H9  UNL     1      48.002  30.269  14.074  1.00  0.00     0.188 HD
HETATM   14  N10 UNL     1      49.894  30.757  14.546  1.00  0.00    -0.282 N 
ATOM     15  H10 UNL     1      50.261  30.442  13.648  1.00  0.00     0.188 HD
HETATM   16  C7  UNL     1      50.725  31.265  15.465  1.00  0.00     0.166 A 
HETATM   17  N11 UNL     1      52.039  31.395  15.288  1.00  0.00    -0.173 N 
ATOM     18  H11 UNL     1      52.433  31.087  14.399  1.00  0.00     0.186 HD
ENDROOT
BRANCH  11  19
HETATM   19  C5  UNL     1      46.598  30.920  16.167  1.00  0.00     0.255 C 
BRANCH  19  20
HETATM   20  N5  UNL     1      45.797  31.766  15.347  1.00  0.00    -0.299 N 
ATOM     21  H5  UNL     1      45.001  32.284  15.719  1.00  0.00     0.179 HD
BRANCH  20  22
HETATM   22  N6  UNL     1      46.158  31.842  14.027  1.00  0.00    -0.033 NA
BRANCH  22  23
HETATM   23  N7  UNL     1      46.236  33.208  13.678  1.00  0.00    -0.329 N 
ATOM     24  H72 UNL     1      45.549  33.920  13.926  1.00  0.00     0.174 HD
ATOM     25  H71 UNL     1      47.092  33.345  13.140  1.00  0.00     0.174 HD
ENDBRANCH  22  23
ENDBRANCH  20  22
ENDBRANCH  19  20
BRANCH  19  26
HETATM   26  C6  UNL     1      46.191  29.512  15.949  1.00  0.00     0.262 C 
HETATM   27  N8  UNL     1      45.782  28.687  17.029  1.00  0.00    -0.060 NA
HETATM   28  O1  UNL     1      46.210  29.047  14.788  1.00  0.00    -0.274 OA
ENDBRANCH  19  26
ENDBRANCH  11  19
BRANCH   1  29
HETATM   29  N1  UNL     1      54.153  32.011  15.991  1.00  0.00    -0.234 N 
ATOM     30  H12 UNL     1      54.612  31.566  15.196  1.00  0.00     0.174 HD
ATOM     31  H11 UNL     1      54.743  32.551  16.623  1.00  0.00     0.174 HD
ENDBRANCH   1  29
TORSDOF 6
ENDMDL
MODEL 4
REMARK VINA RESULT: -7.178386756      2.170      6.033
REMARK  6 active torsions:
REMARK  status: ('A' for Active; 'I' for Inactive)
REMARK    1  A    between atoms: N1_1  and  C1_4 
REMARK    2  A    between atoms: C4_14  and  C5_15 
REMARK    3  A    between atoms: C5_15  and  N5_16 
REMARK    4  A    between atoms: C5_15  and  C6_22 
REMARK    5  A    between atoms: N5_16  and  N6_18 
REMARK    6  A    between atoms: N6_18  and  N7_19 
ROOT
HETATM    1  C1  UNL     1      43.686  30.722  18.306  1.00  0.00     0.679 A 
HETATM    2  N2  UNL     1      44.254  29.610  17.812  1.00  0.00    -0.175 N 
ATOM      3  H2  UNL     1      43.749  28.726  17.878  1.00  0.00     0.186 HD
HETATM    4  C2  UNL     1      45.469  29.621  17.231  1.00  0.00     0.145 A 
HETATM    5  N3  UNL     1      45.994  28.530  16.761  1.00  0.00    -0.383 N 
ATOM      6  H31 UNL     1      46.914  28.539  16.322  1.00  0.00     0.157 HD
ATOM      7  H32 UNL     1      45.478  27.654  16.834  1.00  0.00     0.157 HD
HETATM    8  C3  UNL     1      46.167  30.807  17.132  1.00  0.00     0.124 A 
HETATM    9  N4  UNL     1      47.400  30.850  16.549  1.00  0.00    -0.337 N 
ATOM     10  H4  UNL     1      47.818  29.997  16.177  1.00  0.00     0.167 HD
HETATM   11  C4  UNL     1      48.063  32.016  16.463  1.00  0.00     0.130 A 
HETATM   12  N9  UNL     1      47.471  33.106  16.965  1.00  0.00    -0.285 N 
ATOM     13  H9  UNL     1      47.968  33.994  16.904  1.00  0.00     0.188 HD
HETATM   14  N10 UNL     1      46.282  33.098  17.534  1.00  0.00    -0.282 N 
ATOM     15  H10 UNL     1      45.886  33.965  17.896  1.00  0.00     0.188 HD
HETATM   16  C7  UNL     1      45.592  31.955  17.637  1.00  0.00     0.166 A 
HETATM   17  N11 UNL     1      44.386  31.863  18.197  1.00  0.00    -0.173 N 
ATOM     18  H11 UNL     1      43.967  32.715  18.568  1.00  0.00     0.186 HD
ENDROOT
BRANCH  11  19
HETATM   19  C5  UNL     1      49.387  32.089  15.843  1.00  0.00     0.255 C 
BRANCH  19  20
HETATM   20  N5  UNL     1      50.438  32.446  16.737  1.00  0.00    -0.299 N 
ATOM     21  H5  UNL     1      51.359  32.729  16.403  1.00  0.00     0.179 HD
BRANCH  20  22
HETATM   22  N6  UNL     1      50.137  32.387  18.072  1.00  0.00    -0.033 NA
BRANCH  22  23
HETATM   23  N7  UNL     1      50.749  31.230  18.604  1.00  0.00    -0.329 N 
ATOM     24  H72 UNL     1      50.303  30.564  19.234  1.00  0.00     0.174 HD
ATOM     25  H71 UNL     1      51.703  31.188  18.244  1.00  0.00     0.174 HD
ENDBRANCH  22  23
ENDBRANCH  20  22
ENDBRANCH  19  20
BRANCH  19  26
HETATM   26  C6  UNL     1      49.711  30.786  15.216  1.00  0.00     0.262 C 
HETATM   27  N8  UNL     1      48.959  30.290  14.118  1.00  0.00    -0.060 NA
HETATM   28  O1  UNL     1      50.667  30.116  15.665  1.00  0.00    -0.274 OA
ENDBRANCH  19  26
ENDBRANCH  11  19
BRANCH   1  29
HETATM   29  N1  UNL     1      42.516  30.677  18.858  1.00  0.00    -0.234 N 
ATOM     30  H12 UNL     1      42.007  31.519  19.126  1.00  0.00     0.174 HD
ATOM     31  H11 UNL     1      42.062  29.783  19.045  1.00  0.00     0.174 HD
ENDBRANCH   1  29
TORSDOF 6
ENDMDL
MODEL 5
REMARK VINA RESULT: -7.083902770      1.833      2.875
REMARK  6 active torsions:
REMARK  status: ('A' for Active; 'I' for Inactive)
REMARK    1  A    between atoms: N1_1  and  C1_4 
REMARK    2  A    between atoms: C4_14  and  C5_15 
REMARK    3  A    between atoms: C5_15  and  N5_16 
REMARK    4  A    between atoms: C5_15  and  C6_22 
REMARK    5  A    between atoms: N5_16  and  N6_18 
REMARK    6  A    between atoms: N6_18  and  N7_19 
ROOT
HETATM    1  C1  UNL     1      52.769  32.018  16.196  1.00  0.00     0.679 A 
HETATM    2  N2  UNL     1      52.412  30.870  15.597  1.00  0.00    -0.175 N 
ATOM      3  H2  UNL     1      53.141  30.259  15.229  1.00  0.00     0.186 HD
HETATM    4  C2  UNL     1      51.125  30.497  15.466  1.00  0.00     0.145 A 
HETATM    5  N3  UNL     1      50.810  29.381  14.882  1.00  0.00    -0.383 N 
ATOM      6  H31 UNL     1      49.835  29.099  14.783  1.00  0.00     0.157 HD
ATOM      7  H32 UNL     1      51.548  28.779  14.519  1.00  0.00     0.157 HD
HETATM    8  C3  UNL     1      50.125  31.312  15.957  1.00  0.00     0.124 A 
HETATM    9  N4  UNL     1      48.812  30.961  15.840  1.00  0.00    -0.337 N 
ATOM     10  H4  UNL     1      48.557  30.085  15.383  1.00  0.00     0.167 HD
HETATM   11  C4  UNL     1      47.855  31.769  16.326  1.00  0.00     0.130 A 
HETATM   12  N9  UNL     1      48.241  32.906  16.916  1.00  0.00    -0.285 N 
ATOM     13  H9  UNL     1      47.520  33.525  17.287  1.00  0.00     0.188 HD
HETATM   14  N10 UNL     1      49.500  33.273  17.046  1.00  0.00    -0.282 N 
ATOM     15  H10 UNL     1      49.728  34.153  17.508  1.00  0.00     0.188 HD
HETATM   16  C7  UNL     1      50.482  32.493  16.574  1.00  0.00     0.166 A 
HETATM   17  N11 UNL     1      51.777  32.792  16.666  1.00  0.00    -0.173 N 
ATOM     18  H11 UNL     1      52.033  33.667  17.123  1.00  0.00     0.186 HD
ENDROOT
BRANCH  11  19
HETATM   19  C5  UNL     1      46.438  31.416  16.211  1.00  0.00     0.255 C 
BRANCH  19  20
HETATM   20  N5  UNL     1      45.819  31.848  15.002  1.00  0.00    -0.299 N 
ATOM     21  H5  UNL     1      44.805  31.862  14.889  1.00  0.00     0.179 HD
BRANCH  20  22
HETATM   22  N6  UNL     1      46.666  32.244  14.001  1.00  0.00    -0.033 NA
BRANCH  22  23
HETATM   23  N7  UNL     1      46.190  33.473  13.492  1.00  0.00    -0.329 N 
ATOM     24  H72 UNL     1      45.843  34.249  14.054  1.00  0.00     0.174 HD
ATOM     25  H71 UNL     1      46.258  33.436  12.474  1.00  0.00     0.174 HD
ENDBRANCH  22  23
ENDBRANCH  20  22
ENDBRANCH  19  20
BRANCH  19  26
HETATM   26  C6  UNL     1      46.283  29.948  16.334  1.00  0.00     0.262 C 
HETATM   27  N8  UNL     1      46.263  29.312  17.603  1.00  0.00    -0.060 NA
HETATM   28  O1  UNL     1      46.166  29.261  15.295  1.00  0.00    -0.274 OA
ENDBRANCH  19  26
ENDBRANCH  11  19
BRANCH   1  29
HETATM   29  N1  UNL     1      54.015  32.346  16.306  1.00  0.00    -0.234 N 
ATOM     30  H12 UNL     1      54.495  32.908  15.603  1.00  0.00     0.174 HD
ATOM     31  H11 UNL     1      54.564  32.048  17.112  1.00  0.00     0.174 HD
ENDBRANCH   1  29
TORSDOF 6
ENDMDL
