MODEL 1
REMARK VINA RESULT: -4.788394381      0.000      0.000
REMARK  4 active torsions:
REMARK  status: ('A' for Active; 'I' for Inactive)
REMARK    1  A    between atoms: C2_2  and  N1_3 
REMARK    2  A    between atoms: N1_3  and  C3_6 
REMARK    3  A    between atoms: C3_6  and  C4_7 
REMARK    4  A    between atoms: N4_10  and  N5_11 
ROOT
HETATM    1  C4  UNL     1      14.468  -1.373  29.232  1.00  0.00     0.235 C 
HETATM    2  N2  UNL     1      13.813  -2.085  30.317  1.00  0.00    -0.105 NA
HETATM    3  N3  UNL     1      13.906  -0.915  31.107  1.00  0.00    -0.034 NA
HETATM    4  N4  UNL     1      14.419  -0.185  30.023  1.00  0.00    -0.110 NA
ENDROOT
BRANCH   1   5
HETATM    5  C3  UNL     1      15.856  -1.895  29.022  1.00  0.00     0.273 C 
BRANCH   5   6
HETATM    6  N1  UNL     1      15.913  -2.889  27.961  1.00  0.00    -0.073 N 
ATOM      7  H12 UNL     1      16.285  -2.525  27.084  1.00  0.00     0.277 HD
ATOM      8  H11 UNL     1      14.995  -3.156  27.607  1.00  0.00     0.277 HD
BRANCH   6   9
HETATM    9  C2  UNL     1      16.662  -3.989  28.482  1.00  0.00     0.228 C 
HETATM   10  C1  UNL     1      15.819  -5.001  29.220  1.00  0.00     0.034 C 
ENDBRANCH   6   9
ENDBRANCH   5   6
ENDBRANCH   1   5
BRANCH   4  11
HETATM   11  N5  UNL     1      13.482   0.730  29.522  1.00  0.00    -0.346 NA
ATOM     12  H52 UNL     1      13.916   1.620  29.276  1.00  0.00     0.172 HD
ATOM     13  H51 UNL     1      12.961   1.183  30.274  1.00  0.00     0.172 HD
ENDBRANCH   4  11
TORSDOF 4
ENDMDL
MODEL 2
REMARK VINA RESULT: -4.756014484      1.035      1.468
REMARK  4 active torsions:
REMARK  status: ('A' for Active; 'I' for Inactive)
REMARK    1  A    between atoms: C2_2  and  N1_3 
REMARK    2  A    between atoms: N1_3  and  C3_6 
REMARK    3  A    between atoms: C3_6  and  C4_7 
REMARK    4  A    between atoms: N4_10  and  N5_11 
ROOT
HETATM    1  C4  UNL     1      15.000  -2.025  29.664  1.00  0.00     0.235 C 
HETATM    2  N2  UNL     1      15.303  -0.904  30.539  1.00  0.00    -0.105 NA
HETATM    3  N3  UNL     1      14.319  -0.144  29.865  1.00  0.00    -0.034 NA
HETATM    4  N4  UNL     1      13.932  -1.259  29.105  1.00  0.00    -0.110 NA
ENDROOT
BRANCH   1   5
HETATM    5  C3  UNL     1      16.128  -2.265  28.708  1.00  0.00     0.273 C 
BRANCH   5   6
HETATM    6  N1  UNL     1      16.064  -3.588  28.105  1.00  0.00    -0.073 N 
ATOM      7  H12 UNL     1      16.928  -3.862  27.638  1.00  0.00     0.277 HD
ATOM      8  H11 UNL     1      15.459  -3.630  27.285  1.00  0.00     0.277 HD
BRANCH   6   9
HETATM    9  C2  UNL     1      15.672  -4.484  29.146  1.00  0.00     0.228 C 
HETATM   10  C1  UNL     1      16.259  -5.868  29.006  1.00  0.00     0.034 C 
ENDBRANCH   6   9
ENDBRANCH   5   6
ENDBRANCH   1   5
BRANCH   4  11
HETATM   11  N5  UNL     1      12.681  -1.752  29.503  1.00  0.00    -0.346 NA
ATOM     12  H52 UNL     1      12.734  -2.727  29.799  1.00  0.00     0.172 HD
ATOM     13  H51 UNL     1      12.110  -2.018  28.700  1.00  0.00     0.172 HD
ENDBRANCH   4  11
TORSDOF 4
ENDMDL
MODEL 3
REMARK VINA RESULT: -4.737593026      1.588      2.102
REMARK  4 active torsions:
REMARK  status: ('A' for Active; 'I' for Inactive)
REMARK    1  A    between atoms: C2_2  and  N1_3 
REMARK    2  A    between atoms: N1_3  and  C3_6 
REMARK    3  A    between atoms: C3_6  and  C4_7 
REMARK    4  A    between atoms: N4_10  and  N5_11 
ROOT
HETATM    1  C4  UNL     1      13.015  -1.409  29.829  1.00  0.00     0.235 C 
HETATM    2  N2  UNL     1      13.550  -0.797  31.034  1.00  0.00    -0.105 NA
HETATM    3  N3  UNL     1      14.721  -0.465  30.316  1.00  0.00    -0.034 NA
HETATM    4  N4  UNL     1      14.160  -0.937  29.119  1.00  0.00    -0.110 NA
ENDROOT
BRANCH   1   5
HETATM    5  C3  UNL     1      12.972  -2.899  29.971  1.00  0.00     0.273 C 
BRANCH   5   6
HETATM    6  N1  UNL     1      14.049  -3.401  30.810  1.00  0.00    -0.073 N 
ATOM      7  H12 UNL     1      13.757  -3.608  31.765  1.00  0.00     0.277 HD
ATOM      8  H11 UNL     1      14.745  -2.693  31.042  1.00  0.00     0.277 HD
BRANCH   6   9
HETATM    9  C2  UNL     1      14.596  -4.531  30.128  1.00  0.00     0.228 C 
HETATM   10  C1  UNL     1      15.790  -4.200  29.266  1.00  0.00     0.034 C 
ENDBRANCH   6   9
ENDBRANCH   5   6
ENDBRANCH   1   5
BRANCH   4  11
HETATM   11  N5  UNL     1      13.831   0.112  28.249  1.00  0.00    -0.346 NA
ATOM     12  H52 UNL     1      14.087  -0.100  27.285  1.00  0.00     0.172 HD
ATOM     13  H51 UNL     1      14.528   0.857  28.279  1.00  0.00     0.172 HD
ENDBRANCH   4  11
TORSDOF 4
ENDMDL
MODEL 4
REMARK VINA RESULT: -4.691424508      1.100      1.749
REMARK  4 active torsions:
REMARK  status: ('A' for Active; 'I' for Inactive)
REMARK    1  A    between atoms: C2_2  and  N1_3 
REMARK    2  A    between atoms: N1_3  and  C3_6 
REMARK    3  A    between atoms: C3_6  and  C4_7 
REMARK    4  A    between atoms: N4_10  and  N5_11 
ROOT
HETATM    1  C4  UNL     1      14.220  -1.288  30.249  1.00  0.00     0.235 C 
HETATM    2  N2  UNL     1      14.211   0.128  29.919  1.00  0.00    -0.105 NA
HETATM    3  N3  UNL     1      13.412  -0.165  28.790  1.00  0.00    -0.034 NA
HETATM    4  N4  UNL     1      13.308  -1.512  29.173  1.00  0.00    -0.110 NA
ENDROOT
BRANCH   1   5
HETATM    5  C3  UNL     1      15.579  -1.873  30.013  1.00  0.00     0.273 C 
BRANCH   5   6
HETATM    6  N1  UNL     1      15.827  -2.132  28.603  1.00  0.00    -0.073 N 
ATOM      7  H12 UNL     1      16.329  -1.378  28.135  1.00  0.00     0.277 HD
ATOM      8  H11 UNL     1      14.983  -2.096  28.030  1.00  0.00     0.277 HD
BRANCH   6   9
HETATM    9  C2  UNL     1      16.502  -3.389  28.538  1.00  0.00     0.228 C 
HETATM   10  C1  UNL     1      15.757  -4.513  29.218  1.00  0.00     0.034 C 
ENDBRANCH   6   9
ENDBRANCH   5   6
ENDBRANCH   1   5
BRANCH   4  11
HETATM   11  N5  UNL     1      12.024  -1.822  29.643  1.00  0.00    -0.346 NA
ATOM     12  H52 UNL     1      11.349  -1.895  28.881  1.00  0.00     0.172 HD
ATOM     13  H51 UNL     1      11.545  -0.995  29.999  1.00  0.00     0.172 HD
ENDBRANCH   4  11
TORSDOF 4
ENDMDL
MODEL 5
REMARK VINA RESULT: -4.677018788      8.287      9.419
REMARK  4 active torsions:
REMARK  status: ('A' for Active; 'I' for Inactive)
REMARK    1  A    between atoms: C2_2  and  N1_3 
REMARK    2  A    between atoms: N1_3  and  C3_6 
REMARK    3  A    between atoms: C3_6  and  C4_7 
REMARK    4  A    between atoms: N4_10  and  N5_11 
ROOT
HETATM    1  C4  UNL     1      13.074  -9.489  24.164  1.00  0.00     0.235 C 
HETATM    2  N2  UNL     1      11.928  -9.137  24.985  1.00  0.00    -0.105 NA
HETATM    3  N3  UNL     1      11.168  -8.960  23.806  1.00  0.00    -0.034 NA
HETATM    4  N4  UNL     1      12.230  -9.423  23.014  1.00  0.00    -0.110 NA
ENDROOT
BRANCH   1   5
HETATM    5  C3  UNL     1      14.106  -8.404  24.211  1.00  0.00     0.273 C 
BRANCH   5   6
HETATM    6  N1  UNL     1      15.387  -8.887  24.705  1.00  0.00    -0.073 N 
ATOM      7  H12 UNL     1      16.068  -8.144  24.860  1.00  0.00     0.277 HD
ATOM      8  H11 UNL     1      15.921  -9.404  24.006  1.00  0.00     0.277 HD
BRANCH   6   9
HETATM    9  C2  UNL     1      15.102  -9.650  25.878  1.00  0.00     0.228 C 
HETATM   10  C1  UNL     1      15.148  -8.842  27.152  1.00  0.00     0.034 C 
ENDBRANCH   6   9
ENDBRANCH   5   6
ENDBRANCH   1   5
BRANCH   4  11
HETATM   11  N5  UNL     1      11.972 -10.698  22.491  1.00  0.00    -0.346 NA
ATOM     12  H52 UNL     1      12.778 -11.073  21.991  1.00  0.00     0.172 HD
ATOM     13  H51 UNL     1      11.445 -10.646  21.618  1.00  0.00     0.172 HD
ENDBRANCH   4  11
TORSDOF 4
ENDMDL
