MODEL 1
REMARK VINA RESULT: -4.302128062      0.000      0.000
REMARK  5 active torsions:
REMARK  status: ('A' for Active; 'I' for Inactive)
REMARK    1  A    between atoms: N1_1  and  C1_5 
REMARK    2  A    between atoms: C1_5  and  C2_6 
REMARK    3  A    between atoms: C2_6  and  C3_7 
REMARK    4  A    between atoms: C3_7  and  N2_8 
REMARK    5  A    between atoms: N2_8  and  C4_11 
ROOT
HETATM    1  N2  UNL     1      14.977  -6.671  28.624  1.00  0.00    -0.027 N 
ATOM      2  H21 UNL     1      14.803  -6.274  27.701  1.00  0.00     0.282 HD
ATOM      3  H22 UNL     1      14.105  -7.196  28.690  1.00  0.00     0.282 HD
ENDROOT
BRANCH   1   4
HETATM    4  C3  UNL     1      15.155  -5.662  29.689  1.00  0.00     0.239 C 
BRANCH   4   5
HETATM    5  C2  UNL     1      14.752  -4.294  29.261  1.00  0.00     0.055 C 
BRANCH   5   6
HETATM    6  C1  UNL     1      15.923  -3.379  29.046  1.00  0.00     0.231 C 
BRANCH   6   7
HETATM    7  N1  UNL     1      16.761  -3.912  27.979  1.00  0.00    -0.079 N 
ATOM      8  H13 UNL     1      16.407  -3.672  27.053  1.00  0.00     0.274 HD
ATOM      9  H12 UNL     1      17.660  -3.435  27.918  1.00  0.00     0.274 HD
ATOM     10  H11 UNL     1      16.865  -4.919  28.104  1.00  0.00     0.274 HD
ENDBRANCH   6   7
ENDBRANCH   5   6
ENDBRANCH   4   5
ENDBRANCH   1   4
BRANCH   1  11
HETATM   11  C4  UNL     1      16.166  -7.494  28.697  1.00  0.00     0.470 A 
HETATM   12  N3  UNL     1      16.654  -7.947  27.417  1.00  0.00    -0.263 N 
HETATM   13  N4  UNL     1      17.704  -7.305  27.592  1.00  0.00    -0.204 N 
ATOM     14  H3  UNL     1      16.289  -8.546  26.677  1.00  0.00     0.186 HD
HETATM   15  O1  UNL     1      17.384  -6.780  28.843  1.00  0.00    -0.208 OA
ATOM     16  H4  UNL     1      18.534  -7.197  27.007  1.00  0.00     0.215 HD
ENDBRANCH   1  11
TORSDOF 5
ENDMDL
MODEL 2
REMARK VINA RESULT: -4.198960110      6.573      6.956
REMARK  5 active torsions:
REMARK  status: ('A' for Active; 'I' for Inactive)
REMARK    1  A    between atoms: N1_1  and  C1_5 
REMARK    2  A    between atoms: C1_5  and  C2_6 
REMARK    3  A    between atoms: C2_6  and  C3_7 
REMARK    4  A    between atoms: C3_7  and  N2_8 
REMARK    5  A    between atoms: N2_8  and  C4_11 
ROOT
HETATM    1  N2  UNL     1      10.182  -9.267  24.513  1.00  0.00    -0.027 N 
ATOM      2  H21 UNL     1       9.555  -9.334  23.711  1.00  0.00     0.282 HD
ATOM      3  H22 UNL     1       9.660  -9.899  25.120  1.00  0.00     0.282 HD
ENDROOT
BRANCH   1   4
HETATM    4  C3  UNL     1      10.327  -7.899  25.051  1.00  0.00     0.239 C 
BRANCH   4   5
HETATM    5  C2  UNL     1      11.450  -7.777  26.023  1.00  0.00     0.055 C 
BRANCH   5   6
HETATM    6  C1  UNL     1      12.410  -6.677  25.673  1.00  0.00     0.231 C 
BRANCH   6   7
HETATM    7  N1  UNL     1      12.164  -6.241  24.304  1.00  0.00    -0.079 N 
ATOM      8  H13 UNL     1      11.170  -6.118  24.110  1.00  0.00     0.274 HD
ATOM      9  H12 UNL     1      12.463  -5.279  24.145  1.00  0.00     0.274 HD
ATOM     10  H11 UNL     1      12.605  -6.895  23.658  1.00  0.00     0.274 HD
ENDBRANCH   6   7
ENDBRANCH   5   6
ENDBRANCH   4   5
ENDBRANCH   1   4
BRANCH   1  11
HETATM   11  C4  UNL     1      11.537  -9.699  24.239  1.00  0.00     0.470 A 
HETATM   12  N3  UNL     1      11.652 -11.086  23.859  1.00  0.00    -0.263 N 
HETATM   13  N4  UNL     1      12.077 -10.743  22.742  1.00  0.00    -0.204 N 
ATOM     14  H3  UNL     1      11.464 -11.977  24.317  1.00  0.00     0.186 HD
HETATM   15  O1  UNL     1      12.025  -9.365  22.948  1.00  0.00    -0.208 OA
ATOM     16  H4  UNL     1      12.369 -11.294  21.934  1.00  0.00     0.215 HD
ENDBRANCH   1  11
TORSDOF 5
ENDMDL
MODEL 3
REMARK VINA RESULT: -4.197386844      6.072      6.794
REMARK  5 active torsions:
REMARK  status: ('A' for Active; 'I' for Inactive)
REMARK    1  A    between atoms: N1_1  and  C1_5 
REMARK    2  A    between atoms: C1_5  and  C2_6 
REMARK    3  A    between atoms: C2_6  and  C3_7 
REMARK    4  A    between atoms: C3_7  and  N2_8 
REMARK    5  A    between atoms: N2_8  and  C4_11 
ROOT
HETATM    1  N2  UNL     1      14.154  -9.961  23.899  1.00  0.00    -0.027 N 
ATOM      2  H21 UNL     1      14.266 -10.483  24.768  1.00  0.00     0.282 HD
ATOM      3  H22 UNL     1      15.057 -10.214  23.496  1.00  0.00     0.282 HD
ENDROOT
BRANCH   1   4
HETATM    4  C3  UNL     1      13.965  -8.508  24.089  1.00  0.00     0.239 C 
BRANCH   4   5
HETATM    5  C2  UNL     1      13.554  -8.157  25.477  1.00  0.00     0.055 C 
BRANCH   5   6
HETATM    6  C1  UNL     1      12.540  -7.050  25.525  1.00  0.00     0.231 C 
BRANCH   6   7
HETATM    7  N1  UNL     1      12.299  -6.561  24.173  1.00  0.00    -0.079 N 
ATOM      8  H13 UNL     1      12.606  -5.596  24.050  1.00  0.00     0.274 HD
ATOM      9  H12 UNL     1      12.915  -6.997  23.488  1.00  0.00     0.274 HD
ATOM     10  H11 UNL     1      11.313  -6.684  23.942  1.00  0.00     0.274 HD
ENDBRANCH   6   7
ENDBRANCH   5   6
ENDBRANCH   4   5
ENDBRANCH   1   4
BRANCH   1  11
HETATM   11  C4  UNL     1      13.018 -10.377  23.104  1.00  0.00     0.470 A 
HETATM   12  N3  UNL     1      12.020 -11.119  23.837  1.00  0.00    -0.263 N 
HETATM   13  N4  UNL     1      11.194 -10.215  23.622  1.00  0.00    -0.204 N 
ATOM     14  H3  UNL     1      12.001 -12.013  24.326  1.00  0.00     0.186 HD
HETATM   15  O1  UNL     1      12.034  -9.377  22.890  1.00  0.00    -0.208 OA
ATOM     16  H4  UNL     1      10.215 -10.117  23.895  1.00  0.00     0.215 HD
ENDBRANCH   1  11
TORSDOF 5
ENDMDL
MODEL 4
REMARK VINA RESULT: -4.149350701      1.319      1.374
REMARK  5 active torsions:
REMARK  status: ('A' for Active; 'I' for Inactive)
REMARK    1  A    between atoms: N1_1  and  C1_5 
REMARK    2  A    between atoms: C1_5  and  C2_6 
REMARK    3  A    between atoms: C2_6  and  C3_7 
REMARK    4  A    between atoms: C3_7  and  N2_8 
REMARK    5  A    between atoms: N2_8  and  C4_11 
ROOT
HETATM    1  N2  UNL     1      15.321  -5.938  28.633  1.00  0.00    -0.027 N 
ATOM      2  H21 UNL     1      15.025  -5.829  27.662  1.00  0.00     0.282 HD
ATOM      3  H22 UNL     1      14.417  -6.240  28.995  1.00  0.00     0.282 HD
ENDROOT
BRANCH   1   4
HETATM    4  C3  UNL     1      15.833  -4.697  29.249  1.00  0.00     0.239 C 
BRANCH   4   5
HETATM    5  C2  UNL     1      15.406  -3.471  28.519  1.00  0.00     0.055 C 
BRANCH   5   6
HETATM    6  C1  UNL     1      16.213  -2.259  28.887  1.00  0.00     0.231 C 
BRANCH   6   7
HETATM    7  N1  UNL     1      15.594  -1.598  30.029  1.00  0.00    -0.079 N 
ATOM      8  H13 UNL     1      15.052  -0.778  29.754  1.00  0.00     0.274 HD
ATOM      9  H12 UNL     1      14.834  -2.147  30.429  1.00  0.00     0.274 HD
ATOM     10  H11 UNL     1      16.313  -1.372  30.717  1.00  0.00     0.274 HD
ENDBRANCH   6   7
ENDBRANCH   5   6
ENDBRANCH   4   5
ENDBRANCH   1   4
BRANCH   1  11
HETATM   11  C4  UNL     1      16.383  -6.905  28.820  1.00  0.00     0.470 A 
HETATM   12  N3  UNL     1      16.570  -7.804  27.706  1.00  0.00    -0.263 N 
HETATM   13  N4  UNL     1      17.712  -7.343  27.529  1.00  0.00    -0.204 N 
ATOM     14  H3  UNL     1      16.002  -8.519  27.254  1.00  0.00     0.186 HD
HETATM   15  O1  UNL     1      17.692  -6.417  28.572  1.00  0.00    -0.208 OA
ATOM     16  H4  UNL     1      18.431  -7.571  26.842  1.00  0.00     0.215 HD
ENDBRANCH   1  11
TORSDOF 5
ENDMDL
MODEL 5
REMARK VINA RESULT: -4.146648185      2.511      3.962
REMARK  5 active torsions:
REMARK  status: ('A' for Active; 'I' for Inactive)
REMARK    1  A    between atoms: N1_1  and  C1_5 
REMARK    2  A    between atoms: C1_5  and  C2_6 
REMARK    3  A    between atoms: C2_6  and  C3_7 
REMARK    4  A    between atoms: C3_7  and  N2_8 
REMARK    5  A    between atoms: N2_8  and  C4_11 
ROOT
HETATM    1  N2  UNL     1      15.143  -7.844  27.926  1.00  0.00    -0.027 N 
ATOM      2  H21 UNL     1      14.445  -7.915  28.667  1.00  0.00     0.282 HD
ATOM      3  H22 UNL     1      14.837  -6.940  27.567  1.00  0.00     0.282 HD
ENDROOT
BRANCH   1   4
HETATM    4  C3  UNL     1      15.083  -8.938  26.935  1.00  0.00     0.239 C 
BRANCH   4   5
HETATM    5  C2  UNL     1      14.041  -8.717  25.894  1.00  0.00     0.055 C 
BRANCH   5   6
HETATM    6  C1  UNL     1      14.572  -8.852  24.496  1.00  0.00     0.231 C 
BRANCH   6   7
HETATM    7  N1  UNL     1      16.003  -8.573  24.496  1.00  0.00    -0.079 N 
ATOM      8  H13 UNL     1      16.556  -9.388  24.764  1.00  0.00     0.274 HD
ATOM      9  H12 UNL     1      16.373  -8.451  23.554  1.00  0.00     0.274 HD
ATOM     10  H11 UNL     1      16.189  -7.767  25.093  1.00  0.00     0.274 HD
ENDBRANCH   6   7
ENDBRANCH   5   6
ENDBRANCH   4   5
ENDBRANCH   1   4
BRANCH   1  11
HETATM   11  C4  UNL     1      16.510  -7.855  28.403  1.00  0.00     0.470 A 
HETATM   12  N3  UNL     1      17.481  -7.407  27.433  1.00  0.00    -0.263 N 
HETATM   13  N4  UNL     1      17.769  -6.447  28.169  1.00  0.00    -0.204 N 
ATOM     14  H3  UNL     1      17.798  -7.739  26.523  1.00  0.00     0.186 HD
HETATM   15  O1  UNL     1      16.879  -6.742  29.202  1.00  0.00    -0.208 OA
ATOM     16  H4  UNL     1      18.441  -5.687  28.054  1.00  0.00     0.215 HD
ENDBRANCH   1  11
TORSDOF 5
ENDMDL
