MODEL 1
REMARK VINA RESULT: -5.486070279      0.000      0.000
REMARK  6 active torsions:
REMARK  status: ('A' for Active; 'I' for Inactive)
REMARK    1  A    between atoms: C3_8  and  C4_9 
REMARK    2  A    between atoms: C4_9  and  N4_10 
REMARK    3  A    between atoms: C4_9  and  N5_14 
REMARK    4  A    between atoms: N5_14  and  C5_16 
REMARK    5  A    between atoms: C5_16  and  N6_17 
REMARK    6  A    between atoms: N6_17  and  N7_19 
ROOT
HETATM    1  C4  UNL     1       1.274 -19.931 -23.981  1.00  0.00     0.343 C 
ENDROOT
BRANCH   1   2
HETATM    2  C3  UNL     1       1.036 -20.975 -22.942  1.00  0.00     0.102 A 
HETATM    3  C1  UNL     1       1.952 -21.569 -22.087  1.00  0.00     0.143 A 
HETATM    4  N1  UNL     1       3.344 -21.288 -22.032  1.00  0.00    -0.080 NA
HETATM    5  N2  UNL     1       1.286 -22.443 -21.333  1.00  0.00    -0.339 N 
HETATM    6  C2  UNL     1       0.000 -22.406 -21.696  1.00  0.00     0.182 A 
ATOM      7  H2  UNL     1       1.687 -23.036 -20.607  1.00  0.00     0.167 HD
HETATM    8  N3  UNL     1      -0.169 -21.508 -22.685  1.00  0.00    -0.350 N 
ATOM      9  H3  UNL     1      -1.047 -21.276 -23.150  1.00  0.00     0.166 HD
ENDBRANCH   1   2
BRANCH   1  10
HETATM   10  N4  UNL     1       0.435 -18.765 -23.667  1.00  0.00    -0.052 N 
ATOM     11  H43 UNL     1      -0.202 -18.937 -22.889  1.00  0.00     0.277 HD
ATOM     12  H42 UNL     1       0.965 -18.002 -23.245  1.00  0.00     0.277 HD
ATOM     13  H41 UNL     1      -0.052 -18.481 -24.517  1.00  0.00     0.277 HD
ENDBRANCH   1  10
BRANCH   1  14
HETATM   14  N5  UNL     1       2.636 -19.503 -23.995  1.00  0.00    -0.308 N 
ATOM     15  H5  UNL     1       3.375 -20.113 -23.645  1.00  0.00     0.173 HD
BRANCH  14  16
HETATM   16  C5  UNL     1       2.913 -18.354 -24.447  1.00  0.00     0.065 C 
BRANCH  16  17
HETATM   17  N6  UNL     1       3.456 -17.226 -24.742  1.00  0.00    -0.257 N 
ATOM     18  H6  UNL     1       3.480 -16.886 -25.702  1.00  0.00     0.197 HD
BRANCH  17  19
HETATM   19  N7  UNL     1       4.006 -16.493 -23.705  1.00  0.00    -0.337 N 
ATOM     20  H72 UNL     1       3.557 -16.478 -22.790  1.00  0.00     0.177 HD
ATOM     21  H71 UNL     1       4.865 -15.978 -23.898  1.00  0.00     0.177 HD
ENDBRANCH  17  19
ENDBRANCH  16  17
ENDBRANCH  14  16
ENDBRANCH   1  14
TORSDOF 6
ENDMDL
MODEL 2
REMARK VINA RESULT: -5.163112260      1.022      1.140
REMARK  6 active torsions:
REMARK  status: ('A' for Active; 'I' for Inactive)
REMARK    1  A    between atoms: C3_8  and  C4_9 
REMARK    2  A    between atoms: C4_9  and  N4_10 
REMARK    3  A    between atoms: C4_9  and  N5_14 
REMARK    4  A    between atoms: N5_14  and  C5_16 
REMARK    5  A    between atoms: C5_16  and  N6_17 
REMARK    6  A    between atoms: N6_17  and  N7_19 
ROOT
HETATM    1  C4  UNL     1       0.713 -20.178 -23.853  1.00  0.00     0.343 C 
ENDROOT
BRANCH   1   2
HETATM    2  C3  UNL     1       0.262 -21.414 -23.151  1.00  0.00     0.102 A 
HETATM    3  C1  UNL     1       0.731 -21.953 -21.963  1.00  0.00     0.143 A 
HETATM    4  N1  UNL     1       1.767 -21.415 -21.155  1.00  0.00    -0.080 NA
HETATM    5  N2  UNL     1       0.029 -23.062 -21.724  1.00  0.00    -0.339 N 
HETATM    6  C2  UNL     1      -0.847 -23.219 -22.721  1.00  0.00     0.182 A 
ATOM      7  H2  UNL     1       0.142 -23.681 -20.921  1.00  0.00     0.167 HD
HETATM    8  N3  UNL     1      -0.716 -22.213 -23.606  1.00  0.00    -0.350 N 
ATOM      9  H3  UNL     1      -1.258 -22.083 -24.461  1.00  0.00     0.166 HD
ENDBRANCH   1   2
BRANCH   1  10
HETATM   10  N4  UNL     1      -0.086 -19.046 -23.359  1.00  0.00    -0.052 N 
ATOM     11  H43 UNL     1       0.478 -18.353 -22.867  1.00  0.00     0.277 HD
ATOM     12  H42 UNL     1      -0.419 -18.443 -24.111  1.00  0.00     0.277 HD
ATOM     13  H41 UNL     1      -0.844 -19.414 -22.786  1.00  0.00     0.277 HD
ENDBRANCH   1  10
BRANCH   1  14
HETATM   14  N5  UNL     1       2.088 -19.894 -23.589  1.00  0.00    -0.308 N 
ATOM     15  H5  UNL     1       2.580 -20.371 -22.833  1.00  0.00     0.173 HD
BRANCH  14  16
HETATM   16  C5  UNL     1       2.687 -19.043 -24.309  1.00  0.00     0.065 C 
BRANCH  16  17
HETATM   17  N6  UNL     1       3.527 -18.223 -24.834  1.00  0.00    -0.257 N 
ATOM     18  H6  UNL     1       4.071 -18.478 -25.657  1.00  0.00     0.197 HD
BRANCH  17  19
HETATM   19  N7  UNL     1       3.663 -16.982 -24.239  1.00  0.00    -0.337 N 
ATOM     20  H72 UNL     1       3.175 -16.171 -24.621  1.00  0.00     0.177 HD
ATOM     21  H71 UNL     1       4.263 -16.917 -23.417  1.00  0.00     0.177 HD
ENDBRANCH  17  19
ENDBRANCH  16  17
ENDBRANCH  14  16
ENDBRANCH   1  14
TORSDOF 6
ENDMDL
MODEL 3
REMARK VINA RESULT: -4.967387569      1.460      1.929
REMARK  6 active torsions:
REMARK  status: ('A' for Active; 'I' for Inactive)
REMARK    1  A    between atoms: C3_8  and  C4_9 
REMARK    2  A    between atoms: C4_9  and  N4_10 
REMARK    3  A    between atoms: C4_9  and  N5_14 
REMARK    4  A    between atoms: N5_14  and  C5_16 
REMARK    5  A    between atoms: C5_16  and  N6_17 
REMARK    6  A    between atoms: N6_17  and  N7_19 
ROOT
HETATM    1  C4  UNL     1      -0.039 -21.109 -23.364  1.00  0.00     0.343 C 
ENDROOT
BRANCH   1   2
HETATM    2  C3  UNL     1       0.131 -22.316 -22.503  1.00  0.00     0.102 A 
HETATM    3  C1  UNL     1       0.969 -22.488 -21.412  1.00  0.00     0.143 A 
HETATM    4  N1  UNL     1       1.859 -21.516 -20.883  1.00  0.00    -0.080 NA
HETATM    5  N2  UNL     1       0.782 -23.727 -20.957  1.00  0.00    -0.339 N 
HETATM    6  C2  UNL     1      -0.136 -24.316 -21.729  1.00  0.00     0.182 A 
ATOM      7  H2  UNL     1       1.256 -24.151 -20.159  1.00  0.00     0.167 HD
HETATM    8  N3  UNL     1      -0.546 -23.460 -22.684  1.00  0.00    -0.350 N 
ATOM      9  H3  UNL     1      -1.240 -23.646 -23.409  1.00  0.00     0.166 HD
ENDBRANCH   1   2
BRANCH   1  10
HETATM   10  N4  UNL     1      -1.310 -20.460 -23.007  1.00  0.00    -0.052 N 
ATOM     11  H43 UNL     1      -1.681 -20.788 -22.115  1.00  0.00     0.277 HD
ATOM     12  H42 UNL     1      -1.192 -19.479 -22.756  1.00  0.00     0.277 HD
ATOM     13  H41 UNL     1      -1.965 -20.592 -23.777  1.00  0.00     0.277 HD
ENDBRANCH   1  10
BRANCH   1  14
HETATM   14  N5  UNL     1       1.011 -20.163 -23.157  1.00  0.00    -0.308 N 
ATOM     15  H5  UNL     1       1.280 -19.884 -22.214  1.00  0.00     0.173 HD
BRANCH  14  16
HETATM   16  C5  UNL     1       1.603 -19.676 -24.164  1.00  0.00     0.065 C 
BRANCH  16  17
HETATM   17  N6  UNL     1       2.391 -19.056 -24.969  1.00  0.00    -0.257 N 
ATOM     18  H6  UNL     1       2.191 -18.999 -25.967  1.00  0.00     0.197 HD
BRANCH  17  19
HETATM   19  N7  UNL     1       3.521 -18.467 -24.429  1.00  0.00    -0.337 N 
ATOM     20  H72 UNL     1       3.451 -17.898 -23.585  1.00  0.00     0.177 HD
ATOM     21  H71 UNL     1       4.408 -18.626 -24.906  1.00  0.00     0.177 HD
ENDBRANCH  17  19
ENDBRANCH  16  17
ENDBRANCH  14  16
ENDBRANCH   1  14
TORSDOF 6
ENDMDL
MODEL 4
REMARK VINA RESULT: -4.825660670      1.378      4.916
REMARK  6 active torsions:
REMARK  status: ('A' for Active; 'I' for Inactive)
REMARK    1  A    between atoms: C3_8  and  C4_9 
REMARK    2  A    between atoms: C4_9  and  N4_10 
REMARK    3  A    between atoms: C4_9  and  N5_14 
REMARK    4  A    between atoms: N5_14  and  C5_16 
REMARK    5  A    between atoms: C5_16  and  N6_17 
REMARK    6  A    between atoms: N6_17  and  N7_19 
ROOT
HETATM    1  C4  UNL     1       0.914 -20.891 -22.601  1.00  0.00     0.343 C 
ENDROOT
BRANCH   1   2
HETATM    2  C3  UNL     1       1.870 -19.985 -23.301  1.00  0.00     0.102 A 
HETATM    3  C1  UNL     1       3.255 -20.043 -23.325  1.00  0.00     0.143 A 
HETATM    4  N1  UNL     1       4.061 -21.008 -22.664  1.00  0.00    -0.080 NA
HETATM    5  N2  UNL     1       3.683 -19.031 -24.080  1.00  0.00    -0.339 N 
HETATM    6  C2  UNL     1       2.614 -18.359 -24.515  1.00  0.00     0.182 A 
ATOM      7  H2  UNL     1       4.657 -18.808 -24.288  1.00  0.00     0.167 HD
HETATM    8  N3  UNL     1       1.491 -18.934 -24.045  1.00  0.00    -0.350 N 
ATOM      9  H3  UNL     1       0.533 -18.629 -24.221  1.00  0.00     0.166 HD
ENDBRANCH   1   2
BRANCH   1  10
HETATM   10  N4  UNL     1       0.152 -21.635 -23.615  1.00  0.00    -0.052 N 
ATOM     11  H43 UNL     1       0.399 -22.625 -23.643  1.00  0.00     0.277 HD
ATOM     12  H42 UNL     1      -0.830 -21.746 -23.366  1.00  0.00     0.277 HD
ATOM     13  H41 UNL     1       0.279 -21.173 -24.516  1.00  0.00     0.277 HD
ENDBRANCH   1  10
BRANCH   1  14
HETATM   14  N5  UNL     1       1.593 -21.839 -21.777  1.00  0.00    -0.308 N 
ATOM     15  H5  UNL     1       2.564 -21.687 -21.503  1.00  0.00     0.173 HD
BRANCH  14  16
HETATM   16  C5  UNL     1       0.972 -22.872 -21.391  1.00  0.00     0.065 C 
BRANCH  16  17
HETATM   17  N6  UNL     1       0.627 -24.046 -20.999  1.00  0.00    -0.257 N 
ATOM     18  H6  UNL     1       0.870 -24.386 -20.068  1.00  0.00     0.197 HD
BRANCH  17  19
HETATM   19  N7  UNL     1      -0.086 -24.832 -21.886  1.00  0.00    -0.337 N 
ATOM     20  H72 UNL     1       0.037 -24.714 -22.892  1.00  0.00     0.177 HD
ATOM     21  H71 UNL     1      -0.727 -25.521 -21.494  1.00  0.00     0.177 HD
ENDBRANCH  17  19
ENDBRANCH  16  17
ENDBRANCH  14  16
ENDBRANCH   1  14
TORSDOF 6
ENDMDL
MODEL 5
REMARK VINA RESULT: -4.788368540      0.880      1.807
REMARK  6 active torsions:
REMARK  status: ('A' for Active; 'I' for Inactive)
REMARK    1  A    between atoms: C3_8  and  C4_9 
REMARK    2  A    between atoms: C4_9  and  N4_10 
REMARK    3  A    between atoms: C4_9  and  N5_14 
REMARK    4  A    between atoms: N5_14  and  C5_16 
REMARK    5  A    between atoms: C5_16  and  N6_17 
REMARK    6  A    between atoms: N6_17  and  N7_19 
ROOT
HETATM    1  C4  UNL     1       1.218 -20.128 -23.845  1.00  0.00     0.343 C 
ENDROOT
BRANCH   1   2
HETATM    2  C3  UNL     1       0.915 -21.144 -22.796  1.00  0.00     0.102 A 
HETATM    3  C1  UNL     1      -0.299 -21.746 -22.501  1.00  0.00     0.143 A 
HETATM    4  N1  UNL     1      -1.532 -21.505 -23.164  1.00  0.00    -0.080 NA
HETATM    5  N2  UNL     1      -0.091 -22.588 -21.488  1.00  0.00    -0.339 N 
HETATM    6  C2  UNL     1       1.201 -22.521 -21.154  1.00  0.00     0.182 A 
ATOM      7  H2  UNL     1      -0.795 -23.179 -21.046  1.00  0.00     0.167 HD
HETATM    8  N3  UNL     1       1.833 -21.637 -21.950  1.00  0.00    -0.350 N 
ATOM      9  H3  UNL     1       2.822 -21.388 -21.916  1.00  0.00     0.166 HD
ENDBRANCH   1   2
BRANCH   1  10
HETATM   10  N4  UNL     1       0.307 -18.987 -23.663  1.00  0.00    -0.052 N 
ATOM     11  H43 UNL     1      -0.454 -19.192 -23.016  1.00  0.00     0.277 HD
ATOM     12  H42 UNL     1       0.734 -18.225 -23.137  1.00  0.00     0.277 HD
ATOM     13  H41 UNL     1      -0.026 -18.692 -24.581  1.00  0.00     0.277 HD
ENDBRANCH   1  10
BRANCH   1  14
HETATM   14  N5  UNL     1       2.557 -19.643 -23.738  1.00  0.00    -0.308 N 
ATOM     15  H5  UNL     1       3.235 -20.121 -23.144  1.00  0.00     0.173 HD
BRANCH  14  16
HETATM   16  C5  UNL     1       2.890 -18.613 -24.392  1.00  0.00     0.065 C 
BRANCH  16  17
HETATM   17  N6  UNL     1       3.452 -17.546 -24.839  1.00  0.00    -0.257 N 
ATOM     18  H6  UNL     1       3.570 -17.390 -25.840  1.00  0.00     0.197 HD
BRANCH  17  19
HETATM   19  N7  UNL     1       3.889 -16.618 -23.911  1.00  0.00    -0.337 N 
ATOM     20  H72 UNL     1       3.238 -16.221 -23.234  1.00  0.00     0.177 HD
ATOM     21  H71 UNL     1       4.874 -16.356 -23.937  1.00  0.00     0.177 HD
ENDBRANCH  17  19
ENDBRANCH  16  17
ENDBRANCH  14  16
ENDBRANCH   1  14
TORSDOF 6
ENDMDL
