MODEL 1
REMARK VINA RESULT: -6.059805135      0.000      0.000
REMARK  5 active torsions:
REMARK  status: ('A' for Active; 'I' for Inactive)
REMARK    1  A    between atoms: C3_3  and  C4_4 
REMARK    2  A    between atoms: C4_4  and  N1_5 
REMARK    3  A    between atoms: N1_5  and  C5_7 
REMARK    4  A    between atoms: C8_10  and  S1_11 
REMARK    5  A    between atoms: S1_11  and  N2_14 
ROOT
HETATM    1  C1  UNL     1     219.849   7.049   4.116  1.00  0.00     0.112 C 
HETATM    2  C2  UNL     1     219.884   7.863   5.338  1.00  0.00    -0.109 C 
HETATM    3  C3  UNL     1     219.906   8.546   6.336  1.00  0.00    -0.087 C 
ENDROOT
BRANCH   3   4
HETATM    4  C4  UNL     1     219.917   9.390   7.530  1.00  0.00     0.214 C 
BRANCH   4   5
HETATM    5  N1  UNL     1     220.008   8.591   8.741  1.00  0.00    -0.380 N 
ATOM      6  H1  UNL     1     220.916   8.246   9.052  1.00  0.00     0.160 HD
BRANCH   5   7
HETATM    7  C5  UNL     1     218.841   8.287   9.499  1.00  0.00     0.028 A 
HETATM    8  C6  UNL     1     217.590   8.704   9.125  1.00  0.00     0.031 A 
HETATM    9  C7  UNL     1     216.467   8.399   9.875  1.00  0.00     0.027 A 
HETATM   10  C8  UNL     1     216.564   7.659  11.033  1.00  0.00     0.079 A 
HETATM   11  C10 UNL     1     217.819   7.234  11.420  1.00  0.00     0.027 A 
HETATM   12  C11 UNL     1     218.940   7.548  10.657  1.00  0.00     0.031 A 
BRANCH  10  13
HETATM   13  S1  UNL     1     215.157   7.271  11.981  1.00  0.00     0.258 S 
HETATM   14  O1  UNL     1     215.191   5.823  12.439  1.00  0.00    -0.201 OA
HETATM   15  O2  UNL     1     213.899   7.405  11.152  1.00  0.00    -0.201 OA
BRANCH  13  16
HETATM   16  N2  UNL     1     214.989   8.264  13.364  1.00  0.00    -0.320 N 
HETATM   17  C9  UNL     1     216.117   8.196  14.238  1.00  0.00     0.159 C 
ATOM     18  H2  UNL     1     214.169   8.844  13.545  1.00  0.00     0.171 HD
ENDBRANCH  13  16
ENDBRANCH  10  13
ENDBRANCH   5   7
ENDBRANCH   4   5
ENDBRANCH   3   4
TORSDOF 5
ENDMDL
MODEL 2
REMARK VINA RESULT: -6.002280955      0.179      1.190
REMARK  5 active torsions:
REMARK  status: ('A' for Active; 'I' for Inactive)
REMARK    1  A    between atoms: C3_3  and  C4_4 
REMARK    2  A    between atoms: C4_4  and  N1_5 
REMARK    3  A    between atoms: N1_5  and  C5_7 
REMARK    4  A    between atoms: C8_10  and  S1_11 
REMARK    5  A    between atoms: S1_11  and  N2_14 
ROOT
HETATM    1  C1  UNL     1     219.951   7.213   4.230  1.00  0.00     0.112 C 
HETATM    2  C2  UNL     1     219.971   8.011   5.464  1.00  0.00    -0.109 C 
HETATM    3  C3  UNL     1     219.971   8.673   6.476  1.00  0.00    -0.087 C 
ENDROOT
BRANCH   3   4
HETATM    4  C4  UNL     1     219.945   9.473   7.699  1.00  0.00     0.214 C 
BRANCH   4   5
HETATM    5  N1  UNL     1     220.014   8.633   8.883  1.00  0.00    -0.380 N 
ATOM      6  H1  UNL     1     220.916   8.272   9.194  1.00  0.00     0.160 HD
BRANCH   5   7
HETATM    7  C5  UNL     1     218.835   8.307   9.613  1.00  0.00     0.028 A 
HETATM    8  C6  UNL     1     218.863   7.554  10.759  1.00  0.00     0.031 A 
HETATM    9  C7  UNL     1     217.707   7.247  11.455  1.00  0.00     0.027 A 
HETATM   10  C8  UNL     1     216.476   7.690  11.022  1.00  0.00     0.079 A 
HETATM   11  C10 UNL     1     216.436   8.448   9.870  1.00  0.00     0.027 A 
HETATM   12  C11 UNL     1     217.606   8.749   9.178  1.00  0.00     0.031 A 
BRANCH  10  13
HETATM   13  S1  UNL     1     215.018   7.308  11.892  1.00  0.00     0.258 S 
HETATM   14  O1  UNL     1     214.985   5.841  12.284  1.00  0.00    -0.201 OA
HETATM   15  O2  UNL     1     213.801   7.523  11.019  1.00  0.00    -0.201 OA
BRANCH  13  16
HETATM   16  N2  UNL     1     214.825   8.243  13.312  1.00  0.00    -0.320 N 
HETATM   17  C9  UNL     1     215.868   8.032  14.264  1.00  0.00     0.159 C 
ATOM     18  H2  UNL     1     214.045   8.885  13.462  1.00  0.00     0.171 HD
ENDBRANCH  13  16
ENDBRANCH  10  13
ENDBRANCH   5   7
ENDBRANCH   4   5
ENDBRANCH   3   4
TORSDOF 5
ENDMDL
MODEL 3
REMARK VINA RESULT: -5.424583489      1.346      2.026
REMARK  5 active torsions:
REMARK  status: ('A' for Active; 'I' for Inactive)
REMARK    1  A    between atoms: C3_3  and  C4_4 
REMARK    2  A    between atoms: C4_4  and  N1_5 
REMARK    3  A    between atoms: N1_5  and  C5_7 
REMARK    4  A    between atoms: C8_10  and  S1_11 
REMARK    5  A    between atoms: S1_11  and  N2_14 
ROOT
HETATM    1  C1  UNL     1     219.764   7.457   4.889  1.00  0.00     0.112 C 
HETATM    2  C2  UNL     1     219.763   8.281   6.106  1.00  0.00    -0.109 C 
HETATM    3  C3  UNL     1     219.780   8.956   7.109  1.00  0.00    -0.087 C 
ENDROOT
BRANCH   3   4
HETATM    4  C4  UNL     1     219.825   9.773   8.321  1.00  0.00     0.214 C 
BRANCH   4   5
HETATM    5  N1  UNL     1     220.006   8.951   9.506  1.00  0.00    -0.380 N 
ATOM      6  H1  UNL     1     220.944   8.664   9.783  1.00  0.00     0.160 HD
BRANCH   5   7
HETATM    7  C5  UNL     1     218.885   8.544  10.286  1.00  0.00     0.028 A 
HETATM    8  C6  UNL     1     218.742   7.264  10.756  1.00  0.00     0.031 A 
HETATM    9  C7  UNL     1     217.645   6.885  11.511  1.00  0.00     0.027 A 
HETATM   10  C8  UNL     1     216.650   7.785  11.822  1.00  0.00     0.079 A 
HETATM   11  C10 UNL     1     216.783   9.077  11.354  1.00  0.00     0.027 A 
HETATM   12  C11 UNL     1     217.891   9.444  10.594  1.00  0.00     0.031 A 
BRANCH  10  13
HETATM   13  S1  UNL     1     215.269   7.317  12.772  1.00  0.00     0.258 S 
HETATM   14  O1  UNL     1     215.259   8.035  14.111  1.00  0.00    -0.201 OA
HETATM   15  O2  UNL     1     215.322   5.842  13.103  1.00  0.00    -0.201 OA
BRANCH  13  16
HETATM   16  N2  UNL     1     213.782   7.631  11.987  1.00  0.00    -0.320 N 
HETATM   17  C9  UNL     1     213.910   7.721  10.567  1.00  0.00     0.159 C 
ATOM     18  H2  UNL     1     212.896   7.742  12.482  1.00  0.00     0.171 HD
ENDBRANCH  13  16
ENDBRANCH  10  13
ENDBRANCH   5   7
ENDBRANCH   4   5
ENDBRANCH   3   4
TORSDOF 5
ENDMDL
MODEL 4
REMARK VINA RESULT: -5.232927547      3.859      7.173
REMARK  5 active torsions:
REMARK  status: ('A' for Active; 'I' for Inactive)
REMARK    1  A    between atoms: C3_3  and  C4_4 
REMARK    2  A    between atoms: C4_4  and  N1_5 
REMARK    3  A    between atoms: N1_5  and  C5_7 
REMARK    4  A    between atoms: C8_10  and  S1_11 
REMARK    5  A    between atoms: S1_11  and  N2_14 
ROOT
HETATM    1  C1  UNL     1     213.142   1.107  14.482  1.00  0.00     0.112 C 
HETATM    2  C2  UNL     1     213.964   2.311  14.302  1.00  0.00    -0.109 C 
HETATM    3  C3  UNL     1     214.655   3.294  14.158  1.00  0.00    -0.087 C 
ENDROOT
BRANCH   3   4
HETATM    4  C4  UNL     1     215.511   4.466  13.983  1.00  0.00     0.214 C 
BRANCH   4   5
HETATM    5  N1  UNL     1     214.891   5.448  13.109  1.00  0.00    -0.380 N 
ATOM      6  H1  UNL     1     213.893   5.638  13.191  1.00  0.00     0.160 HD
BRANCH   5   7
HETATM    7  C5  UNL     1     215.665   6.148  12.139  1.00  0.00     0.028 A 
HETATM    8  C6  UNL     1     215.191   6.429  10.883  1.00  0.00     0.031 A 
HETATM    9  C7  UNL     1     215.957   7.110   9.953  1.00  0.00     0.027 A 
HETATM   10  C8  UNL     1     217.233   7.533  10.254  1.00  0.00     0.079 A 
HETATM   11  C10 UNL     1     217.721   7.255  11.515  1.00  0.00     0.027 A 
HETATM   12  C11 UNL     1     216.940   6.569  12.441  1.00  0.00     0.031 A 
BRANCH  10  13
HETATM   13  S1  UNL     1     218.203   8.390   9.090  1.00  0.00     0.258 S 
HETATM   14  O1  UNL     1     218.877   9.595   9.723  1.00  0.00    -0.201 OA
HETATM   15  O2  UNL     1     217.339   8.945   7.979  1.00  0.00    -0.201 OA
BRANCH  13  16
HETATM   16  N2  UNL     1     219.414   7.412   8.382  1.00  0.00    -0.320 N 
HETATM   17  C9  UNL     1     220.331   8.156   7.578  1.00  0.00     0.159 C 
ATOM     18  H2  UNL     1     219.476   6.402   8.520  1.00  0.00     0.171 HD
ENDBRANCH  13  16
ENDBRANCH  10  13
ENDBRANCH   5   7
ENDBRANCH   4   5
ENDBRANCH   3   4
TORSDOF 5
ENDMDL
MODEL 5
REMARK VINA RESULT: -5.196193358      3.789      6.777
REMARK  5 active torsions:
REMARK  status: ('A' for Active; 'I' for Inactive)
REMARK    1  A    between atoms: C3_3  and  C4_4 
REMARK    2  A    between atoms: C4_4  and  N1_5 
REMARK    3  A    between atoms: N1_5  and  C5_7 
REMARK    4  A    between atoms: C8_10  and  S1_11 
REMARK    5  A    between atoms: S1_11  and  N2_14 
ROOT
HETATM    1  C1  UNL     1     215.468   4.309  13.515  1.00  0.00     0.112 C 
HETATM    2  C2  UNL     1     215.166   5.570  12.824  1.00  0.00    -0.109 C 
HETATM    3  C3  UNL     1     214.913   6.599  12.241  1.00  0.00    -0.087 C 
ENDROOT
BRANCH   3   4
HETATM    4  C4  UNL     1     214.591   7.830  11.520  1.00  0.00     0.214 C 
BRANCH   4   5
HETATM    5  N1  UNL     1     215.691   8.779  11.577  1.00  0.00    -0.380 N 
ATOM      6  H1  UNL     1     215.738   9.452  12.342  1.00  0.00     0.160 HD
BRANCH   5   7
HETATM    7  C5  UNL     1     216.704   8.778  10.576  1.00  0.00     0.028 A 
HETATM    8  C6  UNL     1     217.994   9.163  10.834  1.00  0.00     0.031 A 
HETATM    9  C7  UNL     1     218.966   9.156   9.847  1.00  0.00     0.027 A 
HETATM   10  C8  UNL     1     218.672   8.761   8.561  1.00  0.00     0.079 A 
HETATM   11  C10 UNL     1     217.376   8.372   8.289  1.00  0.00     0.027 A 
HETATM   12  C11 UNL     1     216.407   8.384   9.290  1.00  0.00     0.031 A 
BRANCH  10  13
HETATM   13  S1  UNL     1     219.888   8.750   7.316  1.00  0.00     0.258 S 
HETATM   14  O1  UNL     1     220.934   7.682   7.585  1.00  0.00    -0.201 OA
HETATM   15  O2  UNL     1     220.643  10.061   7.293  1.00  0.00    -0.201 OA
BRANCH  13  16
HETATM   16  N2  UNL     1     219.242   8.483   5.755  1.00  0.00    -0.320 N 
HETATM   17  C9  UNL     1     220.012   7.559   4.985  1.00  0.00     0.159 C 
ATOM     18  H2  UNL     1     218.395   8.936   5.410  1.00  0.00     0.171 HD
ENDBRANCH  13  16
ENDBRANCH  10  13
ENDBRANCH   5   7
ENDBRANCH   4   5
ENDBRANCH   3   4
TORSDOF 5
ENDMDL
