MODEL 1
REMARK VINA RESULT: -6.822058049      0.000      0.000
REMARK  4 active torsions:
REMARK  status: ('A' for Active; 'I' for Inactive)
REMARK    1  A    between atoms: C2_2  and  C4_5 
REMARK    2  A    between atoms: C6_9  and  N1_10 
REMARK    3  A    between atoms: N1_10  and  N2_12 
REMARK    4  A    between atoms: C7_15  and  C8_16 
ROOT
HETATM    1  C4  UNL     1       6.061  13.321  24.848  1.00  0.00     0.003 A 
HETATM    2  C5  UNL     1       4.887  14.065  25.058  1.00  0.00     0.085 A 
HETATM    3 CL2  UNL     1       4.757  15.687  25.762  1.00  0.00    -0.075 Cl
HETATM    4  S1  UNL     1       3.648  13.084  24.488  1.00  0.00    -0.058 SA
HETATM    5  C6  UNL     1       4.575  11.743  23.981  1.00  0.00     0.097 A 
HETATM    6  C7  UNL     1       5.875  12.106  24.277  1.00  0.00    -0.008 A 
ENDROOT
BRANCH   5   7
HETATM    7  N1  UNL     1       4.030  10.521  23.438  1.00  0.00    -0.300 N 
ATOM      8  H1  UNL     1       4.396  10.173  22.552  1.00  0.00     0.187 HD
BRANCH   7   9
HETATM    9  N2  UNL     1       3.026   9.800  24.074  1.00  0.00    -0.344 N 
ATOM     10  H22 UNL     1       3.248   9.370  24.971  1.00  0.00     0.176 HD
ATOM     11  H21 UNL     1       2.092   9.690  23.677  1.00  0.00     0.176 HD
ENDBRANCH   7   9
ENDBRANCH   5   7
BRANCH   6  12
HETATM   12  C8  UNL     1       6.965  11.111  23.929  1.00  0.00     0.022 A 
HETATM   13  C9  UNL     1       6.710   9.643  23.979  1.00  0.00     0.010 A 
HETATM   14  C10 UNL     1       6.956  10.326  22.677  1.00  0.00     0.010 A 
ENDBRANCH   6  12
BRANCH   1  15
HETATM   15  C2  UNL     1       7.342  13.984  25.307  1.00  0.00     0.059 C 
HETATM   16  C1  UNL     1       8.419  12.864  25.396  1.00  0.00     0.037 C 
HETATM   17  C3  UNL     1       7.963  14.979  24.417  1.00  0.00     0.037 C 
HETATM   18 CL1  UNL     1       7.212  14.621  26.954  1.00  0.00    -0.115 Cl
ENDBRANCH   1  15
TORSDOF 4
ENDMDL
MODEL 2
REMARK VINA RESULT: -6.725116992      2.579      3.812
REMARK  4 active torsions:
REMARK  status: ('A' for Active; 'I' for Inactive)
REMARK    1  A    between atoms: C2_2  and  C4_5 
REMARK    2  A    between atoms: C6_9  and  N1_10 
REMARK    3  A    between atoms: N1_10  and  N2_12 
REMARK    4  A    between atoms: C7_15  and  C8_16 
ROOT
HETATM    1  C4  UNL     1       4.895  13.399  24.793  1.00  0.00     0.003 A 
HETATM    2  C5  UNL     1       4.081  12.349  24.337  1.00  0.00     0.085 A 
HETATM    3 CL2  UNL     1       2.311  12.336  24.222  1.00  0.00    -0.075 Cl
HETATM    4  S1  UNL     1       5.152  11.125  23.917  1.00  0.00    -0.058 SA
HETATM    5  C6  UNL     1       6.620  11.905  24.302  1.00  0.00     0.097 A 
HETATM    6  C7  UNL     1       6.226  13.147  24.763  1.00  0.00    -0.008 A 
ENDROOT
BRANCH   5   7
HETATM    7  N1  UNL     1       7.928  11.300  24.200  1.00  0.00    -0.300 N 
ATOM      8  H1  UNL     1       8.717  11.760  24.655  1.00  0.00     0.187 HD
BRANCH   7   9
HETATM    9  N2  UNL     1       8.155  10.118  23.506  1.00  0.00    -0.344 N 
ATOM     10  H22 UNL     1       7.563   9.922  22.698  1.00  0.00     0.176 HD
ATOM     11  H21 UNL     1       8.880   9.453  23.774  1.00  0.00     0.176 HD
ENDBRANCH   7   9
ENDBRANCH   5   7
BRANCH   6  12
HETATM   12  C8  UNL     1       7.323  14.106  25.184  1.00  0.00     0.022 A 
HETATM   13  C9  UNL     1       7.615  14.356  26.625  1.00  0.00     0.010 A 
HETATM   14  C10 UNL     1       8.603  13.646  25.762  1.00  0.00     0.010 A 
ENDBRANCH   6  12
BRANCH   1  15
HETATM   15  C2  UNL     1       4.160  14.636  25.263  1.00  0.00     0.059 C 
HETATM   16  C1  UNL     1       3.987  14.497  26.804  1.00  0.00     0.037 C 
HETATM   17  C3  UNL     1       4.832  15.938  25.115  1.00  0.00     0.037 C 
HETATM   18 CL1  UNL     1       2.509  14.715  24.627  1.00  0.00    -0.115 Cl
ENDBRANCH   1  15
TORSDOF 4
ENDMDL
MODEL 3
REMARK VINA RESULT: -6.671944178      0.866      1.179
REMARK  4 active torsions:
REMARK  status: ('A' for Active; 'I' for Inactive)
REMARK    1  A    between atoms: C2_2  and  C4_5 
REMARK    2  A    between atoms: C6_9  and  N1_10 
REMARK    3  A    between atoms: N1_10  and  N2_12 
REMARK    4  A    between atoms: C7_15  and  C8_16 
ROOT
HETATM    1  C4  UNL     1       6.217  13.205  24.814  1.00  0.00     0.003 A 
HETATM    2  C5  UNL     1       5.053  13.970  24.997  1.00  0.00     0.085 A 
HETATM    3 CL2  UNL     1       4.940  15.608  25.668  1.00  0.00    -0.075 Cl
HETATM    4  S1  UNL     1       3.805  12.997  24.433  1.00  0.00    -0.058 SA
HETATM    5  C6  UNL     1       4.717  11.632  23.962  1.00  0.00     0.097 A 
HETATM    6  C7  UNL     1       6.019  11.983  24.264  1.00  0.00    -0.008 A 
ENDROOT
BRANCH   5   7
HETATM    7  N1  UNL     1       4.159  10.408  23.437  1.00  0.00    -0.300 N 
ATOM      8  H1  UNL     1       4.544  10.027  22.572  1.00  0.00     0.187 HD
BRANCH   7   9
HETATM    9  N2  UNL     1       3.120   9.729  24.061  1.00  0.00    -0.344 N 
ATOM     10  H22 UNL     1       2.331  10.279  24.400  1.00  0.00     0.176 HD
ATOM     11  H21 UNL     1       3.123   8.717  24.189  1.00  0.00     0.176 HD
ENDBRANCH   7   9
ENDBRANCH   5   7
BRANCH   6  12
HETATM   12  C8  UNL     1       7.098  10.964  23.947  1.00  0.00     0.022 A 
HETATM   13  C9  UNL     1       6.818   9.501  24.012  1.00  0.00     0.010 A 
HETATM   14  C10 UNL     1       7.095  10.164  22.705  1.00  0.00     0.010 A 
ENDBRANCH   6  12
BRANCH   1  15
HETATM   15  C2  UNL     1       7.503  13.857  25.274  1.00  0.00     0.059 C 
HETATM   16  C1  UNL     1       7.189  14.570  26.621  1.00  0.00     0.037 C 
HETATM   17  C3  UNL     1       8.639  12.983  25.613  1.00  0.00     0.037 C 
HETATM   18 CL1  UNL     1       8.022  15.154  24.185  1.00  0.00    -0.115 Cl
ENDBRANCH   1  15
TORSDOF 4
ENDMDL
MODEL 4
REMARK VINA RESULT: -6.651140646      3.356      5.399
REMARK  4 active torsions:
REMARK  status: ('A' for Active; 'I' for Inactive)
REMARK    1  A    between atoms: C2_2  and  C4_5 
REMARK    2  A    between atoms: C6_9  and  N1_10 
REMARK    3  A    between atoms: N1_10  and  N2_12 
REMARK    4  A    between atoms: C7_15  and  C8_16 
ROOT
HETATM    1  C4  UNL     1       3.360  12.411  24.323  1.00  0.00     0.003 A 
HETATM    2  C5  UNL     1       3.920  11.160  24.014  1.00  0.00     0.085 A 
HETATM    3 CL2  UNL     1       3.057   9.690  23.524  1.00  0.00    -0.075 Cl
HETATM    4  S1  UNL     1       5.576  11.371  24.201  1.00  0.00    -0.058 SA
HETATM    5  C6  UNL     1       5.590  13.015  24.662  1.00  0.00     0.097 A 
HETATM    6  C7  UNL     1       4.255  13.372  24.656  1.00  0.00    -0.008 A 
ENDROOT
BRANCH   5   7
HETATM    7  N1  UNL     1       6.772  13.761  25.022  1.00  0.00    -0.300 N 
ATOM      8  H1  UNL     1       6.666  14.727  25.333  1.00  0.00     0.187 HD
BRANCH   7   9
HETATM    9  N2  UNL     1       8.049  13.217  24.961  1.00  0.00    -0.344 N 
ATOM     10  H22 UNL     1       8.434  13.014  24.038  1.00  0.00     0.176 HD
ATOM     11  H21 UNL     1       8.603  13.018  25.794  1.00  0.00     0.176 HD
ENDBRANCH   7   9
ENDBRANCH   5   7
BRANCH   6  12
HETATM   12  C8  UNL     1       3.924  14.808  25.020  1.00  0.00     0.022 A 
HETATM   13  C9  UNL     1       3.868  15.247  26.444  1.00  0.00     0.010 A 
HETATM   14  C10 UNL     1       4.938  15.751  25.536  1.00  0.00     0.010 A 
ENDBRANCH   6  12
BRANCH   1  15
HETATM   15  C2  UNL     1       1.850  12.483  24.254  1.00  0.00     0.059 C 
HETATM   16  C1  UNL     1       1.458  12.266  22.763  1.00  0.00     0.037 C 
HETATM   17  C3  UNL     1       1.074  11.450  24.960  1.00  0.00     0.037 C 
HETATM   18 CL1  UNL     1       1.238  14.097  24.652  1.00  0.00    -0.115 Cl
ENDBRANCH   1  15
TORSDOF 4
ENDMDL
MODEL 5
REMARK VINA RESULT: -6.502976470      3.311      5.272
REMARK  4 active torsions:
REMARK  status: ('A' for Active; 'I' for Inactive)
REMARK    1  A    between atoms: C2_2  and  C4_5 
REMARK    2  A    between atoms: C6_9  and  N1_10 
REMARK    3  A    between atoms: N1_10  and  N2_12 
REMARK    4  A    between atoms: C7_15  and  C8_16 
ROOT
HETATM    1  C4  UNL     1       4.637  12.219  24.431  1.00  0.00     0.003 A 
HETATM    2  C5  UNL     1       5.602  11.237  24.153  1.00  0.00     0.085 A 
HETATM    3 CL2  UNL     1       5.314   9.535  23.744  1.00  0.00    -0.075 Cl
HETATM    4  S1  UNL     1       7.076  12.032  24.282  1.00  0.00    -0.058 SA
HETATM    5  C6  UNL     1       6.508  13.592  24.681  1.00  0.00     0.097 A 
HETATM    6  C7  UNL     1       5.134  13.450  24.701  1.00  0.00    -0.008 A 
ENDROOT
BRANCH   5   7
HETATM    7  N1  UNL     1       7.351  14.727  24.977  1.00  0.00    -0.300 N 
ATOM      8  H1  UNL     1       6.913  15.596  25.282  1.00  0.00     0.187 HD
BRANCH   7   9
HETATM    9  N2  UNL     1       8.735  14.682  24.862  1.00  0.00    -0.344 N 
ATOM     10  H22 UNL     1       9.281  15.293  25.469  1.00  0.00     0.176 HD
ATOM     11  H21 UNL     1       9.213  14.069  24.201  1.00  0.00     0.176 HD
ENDBRANCH   7   9
ENDBRANCH   5   7
BRANCH   6  12
HETATM   12  C8  UNL     1       4.317  14.689  25.020  1.00  0.00     0.022 A 
HETATM   13  C9  UNL     1       3.897  14.994  26.417  1.00  0.00     0.010 A 
HETATM   14  C10 UNL     1       4.889  15.860  25.717  1.00  0.00     0.010 A 
ENDBRANCH   6  12
BRANCH   1  15
HETATM   15  C2  UNL     1       3.199  11.745  24.403  1.00  0.00     0.059 C 
HETATM   16  C1  UNL     1       3.044  10.855  23.136  1.00  0.00     0.037 C 
HETATM   17  C3  UNL     1       2.740  10.865  25.492  1.00  0.00     0.037 C 
HETATM   18 CL1  UNL     1       2.060  13.079  24.163  1.00  0.00    -0.115 Cl
ENDBRANCH   1  15
TORSDOF 4
ENDMDL
