MODEL 1
REMARK VINA RESULT: -8.358018789      0.000      0.000
REMARK  14 active torsions:
REMARK  status: ('A' for Active; 'I' for Inactive)
REMARK    1  A    between atoms: O1_1  and  C1_3 
REMARK    2  A    between atoms: C1_3  and  C2_4 
REMARK    3  A    between atoms: C1_3  and  C22_31 
REMARK    4  A    between atoms: C2_4  and  N1_5 
REMARK    5  A    between atoms: N2_8  and  C5_9 
REMARK    6  A    between atoms: C5_9  and  C6_10 
REMARK    7  A    between atoms: C6_10  and  C7_11 
REMARK    8  A    between atoms: C7_11  and  O2_12 
REMARK    9  A    between atoms: C7_11  and  C8_14 
REMARK   10  A    between atoms: C7_11  and  C14_22 
REMARK   11  A    between atoms: C8_14  and  C9_15 
REMARK   12  A    between atoms: C9_15  and  N3_16 
REMARK   13  A    between atoms: C22_31  and  N4_32 
REMARK   14  A    between atoms: C24_39  and  C25_40 
ROOT
HETATM    1  N1  UNL     1      40.027 -24.631 -36.667  1.00  0.00     0.094 N 
HETATM    2  C3  UNL     1      39.680 -26.041 -36.907  1.00  0.00     0.302 C 
HETATM    3  C4  UNL     1      40.052 -26.942 -35.772  1.00  0.00     0.302 C 
HETATM    4  N2  UNL     1      39.133 -26.727 -34.632  1.00  0.00     0.092 N 
HETATM    5  C20 UNL     1      38.742 -25.313 -34.755  1.00  0.00     0.302 C 
HETATM    6  C21 UNL     1      39.993 -24.558 -35.196  1.00  0.00     0.302 C 
ENDROOT
BRANCH   1   7
HETATM    7  C2  UNL     1      38.982 -23.835 -37.235  1.00  0.00     0.305 C 
BRANCH   7   8
HETATM    8  C1  UNL     1      39.382 -22.845 -38.302  1.00  0.00     0.166 C 
BRANCH   8   9
HETATM    9  O1  UNL     1      38.967 -21.591 -37.933  1.00  0.00    -0.392 OA
ATOM     10  H1  UNL     1      38.483 -21.647 -37.118  1.00  0.00     0.210 HD
ENDBRANCH   8   9
BRANCH   8  11
HETATM   11  C22 UNL     1      38.970 -23.304 -39.650  1.00  0.00     0.184 C 
BRANCH  11  12
HETATM   12  N4  UNL     1      37.594 -23.066 -40.025  1.00  0.00    -0.272 N 
HETATM   13  N5  UNL     1      37.023 -21.767 -40.181  1.00  0.00    -0.239 N 
HETATM   14  N6  UNL     1      35.805 -21.860 -40.482  1.00  0.00    -0.277 N 
ATOM     15  H5  UNL     1      37.530 -20.890 -40.065  1.00  0.00     0.208 HD
HETATM   16  C23 UNL     1      35.418 -23.232 -40.562  1.00  0.00     0.125 A 
ATOM     17  H6  UNL     1      35.183 -21.067 -40.645  1.00  0.00     0.189 HD
HETATM   18 BR1  UNL     1      33.717 -23.980 -40.988  1.00  0.00    -0.027 Br
HETATM   19  C24 UNL     1      36.546 -23.951 -40.275  1.00  0.00     0.098 A 
BRANCH  19  20
HETATM   20  C25 UNL     1      36.529 -25.407 -40.251  1.00  0.00    -0.005 A 
HETATM   21  C26 UNL     1      36.574 -26.224 -41.359  1.00  0.00     0.015 A 
HETATM   22  C27 UNL     1      36.584 -27.588 -41.233  1.00  0.00     0.024 A 
HETATM   23  C28 UNL     1      36.546 -28.152 -39.976  1.00  0.00     0.034 A 
HETATM   24 CL1  UNL     1      36.565 -29.909 -39.783  1.00  0.00    -0.084 Cl
HETATM   25  C29 UNL     1      36.498 -27.385 -38.823  1.00  0.00     0.024 A 
HETATM   26  C30 UNL     1      36.490 -26.027 -38.997  1.00  0.00     0.015 A 
ENDBRANCH  19  20
ENDBRANCH  11  12
ENDBRANCH   8  11
ENDBRANCH   7   8
ENDBRANCH   1   7
BRANCH   4  27
HETATM   27  C5  UNL     1      37.984 -27.575 -34.863  1.00  0.00     0.276 C 
BRANCH  27  28
HETATM   28  C6  UNL     1      36.693 -26.903 -35.052  1.00  0.00     0.073 C 
BRANCH  28  29
HETATM   29  C7  UNL     1      35.559 -27.219 -34.142  1.00  0.00     0.088 C 
BRANCH  29  30
HETATM   30  O2  UNL     1      36.051 -28.049 -33.099  1.00  0.00    -0.385 OA
ATOM     31  H2  UNL     1      35.645 -27.773 -32.287  1.00  0.00     0.211 HD
ENDBRANCH  29  30
BRANCH  29  32
HETATM   32  C8  UNL     1      34.416 -27.969 -34.750  1.00  0.00     0.073 C 
BRANCH  32  33
HETATM   33  C9  UNL     1      34.788 -28.901 -35.834  1.00  0.00     0.276 C 
BRANCH  33  34
HETATM   34  N3  UNL     1      34.264 -30.247 -35.713  1.00  0.00     0.092 N 
HETATM   35  C10 UNL     1      33.908 -30.528 -34.316  1.00  0.00     0.298 C 
HETATM   36  C11 UNL     1      34.978 -31.399 -33.656  1.00  0.00     0.198 C 
HETATM   37  O3  UNL     1      36.208 -30.897 -33.991  1.00  0.00    -0.388 OA
HETATM   38  C12 UNL     1      36.511 -31.088 -35.350  1.00  0.00     0.198 C 
HETATM   39  C13 UNL     1      35.246 -31.232 -36.152  1.00  0.00     0.298 C 
ENDBRANCH  33  34
ENDBRANCH  32  33
ENDBRANCH  29  32
BRANCH  29  40
HETATM   40  C14 UNL     1      35.133 -25.925 -33.530  1.00  0.00    -0.024 A 
HETATM   41  C15 UNL     1      34.282 -25.889 -32.476  1.00  0.00     0.013 A 
HETATM   42  C16 UNL     1      33.932 -24.652 -31.948  1.00  0.00     0.043 A 
HETATM   43  C17 UNL     1      34.418 -23.477 -32.460  1.00  0.00     0.116 A 
HETATM   44  F1  UNL     1      34.063 -22.261 -31.926  1.00  0.00    -0.206 F 
HETATM   45  C18 UNL     1      35.276 -23.529 -33.522  1.00  0.00     0.043 A 
HETATM   46  C19 UNL     1      35.629 -24.752 -34.053  1.00  0.00     0.013 A 
ENDBRANCH  29  40
ENDBRANCH  28  29
ENDBRANCH  27  28
ENDBRANCH   4  27
TORSDOF 14
ENDMDL
MODEL 2
REMARK VINA RESULT: -8.348070050      2.812      5.100
REMARK  14 active torsions:
REMARK  status: ('A' for Active; 'I' for Inactive)
REMARK    1  A    between atoms: O1_1  and  C1_3 
REMARK    2  A    between atoms: C1_3  and  C2_4 
REMARK    3  A    between atoms: C1_3  and  C22_31 
REMARK    4  A    between atoms: C2_4  and  N1_5 
REMARK    5  A    between atoms: N2_8  and  C5_9 
REMARK    6  A    between atoms: C5_9  and  C6_10 
REMARK    7  A    between atoms: C6_10  and  C7_11 
REMARK    8  A    between atoms: C7_11  and  O2_12 
REMARK    9  A    between atoms: C7_11  and  C8_14 
REMARK   10  A    between atoms: C7_11  and  C14_22 
REMARK   11  A    between atoms: C8_14  and  C9_15 
REMARK   12  A    between atoms: C9_15  and  N3_16 
REMARK   13  A    between atoms: C22_31  and  N4_32 
REMARK   14  A    between atoms: C24_39  and  C25_40 
ROOT
HETATM    1  N1  UNL     1      37.569 -28.964 -38.967  1.00  0.00     0.094 N 
HETATM    2  C3  UNL     1      36.304 -28.952 -38.216  1.00  0.00     0.302 C 
HETATM    3  C4  UNL     1      36.450 -29.427 -36.805  1.00  0.00     0.302 C 
HETATM    4  N2  UNL     1      37.145 -28.402 -35.995  1.00  0.00     0.092 N 
HETATM    5  C20 UNL     1      38.022 -27.722 -36.961  1.00  0.00     0.302 C 
HETATM    6  C21 UNL     1      38.561 -28.807 -37.890  1.00  0.00     0.302 C 
ENDROOT
BRANCH   1   7
HETATM    7  C2  UNL     1      37.565 -27.815 -39.821  1.00  0.00     0.305 C 
BRANCH   7   8
HETATM    8  C1  UNL     1      36.227 -27.360 -40.346  1.00  0.00     0.166 C 
BRANCH   8   9
HETATM    9  O1  UNL     1      36.364 -26.965 -41.653  1.00  0.00    -0.392 OA
ATOM     10  H1  UNL     1      35.551 -27.127 -42.116  1.00  0.00     0.210 HD
ENDBRANCH   8   9
BRANCH   8  11
HETATM   11  C22 UNL     1      35.586 -26.387 -39.429  1.00  0.00     0.184 C 
BRANCH  11  12
HETATM   12  N4  UNL     1      34.974 -25.226 -40.037  1.00  0.00    -0.272 N 
HETATM   13  N5  UNL     1      33.739 -25.259 -40.752  1.00  0.00    -0.239 N 
HETATM   14  N6  UNL     1      33.462 -24.114 -41.196  1.00  0.00    -0.277 N 
ATOM     15  H5  UNL     1      33.163 -26.090 -40.884  1.00  0.00     0.208 HD
HETATM   16  C23 UNL     1      34.481 -23.183 -40.830  1.00  0.00     0.125 A 
ATOM     17  H6  UNL     1      32.629 -23.886 -41.740  1.00  0.00     0.189 HD
HETATM   18 BR1  UNL     1      34.597 -21.317 -41.208  1.00  0.00    -0.027 Br
HETATM   19  C24 UNL     1      35.399 -23.900 -40.115  1.00  0.00     0.098 A 
BRANCH  19  20
HETATM   20  C25 UNL     1      36.600 -23.274 -39.581  1.00  0.00    -0.005 A 
HETATM   21  C26 UNL     1      36.685 -22.606 -38.380  1.00  0.00     0.015 A 
HETATM   22  C27 UNL     1      37.870 -22.074 -37.947  1.00  0.00     0.024 A 
HETATM   23  C28 UNL     1      38.997 -22.206 -38.729  1.00  0.00     0.034 A 
HETATM   24 CL1  UNL     1      40.543 -21.536 -38.193  1.00  0.00    -0.084 Cl
HETATM   25  C29 UNL     1      38.977 -22.865 -39.948  1.00  0.00     0.024 A 
HETATM   26  C30 UNL     1      37.771 -23.381 -40.340  1.00  0.00     0.015 A 
ENDBRANCH  19  20
ENDBRANCH  11  12
ENDBRANCH   8  11
ENDBRANCH   7   8
ENDBRANCH   1   7
BRANCH   4  27
HETATM   27  C5  UNL     1      36.127 -27.487 -35.527  1.00  0.00     0.276 C 
BRANCH  27  28
HETATM   28  C6  UNL     1      36.527 -26.528 -34.489  1.00  0.00     0.073 C 
BRANCH  28  29
HETATM   29  C7  UNL     1      36.273 -25.076 -34.693  1.00  0.00     0.088 C 
BRANCH  29  30
HETATM   30  O2  UNL     1      35.580 -24.919 -35.923  1.00  0.00    -0.385 OA
ATOM     31  H2  UNL     1      35.350 -24.002 -36.016  1.00  0.00     0.211 HD
ENDBRANCH  29  30
BRANCH  29  32
HETATM   32  C8  UNL     1      37.486 -24.205 -34.799  1.00  0.00     0.073 C 
BRANCH  32  33
HETATM   33  C9  UNL     1      38.770 -24.931 -34.881  1.00  0.00     0.276 C 
BRANCH  33  34
HETATM   34  N3  UNL     1      39.406 -25.226 -33.613  1.00  0.00     0.092 N 
HETATM   35  C10 UNL     1      39.308 -24.068 -32.716  1.00  0.00     0.298 C 
HETATM   36  C11 UNL     1      40.638 -23.317 -32.663  1.00  0.00     0.198 C 
HETATM   37  O3  UNL     1      41.110 -23.188 -33.943  1.00  0.00    -0.388 OA
HETATM   38  C12 UNL     1      41.520 -24.417 -34.488  1.00  0.00     0.198 C 
HETATM   39  C13 UNL     1      40.815 -25.554 -33.799  1.00  0.00     0.298 C 
ENDBRANCH  33  34
ENDBRANCH  32  33
ENDBRANCH  29  32
BRANCH  29  40
HETATM   40  C14 UNL     1      35.355 -24.648 -33.596  1.00  0.00    -0.024 A 
HETATM   41  C15 UNL     1      34.550 -25.535 -32.962  1.00  0.00     0.013 A 
HETATM   42  C16 UNL     1      33.725 -25.073 -31.943  1.00  0.00     0.043 A 
HETATM   43  C17 UNL     1      33.702 -23.756 -31.565  1.00  0.00     0.116 A 
HETATM   44  F1  UNL     1      32.881 -23.315 -30.555  1.00  0.00    -0.206 F 
HETATM   45  C18 UNL     1      34.520 -22.873 -32.212  1.00  0.00     0.043 A 
HETATM   46  C19 UNL     1      35.342 -23.322 -33.225  1.00  0.00     0.013 A 
ENDBRANCH  29  40
ENDBRANCH  28  29
ENDBRANCH  27  28
ENDBRANCH   4  27
TORSDOF 14
ENDMDL
MODEL 3
REMARK VINA RESULT: -8.092708121      2.450      5.914
REMARK  14 active torsions:
REMARK  status: ('A' for Active; 'I' for Inactive)
REMARK    1  A    between atoms: O1_1  and  C1_3 
REMARK    2  A    between atoms: C1_3  and  C2_4 
REMARK    3  A    between atoms: C1_3  and  C22_31 
REMARK    4  A    between atoms: C2_4  and  N1_5 
REMARK    5  A    between atoms: N2_8  and  C5_9 
REMARK    6  A    between atoms: C5_9  and  C6_10 
REMARK    7  A    between atoms: C6_10  and  C7_11 
REMARK    8  A    between atoms: C7_11  and  O2_12 
REMARK    9  A    between atoms: C7_11  and  C8_14 
REMARK   10  A    between atoms: C7_11  and  C14_22 
REMARK   11  A    between atoms: C8_14  and  C9_15 
REMARK   12  A    between atoms: C9_15  and  N3_16 
REMARK   13  A    between atoms: C22_31  and  N4_32 
REMARK   14  A    between atoms: C24_39  and  C25_40 
ROOT
HETATM    1  N1  UNL     1      36.030 -30.677 -33.774  1.00  0.00     0.094 N 
HETATM    2  C3  UNL     1      35.570 -29.300 -34.012  1.00  0.00     0.302 C 
HETATM    3  C4  UNL     1      36.245 -28.292 -33.136  1.00  0.00     0.302 C 
HETATM    4  N2  UNL     1      37.642 -28.090 -33.580  1.00  0.00     0.092 N 
HETATM    5  C20 UNL     1      38.022 -29.390 -34.156  1.00  0.00     0.302 C 
HETATM    6  C21 UNL     1      37.393 -30.456 -33.263  1.00  0.00     0.302 C 
ENDROOT
BRANCH   1   7
HETATM    7  C2  UNL     1      36.069 -31.336 -35.044  1.00  0.00     0.305 C 
BRANCH   7   8
HETATM    8  C1  UNL     1      35.536 -30.568 -36.228  1.00  0.00     0.166 C 
BRANCH   8   9
HETATM    9  O1  UNL     1      34.436 -31.216 -36.730  1.00  0.00    -0.392 OA
ATOM     10  H1  UNL     1      34.717 -31.869 -37.359  1.00  0.00     0.210 HD
ENDBRANCH   8   9
BRANCH   8  11
HETATM   11  C22 UNL     1      36.612 -30.252 -37.197  1.00  0.00     0.184 C 
BRANCH  11  12
HETATM   12  N4  UNL     1      36.393 -29.113 -38.062  1.00  0.00    -0.272 N 
HETATM   13  N5  UNL     1      35.638 -27.961 -37.687  1.00  0.00    -0.239 N 
HETATM   14  N6  UNL     1      35.587 -27.143 -38.642  1.00  0.00    -0.277 N 
ATOM     15  H5  UNL     1      35.202 -27.820 -36.775  1.00  0.00     0.208 HD
HETATM   16  C23 UNL     1      36.302 -27.654 -39.768  1.00  0.00     0.125 A 
ATOM     17  H6  UNL     1      35.104 -26.244 -38.616  1.00  0.00     0.189 HD
HETATM   18 BR1  UNL     1      36.579 -26.858 -41.479  1.00  0.00    -0.027 Br
HETATM   19  C24 UNL     1      36.788 -28.870 -39.377  1.00  0.00     0.098 A 
BRANCH  19  20
HETATM   20  C25 UNL     1      37.570 -29.700 -40.283  1.00  0.00    -0.005 A 
HETATM   21  C26 UNL     1      37.096 -30.795 -40.971  1.00  0.00     0.015 A 
HETATM   22  C27 UNL     1      37.903 -31.498 -41.826  1.00  0.00     0.024 A 
HETATM   23  C28 UNL     1      39.212 -31.103 -41.999  1.00  0.00     0.034 A 
HETATM   24 CL1  UNL     1      40.274 -31.987 -43.102  1.00  0.00    -0.084 Cl
HETATM   25  C29 UNL     1      39.749 -30.012 -41.335  1.00  0.00     0.024 A 
HETATM   26  C30 UNL     1      38.906 -29.340 -40.491  1.00  0.00     0.015 A 
ENDBRANCH  19  20
ENDBRANCH  11  12
ENDBRANCH   8  11
ENDBRANCH   7   8
ENDBRANCH   1   7
BRANCH   4  27
HETATM   27  C5  UNL     1      37.603 -27.084 -34.619  1.00  0.00     0.276 C 
BRANCH  27  28
HETATM   28  C6  UNL     1      37.341 -25.704 -34.194  1.00  0.00     0.073 C 
BRANCH  28  29
HETATM   29  C7  UNL     1      36.212 -24.949 -34.802  1.00  0.00     0.088 C 
BRANCH  29  30
HETATM   30  O2  UNL     1      35.456 -25.852 -35.596  1.00  0.00    -0.385 OA
ATOM     31  H2  UNL     1      35.110 -26.527 -35.024  1.00  0.00     0.211 HD
ENDBRANCH  29  30
BRANCH  29  32
HETATM   32  C8  UNL     1      36.589 -23.825 -35.717  1.00  0.00     0.073 C 
BRANCH  32  33
HETATM   33  C9  UNL     1      36.261 -24.045 -37.141  1.00  0.00     0.276 C 
BRANCH  33  34
HETATM   34  N3  UNL     1      37.396 -24.230 -38.025  1.00  0.00     0.092 N 
HETATM   35  C10 UNL     1      38.539 -23.438 -37.553  1.00  0.00     0.298 C 
HETATM   36  C11 UNL     1      38.698 -22.172 -38.396  1.00  0.00     0.198 C 
HETATM   37  O3  UNL     1      37.460 -21.608 -38.562  1.00  0.00    -0.388 OA
HETATM   38  C12 UNL     1      36.628 -22.378 -39.393  1.00  0.00     0.198 C 
HETATM   39  C13 UNL     1      37.071 -23.817 -39.385  1.00  0.00     0.298 C 
ENDBRANCH  33  34
ENDBRANCH  32  33
ENDBRANCH  29  32
BRANCH  29  40
HETATM   40  C14 UNL     1      35.345 -24.500 -33.673  1.00  0.00    -0.024 A 
HETATM   41  C15 UNL     1      35.375 -23.222 -33.223  1.00  0.00     0.013 A 
HETATM   42  C16 UNL     1      34.536 -22.867 -32.174  1.00  0.00     0.043 A 
HETATM   43  C17 UNL     1      33.687 -23.766 -31.583  1.00  0.00     0.116 A 
HETATM   44  F1  UNL     1      32.863 -23.400 -30.546  1.00  0.00    -0.206 F 
HETATM   45  C18 UNL     1      33.667 -25.052 -32.047  1.00  0.00     0.043 A 
HETATM   46  C19 UNL     1      34.496 -25.414 -33.088  1.00  0.00     0.013 A 
ENDBRANCH  29  40
ENDBRANCH  28  29
ENDBRANCH  27  28
ENDBRANCH   4  27
TORSDOF 14
ENDMDL
MODEL 4
REMARK VINA RESULT: -8.032575247      3.492      7.168
REMARK  14 active torsions:
REMARK  status: ('A' for Active; 'I' for Inactive)
REMARK    1  A    between atoms: O1_1  and  C1_3 
REMARK    2  A    between atoms: C1_3  and  C2_4 
REMARK    3  A    between atoms: C1_3  and  C22_31 
REMARK    4  A    between atoms: C2_4  and  N1_5 
REMARK    5  A    between atoms: N2_8  and  C5_9 
REMARK    6  A    between atoms: C5_9  and  C6_10 
REMARK    7  A    between atoms: C6_10  and  C7_11 
REMARK    8  A    between atoms: C7_11  and  O2_12 
REMARK    9  A    between atoms: C7_11  and  C8_14 
REMARK   10  A    between atoms: C7_11  and  C14_22 
REMARK   11  A    between atoms: C8_14  and  C9_15 
REMARK   12  A    between atoms: C9_15  and  N3_16 
REMARK   13  A    between atoms: C22_31  and  N4_32 
REMARK   14  A    between atoms: C24_39  and  C25_40 
ROOT
HETATM    1  N1  UNL     1      39.112 -24.038 -36.395  1.00  0.00     0.094 N 
HETATM    2  C3  UNL     1      37.849 -23.821 -37.117  1.00  0.00     0.302 C 
HETATM    3  C4  UNL     1      37.922 -22.709 -38.114  1.00  0.00     0.302 C 
HETATM    4  N2  UNL     1      38.722 -23.130 -39.285  1.00  0.00     0.092 N 
HETATM    5  C20 UNL     1      39.685 -24.093 -38.727  1.00  0.00     0.302 C 
HETATM    6  C21 UNL     1      40.103 -23.543 -37.366  1.00  0.00     0.302 C 
ENDROOT
BRANCH   1   7
HETATM    7  C2  UNL     1      39.255 -25.449 -36.203  1.00  0.00     0.305 C 
BRANCH   7   8
HETATM    8  C1  UNL     1      38.520 -26.056 -35.033  1.00  0.00     0.166 C 
BRANCH   8   9
HETATM    9  O1  UNL     1      38.589 -25.202 -33.963  1.00  0.00    -0.392 OA
ATOM     10  H1  UNL     1      37.711 -25.017 -33.652  1.00  0.00     0.210 HD
ENDBRANCH   8   9
BRANCH   8  11
HETATM   11  C22 UNL     1      38.951 -27.453 -34.789  1.00  0.00     0.184 C 
BRANCH  11  12
HETATM   12  N4  UNL     1      37.923 -28.469 -34.842  1.00  0.00    -0.272 N 
HETATM   13  N5  UNL     1      38.063 -29.709 -35.535  1.00  0.00    -0.239 N 
HETATM   14  N6  UNL     1      37.005 -30.385 -35.439  1.00  0.00    -0.277 N 
ATOM     15  H5  UNL     1      38.900 -30.006 -36.036  1.00  0.00     0.208 HD
HETATM   16  C23 UNL     1      36.034 -29.673 -34.670  1.00  0.00     0.125 A 
ATOM     17  H6  UNL     1      36.863 -31.307 -35.851  1.00  0.00     0.189 HD
HETATM   18 BR1  UNL     1      34.265 -30.197 -34.185  1.00  0.00    -0.027 Br
HETATM   19  C24 UNL     1      36.632 -28.496 -34.316  1.00  0.00     0.098 A 
BRANCH  19  20
HETATM   20  C25 UNL     1      35.927 -27.496 -33.526  1.00  0.00    -0.005 A 
HETATM   21  C26 UNL     1      36.270 -27.100 -32.252  1.00  0.00     0.015 A 
HETATM   22  C27 UNL     1      35.561 -26.127 -31.598  1.00  0.00     0.024 A 
HETATM   23  C28 UNL     1      34.484 -25.538 -32.224  1.00  0.00     0.034 A 
HETATM   24 CL1  UNL     1      33.555 -24.275 -31.407  1.00  0.00    -0.084 Cl
HETATM   25  C29 UNL     1      34.087 -25.894 -33.503  1.00  0.00     0.024 A 
HETATM   26  C30 UNL     1      34.825 -26.870 -34.118  1.00  0.00     0.015 A 
ENDBRANCH  19  20
ENDBRANCH  11  12
ENDBRANCH   8  11
ENDBRANCH   7   8
ENDBRANCH   1   7
BRANCH   4  27
HETATM   27  C5  UNL     1      37.814 -23.808 -40.184  1.00  0.00     0.276 C 
BRANCH  27  28
HETATM   28  C6  UNL     1      36.425 -23.332 -40.203  1.00  0.00     0.073 C 
BRANCH  28  29
HETATM   29  C7  UNL     1      35.314 -24.315 -40.324  1.00  0.00     0.088 C 
BRANCH  29  30
HETATM   30  O2  UNL     1      34.991 -24.776 -39.020  1.00  0.00    -0.385 OA
ATOM     31  H2  UNL     1      35.371 -25.639 -38.912  1.00  0.00     0.211 HD
ENDBRANCH  29  30
BRANCH  29  32
HETATM   32  C8  UNL     1      35.606 -25.544 -41.127  1.00  0.00     0.073 C 
BRANCH  32  33
HETATM   33  C9  UNL     1      35.588 -26.807 -40.361  1.00  0.00     0.276 C 
BRANCH  33  34
HETATM   34  N3  UNL     1      36.865 -27.480 -40.229  1.00  0.00     0.092 N 
HETATM   35  C10 UNL     1      36.686 -28.932 -40.350  1.00  0.00     0.298 C 
HETATM   36  C11 UNL     1      36.737 -29.594 -38.973  1.00  0.00     0.198 C 
HETATM   37  O3  UNL     1      35.973 -28.851 -38.111  1.00  0.00    -0.388 OA
HETATM   38  C12 UNL     1      36.550 -27.602 -37.826  1.00  0.00     0.198 C 
HETATM   39  C13 UNL     1      37.477 -27.190 -38.938  1.00  0.00     0.298 C 
ENDBRANCH  33  34
ENDBRANCH  32  33
ENDBRANCH  29  32
BRANCH  29  40
HETATM   40  C14 UNL     1      34.136 -23.559 -40.844  1.00  0.00    -0.024 A 
HETATM   41  C15 UNL     1      34.162 -22.210 -40.972  1.00  0.00     0.013 A 
HETATM   42  C16 UNL     1      33.034 -21.568 -41.471  1.00  0.00     0.043 A 
HETATM   43  C17 UNL     1      31.905 -22.255 -41.831  1.00  0.00     0.116 A 
HETATM   44  F1  UNL     1      30.797 -21.605 -42.323  1.00  0.00    -0.206 F 
HETATM   45  C18 UNL     1      31.892 -23.615 -41.696  1.00  0.00     0.043 A 
HETATM   46  C19 UNL     1      33.006 -24.261 -41.203  1.00  0.00     0.013 A 
ENDBRANCH  29  40
ENDBRANCH  28  29
ENDBRANCH  27  28
ENDBRANCH   4  27
TORSDOF 14
ENDMDL
MODEL 5
REMARK VINA RESULT: -8.020960993      1.350      2.018
REMARK  14 active torsions:
REMARK  status: ('A' for Active; 'I' for Inactive)
REMARK    1  A    between atoms: O1_1  and  C1_3 
REMARK    2  A    between atoms: C1_3  and  C2_4 
REMARK    3  A    between atoms: C1_3  and  C22_31 
REMARK    4  A    between atoms: C2_4  and  N1_5 
REMARK    5  A    between atoms: N2_8  and  C5_9 
REMARK    6  A    between atoms: C5_9  and  C6_10 
REMARK    7  A    between atoms: C6_10  and  C7_11 
REMARK    8  A    between atoms: C7_11  and  O2_12 
REMARK    9  A    between atoms: C7_11  and  C8_14 
REMARK   10  A    between atoms: C7_11  and  C14_22 
REMARK   11  A    between atoms: C8_14  and  C9_15 
REMARK   12  A    between atoms: C9_15  and  N3_16 
REMARK   13  A    between atoms: C22_31  and  N4_32 
REMARK   14  A    between atoms: C24_39  and  C25_40 
ROOT
HETATM    1  N1  UNL     1      40.485 -23.930 -38.839  1.00  0.00     0.094 N 
HETATM    2  C3  UNL     1      39.302 -24.804 -38.793  1.00  0.00     0.302 C 
HETATM    3  C4  UNL     1      39.357 -25.814 -37.691  1.00  0.00     0.302 C 
HETATM    4  N2  UNL     1      39.135 -25.152 -36.387  1.00  0.00     0.092 N 
HETATM    5  C20 UNL     1      39.670 -23.795 -36.583  1.00  0.00     0.302 C 
HETATM    6  C21 UNL     1      40.928 -23.948 -37.435  1.00  0.00     0.302 C 
ENDROOT
BRANCH   1   7
HETATM    7  C2  UNL     1      40.032 -22.623 -39.208  1.00  0.00     0.305 C 
BRANCH   7   8
HETATM    8  C1  UNL     1      38.800 -22.548 -40.075  1.00  0.00     0.166 C 
BRANCH   8   9
HETATM    9  O1  UNL     1      39.079 -21.810 -41.197  1.00  0.00    -0.392 OA
ATOM     10  H1  UNL     1      39.865 -22.150 -41.608  1.00  0.00     0.210 HD
ENDBRANCH   8   9
BRANCH   8  11
HETATM   11  C22 UNL     1      37.611 -22.131 -39.294  1.00  0.00     0.184 C 
BRANCH  11  12
HETATM   12  N4  UNL     1      36.330 -22.226 -39.959  1.00  0.00    -0.272 N 
HETATM   13  N5  UNL     1      35.562 -21.098 -40.376  1.00  0.00    -0.239 N 
HETATM   14  N6  UNL     1      34.481 -21.474 -40.899  1.00  0.00    -0.277 N 
ATOM     15  H5  UNL     1      35.849 -20.125 -40.266  1.00  0.00     0.208 HD
HETATM   16  C23 UNL     1      34.400 -22.900 -40.892  1.00  0.00     0.125 A 
ATOM     17  H6  UNL     1      33.766 -20.850 -41.273  1.00  0.00     0.189 HD
HETATM   18 BR1  UNL     1      33.014 -24.030 -41.555  1.00  0.00    -0.027 Br
HETATM   19  C24 UNL     1      35.557 -23.334 -40.306  1.00  0.00     0.098 A 
BRANCH  19  20
HETATM   20  C25 UNL     1      35.823 -24.753 -40.114  1.00  0.00    -0.005 A 
HETATM   21  C26 UNL     1      35.642 -25.446 -38.938  1.00  0.00     0.015 A 
HETATM   22  C27 UNL     1      35.892 -26.791 -38.863  1.00  0.00     0.024 A 
HETATM   23  C28 UNL     1      36.335 -27.460 -39.983  1.00  0.00     0.034 A 
HETATM   24 CL1  UNL     1      36.660 -29.197 -39.918  1.00  0.00    -0.084 Cl
HETATM   25  C29 UNL     1      36.539 -26.820 -41.194  1.00  0.00     0.024 A 
HETATM   26  C30 UNL     1      36.275 -25.476 -41.223  1.00  0.00     0.015 A 
ENDBRANCH  19  20
ENDBRANCH  11  12
ENDBRANCH   8  11
ENDBRANCH   7   8
ENDBRANCH   1   7
BRANCH   4  27
HETATM   27  C5  UNL     1      37.703 -25.092 -36.192  1.00  0.00     0.276 C 
BRANCH  27  28
HETATM   28  C6  UNL     1      37.231 -24.875 -34.819  1.00  0.00     0.073 C 
BRANCH  28  29
HETATM   29  C7  UNL     1      36.242 -25.815 -34.224  1.00  0.00     0.088 C 
BRANCH  29  30
HETATM   30  O2  UNL     1      36.951 -26.750 -33.423  1.00  0.00    -0.385 OA
ATOM     31  H2  UNL     1      37.179 -26.323 -32.606  1.00  0.00     0.211 HD
ENDBRANCH  29  30
BRANCH  29  32
HETATM   32  C8  UNL     1      35.448 -26.634 -35.193  1.00  0.00     0.073 C 
BRANCH  32  33
HETATM   33  C9  UNL     1      35.487 -28.092 -34.955  1.00  0.00     0.276 C 
BRANCH  33  34
HETATM   34  N3  UNL     1      35.754 -28.911 -36.121  1.00  0.00     0.092 N 
HETATM   35  C10 UNL     1      34.983 -30.159 -36.049  1.00  0.00     0.298 C 
HETATM   36  C11 UNL     1      35.881 -31.319 -35.621  1.00  0.00     0.198 C 
HETATM   37  O3  UNL     1      36.656 -30.899 -34.572  1.00  0.00    -0.388 OA
HETATM   38  C12 UNL     1      37.616 -29.950 -34.962  1.00  0.00     0.198 C 
HETATM   39  C13 UNL     1      37.171 -29.242 -36.214  1.00  0.00     0.298 C 
ENDBRANCH  33  34
ENDBRANCH  32  33
ENDBRANCH  29  32
BRANCH  29  40
HETATM   40  C14 UNL     1      35.378 -25.003 -33.318  1.00  0.00    -0.024 A 
HETATM   41  C15 UNL     1      35.588 -23.676 -33.143  1.00  0.00     0.013 A 
HETATM   42  C16 UNL     1      34.741 -22.975 -32.291  1.00  0.00     0.043 A 
HETATM   43  C17 UNL     1      33.709 -23.585 -31.627  1.00  0.00     0.116 A 
HETATM   44  F1  UNL     1      32.881 -22.879 -30.788  1.00  0.00    -0.206 F 
HETATM   45  C18 UNL     1      33.509 -24.924 -31.813  1.00  0.00     0.043 A 
HETATM   46  C19 UNL     1      34.344 -25.627 -32.656  1.00  0.00     0.013 A 
ENDBRANCH  29  40
ENDBRANCH  28  29
ENDBRANCH  27  28
ENDBRANCH   4  27
TORSDOF 14
ENDMDL
