MODEL 1
REMARK VINA RESULT: -6.750726235      0.000      0.000
REMARK  4 active torsions:
REMARK  status: ('A' for Active; 'I' for Inactive)
REMARK    1  A    between atoms: C5_6  and  C6_7 
REMARK    2  A    between atoms: C6_7  and  C7_9 
REMARK    3  A    between atoms: C7_9  and  S2_10 
REMARK    4  A    between atoms: S2_10  and  C8_11 
ROOT
HETATM    1  C7  UNL     1      64.026  22.830  22.071  1.00  0.00     0.165 C 
ENDROOT
BRANCH   1   2
HETATM    2  C6  UNL     1      64.030  22.763  23.524  1.00  0.00     0.170 C 
HETATM    3  O1  UNL     1      63.942  23.802  24.209  1.00  0.00    -0.291 OA
BRANCH   2   4
HETATM    4  C5  UNL     1      64.141  21.453  24.227  1.00  0.00     0.030 A 
HETATM    5  C3  UNL     1      65.382  20.895  24.417  1.00  0.00    -0.006 A 
HETATM    6  S1  UNL     1      65.040  19.445  25.238  1.00  0.00    -0.099 SA
HETATM    7  C4  UNL     1      66.723  21.447  23.994  1.00  0.00     0.057 C 
HETATM    8  C2  UNL     1      63.346  19.570  25.324  1.00  0.00    -0.014 A 
HETATM    9  C1  UNL     1      62.341  18.618  25.933  1.00  0.00     0.057 C 
HETATM   10  C10 UNL     1      63.089  20.761  24.699  1.00  0.00    -0.034 A 
HETATM   11  C11 UNL     1      61.658  21.270  24.553  1.00  0.00     0.050 C 
ENDBRANCH   2   4
ENDBRANCH   1   2
BRANCH   1  12
HETATM   12  S2  UNL     1      63.384  24.394  21.429  1.00  0.00    -0.096 SA
BRANCH  12  13
HETATM   13  C8  UNL     1      61.601  24.182  21.236  1.00  0.00     0.130 A 
HETATM   14  N1  UNL     1      60.833  23.163  21.556  1.00  0.00    -0.286 N 
HETATM   15  N2  UNL     1      59.582  23.196  21.341  1.00  0.00    -0.279 N 
ATOM     16  H1  UNL     1      61.249  22.335  21.982  1.00  0.00     0.188 HD
HETATM   17  C9  UNL     1      59.059  24.293  20.780  1.00  0.00     0.159 A 
ATOM     18  H2  UNL     1      58.989  22.404  21.589  1.00  0.00     0.189 HD
HETATM   19  N3  UNL     1      57.802  24.522  20.479  1.00  0.00    -0.379 N 
HETATM   20  S3  UNL     1      60.441  25.275  20.575  1.00  0.00    -0.027 SA
ATOM     21  H32 UNL     1      56.976  23.935  20.601  1.00  0.00     0.158 HD
ATOM     22  H31 UNL     1      57.403  25.358  20.052  1.00  0.00     0.158 HD
ENDBRANCH  12  13
ENDBRANCH   1  12
TORSDOF 4
ENDMDL
MODEL 2
REMARK VINA RESULT: -6.722607002      1.236      1.300
REMARK  4 active torsions:
REMARK  status: ('A' for Active; 'I' for Inactive)
REMARK    1  A    between atoms: C5_6  and  C6_7 
REMARK    2  A    between atoms: C6_7  and  C7_9 
REMARK    3  A    between atoms: C7_9  and  S2_10 
REMARK    4  A    between atoms: S2_10  and  C8_11 
ROOT
HETATM    1  C7  UNL     1      63.956  23.975  23.858  1.00  0.00     0.165 C 
ENDROOT
BRANCH   1   2
HETATM    2  C6  UNL     1      64.043  22.653  23.258  1.00  0.00     0.170 C 
HETATM    3  O1  UNL     1      64.084  22.517  22.018  1.00  0.00    -0.291 OA
BRANCH   2   4
HETATM    4  C5  UNL     1      64.084  21.430  24.110  1.00  0.00     0.030 A 
HETATM    5  C3  UNL     1      65.298  20.860  24.410  1.00  0.00    -0.006 A 
HETATM    6  S1  UNL     1      64.877  19.524  25.377  1.00  0.00    -0.099 SA
HETATM    7  C4  UNL     1      66.670  21.318  23.980  1.00  0.00     0.057 C 
HETATM    8  C2  UNL     1      63.187  19.710  25.383  1.00  0.00    -0.014 A 
HETATM    9  C1  UNL     1      62.128  18.866  26.056  1.00  0.00     0.057 C 
HETATM   10  C10 UNL     1      62.993  20.829  24.617  1.00  0.00    -0.034 A 
HETATM   11  C11 UNL     1      61.587  21.361  24.358  1.00  0.00     0.050 C 
ENDBRANCH   2   4
ENDBRANCH   1   2
BRANCH   1  12
HETATM   12  S2  UNL     1      63.159  25.194  22.787  1.00  0.00    -0.096 SA
BRANCH  12  13
HETATM   13  C8  UNL     1      61.491  24.584  22.459  1.00  0.00     0.130 A 
HETATM   14  N1  UNL     1      61.068  23.731  21.552  1.00  0.00    -0.286 N 
HETATM   15  N2  UNL     1      59.840  23.419  21.471  1.00  0.00    -0.279 N 
ATOM     16  H1  UNL     1      61.736  23.315  20.903  1.00  0.00     0.188 HD
HETATM   17  C9  UNL     1      58.982  23.978  22.332  1.00  0.00     0.159 A 
ATOM     18  H2  UNL     1      59.515  22.757  20.766  1.00  0.00     0.189 HD
HETATM   19  N3  UNL     1      57.685  23.789  22.414  1.00  0.00    -0.379 N 
HETATM   20  S3  UNL     1      60.014  24.971  23.262  1.00  0.00    -0.027 SA
ATOM     21  H32 UNL     1      57.068  23.196  21.858  1.00  0.00     0.158 HD
ATOM     22  H31 UNL     1      57.030  24.215  23.070  1.00  0.00     0.158 HD
ENDBRANCH  12  13
ENDBRANCH   1  12
TORSDOF 4
ENDMDL
MODEL 3
REMARK VINA RESULT: -6.597481294      3.529      4.870
REMARK  4 active torsions:
REMARK  status: ('A' for Active; 'I' for Inactive)
REMARK    1  A    between atoms: C5_6  and  C6_7 
REMARK    2  A    between atoms: C6_7  and  C7_9 
REMARK    3  A    between atoms: C7_9  and  S2_10 
REMARK    4  A    between atoms: S2_10  and  C8_11 
ROOT
HETATM    1  C7  UNL     1      63.578  22.799  22.240  1.00  0.00     0.165 C 
ENDROOT
BRANCH   1   2
HETATM    2  C6  UNL     1      63.835  22.745  23.671  1.00  0.00     0.170 C 
HETATM    3  O1  UNL     1      63.971  23.795  24.333  1.00  0.00    -0.291 OA
BRANCH   2   4
HETATM    4  C5  UNL     1      63.943  21.438  24.378  1.00  0.00     0.030 A 
HETATM    5  C3  UNL     1      65.186  20.899  24.608  1.00  0.00    -0.006 A 
HETATM    6  S1  UNL     1      64.840  19.443  25.419  1.00  0.00    -0.099 SA
HETATM    7  C4  UNL     1      66.531  21.470  24.227  1.00  0.00     0.057 C 
HETATM    8  C2  UNL     1      63.142  19.544  25.451  1.00  0.00    -0.014 A 
HETATM    9  C1  UNL     1      62.132  18.577  26.029  1.00  0.00     0.057 C 
HETATM   10  C10 UNL     1      62.887  20.730  24.817  1.00  0.00    -0.034 A 
HETATM   11  C11 UNL     1      61.454  21.218  24.625  1.00  0.00     0.050 C 
ENDBRANCH   2   4
ENDBRANCH   1   2
BRANCH   1  12
HETATM   12  S2  UNL     1      64.349  24.219  21.428  1.00  0.00    -0.096 SA
BRANCH  12  13
HETATM   13  C8  UNL     1      66.132  23.940  21.477  1.00  0.00     0.130 A 
HETATM   14  N1  UNL     1      66.835  22.907  21.068  1.00  0.00    -0.286 N 
HETATM   15  N2  UNL     1      68.099  22.888  21.186  1.00  0.00    -0.279 N 
ATOM     16  H1  UNL     1      66.358  22.108  20.649  1.00  0.00     0.188 HD
HETATM   17  C9  UNL     1      68.703  23.947  21.738  1.00  0.00     0.159 A 
ATOM     18  H2  UNL     1      68.642  22.086  20.868  1.00  0.00     0.189 HD
HETATM   19  N3  UNL     1      69.988  24.122  21.948  1.00  0.00    -0.379 N 
HETATM   20  S3  UNL     1      67.379  24.969  22.080  1.00  0.00    -0.027 SA
ATOM     21  H32 UNL     1      70.779  23.512  21.745  1.00  0.00     0.158 HD
ATOM     22  H31 UNL     1      70.449  24.929  22.370  1.00  0.00     0.158 HD
ENDBRANCH  12  13
ENDBRANCH   1  12
TORSDOF 4
ENDMDL
MODEL 4
REMARK VINA RESULT: -6.523959292      1.521      2.631
REMARK  4 active torsions:
REMARK  status: ('A' for Active; 'I' for Inactive)
REMARK    1  A    between atoms: C5_6  and  C6_7 
REMARK    2  A    between atoms: C6_7  and  C7_9 
REMARK    3  A    between atoms: C7_9  and  S2_10 
REMARK    4  A    between atoms: S2_10  and  C8_11 
ROOT
HETATM    1  C7  UNL     1      62.614  23.146  21.767  1.00  0.00     0.165 C 
ENDROOT
BRANCH   1   2
HETATM    2  C6  UNL     1      62.996  23.158  23.170  1.00  0.00     0.170 C 
HETATM    3  O1  UNL     1      63.046  24.231  23.807  1.00  0.00    -0.291 OA
BRANCH   2   4
HETATM    4  C5  UNL     1      63.336  21.892  23.880  1.00  0.00     0.030 A 
HETATM    5  C3  UNL     1      62.351  21.218  24.561  1.00  0.00    -0.006 A 
HETATM    6  S1  UNL     1      63.167  19.869  25.200  1.00  0.00    -0.099 SA
HETATM    7  C4  UNL     1      60.895  21.593  24.700  1.00  0.00     0.057 C 
HETATM    8  C2  UNL     1      64.728  20.181  24.599  1.00  0.00    -0.014 A 
HETATM    9  C1  UNL     1      66.002  19.386  24.772  1.00  0.00     0.057 C 
HETATM   10  C10 UNL     1      64.566  21.350  23.904  1.00  0.00    -0.034 A 
HETATM   11  C11 UNL     1      65.747  22.000  23.189  1.00  0.00     0.050 C 
ENDBRANCH   2   4
ENDBRANCH   1   2
BRANCH   1  12
HETATM   12  S2  UNL     1      61.876  24.701  21.213  1.00  0.00    -0.096 SA
BRANCH  12  13
HETATM   13  C8  UNL     1      60.085  24.483  21.294  1.00  0.00     0.130 A 
HETATM   14  N1  UNL     1      59.202  24.393  20.324  1.00  0.00    -0.286 N 
HETATM   15  N2  UNL     1      57.967  24.240  20.577  1.00  0.00    -0.279 N 
ATOM     16  H1  UNL     1      59.513  24.449  19.354  1.00  0.00     0.188 HD
HETATM   17  C9  UNL     1      57.582  24.169  21.857  1.00  0.00     0.159 A 
ATOM     18  H2  UNL     1      57.284  24.171  19.823  1.00  0.00     0.189 HD
HETATM   19  N3  UNL     1      56.365  24.013  22.324  1.00  0.00    -0.379 N 
HETATM   20  S3  UNL     1      59.069  24.334  22.680  1.00  0.00    -0.027 SA
ATOM     21  H32 UNL     1      55.476  23.915  21.832  1.00  0.00     0.158 HD
ATOM     22  H31 UNL     1      56.071  23.960  23.300  1.00  0.00     0.158 HD
ENDBRANCH  12  13
ENDBRANCH   1  12
TORSDOF 4
ENDMDL
MODEL 5
REMARK VINA RESULT: -6.492249261      4.024      5.436
REMARK  4 active torsions:
REMARK  status: ('A' for Active; 'I' for Inactive)
REMARK    1  A    between atoms: C5_6  and  C6_7 
REMARK    2  A    between atoms: C6_7  and  C7_9 
REMARK    3  A    between atoms: C7_9  and  S2_10 
REMARK    4  A    between atoms: S2_10  and  C8_11 
ROOT
HETATM    1  C7  UNL     1      64.590  24.233  23.110  1.00  0.00     0.165 C 
ENDROOT
BRANCH   1   2
HETATM    2  C6  UNL     1      64.443  22.865  22.638  1.00  0.00     0.170 C 
HETATM    3  O1  UNL     1      64.378  22.616  21.417  1.00  0.00    -0.291 OA
BRANCH   2   4
HETATM    4  C5  UNL     1      64.366  21.730  23.602  1.00  0.00     0.030 A 
HETATM    5  C3  UNL     1      65.523  21.094  23.985  1.00  0.00    -0.006 A 
HETATM    6  S1  UNL     1      64.975  19.896  25.062  1.00  0.00    -0.099 SA
HETATM    7  C4  UNL     1      66.936  21.397  23.550  1.00  0.00     0.057 C 
HETATM    8  C2  UNL     1      63.306  20.218  25.006  1.00  0.00    -0.014 A 
HETATM    9  C1  UNL     1      62.169  19.531  25.728  1.00  0.00     0.057 C 
HETATM   10  C10 UNL     1      63.220  21.270  24.134  1.00  0.00    -0.034 A 
HETATM   11  C11 UNL     1      61.868  21.888  23.790  1.00  0.00     0.050 C 
ENDBRANCH   2   4
ENDBRANCH   1   2
BRANCH   1  12
HETATM   12  S2  UNL     1      65.375  25.325  21.901  1.00  0.00    -0.096 SA
BRANCH  12  13
HETATM   13  C8  UNL     1      67.042  24.685  21.631  1.00  0.00     0.130 A 
HETATM   14  N1  UNL     1      67.448  23.672  20.896  1.00  0.00    -0.286 N 
HETATM   15  N2  UNL     1      68.678  23.367  20.828  1.00  0.00    -0.279 N 
ATOM     16  H1  UNL     1      66.764  23.124  20.375  1.00  0.00     0.188 HD
HETATM   17  C9  UNL     1      69.557  24.100  21.521  1.00  0.00     0.159 A 
ATOM     18  H2  UNL     1      68.990  22.581  20.257  1.00  0.00     0.189 HD
HETATM   19  N3  UNL     1      70.860  23.949  21.582  1.00  0.00    -0.379 N 
HETATM   20  S3  UNL     1      68.541  25.246  22.275  1.00  0.00    -0.027 SA
ATOM     21  H32 UNL     1      71.468  23.265  21.132  1.00  0.00     0.158 HD
ATOM     22  H31 UNL     1      71.531  24.508  22.111  1.00  0.00     0.158 HD
ENDBRANCH  12  13
ENDBRANCH   1  12
TORSDOF 4
ENDMDL
