MODEL 1
REMARK VINA RESULT: -8.425070693      0.000      0.000
REMARK  15 active torsions:
REMARK  status: ('A' for Active; 'I' for Inactive)
REMARK    1  A    between atoms: C2_2  and  N1_4 
REMARK    2  A    between atoms: N1_4  and  C4_6 
REMARK    3  A    between atoms: C9_14  and  O1_15 
REMARK    4  A    between atoms: O1_15  and  C10_16 
REMARK    5  A    between atoms: C10_16  and  C11_17 
REMARK    6  A    between atoms: C12_20  and  C13_21 
REMARK    7  A    between atoms: C13_21  and  O4_22 
REMARK    8  A    between atoms: O4_22  and  C14_23 
REMARK    9  A    between atoms: C14_23  and  C15_24 
REMARK   10  A    between atoms: C15_24  and  N3_25 
REMARK       I    between atoms: N3_25  and  C16_27 
REMARK   11  A    between atoms: C16_27  and  C17_29 
REMARK   12  A    between atoms: C17_29  and  N4_30 
REMARK   13  A    between atoms: C18_34  and  C19_35 
REMARK   14  A    between atoms: C19_35  and  O6_36 
REMARK   15  A    between atoms: C22_40  and  O7_41 
ROOT
HETATM    1  C4  UNL     1       5.736 -15.809 -21.580  1.00  0.00     0.141 C 
HETATM    2  C5  UNL     1       5.339 -16.587 -22.786  1.00  0.00     0.211 C 
HETATM    3  C6  UNL     1       3.880 -16.353 -23.087  1.00  0.00     0.037 C 
HETATM    4  C7  UNL     1       3.936 -15.540 -24.336  1.00  0.00     0.038 C 
HETATM    5  C8  UNL     1       5.384 -15.060 -24.476  1.00  0.00     0.221 C 
HETATM    6  N2  UNL     1       6.106 -16.163 -23.900  1.00  0.00    -0.062 N 
ATOM      7  H21 UNL     1       6.309 -16.909 -24.565  1.00  0.00     0.278 HD
ATOM      8  H22 UNL     1       7.075 -15.940 -23.668  1.00  0.00     0.278 HD
HETATM    9  C9  UNL     1       5.618 -13.762 -23.746  1.00  0.00     0.102 C 
HETATM   10  C12 UNL     1       6.179 -12.694 -24.676  1.00  0.00     0.053 C 
HETATM   11  C18 UNL     1       7.603 -12.984 -24.902  1.00  0.00     0.019 C 
HETATM   12  C20 UNL     1       8.021 -13.751 -23.635  1.00  0.00     0.017 C 
HETATM   13  C21 UNL     1       6.745 -13.797 -22.776  1.00  0.00     0.054 C 
HETATM   14  C22 UNL     1       6.798 -14.799 -21.716  1.00  0.00     0.152 C 
ENDROOT
BRANCH  10  15
HETATM   15  C13 UNL     1       5.314 -12.371 -25.816  1.00  0.00     0.175 C 
BRANCH  15  16
HETATM   16  O4  UNL     1       5.495 -11.076 -26.245  1.00  0.00    -0.389 OA
BRANCH  16  17
HETATM   17  C14 UNL     1       4.447 -10.486 -26.887  1.00  0.00     0.187 C 
BRANCH  17  18
HETATM   18  C15 UNL     1       4.653 -10.522 -28.387  1.00  0.00     0.148 C 
BRANCH  18  19
HETATM   19  N3  UNL     1       4.245 -11.753 -29.007  1.00  0.00    -0.358 N 
HETATM   20  C16 UNL     1       5.145 -12.782 -29.362  1.00  0.00     0.243 C 
HETATM   21  O5  UNL     1       6.376 -12.682 -29.149  1.00  0.00    -0.272 OA
ATOM     22  H3  UNL     1       3.253 -11.891 -29.201  1.00  0.00     0.162 HD
BRANCH  20  23
HETATM   23  C17 UNL     1       4.696 -14.047 -30.011  1.00  0.00     0.331 C 
BRANCH  23  24
HETATM   24  N4  UNL     1       3.700 -13.816 -31.029  1.00  0.00    -0.071 N 
ATOM     25  H43 UNL     1       2.955 -13.211 -30.684  1.00  0.00     0.274 HD
ATOM     26  H42 UNL     1       4.063 -13.219 -31.772  1.00  0.00     0.274 HD
ATOM     27  H41 UNL     1       3.323 -14.686 -31.407  1.00  0.00     0.274 HD
ENDBRANCH  23  24
ENDBRANCH  20  23
ENDBRANCH  18  19
ENDBRANCH  17  18
ENDBRANCH  16  17
ENDBRANCH  15  16
ENDBRANCH  10  15
BRANCH   9  28
HETATM   28  O1  UNL     1       4.487 -13.445 -23.100  1.00  0.00    -0.367 OA
BRANCH  28  29
HETATM   29  C10 UNL     1       4.315 -12.375 -22.360  1.00  0.00     0.282 C 
BRANCH  29  30
HETATM   30  C11 UNL     1       3.207 -12.572 -21.390  1.00  0.00     0.197 C 
HETATM   31  O2  UNL     1       2.292 -13.380 -21.658  1.00  0.00    -0.646 OA
HETATM   32  O3  UNL     1       3.132 -11.896 -20.185  1.00  0.00    -0.646 OA
ENDBRANCH  29  30
ENDBRANCH  28  29
ENDBRANCH   9  28
BRANCH  11  33
HETATM   33  C19 UNL     1       8.072 -13.774 -26.037  1.00  0.00     0.169 C 
BRANCH  33  34
HETATM   34  O6  UNL     1       8.461 -13.142 -27.185  1.00  0.00    -0.400 OA
ATOM     35  H6  UNL     1       8.077 -13.398 -28.015  1.00  0.00     0.209 HD
ENDBRANCH  33  34
ENDBRANCH  11  33
BRANCH  14  36
HETATM   36  O7  UNL     1       6.801 -14.115 -20.463  1.00  0.00    -0.388 OA
HETATM   37  C23 UNL     1       8.025 -14.064 -19.866  1.00  0.00     0.202 C 
ENDBRANCH  14  36
BRANCH   1  38
HETATM   38  N1  UNL     1       6.098 -16.772 -20.560  1.00  0.00    -0.385 N 
ATOM     39  H1  UNL     1       6.915 -17.357 -20.734  1.00  0.00     0.160 HD
BRANCH  38  40
HETATM   40  C2  UNL     1       5.399 -16.966 -19.329  1.00  0.00    -0.008 C 
HETATM   41  C1  UNL     1       5.037 -18.195 -19.017  1.00  0.00     0.037 C 
HETATM   42  C3  UNL     1       5.051 -15.892 -18.377  1.00  0.00     0.067 C 
ENDBRANCH  38  40
ENDBRANCH   1  38
TORSDOF 15
ENDMDL
MODEL 2
REMARK VINA RESULT: -8.353124268      1.081      1.174
REMARK  15 active torsions:
REMARK  status: ('A' for Active; 'I' for Inactive)
REMARK    1  A    between atoms: C2_2  and  N1_4 
REMARK    2  A    between atoms: N1_4  and  C4_6 
REMARK    3  A    between atoms: C9_14  and  O1_15 
REMARK    4  A    between atoms: O1_15  and  C10_16 
REMARK    5  A    between atoms: C10_16  and  C11_17 
REMARK    6  A    between atoms: C12_20  and  C13_21 
REMARK    7  A    between atoms: C13_21  and  O4_22 
REMARK    8  A    between atoms: O4_22  and  C14_23 
REMARK    9  A    between atoms: C14_23  and  C15_24 
REMARK   10  A    between atoms: C15_24  and  N3_25 
REMARK       I    between atoms: N3_25  and  C16_27 
REMARK   11  A    between atoms: C16_27  and  C17_29 
REMARK   12  A    between atoms: C17_29  and  N4_30 
REMARK   13  A    between atoms: C18_34  and  C19_35 
REMARK   14  A    between atoms: C19_35  and  O6_36 
REMARK   15  A    between atoms: C22_40  and  O7_41 
ROOT
HETATM    1  C4  UNL     1       5.710 -15.469 -22.369  1.00  0.00     0.141 C 
HETATM    2  C5  UNL     1       5.470 -15.935 -23.763  1.00  0.00     0.211 C 
HETATM    3  C6  UNL     1       4.042 -15.653 -24.157  1.00  0.00     0.037 C 
HETATM    4  C7  UNL     1       4.195 -14.560 -25.159  1.00  0.00     0.038 C 
HETATM    5  C8  UNL     1       5.630 -14.042 -25.020  1.00  0.00     0.221 C 
HETATM    6  N2  UNL     1       6.331 -15.242 -24.652  1.00  0.00    -0.062 N 
ATOM      7  H21 UNL     1       6.630 -15.802 -25.450  1.00  0.00     0.278 HD
ATOM      8  H22 UNL     1       7.261 -15.071 -24.268  1.00  0.00     0.278 HD
HETATM    9  C9  UNL     1       5.737 -12.958 -23.978  1.00  0.00     0.102 C 
HETATM   10  C12 UNL     1       6.349 -11.689 -24.557  1.00  0.00     0.053 C 
HETATM   11  C18 UNL     1       7.798 -11.897 -24.688  1.00  0.00     0.019 C 
HETATM   12  C20 UNL     1       8.113 -12.944 -23.605  1.00  0.00     0.017 C 
HETATM   13  C21 UNL     1       6.758 -13.214 -22.927  1.00  0.00     0.054 C 
HETATM   14  C22 UNL     1       6.740 -14.444 -22.141  1.00  0.00     0.152 C 
ENDROOT
BRANCH  10  15
HETATM   15  C13 UNL     1       5.594 -11.108 -25.672  1.00  0.00     0.175 C 
BRANCH  15  16
HETATM   16  O4  UNL     1       6.229 -10.009 -26.204  1.00  0.00    -0.389 OA
BRANCH  16  17
HETATM   17  C14 UNL     1       5.681  -9.463 -27.327  1.00  0.00     0.187 C 
BRANCH  17  18
HETATM   18  C15 UNL     1       6.240 -10.127 -28.568  1.00  0.00     0.148 C 
BRANCH  18  19
HETATM   19  N3  UNL     1       5.375 -11.121 -29.143  1.00  0.00    -0.358 N 
HETATM   20  C16 UNL     1       5.618 -12.510 -29.053  1.00  0.00     0.243 C 
HETATM   21  O5  UNL     1       6.618 -12.966 -28.451  1.00  0.00    -0.272 OA
ATOM     22  H3  UNL     1       4.543 -10.808 -29.642  1.00  0.00     0.162 HD
BRANCH  20  23
HETATM   23  C17 UNL     1       4.708 -13.520 -29.664  1.00  0.00     0.331 C 
BRANCH  23  24
HETATM   24  N4  UNL     1       5.065 -13.824 -31.029  1.00  0.00    -0.071 N 
ATOM     25  H43 UNL     1       5.536 -13.035 -31.470  1.00  0.00     0.274 HD
ATOM     26  H42 UNL     1       5.821 -14.508 -31.069  1.00  0.00     0.274 HD
ATOM     27  H41 UNL     1       4.263 -14.130 -31.580  1.00  0.00     0.274 HD
ENDBRANCH  23  24
ENDBRANCH  20  23
ENDBRANCH  18  19
ENDBRANCH  17  18
ENDBRANCH  16  17
ENDBRANCH  15  16
ENDBRANCH  10  15
BRANCH   9  28
HETATM   28  O1  UNL     1       4.534 -12.822 -23.402  1.00  0.00    -0.367 OA
BRANCH  28  29
HETATM   29  C10 UNL     1       4.254 -11.993 -22.425  1.00  0.00     0.282 C 
BRANCH  29  30
HETATM   30  C11 UNL     1       3.255 -12.582 -21.497  1.00  0.00     0.197 C 
HETATM   31  O2  UNL     1       2.441 -13.427 -21.927  1.00  0.00    -0.646 OA
HETATM   32  O3  UNL     1       3.176 -12.238 -20.159  1.00  0.00    -0.646 OA
ENDBRANCH  29  30
ENDBRANCH  28  29
ENDBRANCH   9  28
BRANCH  11  33
HETATM   33  C19 UNL     1       8.412 -12.381 -25.921  1.00  0.00     0.169 C 
BRANCH  33  34
HETATM   34  O6  UNL     1       8.808 -11.485 -26.876  1.00  0.00    -0.400 OA
ATOM     35  H6  UNL     1       8.307 -11.403 -27.679  1.00  0.00     0.209 HD
ENDBRANCH  33  34
ENDBRANCH  11  33
BRANCH  14  36
HETATM   36  O7  UNL     1       6.587 -14.085 -20.767  1.00  0.00    -0.388 OA
HETATM   37  C23 UNL     1       7.729 -14.213 -20.035  1.00  0.00     0.202 C 
ENDBRANCH  14  36
BRANCH   1  38
HETATM   38  N1  UNL     1       6.001 -16.647 -21.578  1.00  0.00    -0.385 N 
ATOM     39  H1  UNL     1       6.857 -17.158 -21.793  1.00  0.00     0.160 HD
BRANCH  38  40
HETATM   40  C2  UNL     1       5.184 -17.149 -20.519  1.00  0.00    -0.008 C 
HETATM   41  C1  UNL     1       3.918 -16.780 -20.494  1.00  0.00     0.037 C 
HETATM   42  C3  UNL     1       5.651 -18.051 -19.447  1.00  0.00     0.067 C 
ENDBRANCH  38  40
ENDBRANCH   1  38
TORSDOF 15
ENDMDL
MODEL 3
REMARK VINA RESULT: -8.301822442      1.238      1.928
REMARK  15 active torsions:
REMARK  status: ('A' for Active; 'I' for Inactive)
REMARK    1  A    between atoms: C2_2  and  N1_4 
REMARK    2  A    between atoms: N1_4  and  C4_6 
REMARK    3  A    between atoms: C9_14  and  O1_15 
REMARK    4  A    between atoms: O1_15  and  C10_16 
REMARK    5  A    between atoms: C10_16  and  C11_17 
REMARK    6  A    between atoms: C12_20  and  C13_21 
REMARK    7  A    between atoms: C13_21  and  O4_22 
REMARK    8  A    between atoms: O4_22  and  C14_23 
REMARK    9  A    between atoms: C14_23  and  C15_24 
REMARK   10  A    between atoms: C15_24  and  N3_25 
REMARK       I    between atoms: N3_25  and  C16_27 
REMARK   11  A    between atoms: C16_27  and  C17_29 
REMARK   12  A    between atoms: C17_29  and  N4_30 
REMARK   13  A    between atoms: C18_34  and  C19_35 
REMARK   14  A    between atoms: C19_35  and  O6_36 
REMARK   15  A    between atoms: C22_40  and  O7_41 
ROOT
HETATM    1  C4  UNL     1       5.738 -15.735 -21.625  1.00  0.00     0.141 C 
HETATM    2  C5  UNL     1       5.338 -16.578 -22.785  1.00  0.00     0.211 C 
HETATM    3  C6  UNL     1       3.874 -16.373 -23.082  1.00  0.00     0.037 C 
HETATM    4  C7  UNL     1       3.908 -15.624 -24.371  1.00  0.00     0.038 C 
HETATM    5  C8  UNL     1       5.350 -15.137 -24.551  1.00  0.00     0.221 C 
HETATM    6  N2  UNL     1       6.090 -16.202 -23.928  1.00  0.00    -0.062 N 
ATOM      7  H21 UNL     1       6.293 -16.979 -24.556  1.00  0.00     0.278 HD
ATOM      8  H22 UNL     1       7.058 -15.958 -23.718  1.00  0.00     0.278 HD
HETATM    9  C9  UNL     1       5.577 -13.802 -23.889  1.00  0.00     0.102 C 
HETATM   10  C12 UNL     1       6.118 -12.776 -24.878  1.00  0.00     0.053 C 
HETATM   11  C18 UNL     1       7.542 -13.063 -25.104  1.00  0.00     0.019 C 
HETATM   12  C20 UNL     1       7.981 -13.761 -23.804  1.00  0.00     0.017 C 
HETATM   13  C21 UNL     1       6.715 -13.776 -22.930  1.00  0.00     0.054 C 
HETATM   14  C22 UNL     1       6.788 -14.723 -21.822  1.00  0.00     0.152 C 
ENDROOT
BRANCH  10  15
HETATM   15  C13 UNL     1       5.238 -12.519 -26.023  1.00  0.00     0.175 C 
BRANCH  15  16
HETATM   16  O4  UNL     1       5.839 -11.710 -26.960  1.00  0.00    -0.389 OA
BRANCH  16  17
HETATM   17  C14 UNL     1       5.496 -11.915 -28.264  1.00  0.00     0.187 C 
BRANCH  17  18
HETATM   18  C15 UNL     1       4.005 -12.154 -28.390  1.00  0.00     0.148 C 
BRANCH  18  19
HETATM   19  N3  UNL     1       3.298 -11.103 -29.070  1.00  0.00    -0.358 N 
HETATM   20  C16 UNL     1       2.862  -9.920 -28.433  1.00  0.00     0.243 C 
HETATM   21  O5  UNL     1       3.075  -9.710 -27.216  1.00  0.00    -0.272 OA
ATOM     22  H3  UNL     1       3.100 -11.217 -30.064  1.00  0.00     0.162 HD
BRANCH  20  23
HETATM   23  C17 UNL     1       2.124  -8.847 -29.160  1.00  0.00     0.331 C 
BRANCH  23  24
HETATM   24  N4  UNL     1       0.911  -8.460 -28.481  1.00  0.00    -0.071 N 
ATOM     25  H43 UNL     1       1.092  -8.243 -27.501  1.00  0.00     0.274 HD
ATOM     26  H42 UNL     1       0.589  -7.545 -28.794  1.00  0.00     0.274 HD
ATOM     27  H41 UNL     1       0.175  -9.161 -28.573  1.00  0.00     0.274 HD
ENDBRANCH  23  24
ENDBRANCH  20  23
ENDBRANCH  18  19
ENDBRANCH  17  18
ENDBRANCH  16  17
ENDBRANCH  15  16
ENDBRANCH  10  15
BRANCH   9  28
HETATM   28  O1  UNL     1       4.450 -13.463 -23.248  1.00  0.00    -0.367 OA
BRANCH  28  29
HETATM   29  C10 UNL     1       4.296 -12.393 -22.506  1.00  0.00     0.282 C 
BRANCH  29  30
HETATM   30  C11 UNL     1       3.232 -12.599 -21.489  1.00  0.00     0.197 C 
HETATM   31  O2  UNL     1       2.324 -13.429 -21.710  1.00  0.00    -0.646 OA
HETATM   32  O3  UNL     1       3.192 -11.909 -20.291  1.00  0.00    -0.646 OA
ENDBRANCH  29  30
ENDBRANCH  28  29
ENDBRANCH   9  28
BRANCH  11  33
HETATM   33  C19 UNL     1       8.008 -13.905 -26.202  1.00  0.00     0.169 C 
BRANCH  33  34
HETATM   34  O6  UNL     1       8.588 -13.326 -27.297  1.00  0.00    -0.400 OA
ATOM     35  H6  UNL     1       9.077 -13.863 -27.908  1.00  0.00     0.209 HD
ENDBRANCH  33  34
ENDBRANCH  11  33
BRANCH  14  36
HETATM   36  O7  UNL     1       6.797 -13.977 -20.605  1.00  0.00    -0.388 OA
HETATM   37  C23 UNL     1       8.040 -13.800 -20.077  1.00  0.00     0.202 C 
ENDBRANCH  14  36
BRANCH   1  38
HETATM   38  N1  UNL     1       6.121 -16.642 -20.561  1.00  0.00    -0.385 N 
ATOM     39  H1  UNL     1       6.948 -17.220 -20.711  1.00  0.00     0.160 HD
BRANCH  38  40
HETATM   40  C2  UNL     1       5.430 -16.790 -19.320  1.00  0.00    -0.008 C 
HETATM   41  C1  UNL     1       5.033 -18.000 -18.979  1.00  0.00     0.037 C 
HETATM   42  C3  UNL     1       5.126 -15.687 -18.386  1.00  0.00     0.067 C 
ENDBRANCH  38  40
ENDBRANCH   1  38
TORSDOF 15
ENDMDL
MODEL 4
REMARK VINA RESULT: -8.275522914      1.200      1.407
REMARK  15 active torsions:
REMARK  status: ('A' for Active; 'I' for Inactive)
REMARK    1  A    between atoms: C2_2  and  N1_4 
REMARK    2  A    between atoms: N1_4  and  C4_6 
REMARK    3  A    between atoms: C9_14  and  O1_15 
REMARK    4  A    between atoms: O1_15  and  C10_16 
REMARK    5  A    between atoms: C10_16  and  C11_17 
REMARK    6  A    between atoms: C12_20  and  C13_21 
REMARK    7  A    between atoms: C13_21  and  O4_22 
REMARK    8  A    between atoms: O4_22  and  C14_23 
REMARK    9  A    between atoms: C14_23  and  C15_24 
REMARK   10  A    between atoms: C15_24  and  N3_25 
REMARK       I    between atoms: N3_25  and  C16_27 
REMARK   11  A    between atoms: C16_27  and  C17_29 
REMARK   12  A    between atoms: C17_29  and  N4_30 
REMARK   13  A    between atoms: C18_34  and  C19_35 
REMARK   14  A    between atoms: C19_35  and  O6_36 
REMARK   15  A    between atoms: C22_40  and  O7_41 
ROOT
HETATM    1  C4  UNL     1       5.054 -15.893 -22.033  1.00  0.00     0.141 C 
HETATM    2  C5  UNL     1       4.826 -16.432 -23.402  1.00  0.00     0.211 C 
HETATM    3  C6  UNL     1       3.481 -15.980 -23.911  1.00  0.00     0.037 C 
HETATM    4  C7  UNL     1       3.850 -15.006 -24.977  1.00  0.00     0.038 C 
HETATM    5  C8  UNL     1       5.336 -14.689 -24.779  1.00  0.00     0.221 C 
HETATM    6  N2  UNL     1       5.829 -15.944 -24.278  1.00  0.00    -0.062 N 
ATOM      7  H21 UNL     1       6.087 -16.604 -25.012  1.00  0.00     0.278 HD
ATOM      8  H22 UNL     1       6.751 -15.878 -23.846  1.00  0.00     0.278 HD
HETATM    9  C9  UNL     1       5.543 -13.551 -23.813  1.00  0.00     0.102 C 
HETATM   10  C12 UNL     1       6.368 -12.434 -24.439  1.00  0.00     0.053 C 
HETATM   11  C18 UNL     1       7.776 -12.858 -24.457  1.00  0.00     0.019 C 
HETATM   12  C20 UNL     1       7.871 -13.848 -23.282  1.00  0.00     0.017 C 
HETATM   13  C21 UNL     1       6.455 -13.865 -22.680  1.00  0.00     0.054 C 
HETATM   14  C22 UNL     1       6.210 -15.011 -21.810  1.00  0.00     0.152 C 
ENDROOT
BRANCH  10  15
HETATM   15  C13 UNL     1       5.772 -11.844 -25.642  1.00  0.00     0.175 C 
BRANCH  15  16
HETATM   16  O4  UNL     1       6.465 -10.734 -26.067  1.00  0.00    -0.389 OA
BRANCH  16  17
HETATM   17  C14 UNL     1       6.534 -10.527 -27.413  1.00  0.00     0.187 C 
BRANCH  17  18
HETATM   18  C15 UNL     1       5.189 -10.785 -28.060  1.00  0.00     0.148 C 
BRANCH  18  19
HETATM   19  N3  UNL     1       5.182 -11.893 -28.977  1.00  0.00    -0.358 N 
HETATM   20  C16 UNL     1       4.279 -12.975 -28.883  1.00  0.00     0.243 C 
HETATM   21  O5  UNL     1       3.411 -13.032 -27.981  1.00  0.00    -0.272 OA
ATOM     22  H3  UNL     1       5.865 -11.898 -29.734  1.00  0.00     0.162 HD
BRANCH  20  23
HETATM   23  C17 UNL     1       4.298 -14.115 -29.843  1.00  0.00     0.331 C 
BRANCH  23  24
HETATM   24  N4  UNL     1       5.065 -13.820 -31.029  1.00  0.00    -0.071 N 
ATOM     25  H43 UNL     1       6.053 -13.699 -30.808  1.00  0.00     0.274 HD
ATOM     26  H42 UNL     1       5.132 -14.635 -31.637  1.00  0.00     0.274 HD
ATOM     27  H41 UNL     1       4.699 -13.013 -31.535  1.00  0.00     0.274 HD
ENDBRANCH  23  24
ENDBRANCH  20  23
ENDBRANCH  18  19
ENDBRANCH  17  18
ENDBRANCH  16  17
ENDBRANCH  15  16
ENDBRANCH  10  15
BRANCH   9  28
HETATM   28  O1  UNL     1       4.343 -13.197 -23.332  1.00  0.00    -0.367 OA
BRANCH  28  29
HETATM   29  C10 UNL     1       4.129 -12.221 -22.482  1.00  0.00     0.282 C 
BRANCH  29  30
HETATM   30  C11 UNL     1       3.154 -12.629 -21.438  1.00  0.00     0.197 C 
HETATM   31  O2  UNL     1       2.320 -13.526 -21.692  1.00  0.00    -0.646 OA
HETATM   32  O3  UNL     1       3.117 -12.059 -20.178  1.00  0.00    -0.646 OA
ENDBRANCH  29  30
ENDBRANCH  28  29
ENDBRANCH   9  28
BRANCH  11  33
HETATM   33  C19 UNL     1       8.380 -13.524 -25.608  1.00  0.00     0.169 C 
BRANCH  33  34
HETATM   34  O6  UNL     1       8.795 -14.822 -25.495  1.00  0.00    -0.400 OA
ATOM     35  H6  UNL     1       8.186 -15.527 -25.677  1.00  0.00     0.209 HD
ENDBRANCH  33  34
ENDBRANCH  11  33
BRANCH  14  36
HETATM   36  O7  UNL     1       6.035 -14.524 -20.479  1.00  0.00    -0.388 OA
HETATM   37  C23 UNL     1       7.189 -14.469 -19.757  1.00  0.00     0.202 C 
ENDBRANCH  14  36
BRANCH   1  38
HETATM   38  N1  UNL     1       5.123 -17.032 -21.140  1.00  0.00    -0.385 N 
ATOM     39  H1  UNL     1       4.297 -17.241 -20.580  1.00  0.00     0.160 HD
BRANCH  38  40
HETATM   40  C2  UNL     1       6.257 -17.886 -20.984  1.00  0.00    -0.008 C 
HETATM   41  C1  UNL     1       6.714 -18.082 -19.763  1.00  0.00     0.037 C 
HETATM   42  C3  UNL     1       6.959 -18.567 -22.091  1.00  0.00     0.067 C 
ENDBRANCH  38  40
ENDBRANCH   1  38
TORSDOF 15
ENDMDL
MODEL 5
REMARK VINA RESULT: -8.113768611      1.710      2.069
REMARK  15 active torsions:
REMARK  status: ('A' for Active; 'I' for Inactive)
REMARK    1  A    between atoms: C2_2  and  N1_4 
REMARK    2  A    between atoms: N1_4  and  C4_6 
REMARK    3  A    between atoms: C9_14  and  O1_15 
REMARK    4  A    between atoms: O1_15  and  C10_16 
REMARK    5  A    between atoms: C10_16  and  C11_17 
REMARK    6  A    between atoms: C12_20  and  C13_21 
REMARK    7  A    between atoms: C13_21  and  O4_22 
REMARK    8  A    between atoms: O4_22  and  C14_23 
REMARK    9  A    between atoms: C14_23  and  C15_24 
REMARK   10  A    between atoms: C15_24  and  N3_25 
REMARK       I    between atoms: N3_25  and  C16_27 
REMARK   11  A    between atoms: C16_27  and  C17_29 
REMARK   12  A    between atoms: C17_29  and  N4_30 
REMARK   13  A    between atoms: C18_34  and  C19_35 
REMARK   14  A    between atoms: C19_35  and  O6_36 
REMARK   15  A    between atoms: C22_40  and  O7_41 
ROOT
HETATM    1  C4  UNL     1       4.946 -15.904 -22.114  1.00  0.00     0.141 C 
HETATM    2  C5  UNL     1       4.899 -16.338 -23.538  1.00  0.00     0.211 C 
HETATM    3  C6  UNL     1       3.659 -15.791 -24.197  1.00  0.00     0.037 C 
HETATM    4  C7  UNL     1       4.214 -14.765 -25.126  1.00  0.00     0.038 C 
HETATM    5  C8  UNL     1       5.666 -14.533 -24.697  1.00  0.00     0.221 C 
HETATM    6  N2  UNL     1       6.036 -15.840 -24.225  1.00  0.00    -0.062 N 
ATOM      7  H21 UNL     1       6.372 -16.460 -24.962  1.00  0.00     0.278 HD
ATOM      8  H22 UNL     1       6.887 -15.846 -23.663  1.00  0.00     0.278 HD
HETATM    9  C9  UNL     1       5.773 -13.473 -23.630  1.00  0.00     0.102 C 
HETATM   10  C12 UNL     1       6.721 -12.356 -24.050  1.00  0.00     0.053 C 
HETATM   11  C18 UNL     1       8.099 -12.844 -23.900  1.00  0.00     0.019 C 
HETATM   12  C20 UNL     1       7.987 -13.914 -22.799  1.00  0.00     0.017 C 
HETATM   13  C21 UNL     1       6.500 -13.905 -22.406  1.00  0.00     0.054 C 
HETATM   14  C22 UNL     1       6.090 -15.095 -21.666  1.00  0.00     0.152 C 
ENDROOT
BRANCH  10  15
HETATM   15  C13 UNL     1       6.326 -11.659 -25.279  1.00  0.00     0.175 C 
BRANCH  15  16
HETATM   16  O4  UNL     1       6.851 -10.388 -25.338  1.00  0.00    -0.389 OA
BRANCH  16  17
HETATM   17  C14 UNL     1       7.270  -9.950 -26.559  1.00  0.00     0.187 C 
BRANCH  17  18
HETATM   18  C15 UNL     1       6.322  -8.901 -27.102  1.00  0.00     0.148 C 
BRANCH  18  19
HETATM   19  N3  UNL     1       5.356  -9.411 -28.037  1.00  0.00    -0.358 N 
HETATM   20  C16 UNL     1       4.029  -9.742 -27.683  1.00  0.00     0.243 C 
HETATM   21  O5  UNL     1       3.607  -9.603 -26.512  1.00  0.00    -0.272 OA
ATOM     22  H3  UNL     1       5.644  -9.542 -29.007  1.00  0.00     0.162 HD
BRANCH  20  23
HETATM   23  C17 UNL     1       3.049 -10.276 -28.671  1.00  0.00     0.331 C 
BRANCH  23  24
HETATM   24  N4  UNL     1       3.403 -11.596 -29.135  1.00  0.00    -0.071 N 
ATOM     25  H43 UNL     1       4.161 -11.555 -29.816  1.00  0.00     0.274 HD
ATOM     26  H42 UNL     1       3.870 -12.131 -28.403  1.00  0.00     0.274 HD
ATOM     27  H41 UNL     1       2.600 -12.104 -29.507  1.00  0.00     0.274 HD
ENDBRANCH  23  24
ENDBRANCH  20  23
ENDBRANCH  18  19
ENDBRANCH  17  18
ENDBRANCH  16  17
ENDBRANCH  15  16
ENDBRANCH  10  15
BRANCH   9  28
HETATM   28  O1  UNL     1       4.530 -13.097 -23.299  1.00  0.00    -0.367 OA
BRANCH  28  29
HETATM   29  C10 UNL     1       4.232 -12.127 -22.467  1.00  0.00     0.282 C 
BRANCH  29  30
HETATM   30  C11 UNL     1       3.209 -12.565 -21.484  1.00  0.00     0.197 C 
HETATM   31  O2  UNL     1       2.390 -13.454 -21.804  1.00  0.00    -0.646 OA
HETATM   32  O3  UNL     1       3.111 -12.032 -20.211  1.00  0.00    -0.646 OA
ENDBRANCH  29  30
ENDBRANCH  28  29
ENDBRANCH   9  28
BRANCH  11  33
HETATM   33  C19 UNL     1       8.839 -13.458 -24.999  1.00  0.00     0.169 C 
BRANCH  33  34
HETATM   34  O6  UNL     1       9.044 -14.810 -25.002  1.00  0.00    -0.400 OA
ATOM     35  H6  UNL     1       9.659 -15.190 -25.619  1.00  0.00     0.209 HD
ENDBRANCH  33  34
ENDBRANCH  11  33
BRANCH  14  36
HETATM   36  O7  UNL     1       5.742 -14.690 -20.341  1.00  0.00    -0.388 OA
HETATM   37  C23 UNL     1       6.798 -14.662 -19.480  1.00  0.00     0.202 C 
ENDBRANCH  14  36
BRANCH   1  38
HETATM   38  N1  UNL     1       4.844 -17.103 -21.307  1.00  0.00    -0.385 N 
ATOM     39  H1  UNL     1       3.917 -17.369 -20.976  1.00  0.00     0.160 HD
BRANCH  38  40
HETATM   40  C2  UNL     1       5.940 -17.942 -20.939  1.00  0.00    -0.008 C 
HETATM   41  C1  UNL     1       6.102 -18.214 -19.659  1.00  0.00     0.037 C 
HETATM   42  C3  UNL     1       6.908 -18.529 -21.887  1.00  0.00     0.067 C 
ENDBRANCH  38  40
ENDBRANCH   1  38
TORSDOF 15
ENDMDL
