MODEL 1
REMARK VINA RESULT: -9.274672311      0.000      0.000
REMARK  12 active torsions:
REMARK  status: ('A' for Active; 'I' for Inactive)
REMARK    1  A    between atoms: C2_3  and  C3_4 
REMARK    2  A    between atoms: C3_4  and  C4_5 
REMARK    3  A    between atoms: C4_5  and  C5_7 
REMARK    4  A    between atoms: C5_7  and  O2_8 
REMARK    5  A    between atoms: C5_7  and  O3_10 
REMARK    6  A    between atoms: C6_13  and  N2_14 
REMARK    7  A    between atoms: C7_15  and  C8_16 
REMARK    8  A    between atoms: C8_16  and  N3_17 
REMARK    9  A    between atoms: C8_16  and  O5_21 
REMARK   10  A    between atoms: C11_30  and  N6_31 
REMARK   11  A    between atoms: C13_37  and  O7_38 
REMARK   12  A    between atoms: C14_40  and  O8_41 
ROOT
HETATM    1  N1  UNL     1     -20.326  15.374 -18.875  1.00  0.00    -0.194 NA
HETATM    2  C1  UNL     1     -20.226  16.458 -18.455  1.00  0.00     0.101 C 
HETATM    3  C2  UNL     1     -20.112  17.822 -17.925  1.00  0.00     0.186 C 
HETATM    4  O4  UNL     1     -19.392  17.811 -16.765  1.00  0.00    -0.335 OA
HETATM    5  C6  UNL     1     -18.068  18.112 -17.072  1.00  0.00     0.265 C 
HETATM    6  C13 UNL     1     -18.264  19.263 -18.061  1.00  0.00     0.200 C 
HETATM    7  C14 UNL     1     -19.342  18.638 -18.946  1.00  0.00     0.200 C 
ENDROOT
BRANCH   3   8
HETATM    8  C3  UNL     1     -21.477  18.430 -17.802  1.00  0.00     0.140 C 
BRANCH   8   9
HETATM    9  C4  UNL     1     -22.175  18.102 -16.557  1.00  0.00     0.184 C 
HETATM   10  O1  UNL     1     -22.372  16.984 -16.110  1.00  0.00    -0.292 OA
BRANCH   9  11
HETATM   11  C5  UNL     1     -22.702  19.240 -15.750  1.00  0.00     0.325 C 
BRANCH  11  12
HETATM   12  O2  UNL     1     -22.767  18.963 -14.404  1.00  0.00    -0.365 OA
ATOM     13  H2  UNL     1     -23.379  19.520 -13.938  1.00  0.00     0.213 HD
ENDBRANCH  11  12
BRANCH  11  14
HETATM   14  O3  UNL     1     -22.004  20.417 -16.016  1.00  0.00    -0.365 OA
ATOM     15  H3  UNL     1     -22.518  21.183 -15.789  1.00  0.00     0.213 HD
ENDBRANCH  11  14
ENDBRANCH   9  11
ENDBRANCH   8   9
ENDBRANCH   3   8
BRANCH   7  16
HETATM   16  O8  UNL     1     -20.104  19.656 -19.496  1.00  0.00    -0.389 OA
ATOM     17  H8  UNL     1     -20.200  19.571 -20.437  1.00  0.00     0.210 HD
ENDBRANCH   7  16
BRANCH   5  18
HETATM   18  N2  UNL     1     -17.296  18.493 -15.944  1.00  0.00    -0.286 N 
HETATM   19  C7  UNL     1     -17.714  19.275 -14.931  1.00  0.00     0.145 A 
HETATM   20  N4  UNL     1     -16.696  19.416 -14.036  1.00  0.00    -0.335 N 
HETATM   21  C9  UNL     1     -15.652  18.717 -14.504  1.00  0.00     0.148 A 
ATOM     22  H4  UNL     1     -16.724  19.954 -13.170  1.00  0.00     0.167 HD
HETATM   23  C10 UNL     1     -14.391  18.516 -14.011  1.00  0.00     0.290 A 
HETATM   24  C12 UNL     1     -16.025  18.137 -15.700  1.00  0.00     0.159 A 
HETATM   25  O6  UNL     1     -14.029  19.038 -12.917  1.00  0.00    -0.265 OA
HETATM   26  N5  UNL     1     -13.533  17.753 -14.708  1.00  0.00    -0.154 N 
HETATM   27  C11 UNL     1     -13.866  17.177 -15.873  1.00  0.00     0.680 A 
ATOM     28  H5  UNL     1     -12.594  17.606 -14.338  1.00  0.00     0.187 HD
HETATM   29  N7  UNL     1     -15.118  17.388 -16.340  1.00  0.00    -0.174 N 
ATOM     30  H7  UNL     1     -15.384  16.955 -17.225  1.00  0.00     0.186 HD
BRANCH  19  31
HETATM   31  C8  UNL     1     -19.031  19.920 -14.726  1.00  0.00     0.385 C 
BRANCH  31  32
HETATM   32  N3  UNL     1     -18.926  21.118 -13.890  1.00  0.00    -0.046 N 
ATOM     33  H33 UNL     1     -19.772  21.261 -13.339  1.00  0.00     0.277 HD
ATOM     34  H32 UNL     1     -18.259  20.983 -13.130  1.00  0.00     0.277 HD
ATOM     35  H31 UNL     1     -18.697  21.946 -14.441  1.00  0.00     0.277 HD
ENDBRANCH  31  32
BRANCH  31  36
HETATM   36  O5  UNL     1     -19.874  19.023 -14.075  1.00  0.00    -0.364 OA
ATOM     37  H5  UNL     1     -20.249  19.451 -13.316  1.00  0.00     0.212 HD
ENDBRANCH  31  36
ENDBRANCH  19  31
BRANCH  27  38
HETATM   38  N6  UNL     1     -13.022  16.434 -16.544  1.00  0.00    -0.234 N 
ATOM     39  H62 UNL     1     -12.036  16.407 -16.285  1.00  0.00     0.174 HD
ATOM     40  H61 UNL     1     -13.318  15.865 -17.338  1.00  0.00     0.174 HD
ENDBRANCH  27  38
ENDBRANCH   5  18
BRANCH   6  41
HETATM   41  O7  UNL     1     -17.104  19.510 -18.783  1.00  0.00    -0.388 OA
ATOM     42  H7  UNL     1     -17.013  20.434 -18.985  1.00  0.00     0.210 HD
ENDBRANCH   6  41
TORSDOF 12
ENDMDL
MODEL 2
REMARK VINA RESULT: -9.122665041      1.596      3.600
REMARK  12 active torsions:
REMARK  status: ('A' for Active; 'I' for Inactive)
REMARK    1  A    between atoms: C2_3  and  C3_4 
REMARK    2  A    between atoms: C3_4  and  C4_5 
REMARK    3  A    between atoms: C4_5  and  C5_7 
REMARK    4  A    between atoms: C5_7  and  O2_8 
REMARK    5  A    between atoms: C5_7  and  O3_10 
REMARK    6  A    between atoms: C6_13  and  N2_14 
REMARK    7  A    between atoms: C7_15  and  C8_16 
REMARK    8  A    between atoms: C8_16  and  N3_17 
REMARK    9  A    between atoms: C8_16  and  O5_21 
REMARK   10  A    between atoms: C11_30  and  N6_31 
REMARK   11  A    between atoms: C13_37  and  O7_38 
REMARK   12  A    between atoms: C14_40  and  O8_41 
ROOT
HETATM    1  N1  UNL     1     -18.777  15.269 -18.744  1.00  0.00    -0.194 NA
HETATM    2  C1  UNL     1     -18.838  16.331 -18.263  1.00  0.00     0.101 C 
HETATM    3  C2  UNL     1     -18.929  17.664 -17.655  1.00  0.00     0.186 C 
HETATM    4  O4  UNL     1     -18.208  17.697 -16.497  1.00  0.00    -0.335 OA
HETATM    5  C6  UNL     1     -16.946  18.212 -16.784  1.00  0.00     0.265 C 
HETATM    6  C13 UNL     1     -17.321  19.374 -17.707  1.00  0.00     0.200 C 
HETATM    7  C14 UNL     1     -18.298  18.644 -18.627  1.00  0.00     0.200 C 
ENDROOT
BRANCH   3   8
HETATM    8  C3  UNL     1     -20.369  18.050 -17.500  1.00  0.00     0.140 C 
BRANCH   8   9
HETATM    9  C4  UNL     1     -20.643  18.920 -16.354  1.00  0.00     0.184 C 
HETATM   10  O1  UNL     1     -20.139  20.009 -16.136  1.00  0.00    -0.292 OA
BRANCH   9  11
HETATM   11  C5  UNL     1     -21.631  18.434 -15.350  1.00  0.00     0.325 C 
BRANCH  11  12
HETATM   12  O2  UNL     1     -21.951  17.105 -15.505  1.00  0.00    -0.365 OA
ATOM     13  H2  UNL     1     -22.505  16.771 -14.810  1.00  0.00     0.213 HD
ENDBRANCH  11  12
BRANCH  11  14
HETATM   14  O3  UNL     1     -21.223  18.731 -14.050  1.00  0.00    -0.365 OA
ATOM     15  H3  UNL     1     -21.346  17.989 -13.470  1.00  0.00     0.213 HD
ENDBRANCH  11  14
ENDBRANCH   9  11
ENDBRANCH   8   9
ENDBRANCH   3   8
BRANCH   7  16
HETATM   16  O8  UNL     1     -19.210  19.564 -19.120  1.00  0.00    -0.389 OA
ATOM     17  H8  UNL     1     -18.892  20.012 -19.895  1.00  0.00     0.210 HD
ENDBRANCH   7  16
BRANCH   5  18
HETATM   18  N2  UNL     1     -16.233  18.642 -15.635  1.00  0.00    -0.286 N 
HETATM   19  C7  UNL     1     -14.984  18.269 -15.299  1.00  0.00     0.145 A 
HETATM   20  N4  UNL     1     -14.641  18.887 -14.133  1.00  0.00    -0.335 N 
HETATM   21  C9  UNL     1     -15.685  19.640 -13.757  1.00  0.00     0.148 A 
ATOM     22  H4  UNL     1     -13.754  18.794 -13.639  1.00  0.00     0.167 HD
HETATM   23  C10 UNL     1     -15.880  20.459 -12.677  1.00  0.00     0.290 A 
HETATM   24  C12 UNL     1     -16.684  19.488 -14.697  1.00  0.00     0.159 A 
HETATM   25  O6  UNL     1     -14.977  20.612 -11.805  1.00  0.00    -0.265 OA
HETATM   26  N5  UNL     1     -17.052  21.104 -12.552  1.00  0.00    -0.154 N 
HETATM   27  C11 UNL     1     -18.042  20.976 -13.448  1.00  0.00     0.680 A 
ATOM     28  H5  UNL     1     -17.195  21.712 -11.747  1.00  0.00     0.187 HD
HETATM   29  N7  UNL     1     -17.827  20.162 -14.508  1.00  0.00    -0.174 N 
ATOM     30  H7  UNL     1     -18.571  20.057 -15.197  1.00  0.00     0.186 HD
BRANCH  19  31
HETATM   31  C8  UNL     1     -14.056  17.355 -16.001  1.00  0.00     0.385 C 
BRANCH  31  32
HETATM   32  N3  UNL     1     -12.989  16.879 -15.119  1.00  0.00    -0.046 N 
ATOM     33  H33 UNL     1     -12.694  17.607 -14.467  1.00  0.00     0.277 HD
ATOM     34  H32 UNL     1     -13.339  16.195 -14.448  1.00  0.00     0.277 HD
ATOM     35  H31 UNL     1     -12.197  16.510 -15.646  1.00  0.00     0.277 HD
ENDBRANCH  31  32
BRANCH  31  36
HETATM   36  O5  UNL     1     -13.460  18.043 -17.055  1.00  0.00    -0.364 OA
ATOM     37  H5  UNL     1     -14.105  18.617 -17.449  1.00  0.00     0.212 HD
ENDBRANCH  31  36
ENDBRANCH  19  31
BRANCH  27  38
HETATM   38  N6  UNL     1     -19.181  21.609 -13.317  1.00  0.00    -0.234 N 
ATOM     39  H62 UNL     1     -19.268  22.388 -12.665  1.00  0.00     0.174 HD
ATOM     40  H61 UNL     1     -20.008  21.348 -13.855  1.00  0.00     0.174 HD
ENDBRANCH  27  38
ENDBRANCH   5  18
BRANCH   6  41
HETATM   41  O7  UNL     1     -16.217  19.835 -18.411  1.00  0.00    -0.388 OA
ATOM     42  H7  UNL     1     -15.449  19.304 -18.234  1.00  0.00     0.210 HD
ENDBRANCH   6  41
TORSDOF 12
ENDMDL
MODEL 3
REMARK VINA RESULT: -8.877947363      4.457      6.922
REMARK  12 active torsions:
REMARK  status: ('A' for Active; 'I' for Inactive)
REMARK    1  A    between atoms: C2_3  and  C3_4 
REMARK    2  A    between atoms: C3_4  and  C4_5 
REMARK    3  A    between atoms: C4_5  and  C5_7 
REMARK    4  A    between atoms: C5_7  and  O2_8 
REMARK    5  A    between atoms: C5_7  and  O3_10 
REMARK    6  A    between atoms: C6_13  and  N2_14 
REMARK    7  A    between atoms: C7_15  and  C8_16 
REMARK    8  A    between atoms: C8_16  and  N3_17 
REMARK    9  A    between atoms: C8_16  and  O5_21 
REMARK   10  A    between atoms: C11_30  and  N6_31 
REMARK   11  A    between atoms: C13_37  and  O7_38 
REMARK   12  A    between atoms: C14_40  and  O8_41 
ROOT
HETATM    1  N1  UNL     1     -16.815  17.806 -15.956  1.00  0.00    -0.194 NA
HETATM    2  C1  UNL     1     -15.771  18.027 -15.483  1.00  0.00     0.101 C 
HETATM    3  C2  UNL     1     -14.455  18.313 -14.898  1.00  0.00     0.186 C 
HETATM    4  O4  UNL     1     -14.609  18.909 -13.679  1.00  0.00    -0.335 OA
HETATM    5  C6  UNL     1     -14.527  17.922 -12.700  1.00  0.00     0.265 C 
HETATM    6  C13 UNL     1     -13.341  17.108 -13.220  1.00  0.00     0.200 C 
HETATM    7  C14 UNL     1     -13.760  16.982 -14.684  1.00  0.00     0.200 C 
ENDROOT
BRANCH   3   8
HETATM    8  C3  UNL     1     -13.631  19.098 -15.873  1.00  0.00     0.140 C 
BRANCH   8   9
HETATM    9  C4  UNL     1     -14.287  20.303 -16.388  1.00  0.00     0.184 C 
HETATM   10  O1  UNL     1     -14.663  21.259 -15.730  1.00  0.00    -0.292 OA
BRANCH   9  11
HETATM   11  C5  UNL     1     -14.523  20.377 -17.858  1.00  0.00     0.325 C 
BRANCH  11  12
HETATM   12  O2  UNL     1     -13.618  19.641 -18.587  1.00  0.00    -0.365 OA
ATOM     13  H2  UNL     1     -13.939  19.405 -19.449  1.00  0.00     0.213 HD
ENDBRANCH  11  12
BRANCH  11  14
HETATM   14  O3  UNL     1     -15.843  20.060 -18.177  1.00  0.00    -0.365 OA
ATOM     15  H3  UNL     1     -15.913  19.721 -19.061  1.00  0.00     0.213 HD
ENDBRANCH  11  14
ENDBRANCH   9  11
ENDBRANCH   8   9
ENDBRANCH   3   8
BRANCH   7  16
HETATM   16  O8  UNL     1     -12.619  16.849 -15.459  1.00  0.00    -0.389 OA
ATOM     17  H8  UNL     1     -12.793  16.435 -16.296  1.00  0.00     0.210 HD
ENDBRANCH   7  16
BRANCH   5  18
HETATM   18  N2  UNL     1     -14.302  18.434 -11.396  1.00  0.00    -0.286 N 
HETATM   19  C7  UNL     1     -14.467  17.757 -10.244  1.00  0.00     0.145 A 
HETATM   20  N4  UNL     1     -14.154  18.579  -9.203  1.00  0.00    -0.335 N 
HETATM   21  C9  UNL     1     -13.796  19.763  -9.721  1.00  0.00     0.148 A 
ATOM     22  H4  UNL     1     -14.186  18.338  -8.213  1.00  0.00     0.167 HD
HETATM   23  C10 UNL     1     -13.391  20.932  -9.137  1.00  0.00     0.290 A 
HETATM   24  C12 UNL     1     -13.887  19.675 -11.096  1.00  0.00     0.159 A 
HETATM   25  O6  UNL     1     -13.300  21.034  -7.879  1.00  0.00    -0.265 OA
HETATM   26  N5  UNL     1     -13.089  21.982  -9.920  1.00  0.00    -0.154 N 
HETATM   27  C11 UNL     1     -13.169  21.927 -11.257  1.00  0.00     0.680 A 
ATOM     28  H5  UNL     1     -12.788  22.852  -9.481  1.00  0.00     0.187 HD
HETATM   29  N7  UNL     1     -13.571  20.761 -11.813  1.00  0.00    -0.174 N 
ATOM     30  H7  UNL     1     -13.635  20.706 -12.830  1.00  0.00     0.186 HD
BRANCH  19  31
HETATM   31  C8  UNL     1     -14.907  16.360 -10.032  1.00  0.00     0.385 C 
BRANCH  31  32
HETATM   32  N3  UNL     1     -16.042  16.010 -10.888  1.00  0.00    -0.046 N 
ATOM     33  H33 UNL     1     -15.736  15.774 -11.833  1.00  0.00     0.277 HD
ATOM     34  H32 UNL     1     -16.445  15.111 -10.621  1.00  0.00     0.277 HD
ATOM     35  H31 UNL     1     -16.749  16.745 -10.900  1.00  0.00     0.277 HD
ENDBRANCH  31  32
BRANCH  31  36
HETATM   36  O5  UNL     1     -15.313  16.213  -8.709  1.00  0.00    -0.364 OA
ATOM     37  H5  UNL     1     -16.138  15.743  -8.692  1.00  0.00     0.212 HD
ENDBRANCH  31  36
ENDBRANCH  19  31
BRANCH  27  38
HETATM   38  N6  UNL     1     -12.872  22.956 -12.011  1.00  0.00    -0.234 N 
ATOM     39  H62 UNL     1     -11.984  23.444 -11.895  1.00  0.00     0.174 HD
ATOM     40  H61 UNL     1     -13.510  23.299 -12.730  1.00  0.00     0.174 HD
ENDBRANCH  27  38
ENDBRANCH   5  18
BRANCH   6  41
HETATM   41  O7  UNL     1     -13.277  15.863 -12.608  1.00  0.00    -0.388 OA
ATOM     42  H7  UNL     1     -12.723  15.266 -13.097  1.00  0.00     0.210 HD
ENDBRANCH   6  41
TORSDOF 12
ENDMDL
MODEL 4
REMARK VINA RESULT: -8.829869557      3.941      7.687
REMARK  12 active torsions:
REMARK  status: ('A' for Active; 'I' for Inactive)
REMARK    1  A    between atoms: C2_3  and  C3_4 
REMARK    2  A    between atoms: C3_4  and  C4_5 
REMARK    3  A    between atoms: C4_5  and  C5_7 
REMARK    4  A    between atoms: C5_7  and  O2_8 
REMARK    5  A    between atoms: C5_7  and  O3_10 
REMARK    6  A    between atoms: C6_13  and  N2_14 
REMARK    7  A    between atoms: C7_15  and  C8_16 
REMARK    8  A    between atoms: C8_16  and  N3_17 
REMARK    9  A    between atoms: C8_16  and  O5_21 
REMARK   10  A    between atoms: C11_30  and  N6_31 
REMARK   11  A    between atoms: C13_37  and  O7_38 
REMARK   12  A    between atoms: C14_40  and  O8_41 
ROOT
HETATM    1  N1  UNL     1     -15.934  19.515  -8.970  1.00  0.00    -0.194 NA
HETATM    2  C1  UNL     1     -15.103  19.829  -9.728  1.00  0.00     0.101 C 
HETATM    3  C2  UNL     1     -14.050  20.217 -10.673  1.00  0.00     0.186 C 
HETATM    4  O4  UNL     1     -14.301  19.669 -11.899  1.00  0.00    -0.335 OA
HETATM    5  C6  UNL     1     -14.966  20.619 -12.671  1.00  0.00     0.265 C 
HETATM    6  C13 UNL     1     -14.154  21.872 -12.335  1.00  0.00     0.200 C 
HETATM    7  C14 UNL     1     -14.107  21.726 -10.815  1.00  0.00     0.200 C 
ENDROOT
BRANCH   3   8
HETATM    8  C3  UNL     1     -12.708  19.870 -10.102  1.00  0.00     0.140 C 
BRANCH   8   9
HETATM    9  C4  UNL     1     -12.527  18.447  -9.804  1.00  0.00     0.184 C 
HETATM   10  O1  UNL     1     -12.503  17.938  -8.696  1.00  0.00    -0.292 OA
BRANCH   9  11
HETATM   11  C5  UNL     1     -12.354  17.524 -10.961  1.00  0.00     0.325 C 
BRANCH  11  12
HETATM   12  O2  UNL     1     -13.468  16.756 -11.211  1.00  0.00    -0.365 OA
ATOM     13  H2  UNL     1     -14.228  17.271 -11.457  1.00  0.00     0.213 HD
ENDBRANCH  11  12
BRANCH  11  14
HETATM   14  O3  UNL     1     -11.916  18.207 -12.095  1.00  0.00    -0.365 OA
ATOM     15  H3  UNL     1     -11.162  18.752 -11.901  1.00  0.00     0.213 HD
ENDBRANCH  11  14
ENDBRANCH   9  11
ENDBRANCH   8   9
ENDBRANCH   3   8
BRANCH   7  16
HETATM   16  O8  UNL     1     -12.958  22.346 -10.349  1.00  0.00    -0.389 OA
ATOM     17  H8  UNL     1     -12.514  21.836  -9.682  1.00  0.00     0.210 HD
ENDBRANCH   7  16
BRANCH   5  18
HETATM   18  N2  UNL     1     -14.960  20.326 -14.060  1.00  0.00    -0.286 N 
HETATM   19  C7  UNL     1     -16.039  20.293 -14.862  1.00  0.00     0.145 A 
HETATM   20  N4  UNL     1     -15.638  19.977 -16.126  1.00  0.00    -0.335 N 
HETATM   21  C9  UNL     1     -14.307  19.816 -16.094  1.00  0.00     0.148 A 
ATOM     22  H4  UNL     1     -16.239  19.880 -16.944  1.00  0.00     0.167 HD
HETATM   23  C10 UNL     1     -13.401  19.498 -17.069  1.00  0.00     0.290 A 
HETATM   24  C12 UNL     1     -13.879  20.035 -14.800  1.00  0.00     0.159 A 
HETATM   25  O6  UNL     1     -13.772  19.294 -18.262  1.00  0.00    -0.265 OA
HETATM   26  N5  UNL     1     -12.100  19.403 -16.744  1.00  0.00    -0.154 N 
HETATM   27  C11 UNL     1     -11.654  19.608 -15.496  1.00  0.00     0.680 A 
ATOM     28  H5  UNL     1     -11.428  19.165 -17.473  1.00  0.00     0.187 HD
HETATM   29  N7  UNL     1     -12.568  19.923 -14.549  1.00  0.00    -0.174 N 
ATOM     30  H7  UNL     1     -12.242  20.082 -13.596  1.00  0.00     0.186 HD
BRANCH  19  31
HETATM   31  C8  UNL     1     -17.461  20.542 -14.533  1.00  0.00     0.385 C 
BRANCH  31  32
HETATM   32  N3  UNL     1     -17.605  21.443 -13.388  1.00  0.00    -0.046 N 
ATOM     33  H33 UNL     1     -17.950  20.946 -12.566  1.00  0.00     0.277 HD
ATOM     34  H32 UNL     1     -16.696  21.735 -13.029  1.00  0.00     0.277 HD
ATOM     35  H31 UNL     1     -18.192  22.247 -13.609  1.00  0.00     0.277 HD
ENDBRANCH  31  32
BRANCH  31  36
HETATM   36  O5  UNL     1     -18.063  19.332 -14.199  1.00  0.00    -0.364 OA
ATOM     37  H5  UNL     1     -18.953  19.330 -14.531  1.00  0.00     0.212 HD
ENDBRANCH  31  36
ENDBRANCH  19  31
BRANCH  27  38
HETATM   38  N6  UNL     1     -10.385  19.513 -15.190  1.00  0.00    -0.234 N 
ATOM     39  H62 UNL     1      -9.670  19.605 -15.912  1.00  0.00     0.174 HD
ATOM     40  H61 UNL     1     -10.072  19.345 -14.234  1.00  0.00     0.174 HD
ENDBRANCH  27  38
ENDBRANCH   5  18
BRANCH   6  41
HETATM   41  O7  UNL     1     -14.832  23.025 -12.708  1.00  0.00    -0.388 OA
ATOM     42  H7  UNL     1     -14.737  23.195 -13.638  1.00  0.00     0.210 HD
ENDBRANCH   6  41
TORSDOF 12
ENDMDL
MODEL 5
REMARK VINA RESULT: -8.813432418      3.433      7.784
REMARK  12 active torsions:
REMARK  status: ('A' for Active; 'I' for Inactive)
REMARK    1  A    between atoms: C2_3  and  C3_4 
REMARK    2  A    between atoms: C3_4  and  C4_5 
REMARK    3  A    between atoms: C4_5  and  C5_7 
REMARK    4  A    between atoms: C5_7  and  O2_8 
REMARK    5  A    between atoms: C5_7  and  O3_10 
REMARK    6  A    between atoms: C6_13  and  N2_14 
REMARK    7  A    between atoms: C7_15  and  C8_16 
REMARK    8  A    between atoms: C8_16  and  N3_17 
REMARK    9  A    between atoms: C8_16  and  O5_21 
REMARK   10  A    between atoms: C11_30  and  N6_31 
REMARK   11  A    between atoms: C13_37  and  O7_38 
REMARK   12  A    between atoms: C14_40  and  O8_41 
ROOT
HETATM    1  N1  UNL     1     -11.238  19.599 -10.405  1.00  0.00    -0.194 NA
HETATM    2  C1  UNL     1     -12.337  19.773 -10.760  1.00  0.00     0.101 C 
HETATM    3  C2  UNL     1     -13.717  20.003 -11.201  1.00  0.00     0.186 C 
HETATM    4  O4  UNL     1     -13.775  20.004 -12.565  1.00  0.00    -0.335 OA
HETATM    5  C6  UNL     1     -14.142  18.727 -12.985  1.00  0.00     0.265 C 
HETATM    6  C13 UNL     1     -15.256  18.412 -11.984  1.00  0.00     0.200 C 
HETATM    7  C14 UNL     1     -14.549  18.839 -10.698  1.00  0.00     0.200 C 
ENDROOT
BRANCH   3   8
HETATM    8  C3  UNL     1     -14.251  21.247 -10.557  1.00  0.00     0.140 C 
BRANCH   8   9
HETATM    9  C4  UNL     1     -14.172  22.445 -11.397  1.00  0.00     0.184 C 
HETATM   10  O1  UNL     1     -13.382  23.365 -11.272  1.00  0.00    -0.292 OA
BRANCH   9  11
HETATM   11  C5  UNL     1     -15.150  22.559 -12.517  1.00  0.00     0.325 C 
BRANCH  11  12
HETATM   12  O2  UNL     1     -14.587  22.330 -13.751  1.00  0.00    -0.365 OA
ATOM     13  H2  UNL     1     -14.791  23.007 -14.385  1.00  0.00     0.213 HD
ENDBRANCH  11  12
BRANCH  11  14
HETATM   14  O3  UNL     1     -16.274  21.765 -12.292  1.00  0.00    -0.365 OA
ATOM     15  H3  UNL     1     -16.929  21.893 -12.968  1.00  0.00     0.213 HD
ENDBRANCH  11  14
ENDBRANCH   9  11
ENDBRANCH   8   9
ENDBRANCH   3   8
BRANCH   7  16
HETATM   16  O8  UNL     1     -15.510  19.231  -9.779  1.00  0.00    -0.389 OA
ATOM     17  H8  UNL     1     -16.379  18.920 -10.006  1.00  0.00     0.210 HD
ENDBRANCH   7  16
BRANCH   5  18
HETATM   18  N2  UNL     1     -14.593  18.681 -14.330  1.00  0.00    -0.286 N 
HETATM   19  C7  UNL     1     -13.930  18.132 -15.365  1.00  0.00     0.145 A 
HETATM   20  N4  UNL     1     -14.678  18.280 -16.494  1.00  0.00    -0.335 N 
HETATM   21  C9  UNL     1     -15.804  18.921 -16.147  1.00  0.00     0.148 A 
ATOM     22  H4  UNL     1     -14.428  17.961 -17.430  1.00  0.00     0.167 HD
HETATM   23  C10 UNL     1     -16.890  19.321 -16.877  1.00  0.00     0.290 A 
HETATM   24  C12 UNL     1     -15.753  19.173 -14.791  1.00  0.00     0.159 A 
HETATM   25  O6  UNL     1     -16.957  19.099 -18.121  1.00  0.00    -0.265 OA
HETATM   26  N5  UNL     1     -17.895  19.958 -16.253  1.00  0.00    -0.154 N 
HETATM   27  C11 UNL     1     -17.875  20.218 -14.937  1.00  0.00     0.680 A 
ATOM     28  H5  UNL     1     -18.703  20.256 -16.800  1.00  0.00     0.187 HD
HETATM   29  N7  UNL     1     -16.791  19.813 -14.236  1.00  0.00    -0.174 N 
ATOM     30  H7  UNL     1     -16.763  20.004 -13.234  1.00  0.00     0.186 HD
BRANCH  19  31
HETATM   31  C8  UNL     1     -12.611  17.459 -15.383  1.00  0.00     0.385 C 
BRANCH  31  32
HETATM   32  N3  UNL     1     -11.518  18.408 -15.604  1.00  0.00    -0.046 N 
ATOM     33  H33 UNL     1     -11.801  19.160 -16.234  1.00  0.00     0.277 HD
ATOM     34  H32 UNL     1     -11.333  18.961 -14.767  1.00  0.00     0.277 HD
ATOM     35  H31 UNL     1     -10.674  17.943 -15.937  1.00  0.00     0.277 HD
ENDBRANCH  31  32
BRANCH  31  36
HETATM   36  O5  UNL     1     -12.592  16.540 -16.429  1.00  0.00    -0.364 OA
ATOM     37  H5  UNL     1     -11.810  16.006 -16.352  1.00  0.00     0.212 HD
ENDBRANCH  31  36
ENDBRANCH  19  31
BRANCH  27  38
HETATM   38  N6  UNL     1     -18.860  20.840 -14.339  1.00  0.00    -0.234 N 
ATOM     39  H62 UNL     1     -18.692  21.709 -13.832  1.00  0.00     0.174 HD
ATOM     40  H61 UNL     1     -19.814  20.480 -14.358  1.00  0.00     0.174 HD
ENDBRANCH  27  38
ENDBRANCH   5  18
BRANCH   6  41
HETATM   41  O7  UNL     1     -15.549  17.055 -11.969  1.00  0.00    -0.388 OA
ATOM     42  H7  UNL     1     -14.882  16.563 -11.505  1.00  0.00     0.210 HD
ENDBRANCH   6  41
TORSDOF 12
ENDMDL
