MODEL 1
REMARK VINA RESULT: -7.382919891      0.000      0.000
REMARK  13 active torsions:
REMARK  status: ('A' for Active; 'I' for Inactive)
REMARK    1  A    between atoms: C1_2  and  C2_4 
REMARK    2  A    between atoms: C2_4  and  C3_5 
REMARK    3  A    between atoms: C3_5  and  C4_6 
REMARK    4  A    between atoms: C4_6  and  C5_7 
REMARK    5  A    between atoms: C5_7  and  C6_8 
REMARK    6  A    between atoms: N1_11  and  C9_12 
REMARK    7  A    between atoms: C9_12  and  O3_13 
REMARK    8  A    between atoms: C9_12  and  C10_15 
REMARK    9  A    between atoms: C10_15  and  O4_16 
REMARK   10  A    between atoms: C10_15  and  C11_18 
REMARK   11  A    between atoms: C10_15  and  C17_29 
REMARK   12  A    between atoms: C11_18  and  C12_19 
REMARK   13  A    between atoms: N2_23  and  O5_24 
ROOT
HETATM    1  C10 UNL     1     -16.484 -27.213 -12.400  1.00  0.00     0.144 C 
ENDROOT
BRANCH   1   2
HETATM    2  C9  UNL     1     -16.945 -25.843 -12.048  1.00  0.00     0.153 C 
BRANCH   2   3
HETATM    3  N1  UNL     1     -16.434 -24.574 -12.220  1.00  0.00    -0.363 N 
HETATM    4  C8  UNL     1     -15.959 -23.864 -10.987  1.00  0.00     0.125 C 
HETATM    5  C7  UNL     1     -14.549 -23.348 -11.164  1.00  0.00     0.024 C 
HETATM    6  C6  UNL     1     -14.158 -23.308 -12.602  1.00  0.00    -0.012 C 
HETATM    7  C24 UNL     1     -15.362 -22.692 -13.334  1.00  0.00     0.024 C 
HETATM    8  C23 UNL     1     -16.341 -23.888 -13.471  1.00  0.00     0.125 C 
BRANCH   6   9
HETATM    9  C5  UNL     1     -12.907 -22.551 -12.817  1.00  0.00     0.005 C 
BRANCH   9  10
HETATM   10  C4  UNL     1     -12.689 -21.427 -11.866  1.00  0.00     0.001 C 
BRANCH  10  11
HETATM   11  C3  UNL     1     -12.181 -20.175 -12.608  1.00  0.00     0.010 C 
BRANCH  11  12
HETATM   12  C2  UNL     1     -11.610 -20.669 -13.936  1.00  0.00     0.113 C 
BRANCH  12  13
HETATM   13  C1  UNL     1     -10.952 -19.499 -14.600  1.00  0.00     0.172 C 
HETATM   14  O1  UNL     1     -11.042 -18.327 -14.120  1.00  0.00    -0.648 OA
HETATM   15  O2  UNL     1     -10.228 -19.674 -15.760  1.00  0.00    -0.648 OA
ENDBRANCH  12  13
ENDBRANCH  11  12
ENDBRANCH  10  11
ENDBRANCH   9  10
ENDBRANCH   6   9
ENDBRANCH   2   3
BRANCH   2  16
HETATM   16  O3  UNL     1     -18.102 -25.902 -11.441  1.00  0.00    -0.347 OA
ATOM     17  H3  UNL     1     -18.073 -26.199 -10.539  1.00  0.00     0.219 HD
ENDBRANCH   2  16
ENDBRANCH   1   2
BRANCH   1  18
HETATM   18  O4  UNL     1     -17.413 -28.118 -11.907  1.00  0.00    -0.377 OA
ATOM     19  H4  UNL     1     -17.663 -28.698 -12.616  1.00  0.00     0.211 HD
ENDBRANCH   1  18
BRANCH   1  20
HETATM   20  C11 UNL     1     -15.191 -27.352 -11.716  1.00  0.00     0.034 C 
BRANCH  20  21
HETATM   21  C12 UNL     1     -14.819 -28.290 -10.721  1.00  0.00     0.010 A 
HETATM   22  C13 UNL     1     -14.887 -27.937  -9.357  1.00  0.00     0.063 A 
HETATM   23 CL1  UNL     1     -15.592 -26.428  -8.805  1.00  0.00    -0.082 Cl
HETATM   24  C14 UNL     1     -14.486 -28.810  -8.377  1.00  0.00     0.147 A 
HETATM   25  N2  UNL     1     -14.018 -30.026  -8.647  1.00  0.00    -0.244 N 
HETATM   26  C15 UNL     1     -13.943 -30.397  -9.925  1.00  0.00     0.147 A 
HETATM   27  C16 UNL     1     -14.330 -29.561 -10.934  1.00  0.00     0.063 A 
HETATM   28 CL2  UNL     1     -14.220 -30.253 -12.564  1.00  0.00    -0.082 Cl
BRANCH  25  29
HETATM   29  O5  UNL     1     -13.623 -30.874  -7.623  1.00  0.00    -0.284 OA
ATOM     30  H5  UNL     1     -14.227 -31.512  -7.264  1.00  0.00     0.245 HD
ENDBRANCH  25  29
ENDBRANCH  20  21
ENDBRANCH   1  20
BRANCH   1  31
HETATM   31  C17 UNL     1     -16.590 -27.322 -13.897  1.00  0.00     0.032 C 
HETATM   32  C18 UNL     1     -17.689 -28.411 -14.021  1.00  0.00     0.008 C 
HETATM   33  C19 UNL     1     -17.849 -28.905 -15.412  1.00  0.00     0.001 C 
HETATM   34  C20 UNL     1     -16.631 -29.828 -15.600  1.00  0.00     0.000 C 
HETATM   35  C21 UNL     1     -15.475 -28.911 -15.591  1.00  0.00     0.001 C 
HETATM   36  C22 UNL     1     -15.376 -27.848 -14.590  1.00  0.00     0.008 C 
ENDBRANCH   1  31
TORSDOF 13
ENDMDL
MODEL 2
REMARK VINA RESULT: -7.369488536      0.145      1.678
REMARK  13 active torsions:
REMARK  status: ('A' for Active; 'I' for Inactive)
REMARK    1  A    between atoms: C1_2  and  C2_4 
REMARK    2  A    between atoms: C2_4  and  C3_5 
REMARK    3  A    between atoms: C3_5  and  C4_6 
REMARK    4  A    between atoms: C4_6  and  C5_7 
REMARK    5  A    between atoms: C5_7  and  C6_8 
REMARK    6  A    between atoms: N1_11  and  C9_12 
REMARK    7  A    between atoms: C9_12  and  O3_13 
REMARK    8  A    between atoms: C9_12  and  C10_15 
REMARK    9  A    between atoms: C10_15  and  O4_16 
REMARK   10  A    between atoms: C10_15  and  C11_18 
REMARK   11  A    between atoms: C10_15  and  C17_29 
REMARK   12  A    between atoms: C11_18  and  C12_19 
REMARK   13  A    between atoms: N2_23  and  O5_24 
ROOT
HETATM    1  C10 UNL     1     -16.452 -27.194 -12.417  1.00  0.00     0.144 C 
ENDROOT
BRANCH   1   2
HETATM    2  C9  UNL     1     -16.921 -25.824 -12.077  1.00  0.00     0.153 C 
BRANCH   2   3
HETATM    3  N1  UNL     1     -16.404 -24.556 -12.235  1.00  0.00    -0.363 N 
HETATM    4  C8  UNL     1     -15.922 -23.863 -10.996  1.00  0.00     0.125 C 
HETATM    5  C7  UNL     1     -14.509 -23.352 -11.172  1.00  0.00     0.024 C 
HETATM    6  C6  UNL     1     -14.124 -23.296 -12.611  1.00  0.00    -0.012 C 
HETATM    7  C24 UNL     1     -15.328 -22.666 -13.331  1.00  0.00     0.024 C 
HETATM    8  C23 UNL     1     -16.313 -23.855 -13.478  1.00  0.00     0.125 C 
BRANCH   6   9
HETATM    9  C5  UNL     1     -12.870 -22.542 -12.821  1.00  0.00     0.005 C 
BRANCH   9  10
HETATM   10  C4  UNL     1     -12.660 -21.409 -11.881  1.00  0.00     0.001 C 
BRANCH  10  11
HETATM   11  C3  UNL     1     -12.212 -20.145 -12.641  1.00  0.00     0.010 C 
BRANCH  11  12
HETATM   12  C2  UNL     1     -11.557 -20.633 -13.932  1.00  0.00     0.113 C 
BRANCH  12  13
HETATM   13  C1  UNL     1     -10.991 -19.432 -14.625  1.00  0.00     0.172 C 
HETATM   14  O1  UNL     1     -10.438 -19.523 -15.764  1.00  0.00    -0.648 OA
HETATM   15  O2  UNL     1     -11.058 -18.190 -14.031  1.00  0.00    -0.648 OA
ENDBRANCH  12  13
ENDBRANCH  11  12
ENDBRANCH  10  11
ENDBRANCH   9  10
ENDBRANCH   6   9
ENDBRANCH   2   3
BRANCH   2  16
HETATM   16  O3  UNL     1     -18.094 -25.882 -11.500  1.00  0.00    -0.347 OA
ATOM     17  H3  UNL     1     -18.431 -26.758 -11.353  1.00  0.00     0.219 HD
ENDBRANCH   2  16
ENDBRANCH   1   2
BRANCH   1  18
HETATM   18  O4  UNL     1     -17.366 -28.101 -11.898  1.00  0.00    -0.377 OA
ATOM     19  H4  UNL     1     -17.117 -28.288 -11.001  1.00  0.00     0.211 HD
ENDBRANCH   1  18
BRANCH   1  20
HETATM   20  C11 UNL     1     -15.149 -27.312 -11.749  1.00  0.00     0.034 C 
BRANCH  20  21
HETATM   21  C12 UNL     1     -14.779 -28.177 -10.688  1.00  0.00     0.010 A 
HETATM   22  C13 UNL     1     -14.182 -29.423 -10.970  1.00  0.00     0.063 A 
HETATM   23 CL1  UNL     1     -13.698 -29.896 -12.589  1.00  0.00    -0.082 Cl
HETATM   24  C14 UNL     1     -13.861 -30.300  -9.964  1.00  0.00     0.147 A 
HETATM   25  N2  UNL     1     -14.085 -30.032  -8.680  1.00  0.00    -0.244 N 
HETATM   26  C15 UNL     1     -14.644 -28.861  -8.374  1.00  0.00     0.147 A 
HETATM   27  C16 UNL     1     -14.982 -27.958  -9.343  1.00  0.00     0.063 A 
HETATM   28 CL2  UNL     1     -15.653 -26.430  -8.740  1.00  0.00    -0.082 Cl
BRANCH  25  29
HETATM   29  O5  UNL     1     -13.744 -30.950  -7.698  1.00  0.00    -0.284 OA
ATOM     30  H5  UNL     1     -12.971 -31.493  -7.791  1.00  0.00     0.245 HD
ENDBRANCH  25  29
ENDBRANCH  20  21
ENDBRANCH   1  20
BRANCH   1  31
HETATM   31  C17 UNL     1     -16.578 -27.325 -13.911  1.00  0.00     0.032 C 
HETATM   32  C18 UNL     1     -17.689 -28.405 -14.004  1.00  0.00     0.008 C 
HETATM   33  C19 UNL     1     -17.871 -28.919 -15.385  1.00  0.00     0.001 C 
HETATM   34  C20 UNL     1     -16.664 -29.856 -15.574  1.00  0.00     0.000 C 
HETATM   35  C21 UNL     1     -15.500 -28.950 -15.594  1.00  0.00     0.001 C 
HETATM   36  C22 UNL     1     -15.378 -27.873 -14.611  1.00  0.00     0.008 C 
ENDBRANCH   1  31
TORSDOF 13
ENDMDL
MODEL 3
REMARK VINA RESULT: -7.040195456      2.285      3.232
REMARK  13 active torsions:
REMARK  status: ('A' for Active; 'I' for Inactive)
REMARK    1  A    between atoms: C1_2  and  C2_4 
REMARK    2  A    between atoms: C2_4  and  C3_5 
REMARK    3  A    between atoms: C3_5  and  C4_6 
REMARK    4  A    between atoms: C4_6  and  C5_7 
REMARK    5  A    between atoms: C5_7  and  C6_8 
REMARK    6  A    between atoms: N1_11  and  C9_12 
REMARK    7  A    between atoms: C9_12  and  O3_13 
REMARK    8  A    between atoms: C9_12  and  C10_15 
REMARK    9  A    between atoms: C10_15  and  O4_16 
REMARK   10  A    between atoms: C10_15  and  C11_18 
REMARK   11  A    between atoms: C10_15  and  C17_29 
REMARK   12  A    between atoms: C11_18  and  C12_19 
REMARK   13  A    between atoms: N2_23  and  O5_24 
ROOT
HETATM    1  C10 UNL     1     -17.479 -24.531 -11.438  1.00  0.00     0.144 C 
ENDROOT
BRANCH   1   2
HETATM    2  C9  UNL     1     -16.480 -23.713 -10.697  1.00  0.00     0.153 C 
BRANCH   2   3
HETATM    3  N1  UNL     1     -15.141 -23.432 -10.866  1.00  0.00    -0.363 N 
HETATM    4  C8  UNL     1     -14.358 -24.368 -11.737  1.00  0.00     0.125 C 
HETATM    5  C7  UNL     1     -13.601 -23.613 -12.807  1.00  0.00     0.024 C 
HETATM    6  C6  UNL     1     -13.494 -22.162 -12.479  1.00  0.00    -0.012 C 
HETATM    7  C24 UNL     1     -13.101 -22.109 -10.993  1.00  0.00     0.024 C 
HETATM    8  C23 UNL     1     -14.451 -22.335 -10.263  1.00  0.00     0.125 C 
BRANCH   6   9
HETATM    9  C5  UNL     1     -12.527 -21.466 -13.354  1.00  0.00     0.005 C 
BRANCH   9  10
HETATM   10  C4  UNL     1     -11.148 -22.024 -13.326  1.00  0.00     0.001 C 
BRANCH  10  11
HETATM   11  C3  UNL     1     -10.252 -21.315 -14.360  1.00  0.00     0.010 C 
BRANCH  11  12
HETATM   12  C2  UNL     1     -10.889 -19.950 -14.614  1.00  0.00     0.113 C 
BRANCH  12  13
HETATM   13  C1  UNL     1      -9.813 -19.044 -15.126  1.00  0.00     0.172 C 
HETATM   14  O1  UNL     1     -10.024 -17.809 -15.326  1.00  0.00    -0.648 OA
HETATM   15  O2  UNL     1      -8.555 -19.541 -15.394  1.00  0.00    -0.648 OA
ENDBRANCH  12  13
ENDBRANCH  11  12
ENDBRANCH  10  11
ENDBRANCH   9  10
ENDBRANCH   6   9
ENDBRANCH   2   3
BRANCH   2  16
HETATM   16  O3  UNL     1     -17.044 -23.151  -9.660  1.00  0.00    -0.347 OA
ATOM     17  H3  UNL     1     -17.953 -23.386  -9.514  1.00  0.00     0.219 HD
ENDBRANCH   2  16
ENDBRANCH   1   2
BRANCH   1  18
HETATM   18  O4  UNL     1     -18.708 -23.894 -11.347  1.00  0.00    -0.377 OA
ATOM     19  H4  UNL     1     -19.340 -24.403 -11.840  1.00  0.00     0.211 HD
ENDBRANCH   1  18
BRANCH   1  20
HETATM   20  C11 UNL     1     -17.493 -25.820 -10.732  1.00  0.00     0.034 C 
BRANCH  20  21
HETATM   21  C12 UNL     1     -16.443 -26.763 -10.601  1.00  0.00     0.010 A 
HETATM   22  C13 UNL     1     -15.652 -26.780  -9.434  1.00  0.00     0.063 A 
HETATM   23 CL1  UNL     1     -16.018 -25.795  -8.028  1.00  0.00    -0.082 Cl
HETATM   24  C14 UNL     1     -14.598 -27.649  -9.302  1.00  0.00     0.147 A 
HETATM   25  N2  UNL     1     -14.264 -28.519 -10.253  1.00  0.00    -0.244 N 
HETATM   26  C15 UNL     1     -14.992 -28.535 -11.369  1.00  0.00     0.147 A 
HETATM   27  C16 UNL     1     -16.049 -27.687 -11.543  1.00  0.00     0.063 A 
HETATM   28 CL2  UNL     1     -16.938 -27.901 -13.064  1.00  0.00    -0.082 Cl
BRANCH  25  29
HETATM   29  O5  UNL     1     -13.189 -29.378 -10.077  1.00  0.00    -0.284 OA
ATOM     30  H5  UNL     1     -12.675 -29.668 -10.821  1.00  0.00     0.245 HD
ENDBRANCH  25  29
ENDBRANCH  20  21
ENDBRANCH   1  20
BRANCH   1  31
HETATM   31  C17 UNL     1     -17.101 -24.443 -12.892  1.00  0.00     0.032 C 
HETATM   32  C18 UNL     1     -17.336 -22.930 -13.150  1.00  0.00     0.008 C 
HETATM   33  C19 UNL     1     -17.264 -22.579 -14.591  1.00  0.00     0.001 C 
HETATM   34  C20 UNL     1     -18.607 -23.088 -15.145  1.00  0.00     0.000 C 
HETATM   35  C21 UNL     1     -18.509 -24.556 -15.047  1.00  0.00     0.001 C 
HETATM   36  C22 UNL     1     -17.990 -25.188 -13.833  1.00  0.00     0.008 C 
ENDBRANCH   1  31
TORSDOF 13
ENDMDL
MODEL 4
REMARK VINA RESULT: -6.995317488      1.513      2.231
REMARK  13 active torsions:
REMARK  status: ('A' for Active; 'I' for Inactive)
REMARK    1  A    between atoms: C1_2  and  C2_4 
REMARK    2  A    between atoms: C2_4  and  C3_5 
REMARK    3  A    between atoms: C3_5  and  C4_6 
REMARK    4  A    between atoms: C4_6  and  C5_7 
REMARK    5  A    between atoms: C5_7  and  C6_8 
REMARK    6  A    between atoms: N1_11  and  C9_12 
REMARK    7  A    between atoms: C9_12  and  O3_13 
REMARK    8  A    between atoms: C9_12  and  C10_15 
REMARK    9  A    between atoms: C10_15  and  O4_16 
REMARK   10  A    between atoms: C10_15  and  C11_18 
REMARK   11  A    between atoms: C10_15  and  C17_29 
REMARK   12  A    between atoms: C11_18  and  C12_19 
REMARK   13  A    between atoms: N2_23  and  O5_24 
ROOT
HETATM    1  C10 UNL     1     -16.983 -27.482 -12.818  1.00  0.00     0.144 C 
ENDROOT
BRANCH   1   2
HETATM    2  C9  UNL     1     -17.148 -26.225 -12.038  1.00  0.00     0.153 C 
BRANCH   2   3
HETATM    3  N1  UNL     1     -16.635 -24.950 -12.136  1.00  0.00    -0.363 N 
HETATM    4  C8  UNL     1     -16.074 -24.349 -10.881  1.00  0.00     0.125 C 
HETATM    5  C7  UNL     1     -14.673 -23.827 -11.106  1.00  0.00     0.024 C 
HETATM    6  C6  UNL     1     -14.376 -23.668 -12.559  1.00  0.00    -0.012 C 
HETATM    7  C24 UNL     1     -15.618 -22.986 -13.156  1.00  0.00     0.024 C 
HETATM    8  C23 UNL     1     -16.616 -24.161 -13.328  1.00  0.00     0.125 C 
BRANCH   6   9
HETATM    9  C5  UNL     1     -13.133 -22.902 -12.790  1.00  0.00     0.005 C 
BRANCH   9  10
HETATM   10  C4  UNL     1     -12.839 -21.868 -11.761  1.00  0.00     0.001 C 
BRANCH  10  11
HETATM   11  C3  UNL     1     -12.220 -20.614 -12.410  1.00  0.00     0.010 C 
BRANCH  11  12
HETATM   12  C2  UNL     1     -11.806 -21.024 -13.822  1.00  0.00     0.113 C 
BRANCH  12  13
HETATM   13  C1  UNL     1     -11.196 -19.821 -14.474  1.00  0.00     0.172 C 
HETATM   14  O1  UNL     1     -11.442 -18.646 -14.061  1.00  0.00    -0.648 OA
HETATM   15  O2  UNL     1     -10.346 -19.969 -15.549  1.00  0.00    -0.648 OA
ENDBRANCH  12  13
ENDBRANCH  11  12
ENDBRANCH  10  11
ENDBRANCH   9  10
ENDBRANCH   6   9
ENDBRANCH   2   3
BRANCH   2  16
HETATM   16  O3  UNL     1     -17.977 -26.421 -11.045  1.00  0.00    -0.347 OA
ATOM     17  H3  UNL     1     -18.596 -25.718 -10.887  1.00  0.00     0.219 HD
ENDBRANCH   2  16
ENDBRANCH   1   2
BRANCH   1  18
HETATM   18  O4  UNL     1     -17.674 -28.490 -12.160  1.00  0.00    -0.377 OA
ATOM     19  H4  UNL     1     -18.553 -28.526 -12.518  1.00  0.00     0.211 HD
ENDBRANCH   1  18
BRANCH   1  20
HETATM   20  C11 UNL     1     -15.535 -27.734 -12.805  1.00  0.00     0.034 C 
BRANCH  20  21
HETATM   21  C12 UNL     1     -14.850 -28.904 -12.391  1.00  0.00     0.010 A 
HETATM   22  C13 UNL     1     -14.284 -29.766 -13.353  1.00  0.00     0.063 A 
HETATM   23 CL1  UNL     1     -14.224 -29.369 -15.061  1.00  0.00    -0.082 Cl
HETATM   24  C14 UNL     1     -13.659 -30.931 -12.983  1.00  0.00     0.147 A 
HETATM   25  N2  UNL     1     -13.547 -31.312 -11.712  1.00  0.00    -0.244 N 
HETATM   26  C15 UNL     1     -14.067 -30.519 -10.774  1.00  0.00     0.147 A 
HETATM   27  C16 UNL     1     -14.699 -29.352 -11.097  1.00  0.00     0.063 A 
HETATM   28 CL2  UNL     1     -15.267 -28.400  -9.712  1.00  0.00    -0.082 Cl
BRANCH  25  29
HETATM   29  O5  UNL     1     -12.907 -32.498 -11.385  1.00  0.00    -0.284 OA
ATOM     30  H5  UNL     1     -12.841 -32.777 -10.480  1.00  0.00     0.245 HD
ENDBRANCH  25  29
ENDBRANCH  20  21
ENDBRANCH   1  20
BRANCH   1  31
HETATM   31  C17 UNL     1     -17.728 -27.277 -14.109  1.00  0.00     0.032 C 
HETATM   32  C18 UNL     1     -18.777 -28.417 -14.010  1.00  0.00     0.008 C 
HETATM   33  C19 UNL     1     -19.526 -28.615 -15.277  1.00  0.00     0.001 C 
HETATM   34  C20 UNL     1     -18.515 -29.353 -16.172  1.00  0.00     0.000 C 
HETATM   35  C21 UNL     1     -17.465 -28.351 -16.437  1.00  0.00     0.001 C 
HETATM   36  C22 UNL     1     -16.936 -27.522 -15.353  1.00  0.00     0.008 C 
ENDBRANCH   1  31
TORSDOF 13
ENDMDL
MODEL 5
REMARK VINA RESULT: -6.931259804      4.308      6.601
REMARK  13 active torsions:
REMARK  status: ('A' for Active; 'I' for Inactive)
REMARK    1  A    between atoms: C1_2  and  C2_4 
REMARK    2  A    between atoms: C2_4  and  C3_5 
REMARK    3  A    between atoms: C3_5  and  C4_6 
REMARK    4  A    between atoms: C4_6  and  C5_7 
REMARK    5  A    between atoms: C5_7  and  C6_8 
REMARK    6  A    between atoms: N1_11  and  C9_12 
REMARK    7  A    between atoms: C9_12  and  O3_13 
REMARK    8  A    between atoms: C9_12  and  C10_15 
REMARK    9  A    between atoms: C10_15  and  O4_16 
REMARK   10  A    between atoms: C10_15  and  C11_18 
REMARK   11  A    between atoms: C10_15  and  C17_29 
REMARK   12  A    between atoms: C11_18  and  C12_19 
REMARK   13  A    between atoms: N2_23  and  O5_24 
ROOT
HETATM    1  C10 UNL     1     -18.020 -22.989 -10.904  1.00  0.00     0.144 C 
ENDROOT
BRANCH   1   2
HETATM    2  C9  UNL     1     -16.767 -23.563 -10.342  1.00  0.00     0.153 C 
BRANCH   2   3
HETATM    3  N1  UNL     1     -15.423 -23.374 -10.580  1.00  0.00    -0.363 N 
HETATM    4  C8  UNL     1     -14.723 -24.431 -11.382  1.00  0.00     0.125 C 
HETATM    5  C7  UNL     1     -13.968 -23.823 -12.544  1.00  0.00     0.024 C 
HETATM    6  C6  UNL     1     -13.772 -22.356 -12.360  1.00  0.00    -0.012 C 
HETATM    7  C24 UNL     1     -13.322 -22.185 -10.900  1.00  0.00     0.024 C 
HETATM    8  C23 UNL     1     -14.653 -22.266 -10.108  1.00  0.00     0.125 C 
BRANCH   6   9
HETATM    9  C5  UNL     1     -12.804 -21.800 -13.329  1.00  0.00     0.005 C 
BRANCH   9  10
HETATM   10  C4  UNL     1     -11.387 -21.827 -12.877  1.00  0.00     0.001 C 
BRANCH  10  11
HETATM   11  C3  UNL     1     -10.441 -21.421 -14.025  1.00  0.00     0.010 C 
BRANCH  11  12
HETATM   12  C2  UNL     1     -11.105 -20.240 -14.728  1.00  0.00     0.113 C 
BRANCH  12  13
HETATM   13  C1  UNL     1     -10.061 -19.181 -14.902  1.00  0.00     0.172 C 
HETATM   14  O1  UNL     1     -10.291 -17.967 -14.611  1.00  0.00    -0.648 OA
HETATM   15  O2  UNL     1      -8.813 -19.507 -15.389  1.00  0.00    -0.648 OA
ENDBRANCH  12  13
ENDBRANCH  11  12
ENDBRANCH  10  11
ENDBRANCH   9  10
ENDBRANCH   6   9
ENDBRANCH   2   3
BRANCH   2  16
HETATM   16  O3  UNL     1     -17.054 -24.441  -9.415  1.00  0.00    -0.347 OA
ATOM     17  H3  UNL     1     -17.926 -24.371  -9.046  1.00  0.00     0.219 HD
ENDBRANCH   2  16
ENDBRANCH   1   2
BRANCH   1  18
HETATM   18  O4  UNL     1     -17.715 -21.753 -11.458  1.00  0.00    -0.377 OA
ATOM     19  H4  UNL     1     -17.572 -21.877 -12.389  1.00  0.00     0.211 HD
ENDBRANCH   1  18
BRANCH   1  20
HETATM   20  C11 UNL     1     -18.910 -22.846  -9.743  1.00  0.00     0.034 C 
BRANCH  20  21
HETATM   21  C12 UNL     1     -19.275 -21.661  -9.056  1.00  0.00     0.010 A 
HETATM   22  C13 UNL     1     -20.468 -20.989  -9.393  1.00  0.00     0.063 A 
HETATM   23 CL1  UNL     1     -21.641 -21.651 -10.518  1.00  0.00    -0.082 Cl
HETATM   24  C14 UNL     1     -20.819 -19.813  -8.778  1.00  0.00     0.147 A 
HETATM   25  N2  UNL     1     -20.069 -19.245  -7.836  1.00  0.00    -0.244 N 
HETATM   26  C15 UNL     1     -18.935 -19.854  -7.488  1.00  0.00     0.147 A 
HETATM   27  C16 UNL     1     -18.546 -21.024  -8.075  1.00  0.00     0.063 A 
HETATM   28 CL2  UNL     1     -17.043 -21.719  -7.436  1.00  0.00    -0.082 Cl
BRANCH  25  29
HETATM   29  O5  UNL     1     -20.464 -18.055  -7.243  1.00  0.00    -0.284 OA
ATOM     30  H5  UNL     1     -19.898 -17.615  -6.620  1.00  0.00     0.245 HD
ENDBRANCH  25  29
ENDBRANCH  20  21
ENDBRANCH   1  20
BRANCH   1  31
HETATM   31  C17 UNL     1     -18.395 -23.859 -12.073  1.00  0.00     0.032 C 
HETATM   32  C18 UNL     1     -17.682 -23.102 -13.225  1.00  0.00     0.008 C 
HETATM   33  C19 UNL     1     -18.071 -23.608 -14.566  1.00  0.00     0.001 C 
HETATM   34  C20 UNL     1     -19.475 -23.012 -14.775  1.00  0.00     0.000 C 
HETATM   35  C21 UNL     1     -20.316 -23.709 -13.784  1.00  0.00     0.001 C 
HETATM   36  C22 UNL     1     -19.851 -23.891 -12.408  1.00  0.00     0.008 C 
ENDBRANCH   1  31
TORSDOF 13
ENDMDL
