MODEL 1
REMARK VINA RESULT: -7.462867709      0.000      0.000
REMARK  14 active torsions:
REMARK  status: ('A' for Active; 'I' for Inactive)
REMARK    1  A    between atoms: S1_2  and  C2_3 
REMARK    2  A    between atoms: C2_3  and  C4_5 
REMARK    3  A    between atoms: C4_5  and  N1_6 
REMARK    4  A    between atoms: C4_5  and  C11_20 
REMARK       I    between atoms: N1_6  and  C5_8 
REMARK    5  A    between atoms: C5_8  and  C6_10 
REMARK    6  A    between atoms: C6_10  and  N2_11 
REMARK    7  A    between atoms: C6_10  and  C8_17 
REMARK    8  A    between atoms: N2_11  and  S2_13 
REMARK       I    between atoms: C11_20  and  N3_22 
REMARK    9  A    between atoms: N3_22  and  C12_24 
REMARK   10  A    between atoms: C12_24  and  C13_25 
REMARK   11  A    between atoms: C12_24  and  C21_33 
REMARK   12  A    between atoms: C13_25  and  C14_26 
REMARK   13  A    between atoms: C14_26  and  C15_27 
REMARK       I    between atoms: C21_33  and  N4_35 
REMARK   14  A    between atoms: N4_35  and  C22_37 
ROOT
HETATM    1  C11 UNL     1      10.901  29.336   3.261  1.00  0.00     0.242 C 
HETATM    2  O4  UNL     1      11.130  28.858   2.088  1.00  0.00    -0.271 OA
HETATM    3  N3  UNL     1       9.938  30.354   3.411  1.00  0.00    -0.346 N 
ATOM      4  H3  UNL     1       9.768  30.731   4.343  1.00  0.00     0.163 HD
ENDROOT
BRANCH   1   5
HETATM    5  C4  UNL     1      11.637  28.834   4.433  1.00  0.00     0.190 C 
BRANCH   5   6
HETATM    6  C2  UNL     1      11.640  27.315   4.400  1.00  0.00     0.074 C 
HETATM    7  C3  UNL     1      10.830  26.832   5.607  1.00  0.00     0.024 C 
BRANCH   6   8
HETATM    8  S1  UNL     1      13.239  26.557   4.312  1.00  0.00    -0.167 SA
HETATM    9  C1  UNL     1      14.001  26.598   2.689  1.00  0.00     0.090 C 
ENDBRANCH   6   8
ENDBRANCH   5   6
BRANCH   5  10
HETATM   10  N1  UNL     1      12.927  29.391   4.642  1.00  0.00    -0.345 N 
HETATM   11  C5  UNL     1      13.364  29.755   5.941  1.00  0.00     0.242 C 
HETATM   12  O1  UNL     1      12.581  29.569   6.936  1.00  0.00    -0.271 OA
ATOM     13  H1  UNL     1      13.548  29.531   3.845  1.00  0.00     0.163 HD
BRANCH  11  14
HETATM   14  C6  UNL     1      14.711  30.354   6.226  1.00  0.00     0.188 C 
BRANCH  14  15
HETATM   15  N2  UNL     1      15.709  29.407   5.818  1.00  0.00    -0.306 N 
ATOM     16  H2  UNL     1      15.902  28.535   6.311  1.00  0.00     0.173 HD
BRANCH  15  17
HETATM   17  S2  UNL     1      16.548  29.916   4.395  1.00  0.00     0.223 S 
HETATM   18  C7  UNL     1      16.763  31.676   4.462  1.00  0.00     0.185 C 
HETATM   19  O2  UNL     1      15.709  29.642   3.166  1.00  0.00    -0.206 OA
HETATM   20  O3  UNL     1      17.859  29.235   4.206  1.00  0.00    -0.206 OA
ENDBRANCH  15  17
ENDBRANCH  14  15
BRANCH  14  21
HETATM   21  C8  UNL     1      14.779  30.398   7.766  1.00  0.00     0.010 C 
HETATM   22  C9  UNL     1      15.209  31.722   8.294  1.00  0.00     0.012 C 
HETATM   23  C10 UNL     1      15.745  29.296   8.234  1.00  0.00     0.012 C 
ENDBRANCH  14  21
ENDBRANCH  11  14
ENDBRANCH   5  10
ENDBRANCH   1   5
BRANCH   3  24
HETATM   24  C12 UNL     1       9.168  30.894   2.279  1.00  0.00     0.176 C 
BRANCH  24  25
HETATM   25  C13 UNL     1       7.880  31.474   2.814  1.00  0.00     0.035 C 
BRANCH  25  26
HETATM   26  C14 UNL     1       6.637  31.106   2.071  1.00  0.00     0.007 C 
BRANCH  26  27
HETATM   27  C15 UNL     1       5.754  32.345   1.990  1.00  0.00    -0.014 C 
HETATM   28  C16 UNL     1       5.064  32.378   0.670  1.00  0.00     0.004 C 
HETATM   29  C17 UNL     1       4.447  33.741   0.351  1.00  0.00     0.000 C 
HETATM   30  C18 UNL     1       5.411  34.871   0.422  1.00  0.00     0.000 C 
HETATM   31  C19 UNL     1       6.745  34.398   0.927  1.00  0.00     0.000 C 
HETATM   32  C20 UNL     1       6.548  33.599   2.210  1.00  0.00     0.004 C 
ENDBRANCH  26  27
ENDBRANCH  25  26
ENDBRANCH  24  25
BRANCH  24  33
HETATM   33  C21 UNL     1      10.019  31.963   1.711  1.00  0.00     0.240 C 
HETATM   34  O5  UNL     1       9.976  33.151   2.210  1.00  0.00    -0.271 OA
HETATM   35  N4  UNL     1      10.915  31.778   0.635  1.00  0.00    -0.355 N 
ATOM     36  H4  UNL     1      10.990  30.860   0.198  1.00  0.00     0.162 HD
BRANCH  35  37
HETATM   37  C22 UNL     1      11.721  32.860   0.147  1.00  0.00     0.084 C 
HETATM   38  C23 UNL     1      11.295  33.409  -1.186  1.00  0.00     0.025 C 
HETATM   39  C24 UNL     1      12.194  34.630  -1.424  1.00  0.00     0.002 C 
HETATM   40  C25 UNL     1      13.585  34.114  -1.650  1.00  0.00     0.000 C 
HETATM   41  C26 UNL     1      14.117  33.355  -0.461  1.00  0.00     0.002 C 
HETATM   42  C27 UNL     1      13.154  32.356   0.080  1.00  0.00     0.025 C 
ENDBRANCH  35  37
ENDBRANCH  24  33
ENDBRANCH   3  24
TORSDOF 14
ENDMDL
MODEL 2
REMARK VINA RESULT: -7.376938748      0.964      1.232
REMARK  14 active torsions:
REMARK  status: ('A' for Active; 'I' for Inactive)
REMARK    1  A    between atoms: S1_2  and  C2_3 
REMARK    2  A    between atoms: C2_3  and  C4_5 
REMARK    3  A    between atoms: C4_5  and  N1_6 
REMARK    4  A    between atoms: C4_5  and  C11_20 
REMARK       I    between atoms: N1_6  and  C5_8 
REMARK    5  A    between atoms: C5_8  and  C6_10 
REMARK    6  A    between atoms: C6_10  and  N2_11 
REMARK    7  A    between atoms: C6_10  and  C8_17 
REMARK    8  A    between atoms: N2_11  and  S2_13 
REMARK       I    between atoms: C11_20  and  N3_22 
REMARK    9  A    between atoms: N3_22  and  C12_24 
REMARK   10  A    between atoms: C12_24  and  C13_25 
REMARK   11  A    between atoms: C12_24  and  C21_33 
REMARK   12  A    between atoms: C13_25  and  C14_26 
REMARK   13  A    between atoms: C14_26  and  C15_27 
REMARK       I    between atoms: C21_33  and  N4_35 
REMARK   14  A    between atoms: N4_35  and  C22_37 
ROOT
HETATM    1  C11 UNL     1      10.806  29.009   3.409  1.00  0.00     0.242 C 
HETATM    2  O4  UNL     1      10.709  28.227   2.390  1.00  0.00    -0.271 OA
HETATM    3  N3  UNL     1      10.129  30.244   3.393  1.00  0.00    -0.346 N 
ATOM      4  H3  UNL     1      10.217  30.860   4.202  1.00  0.00     0.163 HD
ENDROOT
BRANCH   1   5
HETATM    5  C4  UNL     1      11.618  28.624   4.576  1.00  0.00     0.190 C 
BRANCH   5   6
HETATM    6  C2  UNL     1      11.715  27.109   4.632  1.00  0.00     0.074 C 
HETATM    7  C3  UNL     1      10.940  26.649   5.870  1.00  0.00     0.024 C 
BRANCH   6   8
HETATM    8  S1  UNL     1      13.357  26.447   4.578  1.00  0.00    -0.167 SA
HETATM    9  C1  UNL     1      14.091  26.391   2.943  1.00  0.00     0.090 C 
ENDBRANCH   6   8
ENDBRANCH   5   6
BRANCH   5  10
HETATM   10  N1  UNL     1      12.878  29.269   4.695  1.00  0.00    -0.345 N 
HETATM   11  C5  UNL     1      13.348  29.725   5.953  1.00  0.00     0.242 C 
HETATM   12  O1  UNL     1      12.623  29.543   6.992  1.00  0.00    -0.271 OA
ATOM     13  H1  UNL     1      13.453  29.406   3.864  1.00  0.00     0.163 HD
BRANCH  11  14
HETATM   14  C6  UNL     1      14.665  30.420   6.145  1.00  0.00     0.188 C 
BRANCH  14  15
HETATM   15  N2  UNL     1      15.707  29.480   5.845  1.00  0.00    -0.306 N 
ATOM     16  H2  UNL     1      15.940  28.681   6.435  1.00  0.00     0.173 HD
BRANCH  15  17
HETATM   17  S2  UNL     1      16.520  29.857   4.368  1.00  0.00     0.223 S 
HETATM   18  C7  UNL     1      16.796  31.608   4.303  1.00  0.00     0.185 C 
HETATM   19  O2  UNL     1      15.638  29.526   3.183  1.00  0.00    -0.206 OA
HETATM   20  O3  UNL     1      17.802  29.118   4.193  1.00  0.00    -0.206 OA
ENDBRANCH  15  17
ENDBRANCH  14  15
BRANCH  14  21
HETATM   21  C8  UNL     1      14.741  30.659   7.666  1.00  0.00     0.010 C 
HETATM   22  C9  UNL     1      15.009  32.079   8.021  1.00  0.00     0.012 C 
HETATM   23  C10 UNL     1      15.839  29.747   8.240  1.00  0.00     0.012 C 
ENDBRANCH  14  21
ENDBRANCH  11  14
ENDBRANCH   5  10
ENDBRANCH   1   5
BRANCH   3  24
HETATM   24  C12 UNL     1       9.300  30.683   2.258  1.00  0.00     0.176 C 
BRANCH  24  25
HETATM   25  C13 UNL     1       8.166  31.524   2.795  1.00  0.00     0.035 C 
BRANCH  25  26
HETATM   26  C14 UNL     1       6.803  31.190   2.283  1.00  0.00     0.007 C 
BRANCH  26  27
HETATM   27  C15 UNL     1       6.013  32.488   2.172  1.00  0.00    -0.014 C 
HETATM   28  C16 UNL     1       5.149  32.440   0.959  1.00  0.00     0.004 C 
HETATM   29  C17 UNL     1       4.597  33.812   0.564  1.00  0.00     0.000 C 
HETATM   30  C18 UNL     1       5.642  34.851   0.373  1.00  0.00     0.000 C 
HETATM   31  C19 UNL     1       6.995  34.317   0.752  1.00  0.00     0.000 C 
HETATM   32  C20 UNL     1       6.920  33.681   2.136  1.00  0.00     0.004 C 
ENDBRANCH  26  27
ENDBRANCH  25  26
ENDBRANCH  24  25
BRANCH  24  33
HETATM   33  C21 UNL     1      10.201  31.504   1.420  1.00  0.00     0.240 C 
HETATM   34  O5  UNL     1      10.887  30.949   0.480  1.00  0.00    -0.271 OA
HETATM   35  N4  UNL     1      10.369  32.899   1.564  1.00  0.00    -0.355 N 
ATOM     36  H4  UNL     1       9.855  33.393   2.293  1.00  0.00     0.162 HD
BRANCH  35  37
HETATM   37  C22 UNL     1      11.251  33.633   0.702  1.00  0.00     0.084 C 
HETATM   38  C23 UNL     1      11.979  34.767   1.366  1.00  0.00     0.025 C 
HETATM   39  C24 UNL     1      12.954  35.295   0.307  1.00  0.00     0.002 C 
HETATM   40  C25 UNL     1      12.129  35.946  -0.765  1.00  0.00     0.000 C 
HETATM   41  C26 UNL     1      11.182  34.979  -1.428  1.00  0.00     0.002 C 
HETATM   42  C27 UNL     1      10.416  34.147  -0.461  1.00  0.00     0.025 C 
ENDBRANCH  35  37
ENDBRANCH  24  33
ENDBRANCH   3  24
TORSDOF 14
ENDMDL
MODEL 3
REMARK VINA RESULT: -7.208050012      2.555      4.069
REMARK  14 active torsions:
REMARK  status: ('A' for Active; 'I' for Inactive)
REMARK    1  A    between atoms: S1_2  and  C2_3 
REMARK    2  A    between atoms: C2_3  and  C4_5 
REMARK    3  A    between atoms: C4_5  and  N1_6 
REMARK    4  A    between atoms: C4_5  and  C11_20 
REMARK       I    between atoms: N1_6  and  C5_8 
REMARK    5  A    between atoms: C5_8  and  C6_10 
REMARK    6  A    between atoms: C6_10  and  N2_11 
REMARK    7  A    between atoms: C6_10  and  C8_17 
REMARK    8  A    between atoms: N2_11  and  S2_13 
REMARK       I    between atoms: C11_20  and  N3_22 
REMARK    9  A    between atoms: N3_22  and  C12_24 
REMARK   10  A    between atoms: C12_24  and  C13_25 
REMARK   11  A    between atoms: C12_24  and  C21_33 
REMARK   12  A    between atoms: C13_25  and  C14_26 
REMARK   13  A    between atoms: C14_26  and  C15_27 
REMARK       I    between atoms: C21_33  and  N4_35 
REMARK   14  A    between atoms: N4_35  and  C22_37 
ROOT
HETATM    1  C11 UNL     1      11.478  28.616   2.694  1.00  0.00     0.242 C 
HETATM    2  O4  UNL     1      10.471  27.894   2.345  1.00  0.00    -0.271 OA
HETATM    3  N3  UNL     1      11.603  29.919   2.172  1.00  0.00    -0.346 N 
ATOM      4  H3  UNL     1      12.407  30.482   2.449  1.00  0.00     0.163 HD
ENDROOT
BRANCH   1   5
HETATM    5  C4  UNL     1      12.494  28.090   3.621  1.00  0.00     0.190 C 
BRANCH   5   6
HETATM    6  C2  UNL     1      11.829  27.765   4.948  1.00  0.00     0.074 C 
HETATM    7  C3  UNL     1      11.381  29.091   5.569  1.00  0.00     0.024 C 
BRANCH   6   8
HETATM    8  S1  UNL     1      12.794  26.787   6.066  1.00  0.00    -0.167 SA
HETATM    9  C1  UNL     1      14.353  27.525   6.557  1.00  0.00     0.090 C 
ENDBRANCH   6   8
ENDBRANCH   5   6
BRANCH   5  10
HETATM   10  N1  UNL     1      13.298  27.030   3.125  1.00  0.00    -0.345 N 
HETATM   11  C5  UNL     1      14.687  27.209   2.905  1.00  0.00     0.242 C 
HETATM   12  O1  UNL     1      15.219  28.344   3.166  1.00  0.00    -0.271 OA
ATOM     13  H1  UNL     1      12.870  26.126   2.924  1.00  0.00     0.163 HD
BRANCH  11  14
HETATM   14  C6  UNL     1      15.590  26.131   2.375  1.00  0.00     0.188 C 
BRANCH  14  15
HETATM   15  N2  UNL     1      14.806  24.940   2.216  1.00  0.00    -0.306 N 
ATOM     16  H2  UNL     1      14.111  24.621   2.891  1.00  0.00     0.173 HD
BRANCH  15  17
HETATM   17  S2  UNL     1      15.177  24.107   0.748  1.00  0.00     0.223 S 
HETATM   18  C7  UNL     1      15.723  22.467   1.148  1.00  0.00     0.185 C 
HETATM   19  O2  UNL     1      16.337  24.777   0.043  1.00  0.00    -0.206 OA
HETATM   20  O3  UNL     1      14.036  24.060  -0.210  1.00  0.00    -0.206 OA
ENDBRANCH  15  17
ENDBRANCH  14  15
BRANCH  14  21
HETATM   21  C8  UNL     1      16.554  25.846   3.545  1.00  0.00     0.010 C 
HETATM   22  C9  UNL     1      17.922  25.470   3.095  1.00  0.00     0.012 C 
HETATM   23  C10 UNL     1      15.945  24.725   4.404  1.00  0.00     0.012 C 
ENDBRANCH  14  21
ENDBRANCH  11  14
ENDBRANCH   5  10
ENDBRANCH   1   5
BRANCH   3  24
HETATM   24  C12 UNL     1      10.619  30.502   1.245  1.00  0.00     0.176 C 
BRANCH  24  25
HETATM   25  C13 UNL     1       9.764  31.482   2.013  1.00  0.00     0.035 C 
BRANCH  25  26
HETATM   26  C14 UNL     1       8.524  30.924   2.633  1.00  0.00     0.007 C 
BRANCH  26  27
HETATM   27  C15 UNL     1       7.472  32.026   2.653  1.00  0.00    -0.014 C 
HETATM   28  C16 UNL     1       6.152  31.460   2.259  1.00  0.00     0.004 C 
HETATM   29  C17 UNL     1       5.123  32.535   1.903  1.00  0.00     0.000 C 
HETATM   30  C18 UNL     1       5.577  33.482   0.851  1.00  0.00     0.000 C 
HETATM   31  C19 UNL     1       7.012  33.220   0.488  1.00  0.00     0.000 C 
HETATM   32  C20 UNL     1       7.856  33.166   1.757  1.00  0.00     0.004 C 
ENDBRANCH  26  27
ENDBRANCH  25  26
ENDBRANCH  24  25
BRANCH  24  33
HETATM   33  C21 UNL     1      11.425  31.209   0.225  1.00  0.00     0.240 C 
HETATM   34  O5  UNL     1      11.597  30.678  -0.938  1.00  0.00    -0.271 OA
HETATM   35  N4  UNL     1      12.035  32.466   0.425  1.00  0.00    -0.355 N 
ATOM     36  H4  UNL     1      11.936  32.934   1.326  1.00  0.00     0.162 HD
BRANCH  35  37
HETATM   37  C22 UNL     1      12.791  33.099  -0.618  1.00  0.00     0.084 C 
HETATM   38  C23 UNL     1      13.890  34.004  -0.138  1.00  0.00     0.025 C 
HETATM   39  C24 UNL     1      14.638  34.437  -1.405  1.00  0.00     0.002 C 
HETATM   40  C25 UNL     1      13.714  35.333  -2.177  1.00  0.00     0.000 C 
HETATM   41  C26 UNL     1      12.445  34.633  -2.588  1.00  0.00     0.002 C 
HETATM   42  C27 UNL     1      11.805  33.872  -1.480  1.00  0.00     0.025 C 
ENDBRANCH  35  37
ENDBRANCH  24  33
ENDBRANCH   3  24
TORSDOF 14
ENDMDL
MODEL 4
REMARK VINA RESULT: -7.136849618      3.836      8.486
REMARK  14 active torsions:
REMARK  status: ('A' for Active; 'I' for Inactive)
REMARK    1  A    between atoms: S1_2  and  C2_3 
REMARK    2  A    between atoms: C2_3  and  C4_5 
REMARK    3  A    between atoms: C4_5  and  N1_6 
REMARK    4  A    between atoms: C4_5  and  C11_20 
REMARK       I    between atoms: N1_6  and  C5_8 
REMARK    5  A    between atoms: C5_8  and  C6_10 
REMARK    6  A    between atoms: C6_10  and  N2_11 
REMARK    7  A    between atoms: C6_10  and  C8_17 
REMARK    8  A    between atoms: N2_11  and  S2_13 
REMARK       I    between atoms: C11_20  and  N3_22 
REMARK    9  A    between atoms: N3_22  and  C12_24 
REMARK   10  A    between atoms: C12_24  and  C13_25 
REMARK   11  A    between atoms: C12_24  and  C21_33 
REMARK   12  A    between atoms: C13_25  and  C14_26 
REMARK   13  A    between atoms: C14_26  and  C15_27 
REMARK       I    between atoms: C21_33  and  N4_35 
REMARK   14  A    between atoms: N4_35  and  C22_37 
ROOT
HETATM    1  C11 UNL     1      11.252  32.800   0.361  1.00  0.00     0.242 C 
HETATM    2  O4  UNL     1      10.814  32.312  -0.746  1.00  0.00    -0.271 OA
HETATM    3  N3  UNL     1      10.784  32.269   1.579  1.00  0.00    -0.346 N 
ATOM      4  H3  UNL     1      11.132  32.665   2.452  1.00  0.00     0.163 HD
ENDROOT
BRANCH   1   5
HETATM    5  C4  UNL     1      12.228  33.903   0.362  1.00  0.00     0.190 C 
BRANCH   5   6
HETATM    6  C2  UNL     1      13.417  33.511  -0.499  1.00  0.00     0.074 C 
HETATM    7  C3  UNL     1      14.541  33.078   0.447  1.00  0.00     0.024 C 
BRANCH   6   8
HETATM    8  S1  UNL     1      13.949  34.731  -1.667  1.00  0.00    -0.167 SA
HETATM    9  C1  UNL     1      13.075  34.705  -3.233  1.00  0.00     0.090 C 
ENDBRANCH   6   8
ENDBRANCH   5   6
BRANCH   5  10
HETATM   10  N1  UNL     1      11.712  35.189   0.048  1.00  0.00    -0.345 N 
HETATM   11  C5  UNL     1      11.548  36.175   1.054  1.00  0.00     0.242 C 
HETATM   12  O1  UNL     1      11.879  35.897   2.259  1.00  0.00    -0.271 OA
ATOM     13  H1  UNL     1      11.455  35.405  -0.915  1.00  0.00     0.163 HD
BRANCH  11  14
HETATM   14  C6  UNL     1      11.001  37.548   0.789  1.00  0.00     0.188 C 
BRANCH  14  15
HETATM   15  N2  UNL     1      10.816  38.200   2.054  1.00  0.00    -0.306 N 
ATOM     16  H2  UNL     1      10.380  37.758   2.863  1.00  0.00     0.173 HD
BRANCH  15  17
HETATM   17  S2  UNL     1      11.418  39.819   2.048  1.00  0.00     0.223 S 
HETATM   18  C7  UNL     1      13.157  39.780   2.396  1.00  0.00     0.185 C 
HETATM   19  O2  UNL     1      10.784  40.619   3.166  1.00  0.00    -0.206 OA
HETATM   20  O3  UNL     1      11.155  40.544   0.773  1.00  0.00    -0.206 OA
ENDBRANCH  15  17
ENDBRANCH  14  15
BRANCH  14  21
HETATM   21  C8  UNL     1       9.584  37.284   0.241  1.00  0.00     0.010 C 
HETATM   22  C9  UNL     1       9.283  38.058  -0.994  1.00  0.00     0.012 C 
HETATM   23  C10 UNL     1       8.572  37.627   1.349  1.00  0.00     0.012 C 
ENDBRANCH  14  21
ENDBRANCH  11  14
ENDBRANCH   5  10
ENDBRANCH   1   5
BRANCH   3  24
HETATM   24  C12 UNL     1       9.812  31.164   1.644  1.00  0.00     0.176 C 
BRANCH  24  25
HETATM   25  C13 UNL     1      10.084  30.365   2.897  1.00  0.00     0.035 C 
BRANCH  25  26
HETATM   26  C14 UNL     1      10.343  28.907   2.700  1.00  0.00     0.007 C 
BRANCH  26  27
HETATM   27  C15 UNL     1      10.871  28.343   4.014  1.00  0.00    -0.014 C 
HETATM   28  C16 UNL     1      10.861  29.412   5.052  1.00  0.00     0.004 C 
HETATM   29  C17 UNL     1      11.694  29.055   6.285  1.00  0.00     0.000 C 
HETATM   30  C18 UNL     1      13.102  28.691   5.978  1.00  0.00     0.000 C 
HETATM   31  C19 UNL     1      13.322  28.636   4.492  1.00  0.00     0.000 C 
HETATM   32  C20 UNL     1      12.246  27.768   3.851  1.00  0.00     0.004 C 
ENDBRANCH  26  27
ENDBRANCH  25  26
ENDBRANCH  24  25
BRANCH  24  33
HETATM   33  C21 UNL     1       8.489  31.821   1.726  1.00  0.00     0.240 C 
HETATM   34  O5  UNL     1       7.749  31.645   2.768  1.00  0.00    -0.271 OA
HETATM   35  N4  UNL     1       7.957  32.664   0.726  1.00  0.00    -0.355 N 
ATOM     36  H4  UNL     1       8.495  32.839  -0.121  1.00  0.00     0.162 HD
BRANCH  35  37
HETATM   37  C22 UNL     1       6.670  33.280   0.884  1.00  0.00     0.084 C 
HETATM   38  C23 UNL     1       5.533  32.530   0.248  1.00  0.00     0.025 C 
HETATM   39  C24 UNL     1       4.267  33.287   0.669  1.00  0.00     0.002 C 
HETATM   40  C25 UNL     1       4.291  34.612  -0.034  1.00  0.00     0.000 C 
HETATM   41  C26 UNL     1       5.491  35.442   0.344  1.00  0.00     0.002 C 
HETATM   42  C27 UNL     1       6.770  34.683   0.303  1.00  0.00     0.025 C 
ENDBRANCH  35  37
ENDBRANCH  24  33
ENDBRANCH   3  24
TORSDOF 14
ENDMDL
MODEL 5
REMARK VINA RESULT: -7.096750274      4.033      8.189
REMARK  14 active torsions:
REMARK  status: ('A' for Active; 'I' for Inactive)
REMARK    1  A    between atoms: S1_2  and  C2_3 
REMARK    2  A    between atoms: C2_3  and  C4_5 
REMARK    3  A    between atoms: C4_5  and  N1_6 
REMARK    4  A    between atoms: C4_5  and  C11_20 
REMARK       I    between atoms: N1_6  and  C5_8 
REMARK    5  A    between atoms: C5_8  and  C6_10 
REMARK    6  A    between atoms: C6_10  and  N2_11 
REMARK    7  A    between atoms: C6_10  and  C8_17 
REMARK    8  A    between atoms: N2_11  and  S2_13 
REMARK       I    between atoms: C11_20  and  N3_22 
REMARK    9  A    between atoms: N3_22  and  C12_24 
REMARK   10  A    between atoms: C12_24  and  C13_25 
REMARK   11  A    between atoms: C12_24  and  C21_33 
REMARK   12  A    between atoms: C13_25  and  C14_26 
REMARK   13  A    between atoms: C14_26  and  C15_27 
REMARK       I    between atoms: C21_33  and  N4_35 
REMARK   14  A    between atoms: N4_35  and  C22_37 
ROOT
HETATM    1  C11 UNL     1      10.136  33.627   2.176  1.00  0.00     0.242 C 
HETATM    2  O4  UNL     1       9.363  34.270   2.979  1.00  0.00    -0.271 OA
HETATM    3  N3  UNL     1      10.030  32.224   2.097  1.00  0.00    -0.346 N 
ATOM      4  H3  UNL     1      10.652  31.722   1.462  1.00  0.00     0.163 HD
ENDROOT
BRANCH   1   5
HETATM    5  C4  UNL     1      11.124  34.342   1.351  1.00  0.00     0.190 C 
BRANCH   5   6
HETATM    6  C2  UNL     1      11.699  33.380   0.325  1.00  0.00     0.074 C 
HETATM    7  C3  UNL     1      13.211  33.616   0.278  1.00  0.00     0.024 C 
BRANCH   6   8
HETATM    8  S1  UNL     1      10.955  33.444  -1.281  1.00  0.00    -0.167 SA
HETATM    9  C1  UNL     1       9.174  33.232  -1.294  1.00  0.00     0.090 C 
ENDBRANCH   6   8
ENDBRANCH   5   6
BRANCH   5  10
HETATM   10  N1  UNL     1      10.687  35.569   0.784  1.00  0.00    -0.345 N 
HETATM   11  C5  UNL     1      10.993  36.808   1.401  1.00  0.00     0.242 C 
HETATM   12  O1  UNL     1      11.679  36.814   2.482  1.00  0.00    -0.271 OA
ATOM     13  H1  UNL     1      10.146  35.558  -0.080  1.00  0.00     0.163 HD
BRANCH  11  14
HETATM   14  C6  UNL     1      10.555  38.138   0.857  1.00  0.00     0.188 C 
BRANCH  14  15
HETATM   15  N2  UNL     1       9.659  38.730   1.809  1.00  0.00    -0.306 N 
ATOM     16  H2  UNL     1       8.910  38.221   2.278  1.00  0.00     0.173 HD
BRANCH  15  17
HETATM   17  S2  UNL     1       9.998  40.404   2.069  1.00  0.00     0.223 S 
HETATM   18  C7  UNL     1       8.615  41.358   1.498  1.00  0.00     0.185 C 
HETATM   19  O2  UNL     1      11.182  40.837   1.232  1.00  0.00    -0.206 OA
HETATM   20  O3  UNL     1      10.308  40.731   3.489  1.00  0.00    -0.206 OA
ENDBRANCH  15  17
ENDBRANCH  14  15
BRANCH  14  21
HETATM   21  C8  UNL     1       9.687  37.771  -0.364  1.00  0.00     0.010 C 
HETATM   22  C9  UNL     1       9.972  38.615  -1.557  1.00  0.00     0.012 C 
HETATM   23  C10 UNL     1       8.210  37.900   0.043  1.00  0.00     0.012 C 
ENDBRANCH  14  21
ENDBRANCH  11  14
ENDBRANCH   5  10
ENDBRANCH   1   5
BRANCH   3  24
HETATM   24  C12 UNL     1       9.061  31.453   2.892  1.00  0.00     0.176 C 
BRANCH  24  25
HETATM   25  C13 UNL     1       7.835  31.210   2.042  1.00  0.00     0.035 C 
BRANCH  25  26
HETATM   26  C14 UNL     1       6.655  32.079   2.333  1.00  0.00     0.007 C 
BRANCH  26  27
HETATM   27  C15 UNL     1       6.480  33.038   1.161  1.00  0.00    -0.014 C 
HETATM   28  C16 UNL     1       6.172  34.402   1.678  1.00  0.00     0.004 C 
HETATM   29  C17 UNL     1       5.631  35.341   0.599  1.00  0.00     0.000 C 
HETATM   30  C18 UNL     1       4.439  34.815  -0.118  1.00  0.00     0.000 C 
HETATM   31  C19 UNL     1       4.140  33.408   0.316  1.00  0.00     0.000 C 
HETATM   32  C20 UNL     1       5.408  32.567   0.223  1.00  0.00     0.004 C 
ENDBRANCH  26  27
ENDBRANCH  25  26
ENDBRANCH  24  25
BRANCH  24  33
HETATM   33  C21 UNL     1       9.742  30.174   3.193  1.00  0.00     0.240 C 
HETATM   34  O5  UNL     1       9.783  29.243   2.302  1.00  0.00    -0.271 OA
HETATM   35  N4  UNL     1      10.383  29.885   4.418  1.00  0.00    -0.355 N 
ATOM     36  H4  UNL     1      10.381  30.582   5.162  1.00  0.00     0.162 HD
BRANCH  35  37
HETATM   37  C22 UNL     1      11.037  28.626   4.633  1.00  0.00     0.084 C 
HETATM   38  C23 UNL     1      10.660  27.932   5.911  1.00  0.00     0.025 C 
HETATM   39  C24 UNL     1      11.357  26.566   5.848  1.00  0.00     0.002 C 
HETATM   40  C25 UNL     1      12.831  26.819   5.971  1.00  0.00     0.000 C 
HETATM   41  C26 UNL     1      13.363  27.677   4.853  1.00  0.00     0.002 C 
HETATM   42  C27 UNL     1      12.535  28.887   4.593  1.00  0.00     0.025 C 
ENDBRANCH  35  37
ENDBRANCH  24  33
ENDBRANCH   3  24
TORSDOF 14
ENDMDL
