MODEL 1
REMARK VINA RESULT: -7.681208951      0.000      0.000
REMARK  9 active torsions:
REMARK  status: ('A' for Active; 'I' for Inactive)
REMARK    1  A    between atoms: C2_2  and  C4_4 
REMARK    2  A    between atoms: C4_4  and  C5_5 
REMARK    3  A    between atoms: C4_4  and  C18_23 
REMARK    4  A    between atoms: C5_5  and  N1_6 
REMARK    5  A    between atoms: N1_6  and  C6_8 
REMARK    6  A    between atoms: C6_8  and  O1_9 
REMARK    7  A    between atoms: C6_8  and  C7_11 
REMARK    8  A    between atoms: C7_11  and  C8_13 
REMARK       I    between atoms: C18_23  and  N2_25 
REMARK    9  A    between atoms: C21_28  and  C22_29 
ROOT
HETATM    1  N1  UNL     1      80.913  34.647  -1.799  1.00  0.00    -0.370 N 
ATOM      2  H1  UNL     1      81.195  34.246  -2.694  1.00  0.00     0.161 HD
ENDROOT
BRANCH   1   3
HETATM    3  C5  UNL     1      81.165  35.985  -1.468  1.00  0.00     0.073 C 
BRANCH   3   4
HETATM    4  C4  UNL     1      80.342  36.535  -0.327  1.00  0.00     0.119 C 
BRANCH   4   5
HETATM    5  C2  UNL     1      80.932  37.704   0.363  1.00  0.00    -0.005 C 
HETATM    6  C1  UNL     1      81.843  38.557  -0.484  1.00  0.00     0.011 C 
HETATM    7  C3  UNL     1      81.714  37.317   1.608  1.00  0.00     0.011 C 
ENDBRANCH   4   5
BRANCH   4   8
HETATM    8  C18 UNL     1      78.902  36.632  -0.644  1.00  0.00     0.229 C 
HETATM    9  O3  UNL     1      78.591  37.040  -1.807  1.00  0.00    -0.273 OA
HETATM   10  N2  UNL     1      77.833  36.318   0.214  1.00  0.00    -0.351 N 
HETATM   11  C19 UNL     1      78.105  35.833   1.562  1.00  0.00     0.126 C 
HETATM   12  C24 UNL     1      76.469  36.472  -0.260  1.00  0.00     0.126 C 
HETATM   13  C20 UNL     1      76.962  34.910   2.018  1.00  0.00     0.033 C 
HETATM   14  C21 UNL     1      76.435  34.210   0.811  1.00  0.00     0.078 C 
HETATM   15  C23 UNL     1      75.667  35.207  -0.029  1.00  0.00     0.033 C 
BRANCH  14  16
HETATM   16  C22 UNL     1      75.500  33.146   1.207  1.00  0.00     0.235 C 
HETATM   17  N3  UNL     1      74.214  32.984   0.587  1.00  0.00    -0.062 NA
HETATM   18  O4  UNL     1      75.827  32.344   2.119  1.00  0.00    -0.277 OA
ENDBRANCH  14  16
ENDBRANCH   4   8
ENDBRANCH   3   4
ENDBRANCH   1   3
BRANCH   1  19
HETATM   19  C6  UNL     1      80.234  33.876  -0.797  1.00  0.00     0.289 C 
BRANCH  19  20
HETATM   20  O1  UNL     1      79.065  33.361  -1.417  1.00  0.00    -0.370 OA
ATOM     21  H1  UNL     1      78.400  33.322  -0.739  1.00  0.00     0.212 HD
ENDBRANCH  19  20
BRANCH  19  22
HETATM   22  C7  UNL     1      81.010  32.822  -0.143  1.00  0.00     0.183 C 
HETATM   23  O2  UNL     1      81.977  32.312  -0.705  1.00  0.00    -0.292 OA
BRANCH  22  24
HETATM   24  C8  UNL     1      80.697  32.299   1.217  1.00  0.00     0.026 C 
HETATM   25  C9  UNL     1      81.084  33.375   2.253  1.00  0.00     0.022 C 
HETATM   26  C10 UNL     1      80.805  32.897   3.642  1.00  0.00    -0.013 C 
HETATM   27  C11 UNL     1      81.645  31.679   3.965  1.00  0.00     0.009 C 
HETATM   28  C15 UNL     1      79.357  32.495   3.837  1.00  0.00     0.009 C 
HETATM   29  C12 UNL     1      81.345  30.616   2.941  1.00  0.00    -0.013 C 
HETATM   30  C13 UNL     1      79.902  30.212   3.001  1.00  0.00     0.009 C 
HETATM   31  C17 UNL     1      81.600  31.135   1.525  1.00  0.00     0.022 C 
HETATM   32  C14 UNL     1      79.057  31.434   2.813  1.00  0.00    -0.013 C 
HETATM   33  C16 UNL     1      79.245  32.040   1.445  1.00  0.00     0.022 C 
ENDBRANCH  22  24
ENDBRANCH  19  22
ENDBRANCH   1  19
TORSDOF 9
ENDMDL
MODEL 2
REMARK VINA RESULT: -7.422361752      1.953      5.490
REMARK  9 active torsions:
REMARK  status: ('A' for Active; 'I' for Inactive)
REMARK    1  A    between atoms: C2_2  and  C4_4 
REMARK    2  A    between atoms: C4_4  and  C5_5 
REMARK    3  A    between atoms: C4_4  and  C18_23 
REMARK    4  A    between atoms: C5_5  and  N1_6 
REMARK    5  A    between atoms: N1_6  and  C6_8 
REMARK    6  A    between atoms: C6_8  and  O1_9 
REMARK    7  A    between atoms: C6_8  and  C7_11 
REMARK    8  A    between atoms: C7_11  and  C8_13 
REMARK       I    between atoms: C18_23  and  N2_25 
REMARK    9  A    between atoms: C21_28  and  C22_29 
ROOT
HETATM    1  N1  UNL     1      82.374  32.195   1.214  1.00  0.00    -0.370 N 
ATOM      2  H1  UNL     1      82.718  32.965   1.787  1.00  0.00     0.161 HD
ENDROOT
BRANCH   1   3
HETATM    3  C5  UNL     1      82.276  30.886   1.703  1.00  0.00     0.073 C 
BRANCH   3   4
HETATM    4  C4  UNL     1      81.097  30.620   2.609  1.00  0.00     0.119 C 
BRANCH   4   5
HETATM    5  C2  UNL     1      81.304  29.545   3.606  1.00  0.00    -0.005 C 
HETATM    6  C1  UNL     1      82.044  29.961   4.853  1.00  0.00     0.011 C 
HETATM    7  C3  UNL     1      82.038  28.345   3.031  1.00  0.00     0.011 C 
ENDBRANCH   4   5
BRANCH   4   8
HETATM    8  C18 UNL     1      80.463  31.855   3.113  1.00  0.00     0.229 C 
HETATM    9  O3  UNL     1      81.235  32.786   3.502  1.00  0.00    -0.273 OA
HETATM   10  N2  UNL     1      79.082  32.108   3.209  1.00  0.00    -0.351 N 
HETATM   11  C19 UNL     1      78.129  31.095   2.774  1.00  0.00     0.126 C 
HETATM   12  C24 UNL     1      78.626  33.383   3.732  1.00  0.00     0.126 C 
HETATM   13  C20 UNL     1      76.841  31.777   2.282  1.00  0.00     0.033 C 
HETATM   14  C21 UNL     1      77.222  33.088   1.680  1.00  0.00     0.078 C 
HETATM   15  C23 UNL     1      77.627  34.030   2.793  1.00  0.00     0.033 C 
BRANCH  14  16
HETATM   16  C22 UNL     1      76.072  33.685   0.986  1.00  0.00     0.235 C 
HETATM   17  N3  UNL     1      76.039  35.070   0.604  1.00  0.00    -0.062 NA
HETATM   18  O4  UNL     1      75.076  32.967   0.711  1.00  0.00    -0.277 OA
ENDBRANCH  14  16
ENDBRANCH   4   8
ENDBRANCH   3   4
ENDBRANCH   1   3
BRANCH   1  19
HETATM   19  C6  UNL     1      81.959  32.382  -0.148  1.00  0.00     0.289 C 
BRANCH  19  20
HETATM   20  O1  UNL     1      81.873  31.085  -0.718  1.00  0.00    -0.370 OA
ATOM     21  H1  UNL     1      82.471  30.536  -0.225  1.00  0.00     0.212 HD
ENDBRANCH  19  20
BRANCH  19  22
HETATM   22  C7  UNL     1      80.732  33.151  -0.360  1.00  0.00     0.183 C 
HETATM   23  O2  UNL     1      79.679  32.585  -0.649  1.00  0.00    -0.292 OA
BRANCH  22  24
HETATM   24  C8  UNL     1      80.665  34.634  -0.244  1.00  0.00     0.026 C 
HETATM   25  C9  UNL     1      79.271  35.097  -0.719  1.00  0.00     0.022 C 
HETATM   26  C10 UNL     1      79.151  36.585  -0.638  1.00  0.00    -0.013 C 
HETATM   27  C11 UNL     1      80.152  37.250  -1.559  1.00  0.00     0.009 C 
HETATM   28  C15 UNL     1      79.419  37.113   0.757  1.00  0.00     0.009 C 
HETATM   29  C12 UNL     1      81.531  36.782  -1.172  1.00  0.00    -0.013 C 
HETATM   30  C13 UNL     1      81.855  37.189   0.235  1.00  0.00     0.009 C 
HETATM   31  C17 UNL     1      81.623  35.257  -1.223  1.00  0.00     0.022 C 
HETATM   32  C14 UNL     1      80.796  36.645   1.144  1.00  0.00    -0.013 C 
HETATM   33  C16 UNL     1      80.788  35.137   1.157  1.00  0.00     0.022 C 
ENDBRANCH  22  24
ENDBRANCH  19  22
ENDBRANCH   1  19
TORSDOF 9
ENDMDL
MODEL 3
REMARK VINA RESULT: -7.329900219      3.622      8.138
REMARK  9 active torsions:
REMARK  status: ('A' for Active; 'I' for Inactive)
REMARK    1  A    between atoms: C2_2  and  C4_4 
REMARK    2  A    between atoms: C4_4  and  C5_5 
REMARK    3  A    between atoms: C4_4  and  C18_23 
REMARK    4  A    between atoms: C5_5  and  N1_6 
REMARK    5  A    between atoms: N1_6  and  C6_8 
REMARK    6  A    between atoms: C6_8  and  O1_9 
REMARK    7  A    between atoms: C6_8  and  C7_11 
REMARK    8  A    between atoms: C7_11  and  C8_13 
REMARK       I    between atoms: C18_23  and  N2_25 
REMARK    9  A    between atoms: C21_28  and  C22_29 
ROOT
HETATM    1  N1  UNL     1      75.604  36.618  -0.650  1.00  0.00    -0.370 N 
ATOM      2  H1  UNL     1      74.864  37.008  -0.066  1.00  0.00     0.161 HD
ENDROOT
BRANCH   1   3
HETATM    3  C5  UNL     1      75.922  35.254  -0.640  1.00  0.00     0.073 C 
BRANCH   3   4
HETATM    4  C4  UNL     1      76.198  34.663   0.723  1.00  0.00     0.119 C 
BRANCH   4   5
HETATM    5  C2  UNL     1      75.771  33.256   0.892  1.00  0.00    -0.005 C 
HETATM    6  C1  UNL     1      74.279  33.032   0.879  1.00  0.00     0.011 C 
HETATM    7  C3  UNL     1      76.304  32.631   2.171  1.00  0.00     0.011 C 
ENDBRANCH   4   5
BRANCH   4   8
HETATM    8  C18 UNL     1      77.542  34.996   1.239  1.00  0.00     0.229 C 
HETATM    9  O3  UNL     1      77.598  35.676   2.311  1.00  0.00    -0.273 OA
HETATM   10  N2  UNL     1      78.773  34.637   0.661  1.00  0.00    -0.351 N 
HETATM   11  C19 UNL     1      78.796  33.848  -0.564  1.00  0.00     0.126 C 
HETATM   12  C24 UNL     1      80.008  35.051   1.302  1.00  0.00     0.126 C 
HETATM   13  C20 UNL     1      80.074  32.993  -0.603  1.00  0.00     0.033 C 
HETATM   14  C21 UNL     1      80.422  32.633   0.802  1.00  0.00     0.078 C 
HETATM   15  C23 UNL     1      80.938  33.871   1.503  1.00  0.00     0.033 C 
BRANCH  14  16
HETATM   16  C22 UNL     1      81.496  31.629   0.820  1.00  0.00     0.235 C 
HETATM   17  N3  UNL     1      82.047  31.072  -0.385  1.00  0.00    -0.062 NA
HETATM   18  O4  UNL     1      81.956  31.237   1.922  1.00  0.00    -0.277 OA
ENDBRANCH  14  16
ENDBRANCH   4   8
ENDBRANCH   3   4
ENDBRANCH   1   3
BRANCH   1  19
HETATM   19  C6  UNL     1      76.386  37.432  -1.536  1.00  0.00     0.289 C 
BRANCH  19  20
HETATM   20  O1  UNL     1      77.724  37.354  -1.070  1.00  0.00    -0.370 OA
ATOM     21  H1  UNL     1      78.175  36.752  -1.651  1.00  0.00     0.212 HD
ENDBRANCH  19  20
BRANCH  19  22
HETATM   22  C7  UNL     1      76.291  37.124  -2.964  1.00  0.00     0.183 C 
HETATM   23  O2  UNL     1      75.993  35.994  -3.345  1.00  0.00    -0.292 OA
BRANCH  22  24
HETATM   24  C8  UNL     1      76.542  38.128  -4.036  1.00  0.00     0.026 C 
HETATM   25  C9  UNL     1      75.490  37.927  -5.147  1.00  0.00     0.022 C 
HETATM   26  C10 UNL     1      75.702  38.901  -6.260  1.00  0.00    -0.013 C 
HETATM   27  C11 UNL     1      77.050  38.678  -6.913  1.00  0.00     0.009 C 
HETATM   28  C15 UNL     1      75.677  40.340  -5.785  1.00  0.00     0.009 C 
HETATM   29  C12 UNL     1      78.113  38.807  -5.852  1.00  0.00    -0.013 C 
HETATM   30  C13 UNL     1      78.108  40.184  -5.258  1.00  0.00     0.009 C 
HETATM   31  C17 UNL     1      77.858  37.829  -4.704  1.00  0.00     0.022 C 
HETATM   32  C14 UNL     1      76.738  40.467  -4.725  1.00  0.00    -0.013 C 
HETATM   33  C16 UNL     1      76.375  39.543  -3.590  1.00  0.00     0.022 C 
ENDBRANCH  22  24
ENDBRANCH  19  22
ENDBRANCH   1  19
TORSDOF 9
ENDMDL
MODEL 4
REMARK VINA RESULT: -7.299172930      3.605      8.147
REMARK  9 active torsions:
REMARK  status: ('A' for Active; 'I' for Inactive)
REMARK    1  A    between atoms: C2_2  and  C4_4 
REMARK    2  A    between atoms: C4_4  and  C5_5 
REMARK    3  A    between atoms: C4_4  and  C18_23 
REMARK    4  A    between atoms: C5_5  and  N1_6 
REMARK    5  A    between atoms: N1_6  and  C6_8 
REMARK    6  A    between atoms: C6_8  and  O1_9 
REMARK    7  A    between atoms: C6_8  and  C7_11 
REMARK    8  A    between atoms: C7_11  and  C8_13 
REMARK       I    between atoms: C18_23  and  N2_25 
REMARK    9  A    between atoms: C21_28  and  C22_29 
ROOT
HETATM    1  N1  UNL     1      75.614  36.626  -0.644  1.00  0.00    -0.370 N 
ATOM      2  H1  UNL     1      74.908  37.054  -0.045  1.00  0.00     0.161 HD
ENDROOT
BRANCH   1   3
HETATM    3  C5  UNL     1      75.867  35.248  -0.633  1.00  0.00     0.073 C 
BRANCH   3   4
HETATM    4  C4  UNL     1      76.137  34.650   0.728  1.00  0.00     0.119 C 
BRANCH   4   5
HETATM    5  C2  UNL     1      75.718  33.239   0.886  1.00  0.00    -0.005 C 
HETATM    6  C1  UNL     1      74.229  33.002   0.831  1.00  0.00     0.011 C 
HETATM    7  C3  UNL     1      76.221  32.618   2.178  1.00  0.00     0.011 C 
ENDBRANCH   4   5
BRANCH   4   8
HETATM    8  C18 UNL     1      77.475  34.989   1.255  1.00  0.00     0.229 C 
HETATM    9  O3  UNL     1      77.519  35.659   2.334  1.00  0.00    -0.273 OA
HETATM   10  N2  UNL     1      78.712  34.645   0.682  1.00  0.00    -0.351 N 
HETATM   11  C19 UNL     1      78.748  33.868  -0.550  1.00  0.00     0.126 C 
HETATM   12  C24 UNL     1      79.940  35.062   1.335  1.00  0.00     0.126 C 
HETATM   13  C20 UNL     1      80.033  33.023  -0.590  1.00  0.00     0.033 C 
HETATM   14  C21 UNL     1      80.376  32.653   0.814  1.00  0.00     0.078 C 
HETATM   15  C23 UNL     1      80.878  33.887   1.530  1.00  0.00     0.033 C 
BRANCH  14  16
HETATM   16  C22 UNL     1      81.457  31.657   0.829  1.00  0.00     0.235 C 
HETATM   17  N3  UNL     1      82.051  31.149  -0.378  1.00  0.00    -0.062 NA
HETATM   18  O4  UNL     1      81.886  31.227   1.930  1.00  0.00    -0.277 OA
ENDBRANCH  14  16
ENDBRANCH   4   8
ENDBRANCH   3   4
ENDBRANCH   1   3
BRANCH   1  19
HETATM   19  C6  UNL     1      76.412  37.396  -1.554  1.00  0.00     0.289 C 
BRANCH  19  20
HETATM   20  O1  UNL     1      77.757  37.252  -1.124  1.00  0.00    -0.370 OA
ATOM     21  H1  UNL     1      78.071  36.438  -1.501  1.00  0.00     0.212 HD
ENDBRANCH  19  20
BRANCH  19  22
HETATM   22  C7  UNL     1      76.263  37.091  -2.978  1.00  0.00     0.183 C 
HETATM   23  O2  UNL     1      76.006  35.948  -3.352  1.00  0.00    -0.292 OA
BRANCH  22  24
HETATM   24  C8  UNL     1      76.406  38.112  -4.054  1.00  0.00     0.026 C 
HETATM   25  C9  UNL     1      77.806  37.963  -4.684  1.00  0.00     0.022 C 
HETATM   26  C10 UNL     1      78.012  38.976  -5.764  1.00  0.00    -0.013 C 
HETATM   27  C11 UNL     1      77.953  40.378  -5.197  1.00  0.00     0.009 C 
HETATM   28  C15 UNL     1      76.952  38.894  -6.845  1.00  0.00     0.009 C 
HETATM   29  C12 UNL     1      76.620  40.555  -4.516  1.00  0.00    -0.013 C 
HETATM   30  C13 UNL     1      75.497  40.405  -5.499  1.00  0.00     0.009 C 
HETATM   31  C17 UNL     1      76.411  39.487  -3.441  1.00  0.00     0.022 C 
HETATM   32  C14 UNL     1      75.621  39.069  -6.164  1.00  0.00    -0.013 C 
HETATM   33  C16 UNL     1      75.447  37.936  -5.184  1.00  0.00     0.022 C 
ENDBRANCH  22  24
ENDBRANCH  19  22
ENDBRANCH   1  19
TORSDOF 9
ENDMDL
MODEL 5
REMARK VINA RESULT: -7.298184047      3.354      8.038
REMARK  9 active torsions:
REMARK  status: ('A' for Active; 'I' for Inactive)
REMARK    1  A    between atoms: C2_2  and  C4_4 
REMARK    2  A    between atoms: C4_4  and  C5_5 
REMARK    3  A    between atoms: C4_4  and  C18_23 
REMARK    4  A    between atoms: C5_5  and  N1_6 
REMARK    5  A    between atoms: N1_6  and  C6_8 
REMARK    6  A    between atoms: C6_8  and  O1_9 
REMARK    7  A    between atoms: C6_8  and  C7_11 
REMARK    8  A    between atoms: C7_11  and  C8_13 
REMARK       I    between atoms: C18_23  and  N2_25 
REMARK    9  A    between atoms: C21_28  and  C22_29 
ROOT
HETATM    1  N1  UNL     1      77.234  36.082  -0.048  1.00  0.00    -0.370 N 
ATOM      2  H1  UNL     1      78.170  36.304   0.291  1.00  0.00     0.161 HD
ENDROOT
BRANCH   1   3
HETATM    3  C5  UNL     1      76.411  35.146   0.590  1.00  0.00     0.073 C 
BRANCH   3   4
HETATM    4  C4  UNL     1      77.080  33.846   0.969  1.00  0.00     0.119 C 
BRANCH   4   5
HETATM    5  C2  UNL     1      76.162  32.699   1.150  1.00  0.00    -0.005 C 
HETATM    6  C1  UNL     1      74.696  33.022   1.011  1.00  0.00     0.011 C 
HETATM    7  C3  UNL     1      76.342  32.009   2.492  1.00  0.00     0.011 C 
ENDBRANCH   4   5
BRANCH   4   8
HETATM    8  C18 UNL     1      78.305  33.576   0.188  1.00  0.00     0.229 C 
HETATM    9  O3  UNL     1      78.210  33.632  -1.078  1.00  0.00    -0.273 OA
HETATM   10  N2  UNL     1      79.574  33.260   0.706  1.00  0.00    -0.351 N 
HETATM   11  C19 UNL     1      79.770  33.186   2.148  1.00  0.00     0.126 C 
HETATM   12  C24 UNL     1      80.677  33.021  -0.208  1.00  0.00     0.126 C 
HETATM   13  C20 UNL     1      81.223  33.559   2.491  1.00  0.00     0.033 C 
HETATM   14  C21 UNL     1      81.682  34.563   1.489  1.00  0.00     0.078 C 
HETATM   15  C23 UNL     1      81.881  33.865   0.162  1.00  0.00     0.033 C 
BRANCH  14  16
HETATM   16  C22 UNL     1      82.977  35.131   1.893  1.00  0.00     0.235 C 
HETATM   17  N3  UNL     1      83.077  36.328   2.683  1.00  0.00    -0.062 NA
HETATM   18  O4  UNL     1      84.040  34.559   1.541  1.00  0.00    -0.277 OA
ENDBRANCH  14  16
ENDBRANCH   4   8
ENDBRANCH   3   4
ENDBRANCH   1   3
BRANCH   1  19
HETATM   19  C6  UNL     1      76.674  36.710  -1.211  1.00  0.00     0.289 C 
BRANCH  19  20
HETATM   20  O1  UNL     1      75.349  37.082  -0.863  1.00  0.00    -0.370 OA
ATOM     21  H1  UNL     1      74.873  36.271  -0.724  1.00  0.00     0.212 HD
ENDBRANCH  19  20
BRANCH  19  22
HETATM   22  C7  UNL     1      77.423  37.836  -1.773  1.00  0.00     0.183 C 
HETATM   23  O2  UNL     1      78.262  38.431  -1.100  1.00  0.00    -0.292 OA
BRANCH  22  24
HETATM   24  C8  UNL     1      77.232  38.332  -3.165  1.00  0.00     0.026 C 
HETATM   25  C9  UNL     1      78.619  38.654  -3.761  1.00  0.00     0.022 C 
HETATM   26  C10 UNL     1      78.487  39.173  -5.157  1.00  0.00    -0.013 C 
HETATM   27  C11 UNL     1      77.712  40.473  -5.171  1.00  0.00     0.009 C 
HETATM   28  C15 UNL     1      77.748  38.211  -6.066  1.00  0.00     0.009 C 
HETATM   29  C12 UNL     1      76.366  40.224  -4.542  1.00  0.00    -0.013 C 
HETATM   30  C13 UNL     1      75.588  39.213  -5.331  1.00  0.00     0.009 C 
HETATM   31  C17 UNL     1      76.520  39.658  -3.129  1.00  0.00     0.022 C 
HETATM   32  C14 UNL     1      76.404  37.962  -5.436  1.00  0.00    -0.013 C 
HETATM   33  C16 UNL     1      76.632  37.325  -4.089  1.00  0.00     0.022 C 
ENDBRANCH  22  24
ENDBRANCH  19  22
ENDBRANCH   1  19
TORSDOF 9
ENDMDL
