MODEL 1
REMARK VINA RESULT: -6.963066411      0.000      0.000
REMARK  9 active torsions:
REMARK  status: ('A' for Active; 'I' for Inactive)
REMARK    1  A    between atoms: C7_11  and  C8_12 
REMARK    2  A    between atoms: C8_12  and  C9_13 
REMARK    3  A    between atoms: C9_13  and  O2_14 
REMARK    4  A    between atoms: O2_14  and  C10_15 
REMARK    5  A    between atoms: C10_15  and  C11_16 
REMARK    6  A    between atoms: C11_16  and  O3_17 
REMARK    7  A    between atoms: C11_16  and  C12_19 
REMARK    8  A    between atoms: C12_19  and  C13_20 
REMARK    9  A    between atoms: C13_20  and  C14_21 
ROOT
HETATM    1  C1  UNL     1     -11.247  50.272   1.038  1.00  0.00     0.055 C 
HETATM    2  C2  UNL     1     -11.095  48.822   0.713  1.00  0.00     0.122 C 
HETATM    3  C3  UNL     1     -10.895  48.098   1.977  1.00  0.00     0.091 C 
HETATM    4  N1  UNL     1     -10.751  47.516   2.963  1.00  0.00    -0.195 NA
HETATM    5  N2  UNL     1      -9.943  48.644  -0.149  1.00  0.00    -0.339 N 
ATOM      6  H2  UNL     1      -9.020  48.481   0.255  1.00  0.00     0.164 HD
HETATM    7  C4  UNL     1     -10.105  48.698  -1.558  1.00  0.00     0.218 C 
HETATM    8  O1  UNL     1      -9.070  48.668  -2.268  1.00  0.00    -0.274 OA
HETATM    9  C5  UNL     1     -11.413  48.786  -2.240  1.00  0.00     0.103 C 
HETATM   10  C6  UNL     1     -12.556  48.929  -1.262  1.00  0.00     0.017 C 
HETATM   11  C7  UNL     1     -12.291  48.223   0.035  1.00  0.00     0.030 C 
ENDROOT
BRANCH  11  12
HETATM   12  C8  UNL     1     -12.092  46.748  -0.095  1.00  0.00     0.034 C 
BRANCH  12  13
HETATM   13  C9  UNL     1     -13.440  46.020   0.200  1.00  0.00     0.168 C 
BRANCH  13  14
HETATM   14  O2  UNL     1     -13.481  44.989  -0.686  1.00  0.00    -0.389 OA
BRANCH  14  15
HETATM   15  C10 UNL     1     -13.591  45.269  -2.005  1.00  0.00     0.199 C 
BRANCH  15  16
HETATM   16  C11 UNL     1     -13.484  44.102  -2.921  1.00  0.00     0.142 C 
BRANCH  16  17
HETATM   17  O3  UNL     1     -12.999  44.491  -4.200  1.00  0.00    -0.393 OA
ATOM     18  H3  UNL     1     -12.080  44.727  -4.164  1.00  0.00     0.210 HD
ENDBRANCH  16  17
BRANCH  16  19
HETATM   19  C12 UNL     1     -12.506  43.106  -2.386  1.00  0.00     0.034 C 
BRANCH  19  20
HETATM   20  C13 UNL     1     -11.087  43.213  -2.717  1.00  0.00     0.012 C 
BRANCH  20  21
HETATM   21  C14 UNL     1     -10.068  43.419  -1.665  1.00  0.00    -0.039 C 
HETATM   22  C15 UNL     1      -8.713  42.873  -2.077  1.00  0.00     0.014 C 
HETATM   23  C16 UNL     1      -7.653  43.250  -1.095  1.00  0.00    -0.013 C 
HETATM   24  C17 UNL     1      -8.055  42.724   0.255  1.00  0.00     0.009 C 
HETATM   25  C21 UNL     1      -7.474  44.752  -1.109  1.00  0.00     0.009 C 
HETATM   26  C18 UNL     1      -9.287  43.449   0.682  1.00  0.00    -0.013 C 
HETATM   27  C19 UNL     1      -9.109  44.944   0.721  1.00  0.00     0.009 C 
HETATM   28  C23 UNL     1     -10.446  43.155  -0.253  1.00  0.00     0.014 C 
HETATM   29  C20 UNL     1      -8.776  45.368  -0.701  1.00  0.00    -0.013 C 
HETATM   30  C22 UNL     1      -9.838  44.978  -1.683  1.00  0.00     0.014 C 
ENDBRANCH  20  21
ENDBRANCH  19  20
ENDBRANCH  16  19
ENDBRANCH  15  16
ENDBRANCH  14  15
ENDBRANCH  13  14
ENDBRANCH  12  13
ENDBRANCH  11  12
TORSDOF 9
ENDMDL
MODEL 2
REMARK VINA RESULT: -6.664365382      4.692      6.663
REMARK  9 active torsions:
REMARK  status: ('A' for Active; 'I' for Inactive)
REMARK    1  A    between atoms: C7_11  and  C8_12 
REMARK    2  A    between atoms: C8_12  and  C9_13 
REMARK    3  A    between atoms: C9_13  and  O2_14 
REMARK    4  A    between atoms: O2_14  and  C10_15 
REMARK    5  A    between atoms: C10_15  and  C11_16 
REMARK    6  A    between atoms: C11_16  and  O3_17 
REMARK    7  A    between atoms: C11_16  and  C12_19 
REMARK    8  A    between atoms: C12_19  and  C13_20 
REMARK    9  A    between atoms: C13_20  and  C14_21 
ROOT
HETATM    1  C1  UNL     1     -11.858  46.741  -2.334  1.00  0.00     0.055 C 
HETATM    2  C2  UNL     1     -11.726  45.351  -1.802  1.00  0.00     0.122 C 
HETATM    3  C3  UNL     1     -11.782  44.427  -2.945  1.00  0.00     0.091 C 
HETATM    4  N1  UNL     1     -11.810  43.692  -3.835  1.00  0.00    -0.195 NA
HETATM    5  N2  UNL     1     -12.823  45.082  -0.892  1.00  0.00    -0.339 N 
ATOM      6  H2  UNL     1     -13.696  44.688  -1.243  1.00  0.00     0.164 HD
HETATM    7  C4  UNL     1     -12.675  45.368   0.490  1.00  0.00     0.218 C 
HETATM    8  O1  UNL     1     -13.684  45.243   1.225  1.00  0.00    -0.274 OA
HETATM    9  C5  UNL     1     -11.408  45.803   1.116  1.00  0.00     0.103 C 
HETATM   10  C6  UNL     1     -10.314  46.020   0.097  1.00  0.00     0.017 C 
HETATM   11  C7  UNL     1     -10.438  45.097  -1.080  1.00  0.00     0.030 C 
ENDROOT
BRANCH  11  12
HETATM   12  C8  UNL     1     -10.346  43.645  -0.737  1.00  0.00     0.034 C 
BRANCH  12  13
HETATM   13  C9  UNL     1      -8.989  43.079  -1.255  1.00  0.00     0.168 C 
BRANCH  13  14
HETATM   14  O2  UNL     1      -8.530  42.294  -0.244  1.00  0.00    -0.389 OA
BRANCH  14  15
HETATM   15  C10 UNL     1      -7.246  42.435   0.158  1.00  0.00     0.199 C 
BRANCH  15  16
HETATM   16  C11 UNL     1      -6.983  43.572   1.080  1.00  0.00     0.142 C 
BRANCH  16  17
HETATM   17  O3  UNL     1      -8.082  43.794   1.955  1.00  0.00    -0.393 OA
ATOM     18  H3  UNL     1      -8.370  44.699   1.924  1.00  0.00     0.210 HD
ENDBRANCH  16  17
BRANCH  16  19
HETATM   19  C12 UNL     1      -5.805  43.275   1.953  1.00  0.00     0.034 C 
BRANCH  19  20
HETATM   20  C13 UNL     1      -5.953  43.241   3.406  1.00  0.00     0.012 C 
BRANCH  20  21
HETATM   21  C14 UNL     1      -5.084  44.053   4.285  1.00  0.00    -0.039 C 
HETATM   22  C15 UNL     1      -4.044  44.824   3.492  1.00  0.00     0.014 C 
HETATM   23  C16 UNL     1      -3.297  45.781   4.363  1.00  0.00    -0.013 C 
HETATM   24  C17 UNL     1      -2.653  45.000   5.474  1.00  0.00     0.009 C 
HETATM   25  C21 UNL     1      -4.250  46.842   4.868  1.00  0.00     0.009 C 
HETATM   26  C18 UNL     1      -3.739  44.433   6.326  1.00  0.00    -0.013 C 
HETATM   27  C19 UNL     1      -4.667  45.482   6.877  1.00  0.00     0.009 C 
HETATM   28  C23 UNL     1      -4.585  43.444   5.545  1.00  0.00     0.014 C 
HETATM   29  C20 UNL     1      -5.309  46.155   5.674  1.00  0.00    -0.013 C 
HETATM   30  C22 UNL     1      -6.048  45.188   4.799  1.00  0.00     0.014 C 
ENDBRANCH  20  21
ENDBRANCH  19  20
ENDBRANCH  16  19
ENDBRANCH  15  16
ENDBRANCH  14  15
ENDBRANCH  13  14
ENDBRANCH  12  13
ENDBRANCH  11  12
TORSDOF 9
ENDMDL
MODEL 3
REMARK VINA RESULT: -6.643609327      3.340      5.785
REMARK  9 active torsions:
REMARK  status: ('A' for Active; 'I' for Inactive)
REMARK    1  A    between atoms: C7_11  and  C8_12 
REMARK    2  A    between atoms: C8_12  and  C9_13 
REMARK    3  A    between atoms: C9_13  and  O2_14 
REMARK    4  A    between atoms: O2_14  and  C10_15 
REMARK    5  A    between atoms: C10_15  and  C11_16 
REMARK    6  A    between atoms: C11_16  and  O3_17 
REMARK    7  A    between atoms: C11_16  and  C12_19 
REMARK    8  A    between atoms: C12_19  and  C13_20 
REMARK    9  A    between atoms: C13_20  and  C14_21 
ROOT
HETATM    1  C1  UNL     1     -11.885  46.734  -2.307  1.00  0.00     0.055 C 
HETATM    2  C2  UNL     1     -11.772  45.339  -1.784  1.00  0.00     0.122 C 
HETATM    3  C3  UNL     1     -11.799  44.425  -2.936  1.00  0.00     0.091 C 
HETATM    4  N1  UNL     1     -11.807  43.697  -3.832  1.00  0.00    -0.195 NA
HETATM    5  N2  UNL     1     -12.892  45.065  -0.906  1.00  0.00    -0.339 N 
ATOM      6  H2  UNL     1     -13.757  44.678  -1.283  1.00  0.00     0.164 HD
HETATM    7  C4  UNL     1     -12.780  45.340   0.482  1.00  0.00     0.218 C 
HETATM    8  O1  UNL     1     -13.809  45.212   1.189  1.00  0.00    -0.274 OA
HETATM    9  C5  UNL     1     -11.529  45.765   1.146  1.00  0.00     0.103 C 
HETATM   10  C6  UNL     1     -10.408  45.987   0.157  1.00  0.00     0.017 C 
HETATM   11  C7  UNL     1     -10.503  45.074  -1.030  1.00  0.00     0.030 C 
ENDROOT
BRANCH  11  12
HETATM   12  C8  UNL     1     -10.426  43.619  -0.696  1.00  0.00     0.034 C 
BRANCH  12  13
HETATM   13  C9  UNL     1      -9.046  43.058  -1.160  1.00  0.00     0.168 C 
BRANCH  13  14
HETATM   14  O2  UNL     1      -8.548  42.414  -0.072  1.00  0.00    -0.389 OA
BRANCH  14  15
HETATM   15  C10 UNL     1      -7.206  42.336   0.080  1.00  0.00     0.199 C 
BRANCH  15  16
HETATM   16  C11 UNL     1      -6.657  42.988   1.298  1.00  0.00     0.142 C 
BRANCH  16  17
HETATM   17  O3  UNL     1      -5.242  43.106   1.229  1.00  0.00    -0.393 OA
ATOM     18  H3  UNL     1      -4.813  42.324   1.559  1.00  0.00     0.210 HD
ENDBRANCH  16  17
BRANCH  16  19
HETATM   19  C12 UNL     1      -7.188  44.379   1.429  1.00  0.00     0.034 C 
BRANCH  19  20
HETATM   20  C13 UNL     1      -6.279  45.497   1.679  1.00  0.00     0.012 C 
BRANCH  20  21
HETATM   21  C14 UNL     1      -6.441  46.788   0.977  1.00  0.00    -0.039 C 
HETATM   22  C15 UNL     1      -5.102  47.403   0.611  1.00  0.00     0.014 C 
HETATM   23  C16 UNL     1      -5.276  48.605  -0.258  1.00  0.00    -0.013 C 
HETATM   24  C17 UNL     1      -6.138  49.594   0.475  1.00  0.00     0.009 C 
HETATM   25  C21 UNL     1      -5.870  48.179  -1.583  1.00  0.00     0.009 C 
HETATM   26  C18 UNL     1      -7.496  48.997   0.625  1.00  0.00    -0.013 C 
HETATM   27  C19 UNL     1      -8.122  48.614  -0.690  1.00  0.00     0.009 C 
HETATM   28  C23 UNL     1      -7.453  47.749   1.487  1.00  0.00     0.014 C 
HETATM   29  C20 UNL     1      -7.207  47.566  -1.305  1.00  0.00    -0.013 C 
HETATM   30  C22 UNL     1      -7.029  46.367  -0.424  1.00  0.00     0.014 C 
ENDBRANCH  20  21
ENDBRANCH  19  20
ENDBRANCH  16  19
ENDBRANCH  15  16
ENDBRANCH  14  15
ENDBRANCH  13  14
ENDBRANCH  12  13
ENDBRANCH  11  12
TORSDOF 9
ENDMDL
MODEL 4
REMARK VINA RESULT: -6.635719358      3.330      5.848
REMARK  9 active torsions:
REMARK  status: ('A' for Active; 'I' for Inactive)
REMARK    1  A    between atoms: C7_11  and  C8_12 
REMARK    2  A    between atoms: C8_12  and  C9_13 
REMARK    3  A    between atoms: C9_13  and  O2_14 
REMARK    4  A    between atoms: O2_14  and  C10_15 
REMARK    5  A    between atoms: C10_15  and  C11_16 
REMARK    6  A    between atoms: C11_16  and  O3_17 
REMARK    7  A    between atoms: C11_16  and  C12_19 
REMARK    8  A    between atoms: C12_19  and  C13_20 
REMARK    9  A    between atoms: C13_20  and  C14_21 
ROOT
HETATM    1  C1  UNL     1     -11.893  46.736  -2.303  1.00  0.00     0.055 C 
HETATM    2  C2  UNL     1     -11.773  45.340  -1.782  1.00  0.00     0.122 C 
HETATM    3  C3  UNL     1     -11.802  44.429  -2.935  1.00  0.00     0.091 C 
HETATM    4  N1  UNL     1     -11.812  43.702  -3.833  1.00  0.00    -0.195 NA
HETATM    5  N2  UNL     1     -12.888  45.062  -0.899  1.00  0.00    -0.339 N 
ATOM      6  H2  UNL     1     -13.753  44.671  -1.273  1.00  0.00     0.164 HD
HETATM    7  C4  UNL     1     -12.770  45.334   0.489  1.00  0.00     0.218 C 
HETATM    8  O1  UNL     1     -13.795  45.202   1.200  1.00  0.00    -0.274 OA
HETATM    9  C5  UNL     1     -11.517  45.763   1.147  1.00  0.00     0.103 C 
HETATM   10  C6  UNL     1     -10.402  45.991   0.153  1.00  0.00     0.017 C 
HETATM   11  C7  UNL     1     -10.499  45.080  -1.035  1.00  0.00     0.030 C 
ENDROOT
BRANCH  11  12
HETATM   12  C8  UNL     1     -10.415  43.625  -0.705  1.00  0.00     0.034 C 
BRANCH  12  13
HETATM   13  C9  UNL     1      -9.032  43.072  -1.170  1.00  0.00     0.168 C 
BRANCH  13  14
HETATM   14  O2  UNL     1      -8.522  42.444  -0.077  1.00  0.00    -0.389 OA
BRANCH  14  15
HETATM   15  C10 UNL     1      -7.178  42.372   0.064  1.00  0.00     0.199 C 
BRANCH  15  16
HETATM   16  C11 UNL     1      -6.632  42.943   1.323  1.00  0.00     0.142 C 
BRANCH  16  17
HETATM   17  O3  UNL     1      -5.229  43.151   1.231  1.00  0.00    -0.393 OA
ATOM     18  H3  UNL     1      -4.862  43.409   2.069  1.00  0.00     0.210 HD
ENDBRANCH  16  17
BRANCH  16  19
HETATM   19  C12 UNL     1      -7.238  44.283   1.594  1.00  0.00     0.034 C 
BRANCH  19  20
HETATM   20  C13 UNL     1      -6.394  45.474   1.667  1.00  0.00     0.012 C 
BRANCH  20  21
HETATM   21  C14 UNL     1      -6.632  46.637   0.784  1.00  0.00    -0.039 C 
HETATM   22  C15 UNL     1      -7.419  47.727   1.488  1.00  0.00     0.014 C 
HETATM   23  C16 UNL     1      -7.491  48.967   0.657  1.00  0.00    -0.013 C 
HETATM   24  C17 UNL     1      -8.124  48.614  -0.660  1.00  0.00     0.009 C 
HETATM   25  C21 UNL     1      -6.101  49.545   0.504  1.00  0.00     0.009 C 
HETATM   26  C18 UNL     1      -7.200  47.691  -1.380  1.00  0.00    -0.013 C 
HETATM   27  C19 UNL     1      -5.826  48.272  -1.585  1.00  0.00     0.009 C 
HETATM   28  C23 UNL     1      -7.032  46.385  -0.625  1.00  0.00     0.014 C 
HETATM   29  C20 UNL     1      -5.260  48.523  -0.196  1.00  0.00    -0.013 C 
HETATM   30  C22 UNL     1      -5.200  47.277   0.636  1.00  0.00     0.014 C 
ENDBRANCH  20  21
ENDBRANCH  19  20
ENDBRANCH  16  19
ENDBRANCH  15  16
ENDBRANCH  14  15
ENDBRANCH  13  14
ENDBRANCH  12  13
ENDBRANCH  11  12
TORSDOF 9
ENDMDL
MODEL 5
REMARK VINA RESULT: -6.624342014      4.701      6.715
REMARK  9 active torsions:
REMARK  status: ('A' for Active; 'I' for Inactive)
REMARK    1  A    between atoms: C7_11  and  C8_12 
REMARK    2  A    between atoms: C8_12  and  C9_13 
REMARK    3  A    between atoms: C9_13  and  O2_14 
REMARK    4  A    between atoms: O2_14  and  C10_15 
REMARK    5  A    between atoms: C10_15  and  C11_16 
REMARK    6  A    between atoms: C11_16  and  O3_17 
REMARK    7  A    between atoms: C11_16  and  C12_19 
REMARK    8  A    between atoms: C12_19  and  C13_20 
REMARK    9  A    between atoms: C13_20  and  C14_21 
ROOT
HETATM    1  C1  UNL     1     -11.826  46.780  -2.349  1.00  0.00     0.055 C 
HETATM    2  C2  UNL     1     -11.715  45.377  -1.848  1.00  0.00     0.122 C 
HETATM    3  C3  UNL     1     -11.771  44.480  -3.012  1.00  0.00     0.091 C 
HETATM    4  N1  UNL     1     -11.801  43.766  -3.919  1.00  0.00    -0.195 NA
HETATM    5  N2  UNL     1     -12.821  45.100  -0.953  1.00  0.00    -0.339 N 
ATOM      6  H2  UNL     1     -13.696  44.724  -1.320  1.00  0.00     0.164 HD
HETATM    7  C4  UNL     1     -12.681  45.353   0.436  1.00  0.00     0.218 C 
HETATM    8  O1  UNL     1     -13.698  45.223   1.160  1.00  0.00    -0.274 OA
HETATM    9  C5  UNL     1     -11.415  45.759   1.082  1.00  0.00     0.103 C 
HETATM   10  C6  UNL     1     -10.310  45.986   0.077  1.00  0.00     0.017 C 
HETATM   11  C7  UNL     1     -10.435  45.091  -1.122  1.00  0.00     0.030 C 
ENDROOT
BRANCH  11  12
HETATM   12  C8  UNL     1     -10.363  43.631  -0.811  1.00  0.00     0.034 C 
BRANCH  12  13
HETATM   13  C9  UNL     1      -8.913  43.120  -1.075  1.00  0.00     0.168 C 
BRANCH  13  14
HETATM   14  O2  UNL     1      -8.606  42.364   0.013  1.00  0.00    -0.389 OA
BRANCH  14  15
HETATM   15  C10 UNL     1      -7.315  42.291   0.411  1.00  0.00     0.199 C 
BRANCH  15  16
HETATM   16  C11 UNL     1      -6.791  43.490   1.115  1.00  0.00     0.142 C 
BRANCH  16  17
HETATM   17  O3  UNL     1      -7.826  44.180   1.805  1.00  0.00    -0.393 OA
ATOM     18  H3  UNL     1      -7.703  45.121   1.760  1.00  0.00     0.210 HD
ENDBRANCH  16  17
BRANCH  16  19
HETATM   19  C12 UNL     1      -5.789  43.092   2.151  1.00  0.00     0.034 C 
BRANCH  19  20
HETATM   20  C13 UNL     1      -6.109  43.209   3.572  1.00  0.00     0.012 C 
BRANCH  20  21
HETATM   21  C14 UNL     1      -5.363  44.135   4.452  1.00  0.00    -0.039 C 
HETATM   22  C15 UNL     1      -4.591  43.392   5.527  1.00  0.00     0.014 C 
HETATM   23  C16 UNL     1      -3.697  44.314   6.288  1.00  0.00    -0.013 C 
HETATM   24  C17 UNL     1      -4.544  45.400   6.891  1.00  0.00     0.009 C 
HETATM   25  C21 UNL     1      -2.628  44.851   5.361  1.00  0.00     0.009 C 
HETATM   26  C18 UNL     1      -5.113  46.210   5.775  1.00  0.00    -0.013 C 
HETATM   27  C19 UNL     1      -4.060  46.793   4.871  1.00  0.00     0.009 C 
HETATM   28  C23 UNL     1      -6.041  45.375   4.911  1.00  0.00     0.014 C 
HETATM   29  C20 UNL     1      -3.317  45.611   4.269  1.00  0.00    -0.013 C 
HETATM   30  C22 UNL     1      -4.221  44.684   3.514  1.00  0.00     0.014 C 
ENDBRANCH  20  21
ENDBRANCH  19  20
ENDBRANCH  16  19
ENDBRANCH  15  16
ENDBRANCH  14  15
ENDBRANCH  13  14
ENDBRANCH  12  13
ENDBRANCH  11  12
TORSDOF 9
ENDMDL
