MODEL 1
REMARK VINA RESULT: -7.801882113      0.000      0.000
REMARK  8 active torsions:
REMARK  status: ('A' for Active; 'I' for Inactive)
REMARK    1  A    between atoms: O1_2  and  C2_3 
REMARK    2  A    between atoms: C4_5  and  C5_6 
REMARK    3  A    between atoms: C8_9  and  N1_10 
REMARK       I    between atoms: N1_10  and  C9_11 
REMARK    4  A    between atoms: N1_10  and  C13_17 
REMARK    5  A    between atoms: C9_11  and  C10_13 
REMARK    6  A    between atoms: C10_13  and  C11_14 
REMARK    7  A    between atoms: C11_14  and  C12_15 
REMARK    8  A    between atoms: C22_26  and  N2_27 
ROOT
HETATM    1  C5  UNL     1     -10.017  43.629  -1.234  1.00  0.00     0.021 C 
HETATM    2  C6  UNL     1      -9.041  43.433  -2.376  1.00  0.00     0.011 C 
HETATM    3  C7  UNL     1      -7.726  43.391  -1.584  1.00  0.00     0.026 C 
HETATM    4  C8  UNL     1      -7.894  44.597  -0.691  1.00  0.00     0.088 C 
HETATM    5  C19 UNL     1      -9.332  44.632  -0.307  1.00  0.00     0.034 C 
ENDROOT
BRANCH   1   6
HETATM    6  C4  UNL     1     -11.354  44.044  -1.654  1.00  0.00    -0.051 A 
HETATM    7  C3  UNL     1     -11.918  45.181  -1.091  1.00  0.00     0.046 A 
HETATM    8  C2  UNL     1     -13.169  45.622  -1.443  1.00  0.00     0.095 A 
HETATM    9  C22 UNL     1     -13.925  44.938  -2.386  1.00  0.00     0.068 A 
HETATM   10  C21 UNL     1     -13.381  43.816  -2.949  1.00  0.00     0.033 A 
HETATM   11  C20 UNL     1     -12.119  43.380  -2.588  1.00  0.00     0.010 A 
BRANCH   8  12
HETATM   12  O1  UNL     1     -13.693  46.761  -0.857  1.00  0.00    -0.354 OA
HETATM   13  C1  UNL     1     -12.885  47.833  -0.449  1.00  0.00     0.210 C 
ENDBRANCH   8  12
BRANCH   9  14
HETATM   14  N2  UNL     1     -15.200  45.443  -2.699  1.00  0.00    -0.331 N 
HETATM   15  C23 UNL     1     -15.875  45.172  -3.748  1.00  0.00     0.201 C 
HETATM   16  N3  UNL     1     -17.146  45.751  -3.937  1.00  0.00    -0.066 NA
HETATM   17  N4  UNL     1     -15.346  44.296  -4.716  1.00  0.00    -0.066 NA
ATOM     18  H2  UNL     1     -15.625  46.082  -2.026  1.00  0.00     0.168 HD
ENDBRANCH   9  14
ENDBRANCH   1   6
BRANCH   4  19
HETATM   19  N1  UNL     1      -6.966  44.580   0.419  1.00  0.00    -0.343 N 
HETATM   20  C9  UNL     1      -6.554  43.327   0.938  1.00  0.00     0.220 C 
HETATM   21  O2  UNL     1      -6.960  42.231   0.488  1.00  0.00    -0.273 OA
BRANCH  20  22
HETATM   22  C10 UNL     1      -5.583  43.259   2.085  1.00  0.00     0.103 C 
BRANCH  22  23
HETATM   23  C11 UNL     1      -6.327  43.082   3.378  1.00  0.00     0.020 C 
BRANCH  23  24
HETATM   24  C12 UNL     1      -5.430  43.632   4.489  1.00  0.00     0.086 C 
HETATM   25  S1  UNL     1      -4.233  44.819   3.879  1.00  0.00    -0.098 SA
ENDBRANCH  23  24
ENDBRANCH  22  23
ENDBRANCH  20  22
BRANCH  19  26
HETATM   26  C13 UNL     1      -6.452  45.803   1.012  1.00  0.00     0.087 C 
HETATM   27  C14 UNL     1      -7.307  46.339   2.109  1.00  0.00     0.025 C 
HETATM   28  C15 UNL     1      -7.930  47.679   1.785  1.00  0.00     0.002 C 
HETATM   29  C16 UNL     1      -6.883  48.738   1.550  1.00  0.00     0.000 C 
HETATM   30  C17 UNL     1      -5.793  48.145   0.706  1.00  0.00     0.002 C 
HETATM   31  C18 UNL     1      -6.290  46.895  -0.028  1.00  0.00     0.025 C 
ENDBRANCH  19  26
ENDBRANCH   4  19
TORSDOF 8
ENDMDL
MODEL 2
REMARK VINA RESULT: -7.744908672      2.495      3.596
REMARK  8 active torsions:
REMARK  status: ('A' for Active; 'I' for Inactive)
REMARK    1  A    between atoms: O1_2  and  C2_3 
REMARK    2  A    between atoms: C4_5  and  C5_6 
REMARK    3  A    between atoms: C8_9  and  N1_10 
REMARK       I    between atoms: N1_10  and  C9_11 
REMARK    4  A    between atoms: N1_10  and  C13_17 
REMARK    5  A    between atoms: C9_11  and  C10_13 
REMARK    6  A    between atoms: C10_13  and  C11_14 
REMARK    7  A    between atoms: C11_14  and  C12_15 
REMARK    8  A    between atoms: C22_26  and  N2_27 
ROOT
HETATM    1  C5  UNL     1      -7.675  43.462   1.055  1.00  0.00     0.021 C 
HETATM    2  C6  UNL     1      -6.662  42.475   0.512  1.00  0.00     0.011 C 
HETATM    3  C7  UNL     1      -5.536  42.677   1.537  1.00  0.00     0.026 C 
HETATM    4  C8  UNL     1      -5.450  44.184   1.572  1.00  0.00     0.088 C 
HETATM    5  C19 UNL     1      -6.850  44.681   1.462  1.00  0.00     0.034 C 
ENDROOT
BRANCH   1   6
HETATM    6  C4  UNL     1      -8.760  43.777   0.126  1.00  0.00    -0.051 A 
HETATM    7  C3  UNL     1      -9.872  44.465   0.593  1.00  0.00     0.046 A 
HETATM    8  C2  UNL     1     -10.923  44.789  -0.228  1.00  0.00     0.095 A 
HETATM    9  C22 UNL     1     -10.911  44.437  -1.571  1.00  0.00     0.068 A 
HETATM   10  C21 UNL     1      -9.820  43.759  -2.044  1.00  0.00     0.033 A 
HETATM   11  C20 UNL     1      -8.766  43.437  -1.208  1.00  0.00     0.010 A 
BRANCH   8  12
HETATM   12  O1  UNL     1     -12.012  45.476   0.279  1.00  0.00    -0.354 OA
HETATM   13  C1  UNL     1     -11.942  46.829   0.644  1.00  0.00     0.210 C 
ENDBRANCH   8  12
BRANCH   9  14
HETATM   14  N2  UNL     1     -12.021  44.798  -2.356  1.00  0.00    -0.331 N 
HETATM   15  C23 UNL     1     -12.943  44.011  -2.753  1.00  0.00     0.201 C 
HETATM   16  N3  UNL     1     -14.004  44.506  -3.539  1.00  0.00    -0.066 NA
HETATM   17  N4  UNL     1     -12.901  42.646  -2.404  1.00  0.00    -0.066 NA
ATOM     18  H2  UNL     1     -12.096  45.777  -2.633  1.00  0.00     0.168 HD
ENDBRANCH   9  14
ENDBRANCH   1   6
BRANCH   4  19
HETATM   19  N1  UNL     1      -4.725  44.657   2.730  1.00  0.00    -0.343 N 
HETATM   20  C9  UNL     1      -5.147  44.229   4.015  1.00  0.00     0.220 C 
HETATM   21  O2  UNL     1      -6.124  43.468   4.198  1.00  0.00    -0.273 OA
BRANCH  20  22
HETATM   22  C10 UNL     1      -4.417  44.686   5.248  1.00  0.00     0.103 C 
BRANCH  22  23
HETATM   23  C11 UNL     1      -5.358  45.421   6.160  1.00  0.00     0.020 C 
BRANCH  23  24
HETATM   24  C12 UNL     1      -5.456  46.857   5.639  1.00  0.00     0.086 C 
HETATM   25  S1  UNL     1      -7.115  47.285   5.116  1.00  0.00    -0.098 SA
ENDBRANCH  23  24
ENDBRANCH  22  23
ENDBRANCH  20  22
BRANCH  19  26
HETATM   26  C13 UNL     1      -3.586  45.551   2.615  1.00  0.00     0.087 C 
HETATM   27  C14 UNL     1      -3.955  46.935   2.202  1.00  0.00     0.025 C 
HETATM   28  C15 UNL     1      -3.410  47.323   0.845  1.00  0.00     0.002 C 
HETATM   29  C16 UNL     1      -1.903  47.295   0.821  1.00  0.00     0.000 C 
HETATM   30  C17 UNL     1      -1.442  46.059   1.537  1.00  0.00     0.002 C 
HETATM   31  C18 UNL     1      -2.570  45.024   1.619  1.00  0.00     0.025 C 
ENDBRANCH  19  26
ENDBRANCH   4  19
TORSDOF 8
ENDMDL
MODEL 3
REMARK VINA RESULT: -7.744004460      2.560      3.639
REMARK  8 active torsions:
REMARK  status: ('A' for Active; 'I' for Inactive)
REMARK    1  A    between atoms: O1_2  and  C2_3 
REMARK    2  A    between atoms: C4_5  and  C5_6 
REMARK    3  A    between atoms: C8_9  and  N1_10 
REMARK       I    between atoms: N1_10  and  C9_11 
REMARK    4  A    between atoms: N1_10  and  C13_17 
REMARK    5  A    between atoms: C9_11  and  C10_13 
REMARK    6  A    between atoms: C10_13  and  C11_14 
REMARK    7  A    between atoms: C11_14  and  C12_15 
REMARK    8  A    between atoms: C22_26  and  N2_27 
ROOT
HETATM    1  C5  UNL     1      -7.688  43.454   1.055  1.00  0.00     0.021 C 
HETATM    2  C6  UNL     1      -6.665  42.478   0.509  1.00  0.00     0.011 C 
HETATM    3  C7  UNL     1      -5.544  42.681   1.539  1.00  0.00     0.026 C 
HETATM    4  C8  UNL     1      -5.470  44.189   1.584  1.00  0.00     0.088 C 
HETATM    5  C19 UNL     1      -6.872  44.676   1.472  1.00  0.00     0.034 C 
ENDROOT
BRANCH   1   6
HETATM    6  C4  UNL     1      -8.772  43.767   0.125  1.00  0.00    -0.051 A 
HETATM    7  C3  UNL     1      -9.877  44.470   0.585  1.00  0.00     0.046 A 
HETATM    8  C2  UNL     1     -10.926  44.794  -0.238  1.00  0.00     0.095 A 
HETATM    9  C22 UNL     1     -10.921  44.424  -1.576  1.00  0.00     0.068 A 
HETATM   10  C21 UNL     1      -9.837  43.729  -2.043  1.00  0.00     0.033 A 
HETATM   11  C20 UNL     1      -8.784  43.409  -1.205  1.00  0.00     0.010 A 
BRANCH   8  12
HETATM   12  O1  UNL     1     -12.008  45.496   0.263  1.00  0.00    -0.354 OA
HETATM   13  C1  UNL     1     -11.923  46.851   0.616  1.00  0.00     0.210 C 
ENDBRANCH   8  12
BRANCH   9  14
HETATM   14  N2  UNL     1     -12.029  44.784  -2.363  1.00  0.00    -0.331 N 
HETATM   15  C23 UNL     1     -12.959  43.999  -2.749  1.00  0.00     0.201 C 
HETATM   16  N3  UNL     1     -14.016  44.494  -3.539  1.00  0.00    -0.066 NA
HETATM   17  N4  UNL     1     -12.926  42.639  -2.385  1.00  0.00    -0.066 NA
ATOM     18  H2  UNL     1     -12.097  45.760  -2.651  1.00  0.00     0.168 HD
ENDBRANCH   9  14
ENDBRANCH   1   6
BRANCH   4  19
HETATM   19  N1  UNL     1      -4.751  44.660   2.747  1.00  0.00    -0.343 N 
HETATM   20  C9  UNL     1      -5.177  44.226   4.028  1.00  0.00     0.220 C 
HETATM   21  O2  UNL     1      -6.151  43.460   4.203  1.00  0.00    -0.273 OA
BRANCH  20  22
HETATM   22  C10 UNL     1      -4.455  44.681   5.266  1.00  0.00     0.103 C 
BRANCH  22  23
HETATM   23  C11 UNL     1      -4.039  43.492   6.085  1.00  0.00     0.020 C 
BRANCH  23  24
HETATM   24  C12 UNL     1      -4.032  43.938   7.549  1.00  0.00     0.086 C 
HETATM   25  S1  UNL     1      -3.616  42.604   8.671  1.00  0.00    -0.098 SA
ENDBRANCH  23  24
ENDBRANCH  22  23
ENDBRANCH  20  22
BRANCH  19  26
HETATM   26  C13 UNL     1      -3.616  45.560   2.640  1.00  0.00     0.087 C 
HETATM   27  C14 UNL     1      -3.984  46.934   2.194  1.00  0.00     0.025 C 
HETATM   28  C15 UNL     1      -3.412  47.301   0.842  1.00  0.00     0.002 C 
HETATM   29  C16 UNL     1      -1.904  47.282   0.852  1.00  0.00     0.000 C 
HETATM   30  C17 UNL     1      -1.452  46.062   1.600  1.00  0.00     0.002 C 
HETATM   31  C18 UNL     1      -2.575  45.021   1.677  1.00  0.00     0.025 C 
ENDBRANCH  19  26
ENDBRANCH   4  19
TORSDOF 8
ENDMDL
MODEL 4
REMARK VINA RESULT: -7.516329116      1.764      2.536
REMARK  8 active torsions:
REMARK  status: ('A' for Active; 'I' for Inactive)
REMARK    1  A    between atoms: O1_2  and  C2_3 
REMARK    2  A    between atoms: C4_5  and  C5_6 
REMARK    3  A    between atoms: C8_9  and  N1_10 
REMARK       I    between atoms: N1_10  and  C9_11 
REMARK    4  A    between atoms: N1_10  and  C13_17 
REMARK    5  A    between atoms: C9_11  and  C10_13 
REMARK    6  A    between atoms: C10_13  and  C11_14 
REMARK    7  A    between atoms: C11_14  and  C12_15 
REMARK    8  A    between atoms: C22_26  and  N2_27 
ROOT
HETATM    1  C5  UNL     1      -8.509  43.396   0.152  1.00  0.00     0.021 C 
HETATM    2  C6  UNL     1      -7.321  42.591  -0.333  1.00  0.00     0.011 C 
HETATM    3  C7  UNL     1      -6.343  42.859   0.821  1.00  0.00     0.026 C 
HETATM    4  C8  UNL     1      -6.467  44.358   0.955  1.00  0.00     0.088 C 
HETATM    5  C19 UNL     1      -7.902  44.678   0.719  1.00  0.00     0.034 C 
ENDROOT
BRANCH   1   6
HETATM    6  C4  UNL     1      -9.525  43.637  -0.872  1.00  0.00    -0.051 A 
HETATM    7  C3  UNL     1     -10.326  44.767  -0.777  1.00  0.00     0.046 A 
HETATM    8  C2  UNL     1     -11.298  45.048  -1.704  1.00  0.00     0.095 A 
HETATM    9  C22 UNL     1     -11.517  44.202  -2.784  1.00  0.00     0.068 A 
HETATM   10  C21 UNL     1     -10.734  43.084  -2.889  1.00  0.00     0.033 A 
HETATM   11  C20 UNL     1      -9.757  42.810  -1.949  1.00  0.00     0.010 A 
BRANCH   8  12
HETATM   12  O1  UNL     1     -12.074  46.186  -1.572  1.00  0.00    -0.354 OA
HETATM   13  C1  UNL     1     -12.962  46.366  -0.500  1.00  0.00     0.210 C 
ENDBRANCH   8  12
BRANCH   9  14
HETATM   14  N2  UNL     1     -12.530  44.548  -3.696  1.00  0.00    -0.331 N 
HETATM   15  C23 UNL     1     -13.768  44.259  -3.583  1.00  0.00     0.201 C 
HETATM   16  N3  UNL     1     -14.682  44.668  -4.576  1.00  0.00    -0.066 NA
HETATM   17  N4  UNL     1     -14.220  43.530  -2.465  1.00  0.00    -0.066 NA
ATOM     18  H2  UNL     1     -12.251  45.078  -4.522  1.00  0.00     0.168 HD
ENDBRANCH   9  14
ENDBRANCH   1   6
BRANCH   4  19
HETATM   19  N1  UNL     1      -5.935  44.834   2.213  1.00  0.00    -0.343 N 
HETATM   20  C9  UNL     1      -6.262  44.127   3.397  1.00  0.00     0.220 C 
HETATM   21  O2  UNL     1      -6.997  43.114   3.411  1.00  0.00    -0.273 OA
BRANCH  20  22
HETATM   22  C10 UNL     1      -5.724  44.578   4.728  1.00  0.00     0.103 C 
BRANCH  22  23
HETATM   23  C11 UNL     1      -4.678  43.614   5.212  1.00  0.00     0.020 C 
BRANCH  23  24
HETATM   24  C12 UNL     1      -3.713  44.408   6.097  1.00  0.00     0.086 C 
HETATM   25  S1  UNL     1      -2.304  45.035   5.184  1.00  0.00    -0.098 SA
ENDBRANCH  23  24
ENDBRANCH  22  23
ENDBRANCH  20  22
BRANCH  19  26
HETATM   26  C13 UNL     1      -5.082  46.008   2.295  1.00  0.00     0.087 C 
HETATM   27  C14 UNL     1      -5.666  47.215   1.645  1.00  0.00     0.025 C 
HETATM   28  C15 UNL     1      -4.882  47.688   0.441  1.00  0.00     0.002 C 
HETATM   29  C16 UNL     1      -3.476  48.084   0.812  1.00  0.00     0.000 C 
HETATM   30  C17 UNL     1      -2.930  47.055   1.760  1.00  0.00     0.002 C 
HETATM   31  C18 UNL     1      -3.727  45.749   1.664  1.00  0.00     0.025 C 
ENDBRANCH  19  26
ENDBRANCH   4  19
TORSDOF 8
ENDMDL
MODEL 5
REMARK VINA RESULT: -7.164245843      2.774      4.123
REMARK  8 active torsions:
REMARK  status: ('A' for Active; 'I' for Inactive)
REMARK    1  A    between atoms: O1_2  and  C2_3 
REMARK    2  A    between atoms: C4_5  and  C5_6 
REMARK    3  A    between atoms: C8_9  and  N1_10 
REMARK       I    between atoms: N1_10  and  C9_11 
REMARK    4  A    between atoms: N1_10  and  C13_17 
REMARK    5  A    between atoms: C9_11  and  C10_13 
REMARK    6  A    between atoms: C10_13  and  C11_14 
REMARK    7  A    between atoms: C11_14  and  C12_15 
REMARK    8  A    between atoms: C22_26  and  N2_27 
ROOT
HETATM    1  C5  UNL     1      -7.610  43.922   1.162  1.00  0.00     0.021 C 
HETATM    2  C6  UNL     1      -6.560  42.876   0.851  1.00  0.00     0.011 C 
HETATM    3  C7  UNL     1      -5.520  43.233   1.923  1.00  0.00     0.026 C 
HETATM    4  C8  UNL     1      -5.432  44.730   1.746  1.00  0.00     0.088 C 
HETATM    5  C19 UNL     1      -6.816  45.194   1.453  1.00  0.00     0.034 C 
ENDROOT
BRANCH   1   6
HETATM    6  C4  UNL     1      -8.615  44.091   0.113  1.00  0.00    -0.051 A 
HETATM    7  C3  UNL     1      -9.732  44.875   0.366  1.00  0.00     0.046 A 
HETATM    8  C2  UNL     1     -10.710  45.071  -0.576  1.00  0.00     0.095 A 
HETATM    9  C22 UNL     1     -10.617  44.485  -1.832  1.00  0.00     0.068 A 
HETATM   10  C21 UNL     1      -9.520  43.708  -2.094  1.00  0.00     0.033 A 
HETATM   11  C20 UNL     1      -8.540  43.517  -1.137  1.00  0.00     0.010 A 
BRANCH   8  12
HETATM   12  O1  UNL     1     -11.808  45.861  -0.282  1.00  0.00    -0.354 OA
HETATM   13  C1  UNL     1     -12.812  45.447   0.607  1.00  0.00     0.210 C 
ENDBRANCH   8  12
BRANCH   9  14
HETATM   14  N2  UNL     1     -11.656  44.724  -2.749  1.00  0.00    -0.331 N 
HETATM   15  C23 UNL     1     -12.656  43.961  -2.961  1.00  0.00     0.201 C 
HETATM   16  N3  UNL     1     -13.629  44.323  -3.915  1.00  0.00    -0.066 NA
HETATM   17  N4  UNL     1     -12.787  42.757  -2.240  1.00  0.00    -0.066 NA
ATOM     18  H2  UNL     1     -11.605  45.585  -3.294  1.00  0.00     0.168 HD
ENDBRANCH   9  14
ENDBRANCH   1   6
BRANCH   4  19
HETATM   19  N1  UNL     1      -4.800  45.371   2.878  1.00  0.00    -0.343 N 
HETATM   20  C9  UNL     1      -5.573  45.600   4.045  1.00  0.00     0.220 C 
HETATM   21  O2  UNL     1      -6.780  45.282   4.142  1.00  0.00    -0.273 OA
BRANCH  20  22
HETATM   22  C10 UNL     1      -4.957  46.255   5.251  1.00  0.00     0.103 C 
BRANCH  22  23
HETATM   23  C11 UNL     1      -5.229  45.432   6.478  1.00  0.00     0.020 C 
BRANCH  23  24
HETATM   24  C12 UNL     1      -3.870  45.008   7.042  1.00  0.00     0.086 C 
HETATM   25  S1  UNL     1      -3.655  43.229   7.047  1.00  0.00    -0.098 SA
ENDBRANCH  23  24
ENDBRANCH  22  23
ENDBRANCH  20  22
BRANCH  19  26
HETATM   26  C13 UNL     1      -3.408  45.786   2.852  1.00  0.00     0.087 C 
HETATM   27  C14 UNL     1      -2.879  46.009   1.476  1.00  0.00     0.025 C 
HETATM   28  C15 UNL     1      -1.788  45.036   1.086  1.00  0.00     0.002 C 
HETATM   29  C16 UNL     1      -0.589  45.151   1.992  1.00  0.00     0.000 C 
HETATM   30  C17 UNL     1      -1.075  45.271   3.407  1.00  0.00     0.002 C 
HETATM   31  C18 UNL     1      -2.516  44.765   3.533  1.00  0.00     0.025 C 
ENDBRANCH  19  26
ENDBRANCH   4  19
TORSDOF 8
ENDMDL
