MODEL 1
REMARK VINA RESULT: -7.390776299      0.000      0.000
REMARK  11 active torsions:
REMARK  status: ('A' for Active; 'I' for Inactive)
REMARK    1  A    between atoms: C2_2  and  C3_3 
REMARK    2  A    between atoms: C3_3  and  N1_4 
REMARK       I    between atoms: N2_11  and  C10_12 
REMARK       I    between atoms: C10_12  and  N4_16 
REMARK    3  A    between atoms: N4_16  and  C11_18 
REMARK    4  A    between atoms: N5_22  and  C15_23 
REMARK    5  A    between atoms: C17_25  and  N6_26 
REMARK    6  A    between atoms: N6_26  and  C18_28 
REMARK    7  A    between atoms: C18_28  and  C19_29 
REMARK    8  A    between atoms: C19_29  and  C20_30 
REMARK    9  A    between atoms: C20_30  and  C21_31 
REMARK   10  A    between atoms: C21_31  and  C22_32 
REMARK   11  A    between atoms: C22_32  and  O1_33 
ROOT
HETATM    1  C11 UNL     1       6.231  33.818   0.879  1.00  0.00     0.203 C 
HETATM    2  C12 UNL     1       4.773  33.985   0.646  1.00  0.00     0.049 C 
HETATM    3  C13 UNL     1       4.146  32.864   1.436  1.00  0.00     0.024 C 
HETATM    4  C14 UNL     1       5.080  32.793   2.626  1.00  0.00     0.127 C 
HETATM    5  N5  UNL     1       6.399  33.089   2.090  1.00  0.00    -0.345 N 
ENDROOT
BRANCH   1   6
HETATM    6  N4  UNL     1       6.976  35.046   0.780  1.00  0.00    -0.205 N 
HETATM    7  C10 UNL     1       7.530  35.604  -0.377  1.00  0.00     0.671 C 
HETATM    8  N2  UNL     1       8.926  35.769  -0.482  1.00  0.00    -0.218 N 
HETATM    9  N3  UNL     1       6.792  35.977  -1.346  1.00  0.00    -0.235 N 
HETATM   10  C9  UNL     1       9.628  36.413   0.644  1.00  0.00     0.143 C 
HETATM   11  C25 UNL     1       9.751  35.369  -1.584  1.00  0.00     0.143 C 
HETATM   12  C8  UNL     1      10.489  35.278   1.215  1.00  0.00     0.052 C 
HETATM   13  C7  UNL     1      11.433  34.749   0.121  1.00  0.00     0.039 C 
HETATM   14  N1  UNL     1      12.720  34.751   0.659  1.00  0.00    -0.364 N 
HETATM   15  C6  UNL     1      11.119  33.267  -0.113  1.00  0.00     0.036 C 
HETATM   16  C26 UNL     1      11.211  35.433  -1.182  1.00  0.00     0.052 C 
HETATM   17  C4  UNL     1      13.025  33.540   1.312  1.00  0.00     0.064 C 
HETATM   18  C5  UNL     1      11.850  32.607   1.065  1.00  0.00     0.047 C 
ATOM     19  H32 UNL     1       7.196  36.385  -2.190  1.00  0.00     0.174 HD
ATOM     20  H31 UNL     1       5.781  35.858  -1.270  1.00  0.00     0.174 HD
ATOM     21  H4  UNL     1       7.114  35.565   1.647  1.00  0.00     0.179 HD
BRANCH  14  22
HETATM   22  C3  UNL     1      13.704  35.652   0.304  1.00  0.00     0.063 C 
BRANCH  22  23
HETATM   23  C2  UNL     1      14.957  35.069  -0.314  1.00  0.00     0.040 C 
HETATM   24  C1  UNL     1      14.861  35.097  -1.842  1.00  0.00     0.010 C 
ENDBRANCH  22  23
ENDBRANCH  14  22
ENDBRANCH   1   6
BRANCH   5  25
HETATM   25  C15 UNL     1       7.600  32.686   2.714  1.00  0.00     0.109 A 
HETATM   26  C16 UNL     1       8.031  31.395   2.629  1.00  0.00     0.096 A 
HETATM   27  C17 UNL     1       9.226  30.987   3.253  1.00  0.00     0.105 A 
HETATM   28  N7  UNL     1       9.874  31.952   3.911  1.00  0.00    -0.339 N 
HETATM   29  C24 UNL     1       9.444  33.239   3.995  1.00  0.00     0.183 A 
ATOM     30  H7  UNL     1      10.745  31.708   4.381  1.00  0.00     0.168 HD
HETATM   31  N8  UNL     1       8.313  33.582   3.391  1.00  0.00    -0.339 N 
ATOM     32  H8  UNL     1       7.986  34.546   3.448  1.00  0.00     0.168 HD
BRANCH  27  33
HETATM   33  N6  UNL     1       9.623  29.790   3.171  1.00  0.00    -0.373 N 
ATOM     34  H6  UNL     1       8.987  29.112   2.751  1.00  0.00     0.161 HD
BRANCH  33  35
HETATM   35  C18 UNL     1      10.927  29.296   3.635  1.00  0.00     0.148 C 
BRANCH  35  36
HETATM   36  C19 UNL     1      10.724  28.547   4.896  1.00  0.00    -0.008 C 
BRANCH  36  37
HETATM   37  C20 UNL     1      10.923  29.144   6.212  1.00  0.00    -0.004 C 
BRANCH  37  38
HETATM   38  C21 UNL     1      12.113  29.862   6.646  1.00  0.00    -0.001 C 
BRANCH  38  39
HETATM   39  C22 UNL     1      13.481  29.367   6.437  1.00  0.00     0.194 C 
BRANCH  39  40
HETATM   40  O1  UNL     1      14.440  29.520   7.374  1.00  0.00    -0.392 OA
HETATM   41  C23 UNL     1      14.204  30.665   8.141  1.00  0.00     0.201 C 
ENDBRANCH  39  40
ENDBRANCH  38  39
ENDBRANCH  37  38
ENDBRANCH  36  37
ENDBRANCH  35  36
ENDBRANCH  33  35
ENDBRANCH  27  33
ENDBRANCH   5  25
TORSDOF 11
ENDMDL
MODEL 2
REMARK VINA RESULT: -7.043036260      3.445      7.642
REMARK  11 active torsions:
REMARK  status: ('A' for Active; 'I' for Inactive)
REMARK    1  A    between atoms: C2_2  and  C3_3 
REMARK    2  A    between atoms: C3_3  and  N1_4 
REMARK       I    between atoms: N2_11  and  C10_12 
REMARK       I    between atoms: C10_12  and  N4_16 
REMARK    3  A    between atoms: N4_16  and  C11_18 
REMARK    4  A    between atoms: N5_22  and  C15_23 
REMARK    5  A    between atoms: C17_25  and  N6_26 
REMARK    6  A    between atoms: N6_26  and  C18_28 
REMARK    7  A    between atoms: C18_28  and  C19_29 
REMARK    8  A    between atoms: C19_29  and  C20_30 
REMARK    9  A    between atoms: C20_30  and  C21_31 
REMARK   10  A    between atoms: C21_31  and  C22_32 
REMARK   11  A    between atoms: C22_32  and  O1_33 
ROOT
HETATM    1  C11 UNL     1       8.412  32.352   2.437  1.00  0.00     0.203 C 
HETATM    2  C12 UNL     1       8.514  31.192   3.361  1.00  0.00     0.049 C 
HETATM    3  C13 UNL     1       9.924  30.694   3.168  1.00  0.00     0.024 C 
HETATM    4  C14 UNL     1      10.660  31.997   2.933  1.00  0.00     0.127 C 
HETATM    5  N5  UNL     1       9.729  32.829   2.187  1.00  0.00    -0.345 N 
ENDROOT
BRANCH   1   6
HETATM    6  N4  UNL     1       7.457  33.343   2.859  1.00  0.00    -0.205 N 
HETATM    7  C10 UNL     1       6.089  33.375   2.566  1.00  0.00     0.671 C 
HETATM    8  N2  UNL     1       5.552  34.440   1.815  1.00  0.00    -0.218 N 
HETATM    9  N3  UNL     1       5.308  32.454   2.973  1.00  0.00    -0.235 N 
HETATM   10  C9  UNL     1       5.901  35.813   2.226  1.00  0.00     0.143 C 
HETATM   11  C25 UNL     1       4.691  34.330   0.674  1.00  0.00     0.143 C 
HETATM   12  C8  UNL     1       6.760  36.321   1.059  1.00  0.00     0.052 C 
HETATM   13  C7  UNL     1       5.946  36.254  -0.245  1.00  0.00     0.039 C 
HETATM   14  N1  UNL     1       6.035  37.510  -0.845  1.00  0.00    -0.364 N 
HETATM   15  C6  UNL     1       6.666  35.314  -1.218  1.00  0.00     0.036 C 
HETATM   16  C26 UNL     1       4.594  35.670  -0.026  1.00  0.00     0.052 C 
HETATM   17  C4  UNL     1       7.145  37.610  -1.706  1.00  0.00     0.064 C 
HETATM   18  C5  UNL     1       7.774  36.226  -1.764  1.00  0.00     0.047 C 
ATOM     19  H32 UNL     1       4.311  32.476   2.760  1.00  0.00     0.174 HD
ATOM     20  H31 UNL     1       5.697  31.683   3.517  1.00  0.00     0.174 HD
ATOM     21  H4  UNL     1       7.817  34.105   3.433  1.00  0.00     0.179 HD
BRANCH  14  22
HETATM   22  C3  UNL     1       4.999  38.421  -0.888  1.00  0.00     0.063 C 
BRANCH  22  23
HETATM   23  C2  UNL     1       5.117  39.524  -1.918  1.00  0.00     0.040 C 
HETATM   24  C1  UNL     1       4.671  40.862  -1.322  1.00  0.00     0.010 C 
ENDBRANCH  22  23
ENDBRANCH  14  22
ENDBRANCH   1   6
BRANCH   5  25
HETATM   25  C15 UNL     1      10.134  33.906   1.369  1.00  0.00     0.109 A 
HETATM   26  C16 UNL     1      10.204  35.174   1.867  1.00  0.00     0.096 A 
HETATM   27  C17 UNL     1      10.605  36.251   1.053  1.00  0.00     0.105 A 
HETATM   28  N7  UNL     1      10.898  35.925  -0.208  1.00  0.00    -0.339 N 
HETATM   29  C24 UNL     1      10.827  34.661  -0.704  1.00  0.00     0.183 A 
ATOM     30  H7  UNL     1      11.192  36.670  -0.839  1.00  0.00     0.168 HD
HETATM   31  N8  UNL     1      10.447  33.673   0.096  1.00  0.00    -0.339 N 
ATOM     32  H8  UNL     1      10.395  32.723  -0.268  1.00  0.00     0.168 HD
BRANCH  27  33
HETATM   33  N6  UNL     1      10.670  37.425   1.519  1.00  0.00    -0.373 N 
ATOM     34  H6  UNL     1      10.327  37.572   2.468  1.00  0.00     0.161 HD
BRANCH  33  35
HETATM   35  C18 UNL     1      11.199  38.592   0.802  1.00  0.00     0.148 C 
BRANCH  35  36
HETATM   36  C19 UNL     1      10.060  39.422   0.349  1.00  0.00    -0.008 C 
BRANCH  36  37
HETATM   37  C20 UNL     1       8.784  39.468   1.054  1.00  0.00    -0.004 C 
BRANCH  37  38
HETATM   38  C21 UNL     1       8.504  40.250   2.250  1.00  0.00    -0.001 C 
BRANCH  38  39
HETATM   39  C22 UNL     1       9.415  41.274   2.782  1.00  0.00     0.194 C 
BRANCH  39  40
HETATM   40  O1  UNL     1      10.205  41.032   3.849  1.00  0.00    -0.392 OA
HETATM   41  C23 UNL     1      11.554  41.147   3.502  1.00  0.00     0.201 C 
ENDBRANCH  39  40
ENDBRANCH  38  39
ENDBRANCH  37  38
ENDBRANCH  36  37
ENDBRANCH  35  36
ENDBRANCH  33  35
ENDBRANCH  27  33
ENDBRANCH   5  25
TORSDOF 11
ENDMDL
MODEL 3
REMARK VINA RESULT: -6.957027077      1.049      1.278
REMARK  11 active torsions:
REMARK  status: ('A' for Active; 'I' for Inactive)
REMARK    1  A    between atoms: C2_2  and  C3_3 
REMARK    2  A    between atoms: C3_3  and  N1_4 
REMARK       I    between atoms: N2_11  and  C10_12 
REMARK       I    between atoms: C10_12  and  N4_16 
REMARK    3  A    between atoms: N4_16  and  C11_18 
REMARK    4  A    between atoms: N5_22  and  C15_23 
REMARK    5  A    between atoms: C17_25  and  N6_26 
REMARK    6  A    between atoms: N6_26  and  C18_28 
REMARK    7  A    between atoms: C18_28  and  C19_29 
REMARK    8  A    between atoms: C19_29  and  C20_30 
REMARK    9  A    between atoms: C20_30  and  C21_31 
REMARK   10  A    between atoms: C21_31  and  C22_32 
REMARK   11  A    between atoms: C22_32  and  O1_33 
ROOT
HETATM    1  C11 UNL     1       6.197  34.087   1.188  1.00  0.00     0.203 C 
HETATM    2  C12 UNL     1       4.723  34.183   1.024  1.00  0.00     0.049 C 
HETATM    3  C13 UNL     1       4.207  32.884   1.590  1.00  0.00     0.024 C 
HETATM    4  C14 UNL     1       5.188  32.654   2.722  1.00  0.00     0.127 C 
HETATM    5  N5  UNL     1       6.462  33.151   2.226  1.00  0.00    -0.345 N 
ENDROOT
BRANCH   1   6
HETATM    6  N4  UNL     1       6.847  35.364   1.317  1.00  0.00    -0.205 N 
HETATM    7  C10 UNL     1       7.086  36.296   0.300  1.00  0.00     0.671 C 
HETATM    8  N2  UNL     1       8.408  36.638  -0.048  1.00  0.00    -0.218 N 
HETATM    9  N3  UNL     1       6.123  36.852  -0.322  1.00  0.00    -0.235 N 
HETATM   10  C9  UNL     1       9.334  36.997   1.044  1.00  0.00     0.143 C 
HETATM   11  C25 UNL     1       8.961  36.672  -1.370  1.00  0.00     0.143 C 
HETATM   12  C8  UNL     1      10.351  35.847   1.034  1.00  0.00     0.052 C 
HETATM   13  C7  UNL     1      11.025  35.770  -0.348  1.00  0.00     0.039 C 
HETATM   14  N1  UNL     1      12.402  35.757  -0.128  1.00  0.00    -0.364 N 
HETATM   15  C6  UNL     1      10.722  34.397  -0.958  1.00  0.00     0.036 C 
HETATM   16  C26 UNL     1      10.471  36.777  -1.293  1.00  0.00     0.052 C 
HETATM   17  C4  UNL     1      12.902  34.450   0.035  1.00  0.00     0.064 C 
HETATM   18  C5  UNL     1      11.739  33.505  -0.230  1.00  0.00     0.047 C 
ATOM     19  H32 UNL     1       6.296  37.531  -1.063  1.00  0.00     0.174 HD
ATOM     20  H31 UNL     1       5.165  36.605  -0.070  1.00  0.00     0.174 HD
ATOM     21  H4  UNL     1       7.168  35.618   2.251  1.00  0.00     0.179 HD
BRANCH  14  22
HETATM   22  C3  UNL     1      13.237  36.825  -0.388  1.00  0.00     0.063 C 
BRANCH  22  23
HETATM   23  C2  UNL     1      14.380  36.566  -1.345  1.00  0.00     0.040 C 
HETATM   24  C1  UNL     1      13.901  36.682  -2.794  1.00  0.00     0.010 C 
ENDBRANCH  22  23
ENDBRANCH  14  22
ENDBRANCH   1   6
BRANCH   5  25
HETATM   25  C15 UNL     1       7.710  32.727   2.731  1.00  0.00     0.109 A 
HETATM   26  C16 UNL     1       8.052  31.408   2.731  1.00  0.00     0.096 A 
HETATM   27  C17 UNL     1       9.296  30.980   3.236  1.00  0.00     0.105 A 
HETATM   28  N7  UNL     1      10.079  31.958   3.700  1.00  0.00    -0.339 N 
HETATM   29  C24 UNL     1       9.737  33.274   3.700  1.00  0.00     0.183 A 
ATOM     30  H7  UNL     1      10.991  31.701   4.079  1.00  0.00     0.168 HD
HETATM   31  N8  UNL     1       8.557  33.634   3.213  1.00  0.00    -0.339 N 
ATOM     32  H8  UNL     1       8.295  34.619   3.208  1.00  0.00     0.168 HD
BRANCH  27  33
HETATM   33  N6  UNL     1       9.610  29.756   3.233  1.00  0.00    -0.373 N 
ATOM     34  H6  UNL     1       8.910  29.093   2.900  1.00  0.00     0.161 HD
BRANCH  33  35
HETATM   35  C18 UNL     1      10.902  29.212   3.670  1.00  0.00     0.148 C 
BRANCH  35  36
HETATM   36  C19 UNL     1      10.727  28.603   5.009  1.00  0.00    -0.008 C 
BRANCH  36  37
HETATM   37  C20 UNL     1      11.045  29.305   6.246  1.00  0.00    -0.004 C 
BRANCH  37  38
HETATM   38  C21 UNL     1      12.364  29.788   6.632  1.00  0.00    -0.001 C 
BRANCH  38  39
HETATM   39  C22 UNL     1      13.606  29.043   6.383  1.00  0.00     0.194 C 
BRANCH  39  40
HETATM   40  O1  UNL     1      14.291  29.175   5.228  1.00  0.00    -0.392 OA
HETATM   41  C23 UNL     1      14.349  27.957   4.544  1.00  0.00     0.201 C 
ENDBRANCH  39  40
ENDBRANCH  38  39
ENDBRANCH  37  38
ENDBRANCH  36  37
ENDBRANCH  35  36
ENDBRANCH  33  35
ENDBRANCH  27  33
ENDBRANCH   5  25
TORSDOF 11
ENDMDL
MODEL 4
REMARK VINA RESULT: -6.909850293      4.023      7.311
REMARK  11 active torsions:
REMARK  status: ('A' for Active; 'I' for Inactive)
REMARK    1  A    between atoms: C2_2  and  C3_3 
REMARK    2  A    between atoms: C3_3  and  N1_4 
REMARK       I    between atoms: N2_11  and  C10_12 
REMARK       I    between atoms: C10_12  and  N4_16 
REMARK    3  A    between atoms: N4_16  and  C11_18 
REMARK    4  A    between atoms: N5_22  and  C15_23 
REMARK    5  A    between atoms: C17_25  and  N6_26 
REMARK    6  A    between atoms: N6_26  and  C18_28 
REMARK    7  A    between atoms: C18_28  and  C19_29 
REMARK    8  A    between atoms: C19_29  and  C20_30 
REMARK    9  A    between atoms: C20_30  and  C21_31 
REMARK   10  A    between atoms: C21_31  and  C22_32 
REMARK   11  A    between atoms: C22_32  and  O1_33 
ROOT
HETATM    1  C11 UNL     1       9.344  36.429   1.145  1.00  0.00     0.203 C 
HETATM    2  C12 UNL     1       9.873  37.801   1.367  1.00  0.00     0.049 C 
HETATM    3  C13 UNL     1      11.121  37.582   2.185  1.00  0.00     0.024 C 
HETATM    4  C14 UNL     1      11.622  36.278   1.602  1.00  0.00     0.127 C 
HETATM    5  N5  UNL     1      10.424  35.515   1.293  1.00  0.00    -0.345 N 
ENDROOT
BRANCH   1   6
HETATM    6  N4  UNL     1       8.573  36.297  -0.063  1.00  0.00    -0.205 N 
HETATM    7  C10 UNL     1       9.006  36.539  -1.371  1.00  0.00     0.671 C 
HETATM    8  N2  UNL     1       8.407  37.559  -2.136  1.00  0.00    -0.218 N 
HETATM    9  N3  UNL     1       9.938  35.844  -1.894  1.00  0.00    -0.235 N 
HETATM   10  C9  UNL     1       6.933  37.599  -2.194  1.00  0.00     0.143 C 
HETATM   11  C25 UNL     1       9.088  38.583  -2.875  1.00  0.00     0.143 C 
HETATM   12  C8  UNL     1       6.588  38.893  -1.445  1.00  0.00     0.052 C 
HETATM   13  C7  UNL     1       7.265  40.087  -2.142  1.00  0.00     0.039 C 
HETATM   14  N1  UNL     1       6.274  41.043  -2.365  1.00  0.00    -0.364 N 
HETATM   15  C6  UNL     1       8.220  40.751  -1.144  1.00  0.00     0.036 C 
HETATM   16  C26 UNL     1       8.101  39.654  -3.295  1.00  0.00     0.052 C 
HETATM   17  C4  UNL     1       6.140  41.932  -1.280  1.00  0.00     0.064 C 
HETATM   18  C5  UNL     1       7.249  41.587  -0.297  1.00  0.00     0.047 C 
ATOM     19  H32 UNL     1      10.255  36.020  -2.848  1.00  0.00     0.174 HD
ATOM     20  H31 UNL     1      10.372  35.105  -1.340  1.00  0.00     0.174 HD
ATOM     21  H4  UNL     1       7.605  35.995   0.047  1.00  0.00     0.179 HD
BRANCH  14  22
HETATM   22  C3  UNL     1       5.739  41.326  -3.605  1.00  0.00     0.063 C 
BRANCH  22  23
HETATM   23  C2  UNL     1       4.421  40.659  -3.935  1.00  0.00     0.040 C 
HETATM   24  C1  UNL     1       4.654  39.405  -4.781  1.00  0.00     0.010 C 
ENDBRANCH  22  23
ENDBRANCH  14  22
ENDBRANCH   1   6
BRANCH   5  25
HETATM   25  C15 UNL     1      10.406  34.108   1.180  1.00  0.00     0.109 A 
HETATM   26  C16 UNL     1       9.546  33.358   1.928  1.00  0.00     0.096 A 
HETATM   27  C17 UNL     1       9.527  31.954   1.820  1.00  0.00     0.105 A 
HETATM   28  N7  UNL     1      10.401  31.445   0.947  1.00  0.00    -0.339 N 
HETATM   29  C24 UNL     1      11.257  32.193   0.202  1.00  0.00     0.183 A 
ATOM     30  H7  UNL     1      10.428  30.432   0.833  1.00  0.00     0.168 HD
HETATM   31  N8  UNL     1      11.242  33.513   0.332  1.00  0.00    -0.339 N 
ATOM     32  H8  UNL     1      11.880  34.080  -0.225  1.00  0.00     0.168 HD
BRANCH  27  33
HETATM   33  N6  UNL     1       8.728  31.262   2.514  1.00  0.00    -0.373 N 
ATOM     34  H6  UNL     1       8.840  30.249   2.486  1.00  0.00     0.161 HD
BRANCH  33  35
HETATM   35  C18 UNL     1       7.653  31.801   3.356  1.00  0.00     0.148 C 
BRANCH  35  36
HETATM   36  C19 UNL     1       6.361  31.587   2.664  1.00  0.00    -0.008 C 
BRANCH  36  37
HETATM   37  C20 UNL     1       5.305  32.592   2.631  1.00  0.00    -0.004 C 
BRANCH  37  38
HETATM   38  C21 UNL     1       5.263  33.748   1.747  1.00  0.00    -0.001 C 
BRANCH  38  39
HETATM   39  C22 UNL     1       5.907  35.032   2.059  1.00  0.00     0.194 C 
BRANCH  39  40
HETATM   40  O1  UNL     1       5.652  36.145   1.339  1.00  0.00    -0.392 OA
HETATM   41  C23 UNL     1       4.717  35.880   0.334  1.00  0.00     0.201 C 
ENDBRANCH  39  40
ENDBRANCH  38  39
ENDBRANCH  37  38
ENDBRANCH  36  37
ENDBRANCH  35  36
ENDBRANCH  33  35
ENDBRANCH  27  33
ENDBRANCH   5  25
TORSDOF 11
ENDMDL
MODEL 5
REMARK VINA RESULT: -6.907140987      1.833      5.862
REMARK  11 active torsions:
REMARK  status: ('A' for Active; 'I' for Inactive)
REMARK    1  A    between atoms: C2_2  and  C3_3 
REMARK    2  A    between atoms: C3_3  and  N1_4 
REMARK       I    between atoms: N2_11  and  C10_12 
REMARK       I    between atoms: C10_12  and  N4_16 
REMARK    3  A    between atoms: N4_16  and  C11_18 
REMARK    4  A    between atoms: N5_22  and  C15_23 
REMARK    5  A    between atoms: C17_25  and  N6_26 
REMARK    6  A    between atoms: N6_26  and  C18_28 
REMARK    7  A    between atoms: C18_28  and  C19_29 
REMARK    8  A    between atoms: C19_29  and  C20_30 
REMARK    9  A    between atoms: C20_30  and  C21_31 
REMARK   10  A    between atoms: C21_31  and  C22_32 
REMARK   11  A    between atoms: C22_32  and  O1_33 
ROOT
HETATM    1  C11 UNL     1      11.845  35.874   1.303  1.00  0.00     0.203 C 
HETATM    2  C12 UNL     1      12.912  36.910   1.311  1.00  0.00     0.049 C 
HETATM    3  C13 UNL     1      14.139  36.166   1.775  1.00  0.00     0.024 C 
HETATM    4  C14 UNL     1      13.910  34.810   1.140  1.00  0.00     0.127 C 
HETATM    5  N5  UNL     1      12.472  34.601   1.199  1.00  0.00    -0.345 N 
ENDROOT
BRANCH   1   6
HETATM    6  N4  UNL     1      10.796  36.135   0.353  1.00  0.00    -0.205 N 
HETATM    7  C10 UNL     1       9.768  37.077   0.469  1.00  0.00     0.671 C 
HETATM    8  N2  UNL     1       8.425  36.653   0.519  1.00  0.00    -0.218 N 
HETATM    9  N3  UNL     1      10.022  38.325   0.526  1.00  0.00    -0.235 N 
HETATM   10  C9  UNL     1       7.969  35.694  -0.505  1.00  0.00     0.143 C 
HETATM   11  C25 UNL     1       7.437  37.059   1.476  1.00  0.00     0.143 C 
HETATM   12  C8  UNL     1       7.690  34.421   0.307  1.00  0.00     0.052 C 
HETATM   13  C7  UNL     1       6.633  34.721   1.385  1.00  0.00     0.039 C 
HETATM   14  N1  UNL     1       5.640  33.750   1.262  1.00  0.00    -0.364 N 
HETATM   15  C6  UNL     1       7.257  34.457   2.760  1.00  0.00     0.036 C 
HETATM   16  C26 UNL     1       6.226  36.153   1.381  1.00  0.00     0.052 C 
HETATM   17  C4  UNL     1       5.911  32.610   2.043  1.00  0.00     0.064 C 
HETATM   18  C5  UNL     1       7.158  32.928   2.855  1.00  0.00     0.047 C 
ATOM     19  H32 UNL     1       9.273  39.012   0.610  1.00  0.00     0.174 HD
ATOM     20  H31 UNL     1      10.995  38.631   0.489  1.00  0.00     0.174 HD
ATOM     21  H4  UNL     1      10.803  35.571  -0.497  1.00  0.00     0.179 HD
BRANCH  14  22
HETATM   22  C3  UNL     1       4.383  33.992   0.744  1.00  0.00     0.063 C 
BRANCH  22  23
HETATM   23  C2  UNL     1       3.429  32.817   0.721  1.00  0.00     0.040 C 
HETATM   24  C1  UNL     1       2.151  33.153   1.494  1.00  0.00     0.010 C 
ENDBRANCH  22  23
ENDBRANCH  14  22
ENDBRANCH   1   6
BRANCH   5  25
HETATM   25  C15 UNL     1      11.870  33.325   1.160  1.00  0.00     0.109 A 
HETATM   26  C16 UNL     1      11.225  32.824   2.252  1.00  0.00     0.096 A 
HETATM   27  C17 UNL     1      10.625  31.550   2.219  1.00  0.00     0.105 A 
HETATM   28  N7  UNL     1      10.746  30.902   1.057  1.00  0.00    -0.339 N 
HETATM   29  C24 UNL     1      11.389  31.403  -0.031  1.00  0.00     0.183 A 
ATOM     30  H7  UNL     1      10.329  29.975   0.982  1.00  0.00     0.168 HD
HETATM   31  N8  UNL     1      11.938  32.608   0.041  1.00  0.00    -0.339 N 
ATOM     32  H8  UNL     1      12.420  32.990  -0.772  1.00  0.00     0.168 HD
BRANCH  27  33
HETATM   33  N6  UNL     1      10.027  31.090   3.233  1.00  0.00    -0.373 N 
ATOM     34  H6  UNL     1       9.251  31.635   3.608  1.00  0.00     0.161 HD
BRANCH  33  35
HETATM   35  C18 UNL     1      10.360  29.832   3.915  1.00  0.00     0.148 C 
BRANCH  35  36
HETATM   36  C19 UNL     1      11.121  30.152   5.145  1.00  0.00    -0.008 C 
BRANCH  36  37
HETATM   37  C20 UNL     1      11.454  29.150   6.151  1.00  0.00    -0.004 C 
BRANCH  37  38
HETATM   38  C21 UNL     1      12.433  28.083   5.994  1.00  0.00    -0.001 C 
BRANCH  38  39
HETATM   39  C22 UNL     1      13.537  28.131   5.024  1.00  0.00     0.194 C 
BRANCH  39  40
HETATM   40  O1  UNL     1      13.371  27.741   3.743  1.00  0.00    -0.392 OA
HETATM   41  C23 UNL     1      14.120  26.592   3.475  1.00  0.00     0.201 C 
ENDBRANCH  39  40
ENDBRANCH  38  39
ENDBRANCH  37  38
ENDBRANCH  36  37
ENDBRANCH  35  36
ENDBRANCH  33  35
ENDBRANCH  27  33
ENDBRANCH   5  25
TORSDOF 11
ENDMDL
