MODEL 1
REMARK VINA RESULT: -7.507166579      0.000      0.000
REMARK  1 active torsions:
REMARK  status: ('A' for Active; 'I' for Inactive)
REMARK    1  A    between atoms: C3_3  and  O1_4 
ROOT
HETATM    1  C1  UNL     1     -31.635 -20.923  60.382  1.00  0.00     0.014 C 
HETATM    2  C2  UNL     1     -32.850 -20.114  60.087  1.00  0.00     0.026 C 
HETATM    3  C3  UNL     1     -33.540 -20.513  58.811  1.00  0.00     0.126 C 
HETATM    4  C4  UNL     1     -33.956 -19.281  58.104  1.00  0.00     0.074 C 
HETATM    5  C5  UNL     1     -33.097 -18.141  58.699  1.00  0.00     0.107 C 
HETATM    6  C6  UNL     1     -31.941 -18.070  57.714  1.00  0.00     0.050 C 
HETATM    7  O2  UNL     1     -33.914 -17.052  58.636  1.00  0.00    -0.226 OA
HETATM    8  O3  UNL     1     -34.368 -16.511  59.771  1.00  0.00    -0.194 OA
HETATM    9  C7  UNL     1     -33.269 -16.529  60.590  1.00  0.00     0.260 C 
HETATM   10  O4  UNL     1     -32.433 -15.882  59.843  1.00  0.00    -0.313 OA
HETATM   11  C8  UNL     1     -31.312 -15.730  60.682  1.00  0.00     0.308 C 
HETATM   12  O5  UNL     1     -32.012 -15.263  61.780  1.00  0.00    -0.318 OA
HETATM   13  C9  UNL     1     -33.177 -15.848  61.901  1.00  0.00     0.365 C 
HETATM   14  O6  UNL     1     -34.411 -15.605  62.167  1.00  0.00    -0.201 OA
HETATM   15  O7  UNL     1     -35.177 -16.604  61.987  1.00  0.00    -0.227 OA
HETATM   16  C10 UNL     1     -34.677 -17.905  61.724  1.00  0.00     0.099 C 
HETATM   17  C11 UNL     1     -34.750 -18.569  63.120  1.00  0.00     0.049 C 
HETATM   18  C12 UNL     1     -35.856 -18.558  61.039  1.00  0.00     0.049 C 
HETATM   19  C13 UNL     1     -33.368 -17.938  61.098  1.00  0.00     0.109 C 
HETATM   20  C14 UNL     1     -32.675 -18.627  60.068  1.00  0.00     0.030 C 
HETATM   21  C15 UNL     1     -31.197 -18.270  60.349  1.00  0.00     0.007 C 
HETATM   22  C16 UNL     1     -30.707 -17.047  60.597  1.00  0.00     0.040 C 
HETATM   23 BR1  UNL     1     -28.814 -17.056  60.890  1.00  0.00    -0.051 Br
ENDROOT
BRANCH   3  24
HETATM   24  O1  UNL     1     -34.624 -21.342  58.997  1.00  0.00    -0.395 OA
ATOM     25  H1  UNL     1     -35.458 -20.938  58.787  1.00  0.00     0.210 HD
ENDBRANCH   3  24
TORSDOF 1
ENDMDL
MODEL 2
REMARK VINA RESULT: -7.323295788      2.104      4.515
REMARK  1 active torsions:
REMARK  status: ('A' for Active; 'I' for Inactive)
REMARK    1  A    between atoms: C3_3  and  O1_4 
ROOT
HETATM    1  C1  UNL     1     -33.303 -13.915  59.866  1.00  0.00     0.014 C 
HETATM    2  C2  UNL     1     -34.352 -14.971  59.857  1.00  0.00     0.026 C 
HETATM    3  C3  UNL     1     -35.444 -14.739  60.866  1.00  0.00     0.126 C 
HETATM    4  C4  UNL     1     -35.773 -16.035  61.500  1.00  0.00     0.074 C 
HETATM    5  C5  UNL     1     -34.560 -16.957  61.233  1.00  0.00     0.107 C 
HETATM    6  C6  UNL     1     -33.743 -16.778  62.504  1.00  0.00     0.050 C 
HETATM    7  O2  UNL     1     -35.111 -18.199  61.129  1.00  0.00    -0.226 OA
HETATM    8  O3  UNL     1     -35.100 -18.821  59.947  1.00  0.00    -0.194 OA
HETATM    9  C7  UNL     1     -33.843 -18.558  59.465  1.00  0.00     0.260 C 
HETATM   10  O4  UNL     1     -33.137 -19.010  60.452  1.00  0.00    -0.313 OA
HETATM   11  C8  UNL     1     -31.818 -18.909  59.966  1.00  0.00     0.308 C 
HETATM   12  O5  UNL     1     -32.063 -19.513  58.746  1.00  0.00    -0.318 OA
HETATM   13  C9  UNL     1     -33.241 -19.197  58.273  1.00  0.00     0.365 C 
HETATM   14  O6  UNL     1     -34.269 -19.702  57.689  1.00  0.00    -0.201 OA
HETATM   15  O7  UNL     1     -35.248 -18.896  57.592  1.00  0.00    -0.227 OA
HETATM   16  C10 UNL     1     -35.130 -17.519  57.907  1.00  0.00     0.099 C 
HETATM   17  C11 UNL     1     -34.942 -16.880  56.510  1.00  0.00     0.049 C 
HETATM   18  C12 UNL     1     -36.565 -17.143  58.199  1.00  0.00     0.049 C 
HETATM   19  C13 UNL     1     -34.090 -17.203  58.870  1.00  0.00     0.109 C 
HETATM   20  C14 UNL     1     -33.880 -16.383  60.010  1.00  0.00     0.030 C 
HETATM   21  C15 UNL     1     -32.342 -16.407  60.172  1.00  0.00     0.007 C 
HETATM   22  C16 UNL     1     -31.555 -17.492  60.141  1.00  0.00     0.040 C 
HETATM   23 BR1  UNL     1     -29.703 -17.067  60.385  1.00  0.00    -0.051 Br
ENDROOT
BRANCH   3  24
HETATM   24  O1  UNL     1     -36.580 -14.167  60.339  1.00  0.00    -0.395 OA
ATOM     25  H1  UNL     1     -37.328 -14.185  60.924  1.00  0.00     0.210 HD
ENDBRANCH   3  24
TORSDOF 1
ENDMDL
MODEL 3
REMARK VINA RESULT: -7.049196340      2.644      4.106
REMARK  1 active torsions:
REMARK  status: ('A' for Active; 'I' for Inactive)
REMARK    1  A    between atoms: C3_3  and  O1_4 
ROOT
HETATM    1  C1  UNL     1     -32.349 -18.009  57.641  1.00  0.00     0.014 C 
HETATM    2  C2  UNL     1     -32.448 -17.730  59.100  1.00  0.00     0.026 C 
HETATM    3  C3  UNL     1     -32.162 -18.932  59.960  1.00  0.00     0.126 C 
HETATM    4  C4  UNL     1     -33.142 -18.951  61.069  1.00  0.00     0.074 C 
HETATM    5  C5  UNL     1     -34.315 -18.051  60.614  1.00  0.00     0.107 C 
HETATM    6  C6  UNL     1     -35.278 -19.066  60.018  1.00  0.00     0.050 C 
HETATM    7  O2  UNL     1     -34.774 -17.504  61.774  1.00  0.00    -0.226 OA
HETATM    8  O3  UNL     1     -34.618 -16.193  61.984  1.00  0.00    -0.194 OA
HETATM    9  C7  UNL     1     -34.926 -15.642  60.767  1.00  0.00     0.260 C 
HETATM   10  O4  UNL     1     -36.107 -16.144  60.596  1.00  0.00    -0.313 OA
HETATM   11  C8  UNL     1     -36.555 -15.503  59.424  1.00  0.00     0.308 C 
HETATM   12  O5  UNL     1     -36.224 -14.220  59.822  1.00  0.00    -0.318 OA
HETATM   13  C9  UNL     1     -35.113 -14.195  60.514  1.00  0.00     0.365 C 
HETATM   14  O6  UNL     1     -34.579 -13.667  61.558  1.00  0.00    -0.201 OA
HETATM   15  O7  UNL     1     -33.440 -14.152  61.848  1.00  0.00    -0.227 OA
HETATM   16  C10 UNL     1     -32.748 -15.033  60.980  1.00  0.00     0.099 C 
HETATM   17  C11 UNL     1     -31.752 -14.079  60.276  1.00  0.00     0.049 C 
HETATM   18  C12 UNL     1     -31.822 -15.749  61.937  1.00  0.00     0.049 C 
HETATM   19  C13 UNL     1     -33.598 -15.799  60.086  1.00  0.00     0.109 C 
HETATM   20  C14 UNL     1     -33.728 -17.118  59.578  1.00  0.00     0.030 C 
HETATM   21  C15 UNL     1     -34.697 -16.935  58.389  1.00  0.00     0.007 C 
HETATM   22  C16 UNL     1     -35.850 -16.250  58.399  1.00  0.00     0.040 C 
HETATM   23 BR1  UNL     1     -36.741 -16.279  56.704  1.00  0.00    -0.051 Br
ENDROOT
BRANCH   3  24
HETATM   24  O1  UNL     1     -30.880 -18.969  60.460  1.00  0.00    -0.395 OA
ATOM     25  H1  UNL     1     -30.640 -18.200  60.965  1.00  0.00     0.210 HD
ENDBRANCH   3  24
TORSDOF 1
ENDMDL
MODEL 4
REMARK VINA RESULT: -7.020780102      2.443      4.850
REMARK  1 active torsions:
REMARK  status: ('A' for Active; 'I' for Inactive)
REMARK    1  A    between atoms: C3_3  and  O1_4 
ROOT
HETATM    1  C1  UNL     1     -32.795 -13.976  60.130  1.00  0.00     0.014 C 
HETATM    2  C2  UNL     1     -34.135 -14.616  60.238  1.00  0.00     0.026 C 
HETATM    3  C3  UNL     1     -34.810 -14.373  61.561  1.00  0.00     0.126 C 
HETATM    4  C4  UNL     1     -35.447 -15.636  61.995  1.00  0.00     0.074 C 
HETATM    5  C5  UNL     1     -34.753 -16.760  61.189  1.00  0.00     0.107 C 
HETATM    6  C6  UNL     1     -33.669 -17.216  62.153  1.00  0.00     0.050 C 
HETATM    7  O2  UNL     1     -35.734 -17.690  61.017  1.00  0.00    -0.226 OA
HETATM    8  O3  UNL     1     -36.217 -17.911  59.791  1.00  0.00    -0.194 OA
HETATM    9  C7  UNL     1     -35.092 -17.910  59.006  1.00  0.00     0.260 C 
HETATM   10  O4  UNL     1     -34.405 -18.821  59.615  1.00  0.00    -0.313 OA
HETATM   11  C8  UNL     1     -33.285 -18.984  58.775  1.00  0.00     0.308 C 
HETATM   12  O5  UNL     1     -34.000 -19.100  57.597  1.00  0.00    -0.318 OA
HETATM   13  C9  UNL     1     -35.050 -18.320  57.584  1.00  0.00     0.365 C 
HETATM   14  O6  UNL     1     -36.294 -18.299  57.260  1.00  0.00    -0.201 OA
HETATM   15  O7  UNL     1     -36.900 -17.244  57.632  1.00  0.00    -0.227 OA
HETATM   16  C10 UNL     1     -36.213 -16.123  58.161  1.00  0.00     0.099 C 
HETATM   17  C11 UNL     1     -36.116 -15.189  56.930  1.00  0.00     0.049 C 
HETATM   18  C12 UNL     1     -37.303 -15.435  58.952  1.00  0.00     0.049 C 
HETATM   19  C13 UNL     1     -34.944 -16.431  58.797  1.00  0.00     0.109 C 
HETATM   20  C14 UNL     1     -34.198 -16.085  59.954  1.00  0.00     0.030 C 
HETATM   21  C15 UNL     1     -32.785 -16.616  59.624  1.00  0.00     0.007 C 
HETATM   22  C16 UNL     1     -32.483 -17.829  59.136  1.00  0.00     0.040 C 
HETATM   23 BR1  UNL     1     -30.602 -18.072  58.874  1.00  0.00    -0.051 Br
ENDROOT
BRANCH   3  24
HETATM   24  O1  UNL     1     -35.739 -13.358  61.535  1.00  0.00    -0.395 OA
ATOM     25  H1  UNL     1     -36.216 -13.251  62.350  1.00  0.00     0.210 HD
ENDBRANCH   3  24
TORSDOF 1
ENDMDL
MODEL 5
REMARK VINA RESULT: -6.941583944      2.414      3.813
REMARK  1 active torsions:
REMARK  status: ('A' for Active; 'I' for Inactive)
REMARK    1  A    between atoms: C3_3  and  O1_4 
ROOT
HETATM    1  C1  UNL     1     -31.635 -18.300  57.395  1.00  0.00     0.014 C 
HETATM    2  C2  UNL     1     -31.635 -18.173  58.879  1.00  0.00     0.026 C 
HETATM    3  C3  UNL     1     -31.328 -19.463  59.590  1.00  0.00     0.126 C 
HETATM    4  C4  UNL     1     -32.236 -19.580  60.752  1.00  0.00     0.074 C 
HETATM    5  C5  UNL     1     -33.411 -18.614  60.470  1.00  0.00     0.107 C 
HETATM    6  C6  UNL     1     -34.437 -19.541  59.837  1.00  0.00     0.050 C 
HETATM    7  O2  UNL     1     -33.781 -18.182  61.708  1.00  0.00    -0.226 OA
HETATM    8  O3  UNL     1     -33.578 -16.904  62.041  1.00  0.00    -0.194 OA
HETATM    9  C7  UNL     1     -33.947 -16.222  60.910  1.00  0.00     0.260 C 
HETATM   10  O4  UNL     1     -35.149 -16.680  60.766  1.00  0.00    -0.313 OA
HETATM   11  C8  UNL     1     -35.653 -15.911  59.699  1.00  0.00     0.308 C 
HETATM   12  O5  UNL     1     -35.263 -14.684  60.205  1.00  0.00    -0.318 OA
HETATM   13  C9  UNL     1     -34.111 -14.753  60.821  1.00  0.00     0.365 C 
HETATM   14  O6  UNL     1     -33.499 -14.349  61.877  1.00  0.00    -0.201 OA
HETATM   15  O7  UNL     1     -32.357 -14.884  62.041  1.00  0.00    -0.227 OA
HETATM   16  C10 UNL     1     -31.744 -15.682  61.043  1.00  0.00     0.099 C 
HETATM   17  C11 UNL     1     -30.770 -14.680  60.377  1.00  0.00     0.049 C 
HETATM   18  C12 UNL     1     -30.780 -16.513  61.858  1.00  0.00     0.049 C 
HETATM   19  C13 UNL     1     -32.669 -16.333  60.132  1.00  0.00     0.109 C 
HETATM   20  C14 UNL     1     -32.866 -17.589  59.500  1.00  0.00     0.030 C 
HETATM   21  C15 UNL     1     -33.903 -17.263  58.402  1.00  0.00     0.007 C 
HETATM   22  C16 UNL     1     -35.035 -16.561  58.558  1.00  0.00     0.040 C 
HETATM   23 BR1  UNL     1     -36.031 -16.394  56.931  1.00  0.00    -0.051 Br
ENDROOT
BRANCH   3  24
HETATM   24  O1  UNL     1     -30.018 -19.578  59.998  1.00  0.00    -0.395 OA
ATOM     25  H1  UNL     1     -29.699 -20.473  60.022  1.00  0.00     0.210 HD
ENDBRANCH   3  24
TORSDOF 1
ENDMDL
