MODEL 1
REMARK VINA RESULT: -8.107811169      0.000      0.000
REMARK  1 active torsions:
REMARK  status: ('A' for Active; 'I' for Inactive)
REMARK    1  A    between atoms: N1_27  and  O6_28 
ROOT
HETATM    1  C1  UNL     1     -35.403 -17.574  63.632  1.00  0.00     0.025 C 
HETATM    2  C2  UNL     1     -35.196 -17.288  62.368  1.00  0.00     0.011 C 
HETATM    3  C3  UNL     1     -33.869 -16.795  62.032  1.00  0.00     0.082 C 
HETATM    4  C4  UNL     1     -33.404 -17.072  60.645  1.00  0.00     0.070 C 
HETATM    5  C5  UNL     1     -32.812 -18.502  60.689  1.00  0.00     0.041 C 
HETATM    6  C6  UNL     1     -31.663 -18.625  59.701  1.00  0.00     0.045 C 
HETATM    7  C7  UNL     1     -30.457 -17.970  60.294  1.00  0.00     0.103 C 
HETATM    8  C8  UNL     1     -30.959 -16.872  61.222  1.00  0.00     0.045 C 
HETATM    9  C9  UNL     1     -32.121 -16.218  60.498  1.00  0.00     0.041 C 
HETATM   10  O1  UNL     1     -29.668 -17.309  59.336  1.00  0.00    -0.228 OA
HETATM   11  O2  UNL     1     -28.712 -16.667  59.974  1.00  0.00    -0.231 OA
HETATM   12  C10 UNL     1     -27.794 -17.515  60.577  1.00  0.00     0.183 C 
HETATM   13  C11 UNL     1     -28.047 -17.577  62.067  1.00  0.00     0.004 C 
HETATM   14  C12 UNL     1     -29.057 -18.402  62.297  1.00  0.00    -0.020 C 
HETATM   15  C13 UNL     1     -29.550 -18.947  61.008  1.00  0.00     0.048 C 
HETATM   16  C14 UNL     1     -28.235 -18.940  60.205  1.00  0.00     0.051 C 
HETATM   17  O3  UNL     1     -34.116 -16.958  59.600  1.00  0.00    -0.324 OA
HETATM   18  C15 UNL     1     -35.330 -17.021  59.220  1.00  0.00     0.294 C 
HETATM   19  O4  UNL     1     -36.402 -17.020  60.173  1.00  0.00    -0.257 OA
HETATM   20  C16 UNL     1     -36.324 -17.504  61.478  1.00  0.00     0.292 C 
HETATM   21  O5  UNL     1     -37.304 -18.173  61.909  1.00  0.00    -0.259 OA
HETATM   22  C17 UNL     1     -35.669 -15.791  58.343  1.00  0.00     0.170 C 
HETATM   23 CL1  UNL     1     -35.391 -14.288  59.228  1.00  0.00    -0.117 Cl
HETATM   24  C18 UNL     1     -37.159 -15.871  58.039  1.00  0.00     0.029 C 
HETATM   25  C19 UNL     1     -37.510 -17.149  57.310  1.00  0.00     0.024 C 
HETATM   26  C20 UNL     1     -36.947 -18.372  58.046  1.00  0.00     0.155 C 
HETATM   27  N1  UNL     1     -35.604 -18.128  58.351  1.00  0.00    -0.235 N 
ENDROOT
BRANCH  27  28
HETATM   28  O6  UNL     1     -34.659 -18.603  57.623  1.00  0.00    -0.287 OA
ATOM     29  H6  UNL     1     -34.866 -19.247  56.955  1.00  0.00     0.244 HD
ENDBRANCH  27  28
TORSDOF 1
ENDMDL
MODEL 2
REMARK VINA RESULT: -7.558945127      2.813      4.501
REMARK  1 active torsions:
REMARK  status: ('A' for Active; 'I' for Inactive)
REMARK    1  A    between atoms: N1_27  and  O6_28 
ROOT
HETATM    1  C1  UNL     1     -37.081 -16.684  56.674  1.00  0.00     0.025 C 
HETATM    2  C2  UNL     1     -36.445 -17.662  57.276  1.00  0.00     0.011 C 
HETATM    3  C3  UNL     1     -35.058 -17.401  57.629  1.00  0.00     0.082 C 
HETATM    4  C4  UNL     1     -34.535 -18.146  58.806  1.00  0.00     0.070 C 
HETATM    5  C5  UNL     1     -34.957 -17.313  60.040  1.00  0.00     0.041 C 
HETATM    6  C6  UNL     1     -33.920 -17.442  61.142  1.00  0.00     0.045 C 
HETATM    7  C7  UNL     1     -32.752 -16.575  60.797  1.00  0.00     0.103 C 
HETATM    8  C8  UNL     1     -32.696 -16.490  59.277  1.00  0.00     0.045 C 
HETATM    9  C9  UNL     1     -33.009 -17.885  58.773  1.00  0.00     0.041 C 
HETATM   10  O1  UNL     1     -31.521 -17.139  61.179  1.00  0.00    -0.228 OA
HETATM   11  O2  UNL     1     -30.562 -16.362  60.720  1.00  0.00    -0.231 OA
HETATM   12  C10 UNL     1     -30.522 -15.121  61.339  1.00  0.00     0.183 C 
HETATM   13  C11 UNL     1     -31.112 -14.068  60.428  1.00  0.00     0.004 C 
HETATM   14  C12 UNL     1     -32.434 -14.132  60.497  1.00  0.00    -0.020 C 
HETATM   15  C13 UNL     1     -32.824 -15.208  61.441  1.00  0.00     0.048 C 
HETATM   16  C14 UNL     1     -31.626 -15.151  62.408  1.00  0.00     0.051 C 
HETATM   17  O3  UNL     1     -34.754 -19.373  59.050  1.00  0.00    -0.324 OA
HETATM   18  C15 UNL     1     -35.623 -20.282  58.843  1.00  0.00     0.294 C 
HETATM   19  O4  UNL     1     -36.668 -20.098  57.879  1.00  0.00    -0.257 OA
HETATM   20  C16 UNL     1     -37.217 -18.872  57.506  1.00  0.00     0.292 C 
HETATM   21  O5  UNL     1     -38.470 -18.816  57.359  1.00  0.00    -0.259 OA
HETATM   22  C17 UNL     1     -34.926 -21.566  58.332  1.00  0.00     0.170 C 
HETATM   23 CL1  UNL     1     -34.023 -21.247  56.847  1.00  0.00    -0.117 Cl
HETATM   24  C18 UNL     1     -36.033 -22.553  57.987  1.00  0.00     0.029 C 
HETATM   25  C19 UNL     1     -36.893 -22.867  59.190  1.00  0.00     0.024 C 
HETATM   26  C20 UNL     1     -37.381 -21.578  59.865  1.00  0.00     0.155 C 
HETATM   27  N1  UNL     1     -36.287 -20.723  60.035  1.00  0.00    -0.235 N 
ENDROOT
BRANCH  27  28
HETATM   28  O6  UNL     1     -35.679 -20.635  61.162  1.00  0.00    -0.287 OA
ATOM     29  H6  UNL     1     -36.025 -20.057  61.832  1.00  0.00     0.244 HD
ENDBRANCH  27  28
TORSDOF 1
ENDMDL
MODEL 3
REMARK VINA RESULT: -7.551523941      2.114      2.970
REMARK  1 active torsions:
REMARK  status: ('A' for Active; 'I' for Inactive)
REMARK    1  A    between atoms: N1_27  and  O6_28 
ROOT
HETATM    1  C1  UNL     1     -35.599 -21.800  58.547  1.00  0.00     0.025 C 
HETATM    2  C2  UNL     1     -35.731 -20.540  58.894  1.00  0.00     0.011 C 
HETATM    3  C3  UNL     1     -34.735 -20.024  59.821  1.00  0.00     0.082 C 
HETATM    4  C4  UNL     1     -34.457 -18.564  59.731  1.00  0.00     0.070 C 
HETATM    5  C5  UNL     1     -33.414 -18.414  58.598  1.00  0.00     0.041 C 
HETATM    6  C6  UNL     1     -32.487 -17.245  58.888  1.00  0.00     0.045 C 
HETATM    7  C7  UNL     1     -31.494 -17.674  59.920  1.00  0.00     0.103 C 
HETATM    8  C8  UNL     1     -32.168 -18.743  60.769  1.00  0.00     0.045 C 
HETATM    9  C9  UNL     1     -33.592 -18.266  60.979  1.00  0.00     0.041 C 
HETATM   10  O1  UNL     1     -31.162 -16.645  60.819  1.00  0.00    -0.228 OA
HETATM   11  O2  UNL     1     -30.386 -17.159  61.751  1.00  0.00    -0.231 OA
HETATM   12  C10 UNL     1     -29.142 -17.544  61.273  1.00  0.00     0.183 C 
HETATM   13  C11 UNL     1     -29.089 -19.048  61.119  1.00  0.00     0.004 C 
HETATM   14  C12 UNL     1     -29.698 -19.386  59.992  1.00  0.00    -0.020 C 
HETATM   15  C13 UNL     1     -30.195 -18.162  59.317  1.00  0.00     0.048 C 
HETATM   16  C14 UNL     1     -29.127 -17.156  59.786  1.00  0.00     0.051 C 
HETATM   17  O3  UNL     1     -35.339 -17.661  59.595  1.00  0.00    -0.324 OA
HETATM   18  C15 UNL     1     -36.505 -17.483  59.115  1.00  0.00     0.294 C 
HETATM   19  O4  UNL     1     -37.326 -18.597  58.736  1.00  0.00    -0.257 OA
HETATM   20  C16 UNL     1     -36.856 -19.836  58.303  1.00  0.00     0.292 C 
HETATM   21  O5  UNL     1     -37.455 -20.377  57.332  1.00  0.00    -0.259 OA
HETATM   22  C17 UNL     1     -37.395 -16.757  60.153  1.00  0.00     0.170 C 
HETATM   23 CL1  UNL     1     -37.496 -17.683  61.655  1.00  0.00    -0.117 Cl
HETATM   24  C18 UNL     1     -38.796 -16.698  59.560  1.00  0.00     0.029 C 
HETATM   25  C19 UNL     1     -38.811 -15.953  58.245  1.00  0.00     0.024 C 
HETATM   26  C20 UNL     1     -37.742 -16.504  57.290  1.00  0.00     0.155 C 
HETATM   27  N1  UNL     1     -36.533 -16.598  57.986  1.00  0.00    -0.235 N 
ENDROOT
BRANCH  27  28
HETATM   28  O6  UNL     1     -35.628 -15.695  57.874  1.00  0.00    -0.287 OA
ATOM     29  H6  UNL     1     -35.088 -15.672  57.093  1.00  0.00     0.244 HD
ENDBRANCH  27  28
TORSDOF 1
ENDMDL
MODEL 4
REMARK VINA RESULT: -7.500504438      3.418      5.176
REMARK  1 active torsions:
REMARK  status: ('A' for Active; 'I' for Inactive)
REMARK    1  A    between atoms: N1_27  and  O6_28 
ROOT
HETATM    1  C1  UNL     1     -31.020 -21.785  59.254  1.00  0.00     0.025 C 
HETATM    2  C2  UNL     1     -32.241 -21.376  59.001  1.00  0.00     0.011 C 
HETATM    3  C3  UNL     1     -32.774 -20.359  59.896  1.00  0.00     0.082 C 
HETATM    4  C4  UNL     1     -33.798 -19.451  59.312  1.00  0.00     0.070 C 
HETATM    5  C5  UNL     1     -32.997 -18.336  58.596  1.00  0.00     0.041 C 
HETATM    6  C6  UNL     1     -33.757 -17.022  58.656  1.00  0.00     0.045 C 
HETATM    7  C7  UNL     1     -33.589 -16.441  60.023  1.00  0.00     0.103 C 
HETATM    8  C8  UNL     1     -33.390 -17.608  60.981  1.00  0.00     0.045 C 
HETATM    9  C9  UNL     1     -34.362 -18.682  60.531  1.00  0.00     0.041 C 
HETATM   10  O1  UNL     1     -34.744 -15.782  60.482  1.00  0.00    -0.228 OA
HETATM   11  O2  UNL     1     -34.533 -15.422  61.731  1.00  0.00    -0.231 OA
HETATM   12  C10 UNL     1     -33.563 -14.438  61.859  1.00  0.00     0.183 C 
HETATM   13  C11 UNL     1     -32.270 -15.047  62.353  1.00  0.00     0.004 C 
HETATM   14  C12 UNL     1     -31.647 -15.619  61.332  1.00  0.00    -0.020 C 
HETATM   15  C13 UNL     1     -32.456 -15.441  60.102  1.00  0.00     0.048 C 
HETATM   16  C14 UNL     1     -33.127 -14.093  60.425  1.00  0.00     0.051 C 
HETATM   17  O3  UNL     1     -34.751 -19.816  58.557  1.00  0.00    -0.324 OA
HETATM   18  C15 UNL     1     -35.053 -20.721  57.713  1.00  0.00     0.294 C 
HETATM   19  O4  UNL     1     -34.257 -21.907  57.587  1.00  0.00    -0.257 OA
HETATM   20  C16 UNL     1     -32.893 -21.998  57.861  1.00  0.00     0.292 C 
HETATM   21  O5  UNL     1     -32.183 -22.668  57.061  1.00  0.00    -0.259 OA
HETATM   22  C17 UNL     1     -36.452 -21.297  58.039  1.00  0.00     0.170 C 
HETATM   23 CL1  UNL     1     -36.496 -21.961  59.676  1.00  0.00    -0.117 Cl
HETATM   24  C18 UNL     1     -36.682 -22.452  57.074  1.00  0.00     0.029 C 
HETATM   25  C19 UNL     1     -36.627 -21.993  55.634  1.00  0.00     0.024 C 
HETATM   26  C20 UNL     1     -35.348 -21.188  55.365  1.00  0.00     0.155 C 
HETATM   27  N1  UNL     1     -35.205 -20.230  56.374  1.00  0.00    -0.235 N 
ENDROOT
BRANCH  27  28
HETATM   28  O6  UNL     1     -35.561 -19.010  56.189  1.00  0.00    -0.287 OA
ATOM     29  H6  UNL     1     -35.447 -18.618  55.331  1.00  0.00     0.244 HD
ENDBRANCH  27  28
TORSDOF 1
ENDMDL
MODEL 5
REMARK VINA RESULT: -7.467988733      2.669      4.514
REMARK  1 active torsions:
REMARK  status: ('A' for Active; 'I' for Inactive)
REMARK    1  A    between atoms: N1_27  and  O6_28 
ROOT
HETATM    1  C1  UNL     1     -37.172 -15.263  56.495  1.00  0.00     0.025 C 
HETATM    2  C2  UNL     1     -37.070 -16.266  57.335  1.00  0.00     0.011 C 
HETATM    3  C3  UNL     1     -35.733 -16.550  57.834  1.00  0.00     0.082 C 
HETATM    4  C4  UNL     1     -35.660 -17.179  59.180  1.00  0.00     0.070 C 
HETATM    5  C5  UNL     1     -35.736 -16.005  60.186  1.00  0.00     0.041 C 
HETATM    6  C6  UNL     1     -34.926 -16.326  61.431  1.00  0.00     0.045 C 
HETATM    7  C7  UNL     1     -33.478 -16.131  61.116  1.00  0.00     0.103 C 
HETATM    8  C8  UNL     1     -33.306 -16.400  59.627  1.00  0.00     0.045 C 
HETATM    9  C9  UNL     1     -34.178 -17.602  59.322  1.00  0.00     0.041 C 
HETATM   10  O1  UNL     1     -32.648 -17.068  61.757  1.00  0.00    -0.228 OA
HETATM   11  O2  UNL     1     -31.420 -16.887  61.317  1.00  0.00    -0.231 OA
HETATM   12  C10 UNL     1     -30.868 -15.680  61.721  1.00  0.00     0.183 C 
HETATM   13  C11 UNL     1     -30.879 -14.695  60.573  1.00  0.00     0.004 C 
HETATM   14  C12 UNL     1     -32.093 -14.176  60.464  1.00  0.00    -0.020 C 
HETATM   15  C13 UNL     1     -32.971 -14.760  61.508  1.00  0.00     0.048 C 
HETATM   16  C14 UNL     1     -31.928 -15.013  62.613  1.00  0.00     0.051 C 
HETATM   17  O3  UNL     1     -36.414 -18.115  59.590  1.00  0.00    -0.324 OA
HETATM   18  C15 UNL     1     -37.583 -18.591  59.415  1.00  0.00     0.294 C 
HETATM   19  O4  UNL     1     -38.383 -18.189  58.295  1.00  0.00    -0.257 OA
HETATM   20  C16 UNL     1     -38.310 -16.956  57.650  1.00  0.00     0.292 C 
HETATM   21  O5  UNL     1     -39.398 -16.407  57.320  1.00  0.00    -0.259 OA
HETATM   22  C17 UNL     1     -37.502 -20.126  59.228  1.00  0.00     0.170 C 
HETATM   23 CL1  UNL     1     -36.470 -20.540  57.855  1.00  0.00    -0.117 Cl
HETATM   24  C18 UNL     1     -38.911 -20.598  58.898  1.00  0.00     0.029 C 
HETATM   25  C19 UNL     1     -39.885 -20.256  60.002  1.00  0.00     0.024 C 
HETATM   26  C20 UNL     1     -39.787 -18.770  60.377  1.00  0.00     0.155 C 
HETATM   27  N1  UNL     1     -38.439 -18.446  60.557  1.00  0.00    -0.235 N 
ENDROOT
BRANCH  27  28
HETATM   28  O6  UNL     1     -37.918 -18.388  61.729  1.00  0.00    -0.287 OA
ATOM     29  H6  UNL     1     -37.397 -17.631  61.969  1.00  0.00     0.244 HD
ENDBRANCH  27  28
TORSDOF 1
ENDMDL
