MODEL 1
REMARK VINA RESULT: -5.488580582      0.000      0.000
REMARK  3 active torsions:
REMARK  status: ('A' for Active; 'I' for Inactive)
REMARK    1  A    between atoms: O1_1  and  C1_3 
REMARK    2  A    between atoms: C4_6  and  O2_7 
REMARK    3  A    between atoms: C5_9  and  O3_10 
ROOT
HETATM    1  C1  UNL     1      -9.432   8.841  11.081  1.00  0.00     0.125 C 
HETATM    2  C2  UNL     1      -8.873   8.076   9.901  1.00  0.00     0.035 C 
HETATM    3  C3  UNL     1      -7.378   8.284  10.007  1.00  0.00     0.043 C 
HETATM    4  C4  UNL     1      -7.156   8.129  11.502  1.00  0.00     0.089 C 
HETATM    5  C5  UNL     1      -6.072   9.080  11.900  1.00  0.00     0.153 C 
HETATM    6  C6  UNL     1      -6.880  10.368  12.109  1.00  0.00     0.035 C 
HETATM    7  C7  UNL     1      -8.045   9.811  12.938  1.00  0.00     0.013 C 
HETATM    8  C8  UNL     1      -8.429   8.579  12.167  1.00  0.00     0.051 C 
ENDROOT
BRANCH   1   9
HETATM    9  O1  UNL     1      -9.625  10.182  10.813  1.00  0.00    -0.395 OA
ATOM     10  H1  UNL     1      -9.795  10.696  11.593  1.00  0.00     0.210 HD
ENDBRANCH   1   9
BRANCH   4  11
HETATM   11  O2  UNL     1      -6.922   6.821  11.808  1.00  0.00    -0.387 OA
ATOM     12  H2  UNL     1      -7.682   6.445  12.236  1.00  0.00     0.210 HD
ENDBRANCH   4  11
BRANCH   5  13
HETATM   13  O3  UNL     1      -5.482   8.788  13.113  1.00  0.00    -0.393 OA
ATOM     14  H3  UNL     1      -5.885   9.224  13.856  1.00  0.00     0.210 HD
ENDBRANCH   5  13
TORSDOF 3
ENDMDL
MODEL 2
REMARK VINA RESULT: -5.334261147      3.724      5.175
REMARK  3 active torsions:
REMARK  status: ('A' for Active; 'I' for Inactive)
REMARK    1  A    between atoms: O1_1  and  C1_3 
REMARK    2  A    between atoms: C4_6  and  O2_7 
REMARK    3  A    between atoms: C5_9  and  O3_10 
ROOT
HETATM    1  C1  UNL     1      -9.900  11.442  10.862  1.00  0.00     0.125 C 
HETATM    2  C2  UNL     1     -10.487  10.490  11.882  1.00  0.00     0.035 C 
HETATM    3  C3  UNL     1     -11.674   9.879  11.167  1.00  0.00     0.043 C 
HETATM    4  C4  UNL     1     -11.101   9.640   9.781  1.00  0.00     0.089 C 
HETATM    5  C5  UNL     1     -12.197   9.878   8.791  1.00  0.00     0.153 C 
HETATM    6  C6  UNL     1     -12.102  11.399   8.615  1.00  0.00     0.035 C 
HETATM    7  C7  UNL     1     -10.584  11.546   8.447  1.00  0.00     0.013 C 
HETATM    8  C8  UNL     1     -10.051  10.698   9.568  1.00  0.00     0.051 C 
ENDROOT
BRANCH   1   9
HETATM    9  O1  UNL     1     -10.509  12.682  10.867  1.00  0.00    -0.395 OA
ATOM     10  H1  UNL     1     -10.198  13.245  11.565  1.00  0.00     0.210 HD
ENDBRANCH   1   9
BRANCH   4  11
HETATM   11  O2  UNL     1     -10.521   8.407   9.719  1.00  0.00    -0.387 OA
ATOM     12  H2  UNL     1     -11.175   7.731   9.858  1.00  0.00     0.210 HD
ENDBRANCH   4  11
BRANCH   5  13
HETATM   13  O3  UNL     1     -11.964   9.327   7.547  1.00  0.00    -0.393 OA
ATOM     14  H3  UNL     1     -12.240   9.875   6.822  1.00  0.00     0.210 HD
ENDBRANCH   5  13
TORSDOF 3
ENDMDL
MODEL 3
REMARK VINA RESULT: -5.314383398      1.632      3.506
REMARK  3 active torsions:
REMARK  status: ('A' for Active; 'I' for Inactive)
REMARK    1  A    between atoms: O1_1  and  C1_3 
REMARK    2  A    between atoms: C4_6  and  O2_7 
REMARK    3  A    between atoms: C5_9  and  O3_10 
ROOT
HETATM    1  C1  UNL     1      -6.506   8.474  10.933  1.00  0.00     0.125 C 
HETATM    2  C2  UNL     1      -6.835   8.539  12.409  1.00  0.00     0.035 C 
HETATM    3  C3  UNL     1      -8.287   8.967  12.439  1.00  0.00     0.043 C 
HETATM    4  C4  UNL     1      -8.873   8.130  11.315  1.00  0.00     0.089 C 
HETATM    5  C5  UNL     1      -9.928   8.950  10.643  1.00  0.00     0.153 C 
HETATM    6  C6  UNL     1      -9.078   9.761   9.656  1.00  0.00     0.035 C 
HETATM    7  C7  UNL     1      -8.202   8.638   9.086  1.00  0.00     0.013 C 
HETATM    8  C8  UNL     1      -7.759   7.912  10.326  1.00  0.00     0.051 C 
ENDROOT
BRANCH   1   9
HETATM    9  O1  UNL     1      -6.131   9.695  10.408  1.00  0.00    -0.395 OA
ATOM     10  H1  UNL     1      -5.506  10.157  10.954  1.00  0.00     0.210 HD
ENDBRANCH   1   9
BRANCH   4  11
HETATM   11  O2  UNL     1      -9.293   6.926  11.798  1.00  0.00    -0.387 OA
ATOM     12  H2  UNL     1      -8.546   6.360  11.958  1.00  0.00     0.210 HD
ENDBRANCH   4  11
BRANCH   5  13
HETATM   13  O3  UNL     1     -10.815   8.215   9.882  1.00  0.00    -0.393 OA
ATOM     14  H3  UNL     1     -10.422   7.792   9.128  1.00  0.00     0.210 HD
ENDBRANCH   5  13
TORSDOF 3
ENDMDL
MODEL 4
REMARK VINA RESULT: -5.308291649      1.152      3.019
REMARK  3 active torsions:
REMARK  status: ('A' for Active; 'I' for Inactive)
REMARK    1  A    between atoms: O1_1  and  C1_3 
REMARK    2  A    between atoms: C4_6  and  O2_7 
REMARK    3  A    between atoms: C5_9  and  O3_10 
ROOT
HETATM    1  C1  UNL     1      -6.647  11.144  10.658  1.00  0.00     0.125 C 
HETATM    2  C2  UNL     1      -6.782  11.570  12.104  1.00  0.00     0.035 C 
HETATM    3  C3  UNL     1      -7.403  10.367  12.781  1.00  0.00     0.043 C 
HETATM    4  C4  UNL     1      -6.635   9.226  12.136  1.00  0.00     0.089 C 
HETATM    5  C5  UNL     1      -7.579   8.077  11.977  1.00  0.00     0.153 C 
HETATM    6  C6  UNL     1      -8.251   8.437  10.645  1.00  0.00     0.035 C 
HETATM    7  C7  UNL     1      -7.010   8.804   9.820  1.00  0.00     0.013 C 
HETATM    8  C8  UNL     1      -6.252   9.700  10.759  1.00  0.00     0.051 C 
ENDROOT
BRANCH   1   9
HETATM    9  O1  UNL     1      -7.797  11.357   9.923  1.00  0.00    -0.395 OA
ATOM     10  H1  UNL     1      -8.319  12.080  10.252  1.00  0.00     0.210 HD
ENDBRANCH   1   9
BRANCH   4  11
HETATM   11  O2  UNL     1      -5.507   8.956  12.853  1.00  0.00    -0.387 OA
ATOM     12  H2  UNL     1      -4.859   8.539  12.297  1.00  0.00     0.210 HD
ENDBRANCH   4  11
BRANCH   5  13
HETATM   13  O3  UNL     1      -6.960   6.859  11.785  1.00  0.00    -0.393 OA
ATOM     14  H3  UNL     1      -6.998   6.281  12.537  1.00  0.00     0.210 HD
ENDBRANCH   5  13
TORSDOF 3
ENDMDL
MODEL 5
REMARK VINA RESULT: -5.306819032      1.394      1.882
REMARK  3 active torsions:
REMARK  status: ('A' for Active; 'I' for Inactive)
REMARK    1  A    between atoms: O1_1  and  C1_3 
REMARK    2  A    between atoms: C4_6  and  O2_7 
REMARK    3  A    between atoms: C5_9  and  O3_10 
ROOT
HETATM    1  C1  UNL     1      -9.215  10.320  10.359  1.00  0.00     0.125 C 
HETATM    2  C2  UNL     1      -9.702   9.487   9.192  1.00  0.00     0.035 C 
HETATM    3  C3  UNL     1      -8.693   8.362   9.104  1.00  0.00     0.043 C 
HETATM    4  C4  UNL     1      -8.494   8.018  10.570  1.00  0.00     0.089 C 
HETATM    5  C5  UNL     1      -7.060   7.634  10.755  1.00  0.00     0.153 C 
HETATM    6  C6  UNL     1      -6.413   9.013  10.943  1.00  0.00     0.035 C 
HETATM    7  C7  UNL     1      -7.398   9.625  11.948  1.00  0.00     0.013 C 
HETATM    8  C8  UNL     1      -8.731   9.291  11.339  1.00  0.00     0.051 C 
ENDROOT
BRANCH   1   9
HETATM    9  O1  UNL     1      -8.253  11.244  10.000  1.00  0.00    -0.395 OA
ATOM     10  H1  UNL     1      -8.599  12.124   9.911  1.00  0.00     0.210 HD
ENDBRANCH   1   9
BRANCH   4  11
HETATM   11  O2  UNL     1      -9.401   7.078  10.960  1.00  0.00    -0.387 OA
ATOM     12  H2  UNL     1      -9.302   6.892  11.886  1.00  0.00     0.210 HD
ENDBRANCH   4  11
BRANCH   5  13
HETATM   13  O3  UNL     1      -6.809   6.924  11.911  1.00  0.00    -0.393 OA
ATOM     14  H3  UNL     1      -6.201   7.349  12.504  1.00  0.00     0.210 HD
ENDBRANCH   5  13
TORSDOF 3
ENDMDL
