MODEL 1
REMARK VINA RESULT: -8.149546476      0.000      0.000
REMARK  5 active torsions:
REMARK  status: ('A' for Active; 'I' for Inactive)
REMARK    1  A    between atoms: C2_2  and  O1_3 
REMARK    2  A    between atoms: C2_2  and  C3_5 
REMARK    3  A    between atoms: C3_5  and  C5_7 
REMARK    4  A    between atoms: C13_15  and  O2_16 
REMARK    5  A    between atoms: C18_22  and  O3_23 
ROOT
HETATM    1  C5  UNL     1      18.586 -13.718   5.210  1.00  0.00    -0.012 C 
HETATM    2  C6  UNL     1      18.886 -13.256   6.642  1.00  0.00     0.018 C 
HETATM    3  C7  UNL     1      17.322 -13.016   4.800  1.00  0.00     0.012 C 
HETATM    4  C8  UNL     1      17.522 -11.708   4.127  1.00  0.00     0.007 C 
HETATM    5  C9  UNL     1      18.599 -11.677   3.098  1.00  0.00     0.006 C 
HETATM    6  C10 UNL     1      18.773 -10.230   2.700  1.00  0.00    -0.017 C 
HETATM    7  C11 UNL     1      19.328 -10.060   1.305  1.00  0.00     0.018 C 
HETATM    8  C12 UNL     1      17.346  -9.656   2.631  1.00  0.00     0.018 C 
HETATM    9  C13 UNL     1      19.501  -9.411   3.717  1.00  0.00     0.126 C 
HETATM   10  C14 UNL     1      20.300 -10.186   4.698  1.00  0.00     0.033 C 
HETATM   11  C15 UNL     1      20.917 -11.375   4.009  1.00  0.00     0.014 C 
HETATM   12  C16 UNL     1      19.878 -12.357   3.469  1.00  0.00    -0.013 C 
HETATM   13  C17 UNL     1      20.487 -12.832   2.129  1.00  0.00     0.018 C 
HETATM   14  C18 UNL     1      19.732 -13.571   4.310  1.00  0.00     0.135 C 
ENDROOT
BRANCH   1  15
HETATM   15  C3  UNL     1      18.183 -15.193   5.311  1.00  0.00     0.021 C 
HETATM   16  C4  UNL     1      18.834 -16.025   4.241  1.00  0.00     0.013 C 
BRANCH  15  17
HETATM   17  C2  UNL     1      16.721 -15.411   5.435  1.00  0.00     0.118 C 
HETATM   18  C1  UNL     1      16.496 -16.094   6.790  1.00  0.00     0.040 C 
BRANCH  17  19
HETATM   19  O1  UNL     1      16.151 -16.215   4.485  1.00  0.00    -0.396 OA
ATOM     20  H1  UNL     1      16.801 -16.866   4.247  1.00  0.00     0.210 HD
ENDBRANCH  17  19
ENDBRANCH  15  17
ENDBRANCH   1  15
BRANCH  14  21
HETATM   21  O3  UNL     1      20.904 -13.652   5.108  1.00  0.00    -0.394 OA
ATOM     22  H3  UNL     1      20.678 -14.148   5.886  1.00  0.00     0.210 HD
ENDBRANCH  14  21
BRANCH   9  23
HETATM   23  O2  UNL     1      18.659  -8.548   4.430  1.00  0.00    -0.395 OA
ATOM     24  H2  UNL     1      18.940  -7.641   4.393  1.00  0.00     0.210 HD
ENDBRANCH   9  23
TORSDOF 5
ENDMDL
MODEL 2
REMARK VINA RESULT: -7.971345172      3.113      5.744
REMARK  5 active torsions:
REMARK  status: ('A' for Active; 'I' for Inactive)
REMARK    1  A    between atoms: C2_2  and  O1_3 
REMARK    2  A    between atoms: C2_2  and  C3_5 
REMARK    3  A    between atoms: C3_5  and  C5_7 
REMARK    4  A    between atoms: C13_15  and  O2_16 
REMARK    5  A    between atoms: C18_22  and  O3_23 
ROOT
HETATM    1  C5  UNL     1      20.663 -12.211   0.093  1.00  0.00    -0.012 C 
HETATM    2  C6  UNL     1      19.571 -13.081  -0.546  1.00  0.00     0.018 C 
HETATM    3  C7  UNL     1      20.090 -10.824   0.187  1.00  0.00     0.012 C 
HETATM    4  C8  UNL     1      19.381 -10.524   1.456  1.00  0.00     0.007 C 
HETATM    5  C9  UNL     1      20.067 -10.987   2.695  1.00  0.00     0.006 C 
HETATM    6  C10 UNL     1      19.094 -10.774   3.832  1.00  0.00    -0.017 C 
HETATM    7  C11 UNL     1      19.772 -10.592   5.169  1.00  0.00     0.018 C 
HETATM    8  C12 UNL     1      18.423  -9.420   3.540  1.00  0.00     0.018 C 
HETATM    9  C13 UNL     1      17.991 -11.783   3.874  1.00  0.00     0.126 C 
HETATM   10  C14 UNL     1      18.251 -13.036   3.122  1.00  0.00     0.033 C 
HETATM   11  C15 UNL     1      19.705 -13.405   3.259  1.00  0.00     0.014 C 
HETATM   12  C16 UNL     1      20.644 -12.366   2.648  1.00  0.00    -0.013 C 
HETATM   13  C17 UNL     1      21.842 -12.337   3.626  1.00  0.00     0.018 C 
HETATM   14  C18 UNL     1      21.194 -12.780   1.333  1.00  0.00     0.135 C 
ENDROOT
BRANCH   1  15
HETATM   15  C3  UNL     1      21.778 -12.088  -0.950  1.00  0.00     0.021 C 
HETATM   16  C4  UNL     1      22.564 -10.818  -0.781  1.00  0.00     0.013 C 
BRANCH  15  17
HETATM   17  C2  UNL     1      21.332 -12.338  -2.343  1.00  0.00     0.118 C 
HETATM   18  C1  UNL     1      22.465 -13.106  -3.034  1.00  0.00     0.040 C 
BRANCH  17  19
HETATM   19  O1  UNL     1      21.084 -11.226  -3.102  1.00  0.00    -0.396 OA
ATOM     20  H1  UNL     1      20.231 -10.897  -2.842  1.00  0.00     0.210 HD
ENDBRANCH  17  19
ENDBRANCH  15  17
ENDBRANCH   1  15
BRANCH  14  21
HETATM   21  O3  UNL     1      21.029 -14.188   1.252  1.00  0.00    -0.394 OA
ATOM     22  H3  UNL     1      21.321 -14.552   2.079  1.00  0.00     0.210 HD
ENDBRANCH  14  21
BRANCH   9  23
HETATM   23  O2  UNL     1      16.762 -11.268   3.445  1.00  0.00    -0.395 OA
ATOM     24  H2  UNL     1      16.022 -11.631   3.917  1.00  0.00     0.210 HD
ENDBRANCH   9  23
TORSDOF 5
ENDMDL
MODEL 3
REMARK VINA RESULT: -7.938500625      2.184      3.672
REMARK  5 active torsions:
REMARK  status: ('A' for Active; 'I' for Inactive)
REMARK    1  A    between atoms: C2_2  and  O1_3 
REMARK    2  A    between atoms: C2_2  and  C3_5 
REMARK    3  A    between atoms: C3_5  and  C5_7 
REMARK    4  A    between atoms: C13_15  and  O2_16 
REMARK    5  A    between atoms: C18_22  and  O3_23 
ROOT
HETATM    1  C5  UNL     1      18.506 -14.179   6.719  1.00  0.00    -0.012 C 
HETATM    2  C6  UNL     1      18.647 -15.462   5.888  1.00  0.00     0.018 C 
HETATM    3  C7  UNL     1      19.823 -13.464   6.609  1.00  0.00     0.012 C 
HETATM    4  C8  UNL     1      19.918 -12.495   5.488  1.00  0.00     0.007 C 
HETATM    5  C9  UNL     1      18.729 -11.617   5.300  1.00  0.00     0.006 C 
HETATM    6  C10 UNL     1      18.944 -10.872   4.003  1.00  0.00    -0.017 C 
HETATM    7  C11 UNL     1      18.214  -9.551   3.948  1.00  0.00     0.018 C 
HETATM    8  C12 UNL     1      20.438 -10.499   3.994  1.00  0.00     0.018 C 
HETATM    9  C13 UNL     1      18.719 -11.709   2.785  1.00  0.00     0.126 C 
HETATM   10  C14 UNL     1      17.921 -12.941   3.004  1.00  0.00     0.033 C 
HETATM   11  C15 UNL     1      16.842 -12.662   4.018  1.00  0.00     0.014 C 
HETATM   12  C16 UNL     1      17.397 -12.291   5.392  1.00  0.00    -0.013 C 
HETATM   13  C17 UNL     1      16.425 -11.199   5.896  1.00  0.00     0.018 C 
HETATM   14  C18 UNL     1      17.313 -13.402   6.372  1.00  0.00     0.135 C 
ENDROOT
BRANCH   1  15
HETATM   15  C3  UNL     1      18.438 -14.622   8.184  1.00  0.00     0.021 C 
HETATM   16  C4  UNL     1      18.132 -16.088   8.310  1.00  0.00     0.013 C 
BRANCH  15  17
HETATM   17  C2  UNL     1      17.586 -13.755   9.036  1.00  0.00     0.118 C 
HETATM   18  C1  UNL     1      18.432 -13.384  10.261  1.00  0.00     0.040 C 
BRANCH  17  19
HETATM   19  O1  UNL     1      16.433 -14.323   9.507  1.00  0.00    -0.396 OA
ATOM     20  H1  UNL     1      15.888 -14.509   8.751  1.00  0.00     0.210 HD
ENDBRANCH  17  19
ENDBRANCH  15  17
ENDBRANCH   1  15
BRANCH  14  21
HETATM   21  O3  UNL     1      16.352 -14.316   5.866  1.00  0.00    -0.394 OA
ATOM     22  H3  UNL     1      15.984 -14.776   6.611  1.00  0.00     0.210 HD
ENDBRANCH  14  21
BRANCH   9  23
HETATM   23  O2  UNL     1      19.909 -12.073   2.143  1.00  0.00    -0.395 OA
ATOM     24  H2  UNL     1      20.333 -11.343   1.706  1.00  0.00     0.210 HD
ENDBRANCH   9  23
TORSDOF 5
ENDMDL
MODEL 4
REMARK VINA RESULT: -7.877542517      0.894      1.052
REMARK  5 active torsions:
REMARK  status: ('A' for Active; 'I' for Inactive)
REMARK    1  A    between atoms: C2_2  and  O1_3 
REMARK    2  A    between atoms: C2_2  and  C3_5 
REMARK    3  A    between atoms: C3_5  and  C5_7 
REMARK    4  A    between atoms: C13_15  and  O2_16 
REMARK    5  A    between atoms: C18_22  and  O3_23 
ROOT
HETATM    1  C5  UNL     1      18.311 -13.505   5.393  1.00  0.00    -0.012 C 
HETATM    2  C6  UNL     1      18.621 -12.974   6.799  1.00  0.00     0.018 C 
HETATM    3  C7  UNL     1      17.099 -12.752   4.920  1.00  0.00     0.012 C 
HETATM    4  C8  UNL     1      17.390 -11.503   4.171  1.00  0.00     0.007 C 
HETATM    5  C9  UNL     1      18.481 -11.604   3.161  1.00  0.00     0.006 C 
HETATM    6  C10 UNL     1      18.751 -10.197   2.677  1.00  0.00    -0.017 C 
HETATM    7  C11 UNL     1      19.333 -10.149   1.284  1.00  0.00     0.018 C 
HETATM    8  C12 UNL     1      17.364  -9.541   2.550  1.00  0.00     0.018 C 
HETATM    9  C13 UNL     1      19.516  -9.364   3.655  1.00  0.00     0.126 C 
HETATM   10  C14 UNL     1      20.251 -10.125   4.695  1.00  0.00     0.033 C 
HETATM   11  C15 UNL     1      20.801 -11.391   4.090  1.00  0.00     0.014 C 
HETATM   12  C16 UNL     1      19.709 -12.338   3.594  1.00  0.00    -0.013 C 
HETATM   13  C17 UNL     1      20.304 -12.932   2.296  1.00  0.00     0.018 C 
HETATM   14  C18 UNL     1      19.476 -13.485   4.505  1.00  0.00     0.135 C 
ENDROOT
BRANCH   1  15
HETATM   15  C3  UNL     1      17.815 -14.942   5.577  1.00  0.00     0.021 C 
HETATM   16  C4  UNL     1      16.628 -15.240   4.704  1.00  0.00     0.013 C 
BRANCH  15  17
HETATM   17  C2  UNL     1      17.632 -15.340   6.996  1.00  0.00     0.118 C 
HETATM   18  C1  UNL     1      18.429 -16.635   7.192  1.00  0.00     0.040 C 
BRANCH  17  19
HETATM   19  O1  UNL     1      16.346 -15.601   7.385  1.00  0.00    -0.396 OA
ATOM     20  H1  UNL     1      15.873 -15.880   6.609  1.00  0.00     0.210 HD
ENDBRANCH  17  19
ENDBRANCH  15  17
ENDBRANCH   1  15
BRANCH  14  21
HETATM   21  O3  UNL     1      20.630 -13.589   5.327  1.00  0.00    -0.394 OA
ATOM     22  H3  UNL     1      20.329 -13.789   6.206  1.00  0.00     0.210 HD
ENDBRANCH  14  21
BRANCH   9  23
HETATM   23  O2  UNL     1      18.721  -8.408   4.299  1.00  0.00    -0.395 OA
ATOM     24  H2  UNL     1      19.163  -7.989   5.028  1.00  0.00     0.210 HD
ENDBRANCH   9  23
TORSDOF 5
ENDMDL
MODEL 5
REMARK VINA RESULT: -7.816010249      1.847      2.930
REMARK  5 active torsions:
REMARK  status: ('A' for Active; 'I' for Inactive)
REMARK    1  A    between atoms: C2_2  and  O1_3 
REMARK    2  A    between atoms: C2_2  and  C3_5 
REMARK    3  A    between atoms: C3_5  and  C5_7 
REMARK    4  A    between atoms: C13_15  and  O2_16 
REMARK    5  A    between atoms: C18_22  and  O3_23 
ROOT
HETATM    1  C5  UNL     1      19.186 -14.509   5.776  1.00  0.00    -0.012 C 
HETATM    2  C6  UNL     1      20.182 -15.454   5.089  1.00  0.00     0.018 C 
HETATM    3  C7  UNL     1      19.985 -13.319   6.229  1.00  0.00     0.012 C 
HETATM    4  C8  UNL     1      20.063 -12.207   5.249  1.00  0.00     0.007 C 
HETATM    5  C9  UNL     1      18.782 -11.861   4.571  1.00  0.00     0.006 C 
HETATM    6  C10 UNL     1      19.124 -10.870   3.483  1.00  0.00    -0.017 C 
HETATM    7  C11 UNL     1      17.970  -9.966   3.118  1.00  0.00     0.018 C 
HETATM    8  C12 UNL     1      20.178  -9.936   4.104  1.00  0.00     0.018 C 
HETATM    9  C13 UNL     1      19.774 -11.491   2.288  1.00  0.00     0.126 C 
HETATM   10  C14 UNL     1      19.583 -12.957   2.155  1.00  0.00     0.033 C 
HETATM   11  C15 UNL     1      18.196 -13.322   2.617  1.00  0.00     0.014 C 
HETATM   12  C16 UNL     1      17.960 -13.017   4.096  1.00  0.00    -0.013 C 
HETATM   13  C17 UNL     1      16.498 -12.517   4.136  1.00  0.00     0.018 C 
HETATM   14  C18 UNL     1      18.007 -14.226   4.954  1.00  0.00     0.135 C 
ENDROOT
BRANCH   1  15
HETATM   15  C3  UNL     1      18.767 -15.201   7.077  1.00  0.00     0.021 C 
HETATM   16  C4  UNL     1      18.747 -16.697   6.933  1.00  0.00     0.013 C 
BRANCH  15  17
HETATM   17  C2  UNL     1      17.536 -14.640   7.688  1.00  0.00     0.118 C 
HETATM   18  C1  UNL     1      17.903 -14.247   9.124  1.00  0.00     0.040 C 
BRANCH  17  19
HETATM   19  O1  UNL     1      16.465 -15.488   7.769  1.00  0.00    -0.396 OA
ATOM     20  H1  UNL     1      16.811 -16.352   7.963  1.00  0.00     0.210 HD
ENDBRANCH  17  19
ENDBRANCH  15  17
ENDBRANCH   1  15
BRANCH  14  21
HETATM   21  O3  UNL     1      17.820 -15.340   4.093  1.00  0.00    -0.394 OA
ATOM     22  H3  UNL     1      17.974 -16.122   4.611  1.00  0.00     0.210 HD
ENDBRANCH  14  21
BRANCH   9  23
HETATM   23  O2  UNL     1      21.146 -11.224   2.210  1.00  0.00    -0.395 OA
ATOM     24  H2  UNL     1      21.673 -11.843   2.703  1.00  0.00     0.210 HD
ENDBRANCH   9  23
TORSDOF 5
ENDMDL
