MODEL 1
REMARK VINA RESULT: -5.547342939      0.000      0.000
REMARK  0 active torsions:
REMARK  status: ('A' for Active; 'I' for Inactive)
ROOT
HETATM    1  N1  UNL     1      49.625  18.679  10.923  1.00  0.00    -0.379 N 
ATOM      2  H11 UNL     1      48.935  18.766  10.177  1.00  0.00     0.158 HD
ATOM      3  H12 UNL     1      50.049  17.762  11.068  1.00  0.00     0.158 HD
HETATM    4  C1  UNL     1      49.989  19.646  11.689  1.00  0.00     0.158 C 
HETATM    5  N2  UNL     1      50.949  19.524  12.727  1.00  0.00    -0.244 N 
ATOM      6  H2  UNL     1      51.376  18.608  12.863  1.00  0.00     0.196 HD
HETATM    7  O1  UNL     1      51.335  20.499  13.533  1.00  0.00    -0.266 OA
HETATM    8  C2  UNL     1      51.373  21.749  13.014  1.00  0.00     0.098 C 
HETATM    9  C3  UNL     1      52.235  21.910  11.793  1.00  0.00     0.041 C 
HETATM   10  C4  UNL     1      53.388  22.803  12.194  1.00  0.00     0.003 C 
HETATM   11  C5  UNL     1      52.728  23.691  13.254  1.00  0.00     0.003 C 
HETATM   12  C6  UNL     1      51.988  22.677  14.072  1.00  0.00     0.041 C 
HETATM   13  C7  UNL     1      50.012  22.349  12.690  1.00  0.00     0.123 C 
HETATM   14  S1  UNL     1      49.246  21.250  11.436  1.00  0.00    -0.090 SA
ENDROOT
TORSDOF 0
ENDMDL
MODEL 2
REMARK VINA RESULT: -5.401988026      2.462      3.254
REMARK  0 active torsions:
REMARK  status: ('A' for Active; 'I' for Inactive)
ROOT
HETATM    1  N1  UNL     1      48.900  23.564  12.357  1.00  0.00    -0.379 N 
ATOM      2  H11 UNL     1      47.922  23.332  12.527  1.00  0.00     0.158 HD
ATOM      3  H12 UNL     1      49.178  24.540  12.459  1.00  0.00     0.158 HD
HETATM    4  C1  UNL     1      49.799  22.707  12.022  1.00  0.00     0.158 C 
HETATM    5  N2  UNL     1      51.161  23.030  11.785  1.00  0.00    -0.244 N 
ATOM      6  H2  UNL     1      51.436  24.006  11.897  1.00  0.00     0.196 HD
HETATM    7  O1  UNL     1      52.102  22.170  11.432  1.00  0.00    -0.266 OA
HETATM    8  C2  UNL     1      52.005  20.912  11.924  1.00  0.00     0.098 C 
HETATM    9  C3  UNL     1      51.951  20.813  13.422  1.00  0.00     0.041 C 
HETATM   10  C4  UNL     1      53.227  20.126  13.856  1.00  0.00     0.003 C 
HETATM   11  C5  UNL     1      53.499  19.211  12.657  1.00  0.00     0.003 C 
HETATM   12  C6  UNL     1      53.271  20.149  11.510  1.00  0.00     0.041 C 
HETATM   13  C7  UNL     1      50.842  20.099  11.374  1.00  0.00     0.123 C 
HETATM   14  S1  UNL     1      49.312  20.998  11.841  1.00  0.00    -0.090 SA
ENDROOT
TORSDOF 0
ENDMDL
MODEL 3
REMARK VINA RESULT: -5.198939809      2.146      2.583
REMARK  0 active torsions:
REMARK  status: ('A' for Active; 'I' for Inactive)
ROOT
HETATM    1  N1  UNL     1      47.917  21.292  12.039  1.00  0.00    -0.379 N 
ATOM      2  H11 UNL     1      47.658  20.317  12.191  1.00  0.00     0.158 HD
ATOM      3  H12 UNL     1      47.163  21.978  11.990  1.00  0.00     0.158 HD
HETATM    4  C1  UNL     1      49.127  21.707  11.904  1.00  0.00     0.158 C 
HETATM    5  N2  UNL     1      49.486  23.064  11.693  1.00  0.00    -0.244 N 
ATOM      6  H2  UNL     1      48.730  23.747  11.653  1.00  0.00     0.196 HD
HETATM    7  O1  UNL     1      50.721  23.515  11.544  1.00  0.00    -0.266 OA
HETATM    8  C2  UNL     1      51.697  22.881  12.235  1.00  0.00     0.098 C 
HETATM    9  C3  UNL     1      51.497  22.828  13.723  1.00  0.00     0.041 C 
HETATM   10  C4  UNL     1      52.589  23.675  14.336  1.00  0.00     0.003 C 
HETATM   11  C5  UNL     1      53.725  23.482  13.327  1.00  0.00     0.003 C 
HETATM   12  C6  UNL     1      53.002  23.664  12.027  1.00  0.00     0.041 C 
HETATM   13  C7  UNL     1      51.996  21.464  11.766  1.00  0.00     0.123 C 
HETATM   14  S1  UNL     1      50.446  20.507  11.989  1.00  0.00    -0.090 SA
ENDROOT
TORSDOF 0
ENDMDL
MODEL 4
REMARK VINA RESULT: -5.047834682      1.058      1.168
REMARK  0 active torsions:
REMARK  status: ('A' for Active; 'I' for Inactive)
ROOT
HETATM    1  N1  UNL     1      49.661  18.916  11.025  1.00  0.00    -0.379 N 
ATOM      2  H11 UNL     1      48.864  19.268  10.495  1.00  0.00     0.158 HD
ATOM      3  H12 UNL     1      49.894  17.928  10.925  1.00  0.00     0.158 HD
HETATM    4  C1  UNL     1      50.383  19.635  11.809  1.00  0.00     0.158 C 
HETATM    5  N2  UNL     1      51.492  19.144  12.547  1.00  0.00    -0.244 N 
ATOM      6  H2  UNL     1      51.726  18.158  12.438  1.00  0.00     0.196 HD
HETATM    7  O1  UNL     1      52.245  19.860  13.366  1.00  0.00    -0.266 OA
HETATM    8  C2  UNL     1      52.446  21.160  13.041  1.00  0.00     0.098 C 
HETATM    9  C3  UNL     1      53.042  21.396  11.682  1.00  0.00     0.041 C 
HETATM   10  C4  UNL     1      54.421  21.973  11.910  1.00  0.00     0.003 C 
HETATM   11  C5  UNL     1      54.214  22.743  13.218  1.00  0.00     0.003 C 
HETATM   12  C6  UNL     1      53.461  21.739  14.037  1.00  0.00     0.041 C 
HETATM   13  C7  UNL     1      51.213  22.045  13.156  1.00  0.00     0.123 C 
HETATM   14  S1  UNL     1      49.975  21.365  11.985  1.00  0.00    -0.090 SA
ENDROOT
TORSDOF 0
ENDMDL
MODEL 5
REMARK VINA RESULT: -5.034252985      2.451      3.722
REMARK  0 active torsions:
REMARK  status: ('A' for Active; 'I' for Inactive)
ROOT
HETATM    1  N1  UNL     1      54.571  21.322  14.317  1.00  0.00    -0.379 N 
ATOM      2  H11 UNL     1      55.444  21.627  13.887  1.00  0.00     0.158 HD
ATOM      3  H12 UNL     1      54.533  21.289  15.336  1.00  0.00     0.158 HD
HETATM    4  C1  UNL     1      53.521  20.979  13.658  1.00  0.00     0.158 C 
HETATM    5  N2  UNL     1      52.306  20.555  14.256  1.00  0.00    -0.244 N 
ATOM      6  H2  UNL     1      52.270  20.531  15.275  1.00  0.00     0.196 HD
HETATM    7  O1  UNL     1      51.216  20.189  13.602  1.00  0.00    -0.266 OA
HETATM    8  C2  UNL     1      50.958  20.818  12.431  1.00  0.00     0.098 C 
HETATM    9  C3  UNL     1      50.857  22.315  12.517  1.00  0.00     0.041 C 
HETATM   10  C4  UNL     1      49.419  22.669  12.209  1.00  0.00     0.003 C 
HETATM   11  C5  UNL     1      49.035  21.550  11.236  1.00  0.00     0.003 C 
HETATM   12  C6  UNL     1      49.584  20.344  11.937  1.00  0.00     0.041 C 
HETATM   13  C7  UNL     1      51.929  20.493  11.304  1.00  0.00     0.123 C 
HETATM   14  S1  UNL     1      53.587  21.036  11.874  1.00  0.00    -0.090 SA
ENDROOT
TORSDOF 0
ENDMDL
