MODEL 1
REMARK VINA RESULT: -4.893319891      0.000      0.000
REMARK  1 active torsions:
REMARK  status: ('A' for Active; 'I' for Inactive)
REMARK    1  A    between atoms: C8_12  and  O1_13 
ROOT
HETATM    1  N1  UNL     1      51.323  23.505  13.846  1.00  0.00    -0.395 N 
ATOM      2  H11 UNL     1      51.916  23.916  14.567  1.00  0.00     0.156 HD
ATOM      3  H12 UNL     1      50.664  24.255  13.637  1.00  0.00     0.156 HD
HETATM    4  C1  UNL     1      51.445  22.337  13.377  1.00  0.00     0.070 C 
HETATM    5  S1  UNL     1      50.409  21.618  12.115  1.00  0.00    -0.114 SA
HETATM    6  C2  UNL     1      51.613  20.340  11.566  1.00  0.00     0.093 C 
HETATM    7  C3  UNL     1      52.835  20.638  12.385  1.00  0.00     0.001 C 
HETATM    8  C4  UNL     1      53.567  19.366  12.675  1.00  0.00     0.013 C 
HETATM    9  C5  UNL     1      54.971  19.825  13.019  1.00  0.00     0.001 C 
HETATM   10  C6  UNL     1      55.100  21.240  12.527  1.00  0.00     0.001 C 
HETATM   11  C7  UNL     1      53.852  21.474  11.686  1.00  0.00     0.013 C 
HETATM   12  C8  UNL     1      52.400  21.251  13.680  1.00  0.00     0.183 C 
ENDROOT
BRANCH  12  13
HETATM   13  O1  UNL     1      51.710  20.278  14.400  1.00  0.00    -0.388 OA
ATOM     14  H1  UNL     1      51.881  19.442  13.983  1.00  0.00     0.210 HD
ENDBRANCH  12  13
TORSDOF 1
ENDMDL
MODEL 2
REMARK VINA RESULT: -4.849210218      2.426      3.665
REMARK  1 active torsions:
REMARK  status: ('A' for Active; 'I' for Inactive)
REMARK    1  A    between atoms: C8_12  and  O1_13 
ROOT
HETATM    1  N1  UNL     1      52.525  20.173  15.321  1.00  0.00    -0.395 N 
ATOM      2  H11 UNL     1      51.716  19.788  15.810  1.00  0.00     0.156 HD
ATOM      3  H12 UNL     1      53.309  19.687  15.757  1.00  0.00     0.156 HD
HETATM    4  C1  UNL     1      52.480  21.043  14.404  1.00  0.00     0.070 C 
HETATM    5  S1  UNL     1      53.894  21.716  13.548  1.00  0.00    -0.114 SA
HETATM    6  C2  UNL     1      52.982  22.270  12.050  1.00  0.00     0.093 C 
HETATM    7  C3  UNL     1      51.583  21.784  12.295  1.00  0.00     0.001 C 
HETATM    8  C4  UNL     1      50.607  22.732  11.673  1.00  0.00     0.013 C 
HETATM    9  C5  UNL     1      49.342  21.908  11.528  1.00  0.00     0.001 C 
HETATM   10  C6  UNL     1      49.741  20.466  11.675  1.00  0.00     0.001 C 
HETATM   11  C7  UNL     1      51.264  20.481  11.646  1.00  0.00     0.013 C 
HETATM   12  C8  UNL     1      51.345  21.747  13.773  1.00  0.00     0.183 C 
ENDROOT
BRANCH  12  13
HETATM   13  O1  UNL     1      51.360  23.061  14.238  1.00  0.00    -0.388 OA
ATOM     14  H1  UNL     1      51.041  23.615  13.535  1.00  0.00     0.210 HD
ENDBRANCH  12  13
TORSDOF 1
ENDMDL
MODEL 3
REMARK VINA RESULT: -4.649589558      1.254      1.254
REMARK  1 active torsions:
REMARK  status: ('A' for Active; 'I' for Inactive)
REMARK    1  A    between atoms: C8_12  and  O1_13 
ROOT
HETATM    1  N1  UNL     1      50.931  23.415  11.361  1.00  0.00    -0.395 N 
ATOM      2  H11 UNL     1      51.539  24.231  11.434  1.00  0.00     0.156 HD
ATOM      3  H12 UNL     1      50.174  23.746  10.764  1.00  0.00     0.156 HD
HETATM    4  C1  UNL     1      51.141  22.296  11.912  1.00  0.00     0.070 C 
HETATM    5  S1  UNL     1      50.078  20.868  11.783  1.00  0.00    -0.114 SA
HETATM    6  C2  UNL     1      51.362  19.619  12.203  1.00  0.00     0.093 C 
HETATM    7  C3  UNL     1      52.614  20.437  12.331  1.00  0.00     0.001 C 
HETATM    8  C4  UNL     1      53.510  19.825  13.360  1.00  0.00     0.013 C 
HETATM    9  C5  UNL     1      54.879  20.390  13.032  1.00  0.00     0.001 C 
HETATM   10  C6  UNL     1      54.799  20.946  11.638  1.00  0.00     0.001 C 
HETATM   11  C7  UNL     1      53.459  20.460  11.103  1.00  0.00     0.013 C 
HETATM   12  C8  UNL     1      52.237  21.816  12.777  1.00  0.00     0.183 C 
ENDROOT
BRANCH  12  13
HETATM   13  O1  UNL     1      51.733  21.719  14.073  1.00  0.00    -0.388 OA
ATOM     14  H1  UNL     1      52.173  22.377  14.598  1.00  0.00     0.210 HD
ENDBRANCH  12  13
TORSDOF 1
ENDMDL
MODEL 4
REMARK VINA RESULT: -4.613649349      2.523      3.565
REMARK  1 active torsions:
REMARK  status: ('A' for Active; 'I' for Inactive)
REMARK    1  A    between atoms: C8_12  and  O1_13 
ROOT
HETATM    1  N1  UNL     1      52.776  24.431  11.769  1.00  0.00    -0.395 N 
ATOM      2  H11 UNL     1      52.539  24.698  10.813  1.00  0.00     0.156 HD
ATOM      3  H12 UNL     1      53.135  25.298  12.167  1.00  0.00     0.156 HD
HETATM    4  C1  UNL     1      52.627  23.276  12.265  1.00  0.00     0.070 C 
HETATM    5  S1  UNL     1      53.041  22.810  13.936  1.00  0.00    -0.114 SA
HETATM    6  C2  UNL     1      51.933  21.344  14.020  1.00  0.00     0.093 C 
HETATM    7  C3  UNL     1      51.212  21.377  12.704  1.00  0.00     0.001 C 
HETATM    8  C4  UNL     1      50.908  19.980  12.263  1.00  0.00     0.013 C 
HETATM    9  C5  UNL     1      49.781  20.153  11.263  1.00  0.00     0.001 C 
HETATM   10  C6  UNL     1      49.221  21.532  11.470  1.00  0.00     0.001 C 
HETATM   11  C7  UNL     1      49.871  22.027  12.755  1.00  0.00     0.013 C 
HETATM   12  C8  UNL     1      52.107  22.020  11.689  1.00  0.00     0.183 C 
ENDROOT
BRANCH  12  13
HETATM   13  O1  UNL     1      53.195  21.172  11.486  1.00  0.00    -0.388 OA
ATOM     14  H1  UNL     1      53.681  21.134  12.301  1.00  0.00     0.210 HD
ENDBRANCH  12  13
TORSDOF 1
ENDMDL
MODEL 5
REMARK VINA RESULT: -4.535406067      1.752      1.976
REMARK  1 active torsions:
REMARK  status: ('A' for Active; 'I' for Inactive)
REMARK    1  A    between atoms: C8_12  and  O1_13 
ROOT
HETATM    1  N1  UNL     1      50.362  23.499  11.133  1.00  0.00    -0.395 N 
ATOM      2  H11 UNL     1      50.670  24.460  10.983  1.00  0.00     0.156 HD
ATOM      3  H12 UNL     1      49.621  23.386  10.441  1.00  0.00     0.156 HD
HETATM    4  C1  UNL     1      50.840  22.703  11.992  1.00  0.00     0.070 C 
HETATM    5  S1  UNL     1      50.302  21.022  12.253  1.00  0.00    -0.114 SA
HETATM    6  C2  UNL     1      51.848  20.436  13.059  1.00  0.00     0.093 C 
HETATM    7  C3  UNL     1      52.756  21.628  12.981  1.00  0.00     0.001 C 
HETATM    8  C4  UNL     1      53.661  21.649  14.171  1.00  0.00     0.013 C 
HETATM    9  C5  UNL     1      54.814  22.532  13.735  1.00  0.00     0.001 C 
HETATM   10  C6  UNL     1      54.741  22.638  12.237  1.00  0.00     0.001 C 
HETATM   11  C7  UNL     1      53.698  21.607  11.826  1.00  0.00     0.013 C 
HETATM   12  C8  UNL     1      51.913  22.867  12.993  1.00  0.00     0.183 C 
ENDROOT
BRANCH  12  13
HETATM   13  O1  UNL     1      51.306  22.954  14.244  1.00  0.00    -0.388 OA
ATOM     14  H1  UNL     1      50.470  22.508  14.187  1.00  0.00     0.210 HD
ENDBRANCH  12  13
TORSDOF 1
ENDMDL
