MODEL 1
REMARK VINA RESULT: -7.849515875      0.000      0.000
REMARK  14 active torsions:
REMARK  status: ('A' for Active; 'I' for Inactive)
REMARK    1  A    between atoms: C2_2  and  C4_4 
REMARK    2  A    between atoms: C9_9  and  C10_10 
REMARK    3  A    between atoms: C10_10  and  O1_11 
REMARK    4  A    between atoms: C10_10  and  C11_13 
REMARK    5  A    between atoms: C11_13  and  C12_14 
REMARK    6  A    between atoms: C12_14  and  O2_15 
REMARK    7  A    between atoms: C12_14  and  O3_17 
REMARK    8  A    between atoms: C12_14  and  C13_20 
REMARK    9  A    between atoms: O3_17  and  O4_18 
REMARK   10  A    between atoms: C21_30  and  O6_31 
REMARK   11  A    between atoms: C22_33  and  O7_34 
REMARK   12  A    between atoms: O7_34  and  C23_35 
REMARK   13  A    between atoms: C23_35  and  C24_36 
REMARK   14  A    between atoms: C24_36  and  C25_37 
ROOT
HETATM    1  C4  UNL     1      19.898  13.112  52.702  1.00  0.00     0.110 C 
HETATM    2  C5  UNL     1      20.736  14.296  52.999  1.00  0.00     0.030 C 
HETATM    3  C6  UNL     1      22.033  14.497  52.345  1.00  0.00     0.037 C 
HETATM    4  C7  UNL     1      22.916  13.361  51.951  1.00  0.00     0.013 C 
HETATM    5  C8  UNL     1      23.829  13.796  50.837  1.00  0.00     0.020 C 
HETATM    6  C9  UNL     1      23.850  12.925  53.056  1.00  0.00     0.098 C 
HETATM    7  C16 UNL     1      24.697  14.159  53.307  1.00  0.00     0.161 C 
HETATM    8  O5  UNL     1      25.905  14.094  53.386  1.00  0.00    -0.295 OA
HETATM    9  C17 UNL     1      24.082  15.502  53.464  1.00  0.00     0.139 A 
HETATM   10 CL1  UNL     1      25.191  16.856  53.177  1.00  0.00    -0.106 Cl
HETATM   11  C18 UNL     1      22.977  15.675  54.534  1.00  0.00     0.018 A 
HETATM   12  C19 UNL     1      23.108  14.654  55.584  1.00  0.00     0.020 C 
HETATM   13  C20 UNL     1      23.009  17.103  55.142  1.00  0.00     0.020 C 
HETATM   14  C21 UNL     1      22.683  15.602  53.124  1.00  0.00     0.101 A 
HETATM   15  C22 UNL     1      22.109  12.228  51.388  1.00  0.00     0.224 C 
HETATM   16  S1  UNL     1      21.015  11.736  52.776  1.00  0.00     0.053 S 
HETATM   17  O8  UNL     1      20.311  10.284  52.488  1.00  0.00    -0.255 OA
ENDROOT
BRANCH   6  18
HETATM   18  C10 UNL     1      24.838  11.869  52.683  1.00  0.00     0.136 C 
BRANCH  18  19
HETATM   19  O1  UNL     1      26.061  12.336  52.220  1.00  0.00    -0.395 OA
ATOM     20  H1  UNL     1      26.110  12.486  51.283  1.00  0.00     0.210 HD
ENDBRANCH  18  19
BRANCH  18  21
HETATM   21  C11 UNL     1      24.967  10.869  53.792  1.00  0.00     0.108 C 
BRANCH  21  22
HETATM   22  C12 UNL     1      26.382  10.419  54.038  1.00  0.00     0.221 C 
BRANCH  22  23
HETATM   23  O2  UNL     1      27.215  11.475  54.416  1.00  0.00    -0.360 OA
ATOM     24  H2  UNL     1      28.089  11.180  54.643  1.00  0.00     0.213 HD
ENDBRANCH  22  23
BRANCH  22  25
HETATM   25  O3  UNL     1      26.823   9.841  52.850  1.00  0.00    -0.198 OA
BRANCH  25  26
HETATM   26  O4  UNL     1      28.014  10.326  52.566  1.00  0.00    -0.247 OA
ATOM     27  H4  UNL     1      28.543   9.629  52.197  1.00  0.00     0.253 HD
ENDBRANCH  25  26
ENDBRANCH  22  25
BRANCH  22  28
HETATM   28  C13 UNL     1      26.412   9.456  55.150  1.00  0.00    -0.029 C 
HETATM   29  C14 UNL     1      25.632   9.598  56.191  1.00  0.00     0.019 C 
HETATM   30  C15 UNL     1      27.314   8.272  55.093  1.00  0.00     0.048 C 
ENDBRANCH  22  28
ENDBRANCH  21  22
ENDBRANCH  18  21
ENDBRANCH   6  18
BRANCH  15  31
HETATM   31  O7  UNL     1      21.338  12.681  50.365  1.00  0.00    -0.372 OA
BRANCH  31  32
HETATM   32  C23 UNL     1      20.878  11.875  49.402  1.00  0.00     0.169 C 
BRANCH  32  33
HETATM   33  C24 UNL     1      21.432  11.937  48.030  1.00  0.00     0.030 C 
BRANCH  33  34
HETATM   34  C25 UNL     1      20.338  11.456  47.071  1.00  0.00    -0.021 C 
HETATM   35  C26 UNL     1      20.398  12.179  45.763  1.00  0.00     0.009 C 
HETATM   36  C27 UNL     1      18.976  11.608  47.695  1.00  0.00     0.009 C 
ENDBRANCH  33  34
ENDBRANCH  32  33
ENDBRANCH  31  32
ENDBRANCH  15  31
BRANCH  14  37
HETATM   37  O6  UNL     1      22.355  16.876  52.546  1.00  0.00    -0.386 OA
ATOM     38  H6  UNL     1      22.942  17.545  52.875  1.00  0.00     0.210 HD
ENDBRANCH  14  37
BRANCH   1  39
HETATM   39  C2  UNL     1      18.825  13.004  53.729  1.00  0.00    -0.077 C 
HETATM   40  C1  UNL     1      18.532  14.084  54.423  1.00  0.00     0.015 C 
HETATM   41  C3  UNL     1      18.093  11.737  53.987  1.00  0.00     0.044 C 
ENDBRANCH   1  39
TORSDOF 14
ENDMDL
MODEL 2
REMARK VINA RESULT: -7.666306137      1.158      1.510
REMARK  14 active torsions:
REMARK  status: ('A' for Active; 'I' for Inactive)
REMARK    1  A    between atoms: C2_2  and  C4_4 
REMARK    2  A    between atoms: C9_9  and  C10_10 
REMARK    3  A    between atoms: C10_10  and  O1_11 
REMARK    4  A    between atoms: C10_10  and  C11_13 
REMARK    5  A    between atoms: C11_13  and  C12_14 
REMARK    6  A    between atoms: C12_14  and  O2_15 
REMARK    7  A    between atoms: C12_14  and  O3_17 
REMARK    8  A    between atoms: C12_14  and  C13_20 
REMARK    9  A    between atoms: O3_17  and  O4_18 
REMARK   10  A    between atoms: C21_30  and  O6_31 
REMARK   11  A    between atoms: C22_33  and  O7_34 
REMARK   12  A    between atoms: O7_34  and  C23_35 
REMARK   13  A    between atoms: C23_35  and  C24_36 
REMARK   14  A    between atoms: C24_36  and  C25_37 
ROOT
HETATM    1  C4  UNL     1      19.195  13.568  53.706  1.00  0.00     0.110 C 
HETATM    2  C5  UNL     1      20.075  14.758  53.678  1.00  0.00     0.030 C 
HETATM    3  C6  UNL     1      21.151  14.889  52.690  1.00  0.00     0.037 C 
HETATM    4  C7  UNL     1      21.905  13.713  52.168  1.00  0.00     0.013 C 
HETATM    5  C8  UNL     1      22.488  14.047  50.821  1.00  0.00     0.020 C 
HETATM    6  C9  UNL     1      23.100  13.349  53.017  1.00  0.00     0.098 C 
HETATM    7  C16 UNL     1      23.976  14.585  52.938  1.00  0.00     0.161 C 
HETATM    8  O5  UNL     1      25.163  14.508  52.700  1.00  0.00    -0.295 OA
HETATM    9  C17 UNL     1      23.418  15.946  53.146  1.00  0.00     0.139 A 
HETATM   10 CL1  UNL     1      24.404  17.257  52.471  1.00  0.00    -0.106 Cl
HETATM   11  C18 UNL     1      22.634  16.217  54.453  1.00  0.00     0.018 A 
HETATM   12  C19 UNL     1      23.044  15.278  55.508  1.00  0.00     0.020 C 
HETATM   13  C20 UNL     1      22.818  17.687  54.918  1.00  0.00     0.020 C 
HETATM   14  C21 UNL     1      21.978  16.040  53.182  1.00  0.00     0.101 A 
HETATM   15  C22 UNL     1      20.984  12.552  51.928  1.00  0.00     0.224 C 
HETATM   16  S1  UNL     1      20.299  12.185  53.589  1.00  0.00     0.053 S 
HETATM   17  O8  UNL     1      19.552  10.726  53.612  1.00  0.00    -0.255 OA
ENDROOT
BRANCH   6  18
HETATM   18  C10 UNL     1      23.961  12.252  52.480  1.00  0.00     0.136 C 
BRANCH  18  19
HETATM   19  O1  UNL     1      24.762  12.600  51.401  1.00  0.00    -0.395 OA
ATOM     20  H1  UNL     1      25.657  12.835  51.617  1.00  0.00     0.210 HD
ENDBRANCH  18  19
BRANCH  18  21
HETATM   21  C11 UNL     1      24.719  11.599  53.595  1.00  0.00     0.108 C 
BRANCH  21  22
HETATM   22  C12 UNL     1      26.074  11.086  53.184  1.00  0.00     0.221 C 
BRANCH  22  23
HETATM   23  O2  UNL     1      26.934  12.115  52.795  1.00  0.00    -0.360 OA
ATOM     24  H2  UNL     1      26.819  12.354  51.883  1.00  0.00     0.213 HD
ENDBRANCH  22  23
BRANCH  22  25
HETATM   25  O3  UNL     1      25.856  10.198  52.134  1.00  0.00    -0.198 OA
BRANCH  25  26
HETATM   26  O4  UNL     1      27.023   9.779  51.692  1.00  0.00    -0.247 OA
ATOM     27  H4  UNL     1      27.354   9.121  52.291  1.00  0.00     0.253 HD
ENDBRANCH  25  26
ENDBRANCH  22  25
BRANCH  22  28
HETATM   28  C13 UNL     1      26.721  10.421  54.326  1.00  0.00    -0.029 C 
HETATM   29  C14 UNL     1      26.081   9.538  55.049  1.00  0.00     0.019 C 
HETATM   30  C15 UNL     1      28.141  10.721  54.662  1.00  0.00     0.048 C 
ENDBRANCH  22  28
ENDBRANCH  21  22
ENDBRANCH  18  21
ENDBRANCH   6  18
BRANCH  15  31
HETATM   31  O7  UNL     1      19.967  12.937  51.113  1.00  0.00    -0.372 OA
BRANCH  31  32
HETATM   32  C23 UNL     1      19.492  12.152  50.141  1.00  0.00     0.169 C 
BRANCH  32  33
HETATM   33  C24 UNL     1      19.979  10.763  49.976  1.00  0.00     0.030 C 
BRANCH  33  34
HETATM   34  C25 UNL     1      20.876  10.735  48.735  1.00  0.00    -0.021 C 
HETATM   35  C26 UNL     1      22.325  10.783  49.104  1.00  0.00     0.009 C 
HETATM   36  C27 UNL     1      20.533  11.866  47.801  1.00  0.00     0.009 C 
ENDBRANCH  33  34
ENDBRANCH  32  33
ENDBRANCH  31  32
ENDBRANCH  15  31
BRANCH  14  37
HETATM   37  O6  UNL     1      21.501  17.271  52.613  1.00  0.00    -0.386 OA
ATOM     38  H6  UNL     1      22.156  17.952  52.712  1.00  0.00     0.210 HD
ENDBRANCH  14  37
BRANCH   1  39
HETATM   39  C2  UNL     1      18.433  13.556  54.986  1.00  0.00    -0.077 C 
HETATM   40  C1  UNL     1      18.786  14.419  55.916  1.00  0.00     0.015 C 
HETATM   41  C3  UNL     1      17.310  12.616  55.235  1.00  0.00     0.044 C 
ENDBRANCH   1  39
TORSDOF 14
ENDMDL
MODEL 3
REMARK VINA RESULT: -7.110384033      1.275      1.741
REMARK  14 active torsions:
REMARK  status: ('A' for Active; 'I' for Inactive)
REMARK    1  A    between atoms: C2_2  and  C4_4 
REMARK    2  A    between atoms: C9_9  and  C10_10 
REMARK    3  A    between atoms: C10_10  and  O1_11 
REMARK    4  A    between atoms: C10_10  and  C11_13 
REMARK    5  A    between atoms: C11_13  and  C12_14 
REMARK    6  A    between atoms: C12_14  and  O2_15 
REMARK    7  A    between atoms: C12_14  and  O3_17 
REMARK    8  A    between atoms: C12_14  and  C13_20 
REMARK    9  A    between atoms: O3_17  and  O4_18 
REMARK   10  A    between atoms: C21_30  and  O6_31 
REMARK   11  A    between atoms: C22_33  and  O7_34 
REMARK   12  A    between atoms: O7_34  and  C23_35 
REMARK   13  A    between atoms: C23_35  and  C24_36 
REMARK   14  A    between atoms: C24_36  and  C25_37 
ROOT
HETATM    1  C4  UNL     1      20.222  13.979  53.107  1.00  0.00     0.110 C 
HETATM    2  C5  UNL     1      20.761  15.343  53.309  1.00  0.00     0.030 C 
HETATM    3  C6  UNL     1      22.029  15.762  52.704  1.00  0.00     0.037 C 
HETATM    4  C7  UNL     1      23.164  14.817  52.489  1.00  0.00     0.013 C 
HETATM    5  C8  UNL     1      24.043  15.330  51.381  1.00  0.00     0.020 C 
HETATM    6  C9  UNL     1      24.084  14.713  53.682  1.00  0.00     0.098 C 
HETATM    7  C16 UNL     1      24.623  16.123  53.834  1.00  0.00     0.161 C 
HETATM    8  O5  UNL     1      25.808  16.336  53.982  1.00  0.00    -0.295 OA
HETATM    9  C17 UNL     1      23.724  17.304  53.805  1.00  0.00     0.139 A 
HETATM   10 CL1  UNL     1      24.533  18.836  53.423  1.00  0.00    -0.106 Cl
HETATM   11  C18 UNL     1      22.530  17.333  54.790  1.00  0.00     0.018 A 
HETATM   12  C19 UNL     1      22.798  16.477  55.956  1.00  0.00     0.020 C 
HETATM   13  C20 UNL     1      22.207  18.786  55.233  1.00  0.00     0.020 C 
HETATM   14  C21 UNL     1      22.366  17.056  53.385  1.00  0.00     0.101 A 
HETATM   15  C22 UNL     1      22.665  13.482  52.018  1.00  0.00     0.224 C 
HETATM   16  S1  UNL     1      21.601  12.900  53.394  1.00  0.00     0.053 S 
HETATM   17  O8  UNL     1      21.251  11.307  53.238  1.00  0.00    -0.255 OA
ENDROOT
BRANCH   6  18
HETATM   18  C10 UNL     1      25.301  13.871  53.484  1.00  0.00     0.136 C 
BRANCH  18  19
HETATM   19  O1  UNL     1      26.406  14.237  54.242  1.00  0.00    -0.395 OA
ATOM     20  H1  UNL     1      26.209  14.654  55.073  1.00  0.00     0.210 HD
ENDBRANCH  18  19
BRANCH  18  21
HETATM   21  C11 UNL     1      24.952  12.420  53.609  1.00  0.00     0.108 C 
BRANCH  21  22
HETATM   22  C12 UNL     1      26.055  11.492  53.174  1.00  0.00     0.221 C 
BRANCH  22  23
HETATM   23  O2  UNL     1      27.128  12.179  52.602  1.00  0.00    -0.360 OA
ATOM     24  H2  UNL     1      26.877  12.648  51.815  1.00  0.00     0.213 HD
ENDBRANCH  22  23
BRANCH  22  25
HETATM   25  O3  UNL     1      25.488  10.609  52.260  1.00  0.00    -0.198 OA
BRANCH  25  26
HETATM   26  O4  UNL     1      26.457   9.943  51.666  1.00  0.00    -0.247 OA
ATOM     27  H4  UNL     1      26.081   9.427  50.962  1.00  0.00     0.253 HD
ENDBRANCH  25  26
ENDBRANCH  22  25
BRANCH  22  28
HETATM   28  C13 UNL     1      26.599  10.784  54.343  1.00  0.00    -0.029 C 
HETATM   29  C14 UNL     1      27.842  10.948  54.718  1.00  0.00     0.019 C 
HETATM   30  C15 UNL     1      25.726   9.885  55.148  1.00  0.00     0.048 C 
ENDBRANCH  22  28
ENDBRANCH  21  22
ENDBRANCH  18  21
ENDBRANCH   6  18
BRANCH  15  31
HETATM   31  O7  UNL     1      21.893  13.648  50.912  1.00  0.00    -0.372 OA
BRANCH  31  32
HETATM   32  C23 UNL     1      21.633  12.648  50.062  1.00  0.00     0.169 C 
BRANCH  32  33
HETATM   33  C24 UNL     1      20.272  12.075  49.955  1.00  0.00     0.030 C 
BRANCH  33  34
HETATM   34  C25 UNL     1      20.177  11.366  48.600  1.00  0.00    -0.021 C 
HETATM   35  C26 UNL     1      21.127  11.953  47.606  1.00  0.00     0.009 C 
HETATM   36  C27 UNL     1      18.767  11.410  48.072  1.00  0.00     0.009 C 
ENDBRANCH  33  34
ENDBRANCH  32  33
ENDBRANCH  31  32
ENDBRANCH  15  31
BRANCH  14  37
HETATM   37  O6  UNL     1      21.815  18.160  52.649  1.00  0.00    -0.386 OA
ATOM     38  H6  UNL     1      21.397  18.773  53.243  1.00  0.00     0.210 HD
ENDBRANCH  14  37
BRANCH   1  39
HETATM   39  C2  UNL     1      19.125  13.738  54.083  1.00  0.00    -0.077 C 
HETATM   40  C1  UNL     1      19.029  14.557  55.111  1.00  0.00     0.015 C 
HETATM   41  C3  UNL     1      18.155  12.622  53.933  1.00  0.00     0.044 C 
ENDBRANCH   1  39
TORSDOF 14
ENDMDL
MODEL 4
REMARK VINA RESULT: -7.081147009      1.187      1.566
REMARK  14 active torsions:
REMARK  status: ('A' for Active; 'I' for Inactive)
REMARK    1  A    between atoms: C2_2  and  C4_4 
REMARK    2  A    between atoms: C9_9  and  C10_10 
REMARK    3  A    between atoms: C10_10  and  O1_11 
REMARK    4  A    between atoms: C10_10  and  C11_13 
REMARK    5  A    between atoms: C11_13  and  C12_14 
REMARK    6  A    between atoms: C12_14  and  O2_15 
REMARK    7  A    between atoms: C12_14  and  O3_17 
REMARK    8  A    between atoms: C12_14  and  C13_20 
REMARK    9  A    between atoms: O3_17  and  O4_18 
REMARK   10  A    between atoms: C21_30  and  O6_31 
REMARK   11  A    between atoms: C22_33  and  O7_34 
REMARK   12  A    between atoms: O7_34  and  C23_35 
REMARK   13  A    between atoms: C23_35  and  C24_36 
REMARK   14  A    between atoms: C24_36  and  C25_37 
ROOT
HETATM    1  C4  UNL     1      20.153  13.270  52.595  1.00  0.00     0.110 C 
HETATM    2  C5  UNL     1      20.573  14.642  52.956  1.00  0.00     0.030 C 
HETATM    3  C6  UNL     1      21.875  15.176  52.543  1.00  0.00     0.037 C 
HETATM    4  C7  UNL     1      23.086  14.315  52.407  1.00  0.00     0.013 C 
HETATM    5  C8  UNL     1      24.057  14.959  51.455  1.00  0.00     0.020 C 
HETATM    6  C9  UNL     1      23.861  14.173  53.696  1.00  0.00     0.098 C 
HETATM    7  C16 UNL     1      24.286  15.595  54.009  1.00  0.00     0.161 C 
HETATM    8  O5  UNL     1      25.427  15.863  54.319  1.00  0.00    -0.295 OA
HETATM    9  C17 UNL     1      23.321  16.723  53.949  1.00  0.00     0.139 A 
HETATM   10 CL1  UNL     1      24.070  18.322  53.776  1.00  0.00    -0.106 Cl
HETATM   11  C18 UNL     1      22.018  16.610  54.777  1.00  0.00     0.018 A 
HETATM   12  C19 UNL     1      22.199  15.685  55.906  1.00  0.00     0.020 C 
HETATM   13  C20 UNL     1      21.551  18.006  55.274  1.00  0.00     0.020 C 
HETATM   14  C21 UNL     1      22.043  16.432  53.347  1.00  0.00     0.101 A 
HETATM   15  C22 UNL     1      22.735  12.994  51.788  1.00  0.00     0.224 C 
HETATM   16  S1  UNL     1      21.554  12.251  52.978  1.00  0.00     0.053 S 
HETATM   17  O8  UNL     1      21.329  10.657  52.671  1.00  0.00    -0.255 OA
ENDROOT
BRANCH   6  18
HETATM   18  C10 UNL     1      25.146  13.418  53.594  1.00  0.00     0.136 C 
BRANCH  18  19
HETATM   19  O1  UNL     1      26.272  14.101  54.033  1.00  0.00    -0.395 OA
ATOM     20  H1  UNL     1      26.102  14.927  54.471  1.00  0.00     0.210 HD
ENDBRANCH  18  19
BRANCH  18  21
HETATM   21  C11 UNL     1      24.997  12.061  54.213  1.00  0.00     0.108 C 
BRANCH  21  22
HETATM   22  C12 UNL     1      25.788  10.988  53.513  1.00  0.00     0.221 C 
BRANCH  22  23
HETATM   23  O2  UNL     1      26.877  11.508  52.809  1.00  0.00    -0.360 OA
ATOM     24  H2  UNL     1      27.539  10.850  52.634  1.00  0.00     0.213 HD
ENDBRANCH  22  23
BRANCH  22  25
HETATM   25  O3  UNL     1      24.902  10.346  52.651  1.00  0.00    -0.198 OA
BRANCH  25  26
HETATM   26  O4  UNL     1      25.529  10.088  51.523  1.00  0.00    -0.247 OA
ATOM     27  H4  UNL     1      25.541   9.148  51.392  1.00  0.00     0.253 HD
ENDBRANCH  25  26
ENDBRANCH  22  25
BRANCH  22  28
HETATM   28  C13 UNL     1      26.348  10.056  54.503  1.00  0.00    -0.029 C 
HETATM   29  C14 UNL     1      25.690   9.747  55.591  1.00  0.00     0.019 C 
HETATM   30  C15 UNL     1      27.672   9.416  54.266  1.00  0.00     0.048 C 
ENDBRANCH  22  28
ENDBRANCH  21  22
ENDBRANCH  18  21
ENDBRANCH   6  18
BRANCH  15  31
HETATM   31  O7  UNL     1      22.094  13.199  50.608  1.00  0.00    -0.372 OA
BRANCH  31  32
HETATM   32  C23 UNL     1      22.351  12.472  49.516  1.00  0.00     0.169 C 
BRANCH  32  33
HETATM   33  C24 UNL     1      22.077  11.017  49.487  1.00  0.00     0.030 C 
BRANCH  33  34
HETATM   34  C25 UNL     1      20.760  10.812  48.731  1.00  0.00    -0.021 C 
HETATM   35  C26 UNL     1      20.623  11.777  47.597  1.00  0.00     0.009 C 
HETATM   36  C27 UNL     1      19.584  10.926  49.665  1.00  0.00     0.009 C 
ENDBRANCH  33  34
ENDBRANCH  32  33
ENDBRANCH  31  32
ENDBRANCH  15  31
BRANCH  14  37
HETATM   37  O6  UNL     1      21.514  17.556  52.625  1.00  0.00    -0.386 OA
ATOM     38  H6  UNL     1      22.130  18.278  52.647  1.00  0.00     0.210 HD
ENDBRANCH  14  37
BRANCH   1  39
HETATM   39  C2  UNL     1      18.963  12.894  53.408  1.00  0.00    -0.077 C 
HETATM   40  C1  UNL     1      18.455  11.692  53.230  1.00  0.00     0.015 C 
HETATM   41  C3  UNL     1      18.347  13.820  54.394  1.00  0.00     0.044 C 
ENDBRANCH   1  39
TORSDOF 14
ENDMDL
MODEL 5
REMARK VINA RESULT: -6.703447851      1.473      1.915
REMARK  14 active torsions:
REMARK  status: ('A' for Active; 'I' for Inactive)
REMARK    1  A    between atoms: C2_2  and  C4_4 
REMARK    2  A    between atoms: C9_9  and  C10_10 
REMARK    3  A    between atoms: C10_10  and  O1_11 
REMARK    4  A    between atoms: C10_10  and  C11_13 
REMARK    5  A    between atoms: C11_13  and  C12_14 
REMARK    6  A    between atoms: C12_14  and  O2_15 
REMARK    7  A    between atoms: C12_14  and  O3_17 
REMARK    8  A    between atoms: C12_14  and  C13_20 
REMARK    9  A    between atoms: O3_17  and  O4_18 
REMARK   10  A    between atoms: C21_30  and  O6_31 
REMARK   11  A    between atoms: C22_33  and  O7_34 
REMARK   12  A    between atoms: O7_34  and  C23_35 
REMARK   13  A    between atoms: C23_35  and  C24_36 
REMARK   14  A    between atoms: C24_36  and  C25_37 
ROOT
HETATM    1  C4  UNL     1      19.174  13.642  53.679  1.00  0.00     0.110 C 
HETATM    2  C5  UNL     1      19.980  14.884  53.701  1.00  0.00     0.030 C 
HETATM    3  C6  UNL     1      21.105  15.081  52.781  1.00  0.00     0.037 C 
HETATM    4  C7  UNL     1      21.960  13.953  52.310  1.00  0.00     0.013 C 
HETATM    5  C8  UNL     1      22.604  14.323  51.002  1.00  0.00     0.020 C 
HETATM    6  C9  UNL     1      23.121  13.664  53.233  1.00  0.00     0.098 C 
HETATM    7  C16 UNL     1      23.923  14.952  53.204  1.00  0.00     0.161 C 
HETATM    8  O5  UNL     1      25.124  14.948  53.040  1.00  0.00    -0.295 OA
HETATM    9  C17 UNL     1      23.270  16.275  53.373  1.00  0.00     0.139 A 
HETATM   10 CL1  UNL     1      24.213  17.645  52.756  1.00  0.00    -0.106 Cl
HETATM   11  C18 UNL     1      22.391  16.497  54.628  1.00  0.00     0.018 A 
HETATM   12  C19 UNL     1      22.792  15.584  55.710  1.00  0.00     0.020 C 
HETATM   13  C20 UNL     1      22.455  17.975  55.099  1.00  0.00     0.020 C 
HETATM   14  C21 UNL     1      21.828  16.281  53.319  1.00  0.00     0.101 A 
HETATM   15  C22 UNL     1      21.129  12.738  52.018  1.00  0.00     0.224 C 
HETATM   16  S1  UNL     1      20.367  12.329  53.635  1.00  0.00     0.053 S 
HETATM   17  O8  UNL     1      19.711  10.827  53.617  1.00  0.00    -0.255 OA
ENDROOT
BRANCH   6  18
HETATM   18  C10 UNL     1      24.079  12.622  52.754  1.00  0.00     0.136 C 
BRANCH  18  19
HETATM   19  O1  UNL     1      24.964  13.037  51.768  1.00  0.00    -0.395 OA
ATOM     20  H1  UNL     1      25.664  12.427  51.567  1.00  0.00     0.210 HD
ENDBRANCH  18  19
BRANCH  18  21
HETATM   21  C11 UNL     1      24.755  11.968  53.920  1.00  0.00     0.108 C 
BRANCH  21  22
HETATM   22  C12 UNL     1      25.713  10.875  53.528  1.00  0.00     0.221 C 
BRANCH  22  23
HETATM   23  O2  UNL     1      25.545  10.476  52.200  1.00  0.00    -0.360 OA
ATOM     24  H2  UNL     1      24.716  10.034  52.059  1.00  0.00     0.213 HD
ENDBRANCH  22  23
BRANCH  22  25
HETATM   25  O3  UNL     1      25.477   9.814  54.397  1.00  0.00    -0.198 OA
BRANCH  25  26
HETATM   26  O4  UNL     1      25.181  10.303  55.583  1.00  0.00    -0.247 OA
ATOM     27  H4  UNL     1      24.237  10.383  55.650  1.00  0.00     0.253 HD
ENDBRANCH  25  26
ENDBRANCH  22  25
BRANCH  22  28
HETATM   28  C13 UNL     1      27.097  11.364  53.636  1.00  0.00    -0.029 C 
HETATM   29  C14 UNL     1      27.362  12.542  54.140  1.00  0.00     0.019 C 
HETATM   30  C15 UNL     1      28.232  10.503  53.202  1.00  0.00     0.048 C 
ENDBRANCH  22  28
ENDBRANCH  21  22
ENDBRANCH  18  21
ENDBRANCH   6  18
BRANCH  15  31
HETATM   31  O7  UNL     1      20.143  13.060  51.141  1.00  0.00    -0.372 OA
BRANCH  31  32
HETATM   32  C23 UNL     1      19.704  12.206  50.211  1.00  0.00     0.169 C 
BRANCH  32  33
HETATM   33  C24 UNL     1      20.256  10.835  50.114  1.00  0.00     0.030 C 
BRANCH  33  34
HETATM   34  C25 UNL     1      21.146  10.785  48.868  1.00  0.00    -0.021 C 
HETATM   35  C26 UNL     1      22.586  10.994  49.213  1.00  0.00     0.009 C 
HETATM   36  C27 UNL     1      20.696  11.799  47.849  1.00  0.00     0.009 C 
ENDBRANCH  33  34
ENDBRANCH  32  33
ENDBRANCH  31  32
ENDBRANCH  15  31
BRANCH  14  37
HETATM   37  O6  UNL     1      21.312  17.480  52.718  1.00  0.00    -0.386 OA
ATOM     38  H6  UNL     1      22.004  17.937  52.255  1.00  0.00     0.210 HD
ENDBRANCH  14  37
BRANCH   1  39
HETATM   39  C2  UNL     1      18.337  13.582  54.909  1.00  0.00    -0.077 C 
HETATM   40  C1  UNL     1      18.527  14.510  55.824  1.00  0.00     0.015 C 
HETATM   41  C3  UNL     1      17.316  12.525  55.127  1.00  0.00     0.044 C 
ENDBRANCH   1  39
TORSDOF 14
ENDMDL
