MODEL 1
REMARK VINA RESULT: -7.637360398      0.000      0.000
REMARK  11 active torsions:
REMARK  status: ('A' for Active; 'I' for Inactive)
REMARK    1  A    between atoms: N1_2  and  C3_4 
REMARK    2  A    between atoms: C3_4  and  C4_5 
REMARK    3  A    between atoms: C7_9  and  N2_10 
REMARK    4  A    between atoms: N2_10  and  C8_12 
REMARK    5  A    between atoms: C9_15  and  C10_16 
REMARK    6  A    between atoms: C10_16  and  C11_17 
REMARK    7  A    between atoms: C11_17  and  O1_18 
REMARK    8  A    between atoms: C13_23  and  O2_24 
REMARK    9  A    between atoms: O2_24  and  C14_25 
REMARK   10  A    between atoms: C20_36  and  O4_37 
REMARK   11  A    between atoms: O4_37  and  C21_38 
ROOT
HETATM    1  N2  UNL     1     -49.634 -12.432 -22.432  1.00  0.00    -0.338 N 
ATOM      2  H2  UNL     1     -48.719 -12.786 -22.710  1.00  0.00     0.167 HD
ENDROOT
BRANCH   1   3
HETATM    3  C7  UNL     1     -50.468 -11.875 -23.426  1.00  0.00     0.075 A 
HETATM    4  C6  UNL     1     -50.424 -10.530 -23.700  1.00  0.00     0.144 A 
HETATM    5  C5  UNL     1     -51.241  -9.951 -24.683  1.00  0.00     0.060 A 
HETATM    6  F1  UNL     1     -49.559  -9.752 -22.992  1.00  0.00    -0.204 F 
HETATM    7  C4  UNL     1     -52.118 -10.718 -25.409  1.00  0.00     0.015 A 
HETATM    8  C20 UNL     1     -52.169 -12.100 -25.132  1.00  0.00     0.083 A 
HETATM    9  C19 UNL     1     -51.360 -12.628 -24.168  1.00  0.00     0.070 A 
BRANCH   7  10
HETATM   10  C3  UNL     1     -53.029 -10.159 -26.440  1.00  0.00     0.099 C 
BRANCH  10  11
HETATM   11  N1  UNL     1     -53.553  -8.905 -26.093  1.00  0.00    -0.398 N 
HETATM   12  C1  UNL     1     -54.635  -8.864 -25.169  1.00  0.00     0.148 C 
HETATM   13  C2  UNL     1     -53.514  -7.870 -27.066  1.00  0.00     0.148 C 
ENDBRANCH  10  11
ENDBRANCH   7  10
BRANCH   8  14
HETATM   14  O4  UNL     1     -53.045 -12.832 -25.864  1.00  0.00    -0.345 OA
BRANCH  14  15
HETATM   15  C21 UNL     1     -52.847 -13.889 -26.731  1.00  0.00     0.133 C 
HETATM   16  C22 UNL     1     -51.920 -13.451 -27.833  1.00  0.00     0.060 C 
HETATM   17  C23 UNL     1     -52.635 -12.997 -29.071  1.00  0.00     0.236 C 
HETATM   18  N7  UNL     1     -54.004 -12.672 -28.874  1.00  0.00    -0.067 N 
HETATM   19  C24 UNL     1     -54.769 -13.760 -28.364  1.00  0.00     0.121 C 
ATOM     20  H72 UNL     1     -54.101 -11.849 -28.280  1.00  0.00     0.278 HD
ATOM     21  H71 UNL     1     -54.418 -12.307 -29.733  1.00  0.00     0.278 HD
HETATM   22  C25 UNL     1     -56.117 -13.188 -27.905  1.00  0.00     0.046 C 
HETATM   23  C26 UNL     1     -55.122 -14.682 -29.538  1.00  0.00     0.046 C 
HETATM   24  C27 UNL     1     -54.113 -14.514 -27.254  1.00  0.00     0.070 C 
ENDBRANCH  14  15
ENDBRANCH   8  14
ENDBRANCH   1   3
BRANCH   1  25
HETATM   25  C8  UNL     1     -49.973 -12.516 -21.186  1.00  0.00     0.137 A 
HETATM   26  N3  UNL     1     -49.938 -11.502 -20.322  1.00  0.00    -0.330 N 
HETATM   27  C9  UNL     1     -50.292 -11.621 -19.031  1.00  0.00     0.085 A 
ATOM     28  H3  UNL     1     -49.628 -10.590 -20.658  1.00  0.00     0.168 HD
HETATM   29  N4  UNL     1     -50.697 -12.833 -18.613  1.00  0.00    -0.340 N 
HETATM   30  C12 UNL     1     -50.767 -13.924 -19.410  1.00  0.00     0.116 A 
ATOM     31  H4  UNL     1     -50.969 -12.937 -17.636  1.00  0.00     0.167 HD
HETATM   32  C13 UNL     1     -51.196 -15.161 -18.909  1.00  0.00     0.173 A 
HETATM   33  C18 UNL     1     -50.401 -13.775 -20.721  1.00  0.00     0.109 A 
HETATM   34  N5  UNL     1     -51.205 -16.171 -19.857  1.00  0.00    -0.331 N 
HETATM   35  C17 UNL     1     -50.841 -15.978 -21.122  1.00  0.00     0.183 A 
ATOM     36  H5  UNL     1     -51.504 -17.104 -19.573  1.00  0.00     0.168 HD
HETATM   37  N6  UNL     1     -50.432 -14.799 -21.599  1.00  0.00    -0.347 N 
ATOM     38  H6  UNL     1     -50.158 -14.680 -22.574  1.00  0.00     0.167 HD
BRANCH  27  39
HETATM   39  C10 UNL     1     -50.242 -10.461 -18.089  1.00  0.00     0.102 C 
BRANCH  39  40
HETATM   40  C11 UNL     1     -48.830  -9.871 -18.130  1.00  0.00     0.171 C 
BRANCH  40  41
HETATM   41  O1  UNL     1     -47.911 -10.842 -18.482  1.00  0.00    -0.400 OA
ATOM     42  H1  UNL     1     -47.207 -10.463 -18.997  1.00  0.00     0.209 HD
ENDBRANCH  40  41
ENDBRANCH  39  40
ENDBRANCH  27  39
BRANCH  32  43
HETATM   43  O2  UNL     1     -51.549 -15.368 -17.705  1.00  0.00    -0.324 OA
BRANCH  43  44
HETATM   44  C14 UNL     1     -52.180 -15.547 -16.600  1.00  0.00     0.178 C 
HETATM   45  C15 UNL     1     -53.446 -16.435 -16.616  1.00  0.00     0.202 C 
HETATM   46  O3  UNL     1     -54.032 -15.469 -15.801  1.00  0.00    -0.386 OA
HETATM   47  C16 UNL     1     -53.171 -14.431 -16.186  1.00  0.00     0.202 C 
ENDBRANCH  43  44
ENDBRANCH  32  43
ENDBRANCH   1  25
TORSDOF 11
ENDMDL
MODEL 2
REMARK VINA RESULT: -7.630663935      3.486      5.694
REMARK  11 active torsions:
REMARK  status: ('A' for Active; 'I' for Inactive)
REMARK    1  A    between atoms: N1_2  and  C3_4 
REMARK    2  A    between atoms: C3_4  and  C4_5 
REMARK    3  A    between atoms: C7_9  and  N2_10 
REMARK    4  A    between atoms: N2_10  and  C8_12 
REMARK    5  A    between atoms: C9_15  and  C10_16 
REMARK    6  A    between atoms: C10_16  and  C11_17 
REMARK    7  A    between atoms: C11_17  and  O1_18 
REMARK    8  A    between atoms: C13_23  and  O2_24 
REMARK    9  A    between atoms: O2_24  and  C14_25 
REMARK   10  A    between atoms: C20_36  and  O4_37 
REMARK   11  A    between atoms: O4_37  and  C21_38 
ROOT
HETATM    1  N2  UNL     1     -53.165 -12.649 -21.466  1.00  0.00    -0.338 N 
ATOM      2  H2  UNL     1     -52.936 -13.613 -21.710  1.00  0.00     0.167 HD
ENDROOT
BRANCH   1   3
HETATM    3  C7  UNL     1     -54.285 -12.050 -22.083  1.00  0.00     0.075 A 
HETATM    4  C6  UNL     1     -55.557 -12.352 -21.663  1.00  0.00     0.144 A 
HETATM    5  C5  UNL     1     -56.687 -11.770 -22.259  1.00  0.00     0.060 A 
HETATM    6  F1  UNL     1     -55.709 -13.238 -20.642  1.00  0.00    -0.204 F 
HETATM    7  C4  UNL     1     -56.555 -10.873 -23.289  1.00  0.00     0.015 A 
HETATM    8  C20 UNL     1     -55.252 -10.558 -23.726  1.00  0.00     0.083 A 
HETATM    9  C19 UNL     1     -54.175 -11.144 -23.124  1.00  0.00     0.070 A 
BRANCH   7  10
HETATM   10  C3  UNL     1     -57.712 -10.248 -23.979  1.00  0.00     0.099 C 
BRANCH  10  11
HETATM   11  N1  UNL     1     -58.632  -9.665 -23.095  1.00  0.00    -0.398 N 
HETATM   12  C1  UNL     1     -59.997 -10.060 -23.192  1.00  0.00     0.148 C 
HETATM   13  C2  UNL     1     -58.390  -8.334 -22.657  1.00  0.00     0.148 C 
ENDBRANCH  10  11
ENDBRANCH   7  10
BRANCH   8  14
HETATM   14  O4  UNL     1     -55.152  -9.670 -24.745  1.00  0.00    -0.345 OA
BRANCH  14  15
HETATM   15  C21 UNL     1     -54.438  -8.493 -24.861  1.00  0.00     0.133 C 
HETATM   16  C22 UNL     1     -55.392  -7.332 -24.779  1.00  0.00     0.060 C 
HETATM   17  C23 UNL     1     -55.824  -6.818 -26.121  1.00  0.00     0.236 C 
HETATM   18  N7  UNL     1     -55.609  -7.722 -27.196  1.00  0.00    -0.067 N 
HETATM   19  C24 UNL     1     -54.242  -8.094 -27.347  1.00  0.00     0.121 C 
ATOM     20  H72 UNL     1     -56.202  -8.546 -27.102  1.00  0.00     0.278 HD
ATOM     21  H71 UNL     1     -55.982  -7.346 -28.068  1.00  0.00     0.278 HD
HETATM   22  C25 UNL     1     -54.204  -9.291 -28.307  1.00  0.00     0.046 C 
HETATM   23  C26 UNL     1     -53.526  -6.969 -28.106  1.00  0.00     0.046 C 
HETATM   24  C27 UNL     1     -53.542  -8.422 -26.069  1.00  0.00     0.070 C 
ENDBRANCH  14  15
ENDBRANCH   8  14
ENDBRANCH   1   3
BRANCH   1  25
HETATM   25  C8  UNL     1     -52.415 -12.037 -20.608  1.00  0.00     0.137 A 
HETATM   26  N3  UNL     1     -52.835 -11.575 -19.431  1.00  0.00    -0.330 N 
HETATM   27  C9  UNL     1     -52.033 -10.938 -18.560  1.00  0.00     0.085 A 
ATOM     28  H3  UNL     1     -53.814 -11.713 -19.177  1.00  0.00     0.168 HD
HETATM   29  N4  UNL     1     -50.748 -10.768 -18.919  1.00  0.00    -0.340 N 
HETATM   30  C12 UNL     1     -50.226 -11.198 -20.090  1.00  0.00     0.116 A 
ATOM     31  H4  UNL     1     -50.129 -10.286 -18.267  1.00  0.00     0.167 HD
HETATM   32  C13 UNL     1     -48.875 -10.986 -20.402  1.00  0.00     0.173 A 
HETATM   33  C18 UNL     1     -51.064 -11.845 -20.958  1.00  0.00     0.109 A 
HETATM   34  N5  UNL     1     -48.507 -11.487 -21.640  1.00  0.00    -0.331 N 
HETATM   35  C17 UNL     1     -49.358 -12.110 -22.450  1.00  0.00     0.183 A 
ATOM     36  H5  UNL     1     -47.540 -11.372 -21.944  1.00  0.00     0.168 HD
HETATM   37  N6  UNL     1     -50.645 -12.312 -22.152  1.00  0.00    -0.347 N 
ATOM     38  H6  UNL     1     -51.276 -12.793 -22.793  1.00  0.00     0.167 HD
BRANCH  27  39
HETATM   39  C10 UNL     1     -52.537 -10.434 -17.247  1.00  0.00     0.102 C 
BRANCH  39  40
HETATM   40  C11 UNL     1     -53.388 -11.533 -16.606  1.00  0.00     0.171 C 
BRANCH  40  41
HETATM   41  O1  UNL     1     -52.606 -12.629 -16.293  1.00  0.00    -0.400 OA
ATOM     42  H1  UNL     1     -53.129 -13.301 -15.870  1.00  0.00     0.209 HD
ENDBRANCH  40  41
ENDBRANCH  39  40
ENDBRANCH  27  39
BRANCH  32  43
HETATM   43  O2  UNL     1     -48.044 -10.393 -19.643  1.00  0.00    -0.324 OA
BRANCH  43  44
HETATM   44  C14 UNL     1     -47.065  -9.736 -19.134  1.00  0.00     0.178 C 
HETATM   45  C15 UNL     1     -45.642 -10.331 -19.258  1.00  0.00     0.202 C 
HETATM   46  O3  UNL     1     -45.463  -9.961 -17.927  1.00  0.00    -0.386 OA
HETATM   47  C16 UNL     1     -46.829  -9.923 -17.614  1.00  0.00     0.202 C 
ENDBRANCH  43  44
ENDBRANCH  32  43
ENDBRANCH   1  25
TORSDOF 11
ENDMDL
MODEL 3
REMARK VINA RESULT: -7.548323173      2.706      5.271
REMARK  11 active torsions:
REMARK  status: ('A' for Active; 'I' for Inactive)
REMARK    1  A    between atoms: N1_2  and  C3_4 
REMARK    2  A    between atoms: C3_4  and  C4_5 
REMARK    3  A    between atoms: C7_9  and  N2_10 
REMARK    4  A    between atoms: N2_10  and  C8_12 
REMARK    5  A    between atoms: C9_15  and  C10_16 
REMARK    6  A    between atoms: C10_16  and  C11_17 
REMARK    7  A    between atoms: C11_17  and  O1_18 
REMARK    8  A    between atoms: C13_23  and  O2_24 
REMARK    9  A    between atoms: O2_24  and  C14_25 
REMARK   10  A    between atoms: C20_36  and  O4_37 
REMARK   11  A    between atoms: O4_37  and  C21_38 
ROOT
HETATM    1  N2  UNL     1     -52.518 -12.419 -21.680  1.00  0.00    -0.338 N 
ATOM      2  H2  UNL     1     -52.984 -13.282 -21.399  1.00  0.00     0.167 HD
ENDROOT
BRANCH   1   3
HETATM    3  C7  UNL     1     -52.596 -12.025 -23.033  1.00  0.00     0.075 A 
HETATM    4  C6  UNL     1     -52.384 -12.937 -24.039  1.00  0.00     0.144 A 
HETATM    5  C5  UNL     1     -52.456 -12.573 -25.391  1.00  0.00     0.060 A 
HETATM    6  F1  UNL     1     -52.099 -14.223 -23.697  1.00  0.00    -0.204 F 
HETATM    7  C4  UNL     1     -52.743 -11.281 -25.757  1.00  0.00     0.015 A 
HETATM    8  C20 UNL     1     -52.961 -10.339 -24.731  1.00  0.00     0.083 A 
HETATM    9  C19 UNL     1     -52.882 -10.729 -23.425  1.00  0.00     0.070 A 
BRANCH   7  10
HETATM   10  C3  UNL     1     -52.803 -10.828 -27.170  1.00  0.00     0.099 C 
BRANCH  10  11
HETATM   11  N1  UNL     1     -53.251 -11.824 -28.050  1.00  0.00    -0.398 N 
HETATM   12  C1  UNL     1     -52.301 -12.419 -28.928  1.00  0.00     0.148 C 
HETATM   13  C2  UNL     1     -54.588 -11.745 -28.527  1.00  0.00     0.148 C 
ENDBRANCH  10  11
ENDBRANCH   7  10
BRANCH   8  14
HETATM   14  O4  UNL     1     -53.241  -9.071 -25.122  1.00  0.00    -0.345 OA
BRANCH  14  15
HETATM   15  C21 UNL     1     -54.340  -8.268 -24.886  1.00  0.00     0.133 C 
HETATM   16  C22 UNL     1     -55.592  -9.066 -25.134  1.00  0.00     0.060 C 
HETATM   17  C23 UNL     1     -56.159  -8.876 -26.510  1.00  0.00     0.236 C 
HETATM   18  N7  UNL     1     -55.248  -8.330 -27.453  1.00  0.00    -0.067 N 
HETATM   19  C24 UNL     1     -54.740  -7.057 -27.066  1.00  0.00     0.121 C 
ATOM     20  H72 UNL     1     -54.487  -8.982 -27.643  1.00  0.00     0.278 HD
ATOM     21  H71 UNL     1     -55.667  -8.287 -28.382  1.00  0.00     0.278 HD
HETATM   22  C25 UNL     1     -53.554  -6.744 -27.988  1.00  0.00     0.046 C 
HETATM   23  C26 UNL     1     -55.793  -5.999 -27.421  1.00  0.00     0.046 C 
HETATM   24  C27 UNL     1     -54.330  -6.960 -25.632  1.00  0.00     0.070 C 
ENDBRANCH  14  15
ENDBRANCH   8  14
ENDBRANCH   1   3
BRANCH   1  25
HETATM   25  C8  UNL     1     -51.886 -11.740 -20.778  1.00  0.00     0.137 A 
HETATM   26  N3  UNL     1     -52.440 -11.259 -19.666  1.00  0.00    -0.330 N 
HETATM   27  C9  UNL     1     -51.759 -10.552 -18.748  1.00  0.00     0.085 A 
ATOM     28  H3  UNL     1     -53.432 -11.437 -19.503  1.00  0.00     0.168 HD
HETATM   29  N4  UNL     1     -50.454 -10.330 -18.987  1.00  0.00    -0.340 N 
HETATM   30  C12 UNL     1     -49.800 -10.774 -20.084  1.00  0.00     0.116 A 
ATOM     31  H4  UNL     1     -49.926  -9.795 -18.299  1.00  0.00     0.167 HD
HETATM   32  C13 UNL     1     -48.436 -10.505 -20.273  1.00  0.00     0.173 A 
HETATM   33  C18 UNL     1     -50.517 -11.493 -21.003  1.00  0.00     0.109 A 
HETATM   34  N5  UNL     1     -47.925 -11.030 -21.449  1.00  0.00    -0.331 N 
HETATM   35  C17 UNL     1     -48.662 -11.723 -22.311  1.00  0.00     0.183 A 
ATOM     36  H5  UNL     1     -46.939 -10.878 -21.662  1.00  0.00     0.168 HD
HETATM   37  N6  UNL     1     -49.961 -11.979 -22.131  1.00  0.00    -0.347 N 
ATOM     38  H6  UNL     1     -50.503 -12.514 -22.811  1.00  0.00     0.167 HD
BRANCH  27  39
HETATM   39  C10 UNL     1     -52.413 -10.028 -17.511  1.00  0.00     0.102 C 
BRANCH  39  40
HETATM   40  C11 UNL     1     -53.149 -11.185 -16.831  1.00  0.00     0.171 C 
BRANCH  40  41
HETATM   41  O1  UNL     1     -52.276 -12.223 -16.562  1.00  0.00    -0.400 OA
ATOM     42  H1  UNL     1     -52.702 -13.061 -16.701  1.00  0.00     0.209 HD
ENDBRANCH  40  41
ENDBRANCH  39  40
ENDBRANCH  27  39
BRANCH  32  43
HETATM   43  O2  UNL     1     -47.713  -9.845 -19.462  1.00  0.00    -0.324 OA
BRANCH  43  44
HETATM   44  C14 UNL     1     -46.977  -9.435 -18.491  1.00  0.00     0.178 C 
HETATM   45  C15 UNL     1     -45.607 -10.118 -18.274  1.00  0.00     0.202 C 
HETATM   46  O3  UNL     1     -45.913 -10.110 -16.915  1.00  0.00    -0.386 OA
HETATM   47  C16 UNL     1     -47.301 -10.016 -17.092  1.00  0.00     0.202 C 
ENDBRANCH  43  44
ENDBRANCH  32  43
ENDBRANCH   1  25
TORSDOF 11
ENDMDL
MODEL 4
REMARK VINA RESULT: -7.430650359      3.407      9.772
REMARK  11 active torsions:
REMARK  status: ('A' for Active; 'I' for Inactive)
REMARK    1  A    between atoms: N1_2  and  C3_4 
REMARK    2  A    between atoms: C3_4  and  C4_5 
REMARK    3  A    between atoms: C7_9  and  N2_10 
REMARK    4  A    between atoms: N2_10  and  C8_12 
REMARK    5  A    between atoms: C9_15  and  C10_16 
REMARK    6  A    between atoms: C10_16  and  C11_17 
REMARK    7  A    between atoms: C11_17  and  O1_18 
REMARK    8  A    between atoms: C13_23  and  O2_24 
REMARK    9  A    between atoms: O2_24  and  C14_25 
REMARK   10  A    between atoms: C20_36  and  O4_37 
REMARK   11  A    between atoms: O4_37  and  C21_38 
ROOT
HETATM    1  N2  UNL     1     -52.256  -9.682 -25.693  1.00  0.00    -0.338 N 
ATOM      2  H2  UNL     1     -51.647  -9.320 -26.427  1.00  0.00     0.167 HD
ENDROOT
BRANCH   1   3
HETATM    3  C7  UNL     1     -51.739 -10.657 -24.813  1.00  0.00     0.075 A 
HETATM    4  C6  UNL     1     -51.969 -11.992 -25.038  1.00  0.00     0.144 A 
HETATM    5  C5  UNL     1     -51.466 -12.981 -24.179  1.00  0.00     0.060 A 
HETATM    6  F1  UNL     1     -52.705 -12.349 -26.126  1.00  0.00    -0.204 F 
HETATM    7  C4  UNL     1     -50.721 -12.643 -23.077  1.00  0.00     0.015 A 
HETATM    8  C20 UNL     1     -50.481 -11.274 -22.839  1.00  0.00     0.083 A 
HETATM    9  C19 UNL     1     -50.986 -10.339 -23.696  1.00  0.00     0.070 A 
BRANCH   7  10
HETATM   10  C3  UNL     1     -50.187 -13.641 -22.116  1.00  0.00     0.099 C 
BRANCH  10  11
HETATM   11  N1  UNL     1     -50.752 -14.915 -22.272  1.00  0.00    -0.398 N 
HETATM   12  C1  UNL     1     -51.637 -15.384 -21.259  1.00  0.00     0.148 C 
HETATM   13  C2  UNL     1     -49.997 -15.905 -22.958  1.00  0.00     0.148 C 
ENDBRANCH  10  11
ENDBRANCH   7  10
BRANCH   8  14
HETATM   14  O4  UNL     1     -49.742 -10.970 -21.744  1.00  0.00    -0.345 OA
BRANCH  14  15
HETATM   15  C21 UNL     1     -49.925 -10.019 -20.758  1.00  0.00     0.133 C 
HETATM   16  C22 UNL     1     -48.744 -10.049 -19.825  1.00  0.00     0.060 C 
HETATM   17  C23 UNL     1     -48.969 -10.887 -18.602  1.00  0.00     0.236 C 
HETATM   18  N7  UNL     1     -50.045 -11.809 -18.709  1.00  0.00    -0.067 N 
HETATM   19  C24 UNL     1     -51.294 -11.181 -18.981  1.00  0.00     0.121 C 
ATOM     20  H72 UNL     1     -49.840 -12.528 -19.403  1.00  0.00     0.278 HD
ATOM     21  H71 UNL     1     -50.107 -12.394 -17.875  1.00  0.00     0.278 HD
HETATM   22  C25 UNL     1     -52.277 -12.288 -19.385  1.00  0.00     0.046 C 
HETATM   23  C26 UNL     1     -51.849 -10.636 -17.659  1.00  0.00     0.046 C 
HETATM   24  C27 UNL     1     -51.240 -10.118 -20.030  1.00  0.00     0.070 C 
ENDBRANCH  14  15
ENDBRANCH   8  14
ENDBRANCH   1   3
BRANCH   1  25
HETATM   25  C8  UNL     1     -53.464  -9.224 -25.615  1.00  0.00     0.137 A 
HETATM   26  N3  UNL     1     -54.375  -9.639 -24.735  1.00  0.00    -0.330 N 
HETATM   27  C9  UNL     1     -55.625  -9.148 -24.681  1.00  0.00     0.085 A 
ATOM     28  H3  UNL     1     -54.110 -10.366 -24.070  1.00  0.00     0.168 HD
HETATM   29  N4  UNL     1     -55.949  -8.192 -25.569  1.00  0.00    -0.340 N 
HETATM   30  C12 UNL     1     -55.098  -7.705 -26.501  1.00  0.00     0.116 A 
ATOM     31  H4  UNL     1     -56.895  -7.811 -25.539  1.00  0.00     0.167 HD
HETATM   32  C13 UNL     1     -55.503  -6.707 -27.400  1.00  0.00     0.173 A 
HETATM   33  C18 UNL     1     -53.831  -8.221 -26.534  1.00  0.00     0.109 A 
HETATM   34  N5  UNL     1     -54.510  -6.325 -28.287  1.00  0.00    -0.331 N 
HETATM   35  C17 UNL     1     -53.291  -6.856 -28.281  1.00  0.00     0.183 A 
ATOM     36  H5  UNL     1     -54.724  -5.604 -28.976  1.00  0.00     0.168 HD
HETATM   37  N6  UNL     1     -52.906  -7.806 -27.424  1.00  0.00    -0.347 N 
ATOM     38  H6  UNL     1     -51.964  -8.197 -27.442  1.00  0.00     0.167 HD
BRANCH  27  39
HETATM   39  C10 UNL     1     -56.621  -9.636 -23.680  1.00  0.00     0.102 C 
BRANCH  39  40
HETATM   40  C11 UNL     1     -57.935  -8.883 -23.904  1.00  0.00     0.171 C 
BRANCH  40  41
HETATM   41  O1  UNL     1     -57.937  -7.694 -23.199  1.00  0.00    -0.400 OA
ATOM     42  H1  UNL     1     -58.749  -7.223 -23.344  1.00  0.00     0.209 HD
ENDBRANCH  40  41
ENDBRANCH  39  40
ENDBRANCH  27  39
BRANCH  32  43
HETATM   43  O2  UNL     1     -56.662  -6.185 -27.424  1.00  0.00    -0.324 OA
BRANCH  43  44
HETATM   44  C14 UNL     1     -57.689  -5.417 -27.346  1.00  0.00     0.178 C 
HETATM   45  C15 UNL     1     -57.582  -4.139 -26.483  1.00  0.00     0.202 C 
HETATM   46  O3  UNL     1     -58.852  -4.457 -26.004  1.00  0.00    -0.386 OA
HETATM   47  C16 UNL     1     -58.772  -5.822 -26.314  1.00  0.00     0.202 C 
ENDBRANCH  43  44
ENDBRANCH  32  43
ENDBRANCH   1  25
TORSDOF 11
ENDMDL
MODEL 5
REMARK VINA RESULT: -7.419969367      2.976      5.232
REMARK  11 active torsions:
REMARK  status: ('A' for Active; 'I' for Inactive)
REMARK    1  A    between atoms: N1_2  and  C3_4 
REMARK    2  A    between atoms: C3_4  and  C4_5 
REMARK    3  A    between atoms: C7_9  and  N2_10 
REMARK    4  A    between atoms: N2_10  and  C8_12 
REMARK    5  A    between atoms: C9_15  and  C10_16 
REMARK    6  A    between atoms: C10_16  and  C11_17 
REMARK    7  A    between atoms: C11_17  and  O1_18 
REMARK    8  A    between atoms: C13_23  and  O2_24 
REMARK    9  A    between atoms: O2_24  and  C14_25 
REMARK   10  A    between atoms: C20_36  and  O4_37 
REMARK   11  A    between atoms: O4_37  and  C21_38 
ROOT
HETATM    1  N2  UNL     1     -50.636 -16.210 -20.293  1.00  0.00    -0.338 N 
ATOM      2  H2  UNL     1     -50.162 -16.930 -19.747  1.00  0.00     0.167 HD
ENDROOT
BRANCH   1   3
HETATM    3  C7  UNL     1     -50.996 -16.507 -21.625  1.00  0.00     0.075 A 
HETATM    4  C6  UNL     1     -51.094 -17.810 -22.048  1.00  0.00     0.144 A 
HETATM    5  C5  UNL     1     -51.450 -18.133 -23.366  1.00  0.00     0.060 A 
HETATM    6  F1  UNL     1     -50.835 -18.802 -21.153  1.00  0.00    -0.204 F 
HETATM    7  C4  UNL     1     -51.715 -17.148 -24.284  1.00  0.00     0.015 A 
HETATM    8  C20 UNL     1     -51.617 -15.807 -23.858  1.00  0.00     0.083 A 
HETATM    9  C19 UNL     1     -51.267 -15.530 -22.567  1.00  0.00     0.070 A 
BRANCH   7  10
HETATM   10  C3  UNL     1     -52.068 -17.425 -25.699  1.00  0.00     0.099 C 
BRANCH  10  11
HETATM   11  N1  UNL     1     -53.294 -18.092 -25.842  1.00  0.00    -0.398 N 
HETATM   12  C1  UNL     1     -53.346 -19.217 -26.714  1.00  0.00     0.148 C 
HETATM   13  C2  UNL     1     -54.489 -17.333 -25.719  1.00  0.00     0.148 C 
ENDBRANCH  10  11
ENDBRANCH   7  10
BRANCH   8  14
HETATM   14  O4  UNL     1     -51.885 -14.855 -24.785  1.00  0.00    -0.345 OA
BRANCH  14  15
HETATM   15  C21 UNL     1     -52.862 -13.880 -24.834  1.00  0.00     0.133 C 
HETATM   16  C22 UNL     1     -52.968 -13.363 -26.244  1.00  0.00     0.060 C 
HETATM   17  C23 UNL     1     -52.171 -12.115 -26.484  1.00  0.00     0.236 C 
HETATM   18  N7  UNL     1     -51.164 -11.862 -25.515  1.00  0.00    -0.067 N 
HETATM   19  C24 UNL     1     -51.679 -11.742 -24.192  1.00  0.00     0.121 C 
ATOM     20  H72 UNL     1     -50.432 -12.572 -25.557  1.00  0.00     0.278 HD
ATOM     21  H71 UNL     1     -50.614 -11.041 -25.766  1.00  0.00     0.278 HD
HETATM   22  C25 UNL     1     -50.481 -11.797 -23.234  1.00  0.00     0.046 C 
HETATM   23  C26 UNL     1     -52.238 -10.323 -24.028  1.00  0.00     0.046 C 
HETATM   24  C27 UNL     1     -52.693 -12.776 -23.824  1.00  0.00     0.070 C 
ENDBRANCH  14  15
ENDBRANCH   8  14
ENDBRANCH   1   3
BRANCH   1  25
HETATM   25  C8  UNL     1     -50.877 -15.071 -19.730  1.00  0.00     0.137 A 
HETATM   26  N3  UNL     1     -50.158 -13.965 -19.921  1.00  0.00    -0.330 N 
HETATM   27  C9  UNL     1     -50.430 -12.795 -19.317  1.00  0.00     0.085 A 
ATOM     28  H3  UNL     1     -49.362 -14.008 -20.558  1.00  0.00     0.168 HD
HETATM   29  N4  UNL     1     -51.484 -12.764 -18.482  1.00  0.00    -0.340 N 
HETATM   30  C12 UNL     1     -52.273 -13.830 -18.221  1.00  0.00     0.116 A 
ATOM     31  H4  UNL     1     -51.701 -11.882 -18.018  1.00  0.00     0.167 HD
HETATM   32  C13 UNL     1     -53.357 -13.729 -17.337  1.00  0.00     0.173 A 
HETATM   33  C18 UNL     1     -51.975 -15.009 -18.850  1.00  0.00     0.109 A 
HETATM   34  N5  UNL     1     -54.058 -14.914 -17.181  1.00  0.00    -0.331 N 
HETATM   35  C17 UNL     1     -53.730 -16.036 -17.815  1.00  0.00     0.183 A 
ATOM     36  H5  UNL     1     -54.862 -14.926 -16.553  1.00  0.00     0.168 HD
HETATM   37  N6  UNL     1     -52.698 -16.132 -18.658  1.00  0.00    -0.347 N 
ATOM     38  H6  UNL     1     -52.469 -17.006 -19.130  1.00  0.00     0.167 HD
BRANCH  27  39
HETATM   39  C10 UNL     1     -49.603 -11.573 -19.556  1.00  0.00     0.102 C 
BRANCH  39  40
HETATM   40  C11 UNL     1     -49.938 -10.548 -18.470  1.00  0.00     0.171 C 
BRANCH  40  41
HETATM   41  O1  UNL     1     -49.280 -10.856 -17.294  1.00  0.00    -0.400 OA
ATOM     42  H1  UNL     1     -48.339 -10.834 -17.425  1.00  0.00     0.209 HD
ENDBRANCH  40  41
ENDBRANCH  39  40
ENDBRANCH  27  39
BRANCH  32  43
HETATM   43  O2  UNL     1     -53.688 -12.668 -16.720  1.00  0.00    -0.324 OA
BRANCH  43  44
HETATM   44  C14 UNL     1     -54.298 -11.672 -16.183  1.00  0.00     0.178 C 
HETATM   45  C15 UNL     1     -54.959 -11.880 -14.800  1.00  0.00     0.202 C 
HETATM   46  O3  UNL     1     -56.045 -11.170 -15.306  1.00  0.00    -0.386 OA
HETATM   47  C16 UNL     1     -55.753 -11.422 -16.654  1.00  0.00     0.202 C 
ENDBRANCH  43  44
ENDBRANCH  32  43
ENDBRANCH   1  25
TORSDOF 11
ENDMDL
