MODEL 1
REMARK VINA RESULT: -9.019688056      0.000      0.000
REMARK  11 active torsions:
REMARK  status: ('A' for Active; 'I' for Inactive)
REMARK    1  A    between atoms: C4_5  and  N2_6 
REMARK    2  A    between atoms: N2_6  and  C5_8 
REMARK    3  A    between atoms: C5_8  and  O1_9 
REMARK    4  A    between atoms: N3_11  and  C6_13 
REMARK    5  A    between atoms: C6_13  and  C7_14 
REMARK    6  A    between atoms: C7_14  and  C8_15 
REMARK    7  A    between atoms: C8_15  and  N4_16 
REMARK       I    between atoms: N4_16  and  C9_18 
REMARK    8  A    between atoms: C9_18  and  C10_20 
REMARK    9  A    between atoms: N5_23  and  C13_24 
REMARK   10  A    between atoms: C13_24  and  O3_25 
REMARK   11  A    between atoms: C13_24  and  C14_27 
ROOT
HETATM    1  C10 UNL     1      52.938  21.947  15.695  1.00  0.00     0.081 C 
HETATM    2  C11 UNL     1      52.410  22.072  14.272  1.00  0.00     0.034 C 
HETATM    3  C12 UNL     1      53.403  22.692  13.358  1.00  0.00     0.125 C 
HETATM    4  N5  UNL     1      53.785  24.010  13.897  1.00  0.00    -0.365 N 
HETATM    5  C25 UNL     1      54.318  24.011  15.216  1.00  0.00     0.125 C 
HETATM    6  C26 UNL     1      53.377  23.312  16.176  1.00  0.00     0.034 C 
ENDROOT
BRANCH   1   7
HETATM    7  C9  UNL     1      54.028  20.962  15.653  1.00  0.00     0.225 C 
HETATM    8  N4  UNL     1      53.800  19.728  14.956  1.00  0.00    -0.337 N 
ATOM      9  H4  UNL     1      52.880  19.543  14.557  1.00  0.00     0.168 HD
HETATM   10  O2  UNL     1      55.121  21.196  16.193  1.00  0.00    -0.273 OA
BRANCH   8  11
HETATM   11  C8  UNL     1      54.826  18.759  14.812  1.00  0.00     0.092 C 
BRANCH  11  12
HETATM   12  C7  UNL     1      55.639  18.753  13.624  1.00  0.00     0.034 C 
BRANCH  12  13
HETATM   13  C6  UNL     1      55.196  18.561  12.284  1.00  0.00     0.093 C 
BRANCH  13  14
HETATM   14  N3  UNL     1      54.337  19.409  11.553  1.00  0.00    -0.332 N 
HETATM   15  C5  UNL     1      53.073  19.585  11.455  1.00  0.00     0.221 C 
ATOM     16  H3  UNL     1      54.856  20.045  10.948  1.00  0.00     0.168 HD
BRANCH  15  17
HETATM   17  N2  UNL     1      52.148  20.317  10.695  1.00  0.00    -0.322 N 
ATOM     18  H2  UNL     1      52.471  20.666   9.793  1.00  0.00     0.169 HD
BRANCH  17  19
HETATM   19  C4  UNL     1      50.793  20.625  11.055  1.00  0.00     0.036 A 
HETATM   20  C3  UNL     1      50.444  21.913  11.383  1.00  0.00     0.031 A 
HETATM   21  C2  UNL     1      49.136  22.181  11.782  1.00  0.00     0.030 A 
HETATM   22  C1  UNL     1      48.161  21.240  11.876  1.00  0.00     0.068 A 
HETATM   23  N1  UNL     1      46.827  21.478  12.272  1.00  0.00    -0.101 NA
HETATM   24  C28 UNL     1      48.560  19.934  11.534  1.00  0.00     0.060 A 
HETATM   25  C27 UNL     1      49.836  19.640  11.136  1.00  0.00     0.055 A 
HETATM   26 CL1  UNL     1      47.356  18.648  11.631  1.00  0.00    -0.082 Cl
ENDBRANCH  17  19
ENDBRANCH  15  17
BRANCH  15  27
HETATM   27  O1  UNL     1      52.351  18.820  12.349  1.00  0.00    -0.332 OA
ATOM     28  H1  UNL     1      52.436  17.914  12.074  1.00  0.00     0.220 HD
ENDBRANCH  15  27
ENDBRANCH  13  14
ENDBRANCH  12  13
ENDBRANCH  11  12
ENDBRANCH   8  11
ENDBRANCH   1   7
BRANCH   4  29
HETATM   29  C13 UNL     1      53.602  25.107  13.058  1.00  0.00     0.117 C 
BRANCH  29  30
HETATM   30  O3  UNL     1      52.465  25.743  13.118  1.00  0.00    -0.349 OA
ATOM     31  H3  UNL     1      52.485  26.692  13.153  1.00  0.00     0.219 HD
ENDBRANCH  29  30
BRANCH  29  32
HETATM   32  C14 UNL     1      54.534  25.685  12.065  1.00  0.00     0.060 C 
HETATM   33  C15 UNL     1      55.881  25.093  12.204  1.00  0.00     0.013 C 
HETATM   34  C16 UNL     1      56.931  25.638  11.251  1.00  0.00     0.002 C 
HETATM   35  C17 UNL     1      56.552  25.619   9.820  1.00  0.00     0.010 C 
HETATM   36  C18 UNL     1      55.757  26.811   9.362  1.00  0.00    -0.037 C 
HETATM   37  C19 UNL     1      56.553  28.074   9.621  1.00  0.00     0.037 C 
HETATM   38  C22 UNL     1      55.639  26.677   7.854  1.00  0.00     0.037 C 
HETATM   39  C23 UNL     1      54.374  26.852   9.922  1.00  0.00     0.010 C 
HETATM   40  C20 UNL     1      55.858  29.302   9.091  1.00  0.00     0.233 C 
HETATM   41  N6  UNL     1      54.891  28.971   8.062  1.00  0.00    -0.075 N 
HETATM   42  C21 UNL     1      55.548  28.031   7.178  1.00  0.00     0.233 C 
ATOM     43  H62 UNL     1      54.006  28.628   8.433  1.00  0.00     0.277 HD
ATOM     44  H61 UNL     1      54.516  29.788   7.580  1.00  0.00     0.277 HD
HETATM   45  C24 UNL     1      54.003  25.589  10.662  1.00  0.00     0.013 C 
ENDBRANCH  29  32
ENDBRANCH   4  29
TORSDOF 11
ENDMDL
MODEL 2
REMARK VINA RESULT: -8.963053241      1.362      1.575
REMARK  11 active torsions:
REMARK  status: ('A' for Active; 'I' for Inactive)
REMARK    1  A    between atoms: C4_5  and  N2_6 
REMARK    2  A    between atoms: N2_6  and  C5_8 
REMARK    3  A    between atoms: C5_8  and  O1_9 
REMARK    4  A    between atoms: N3_11  and  C6_13 
REMARK    5  A    between atoms: C6_13  and  C7_14 
REMARK    6  A    between atoms: C7_14  and  C8_15 
REMARK    7  A    between atoms: C8_15  and  N4_16 
REMARK       I    between atoms: N4_16  and  C9_18 
REMARK    8  A    between atoms: C9_18  and  C10_20 
REMARK    9  A    between atoms: N5_23  and  C13_24 
REMARK   10  A    between atoms: C13_24  and  O3_25 
REMARK   11  A    between atoms: C13_24  and  C14_27 
ROOT
HETATM    1  C10 UNL     1      52.156  23.875  15.110  1.00  0.00     0.081 C 
HETATM    2  C11 UNL     1      51.562  24.228  13.752  1.00  0.00     0.034 C 
HETATM    3  C12 UNL     1      52.607  24.401  12.711  1.00  0.00     0.125 C 
HETATM    4  N5  UNL     1      53.555  25.439  13.158  1.00  0.00    -0.365 N 
HETATM    5  C25 UNL     1      54.192  25.199  14.408  1.00  0.00     0.125 C 
HETATM    6  C26 UNL     1      53.168  24.932  15.491  1.00  0.00     0.034 C 
ENDROOT
BRANCH   1   7
HETATM    7  C9  UNL     1      52.734  22.531  14.976  1.00  0.00     0.225 C 
HETATM    8  N4  UNL     1      54.035  22.294  15.536  1.00  0.00    -0.337 N 
ATOM      9  H4  UNL     1      54.544  23.068  15.962  1.00  0.00     0.168 HD
HETATM   10  O2  UNL     1      52.111  21.621  14.406  1.00  0.00    -0.273 OA
BRANCH   8  11
HETATM   11  C8  UNL     1      54.628  21.006  15.508  1.00  0.00     0.092 C 
BRANCH  11  12
HETATM   12  C7  UNL     1      55.563  20.673  14.466  1.00  0.00     0.034 C 
BRANCH  12  13
HETATM   13  C6  UNL     1      55.257  20.183  13.164  1.00  0.00     0.093 C 
BRANCH  13  14
HETATM   14  N3  UNL     1      54.162  20.565  12.358  1.00  0.00    -0.332 N 
HETATM   15  C5  UNL     1      53.307  19.970  11.615  1.00  0.00     0.221 C 
ATOM     16  H3  UNL     1      54.015  21.574  12.372  1.00  0.00     0.168 HD
BRANCH  15  17
HETATM   17  N2  UNL     1      52.273  20.271  10.716  1.00  0.00    -0.322 N 
ATOM     18  H2  UNL     1      52.526  20.324   9.729  1.00  0.00     0.169 HD
BRANCH  17  19
HETATM   19  C4  UNL     1      50.896  20.514  11.040  1.00  0.00     0.036 A 
HETATM   20  C3  UNL     1      50.462  21.794  11.287  1.00  0.00     0.031 A 
HETATM   21  C2  UNL     1      49.134  22.002  11.654  1.00  0.00     0.030 A 
HETATM   22  C1  UNL     1      48.218  21.008  11.789  1.00  0.00     0.068 A 
HETATM   23  N1  UNL     1      46.864  21.183  12.154  1.00  0.00    -0.101 NA
HETATM   24  C28 UNL     1      48.703  19.712  11.530  1.00  0.00     0.060 A 
HETATM   25  C27 UNL     1      50.000  19.477  11.166  1.00  0.00     0.055 A 
HETATM   26 CL1  UNL     1      47.579  18.361  11.686  1.00  0.00    -0.082 Cl
ENDBRANCH  17  19
ENDBRANCH  15  17
BRANCH  15  27
HETATM   27  O1  UNL     1      53.409  18.595  11.672  1.00  0.00    -0.332 OA
ATOM     28  H1  UNL     1      53.302  18.343  12.582  1.00  0.00     0.220 HD
ENDBRANCH  15  27
ENDBRANCH  13  14
ENDBRANCH  12  13
ENDBRANCH  11  12
ENDBRANCH   8  11
ENDBRANCH   1   7
BRANCH   4  29
HETATM   29  C13 UNL     1      53.740  26.527  12.309  1.00  0.00     0.117 C 
BRANCH  29  30
HETATM   30  O3  UNL     1      52.922  27.537  12.419  1.00  0.00    -0.349 OA
ATOM     31  H3  UNL     1      52.801  28.099  11.663  1.00  0.00     0.219 HD
ENDBRANCH  29  30
BRANCH  29  32
HETATM   32  C14 UNL     1      54.760  26.723  11.256  1.00  0.00     0.060 C 
HETATM   33  C15 UNL     1      55.665  25.558  11.180  1.00  0.00     0.013 C 
HETATM   34  C16 UNL     1      56.775  25.665  10.148  1.00  0.00     0.002 C 
HETATM   35  C17 UNL     1      56.331  26.008   8.779  1.00  0.00     0.010 C 
HETATM   36  C18 UNL     1      56.172  27.481   8.517  1.00  0.00    -0.037 C 
HETATM   37  C19 UNL     1      57.492  28.181   8.773  1.00  0.00     0.037 C 
HETATM   38  C22 UNL     1      55.895  27.611   7.030  1.00  0.00     0.037 C 
HETATM   39  C23 UNL     1      55.022  28.092   9.247  1.00  0.00     0.010 C 
HETATM   40  C20 UNL     1      57.432  29.648   8.430  1.00  0.00     0.233 C 
HETATM   41  N6  UNL     1      56.353  29.941   7.507  1.00  0.00    -0.075 N 
HETATM   42  C21 UNL     1      56.414  28.924   6.477  1.00  0.00     0.233 C 
ATOM     43  H62 UNL     1      55.442  30.008   7.958  1.00  0.00     0.277 HD
ATOM     44  H61 UNL     1      56.381  30.893   7.140  1.00  0.00     0.277 HD
HETATM   45  C24 UNL     1      54.147  27.067   9.927  1.00  0.00     0.013 C 
ENDBRANCH  29  32
ENDBRANCH   4  29
TORSDOF 11
ENDMDL
MODEL 3
REMARK VINA RESULT: -8.766866944      1.597      2.111
REMARK  11 active torsions:
REMARK  status: ('A' for Active; 'I' for Inactive)
REMARK    1  A    between atoms: C4_5  and  N2_6 
REMARK    2  A    between atoms: N2_6  and  C5_8 
REMARK    3  A    between atoms: C5_8  and  O1_9 
REMARK    4  A    between atoms: N3_11  and  C6_13 
REMARK    5  A    between atoms: C6_13  and  C7_14 
REMARK    6  A    between atoms: C7_14  and  C8_15 
REMARK    7  A    between atoms: C8_15  and  N4_16 
REMARK       I    between atoms: N4_16  and  C9_18 
REMARK    8  A    between atoms: C9_18  and  C10_20 
REMARK    9  A    between atoms: N5_23  and  C13_24 
REMARK   10  A    between atoms: C13_24  and  O3_25 
REMARK   11  A    between atoms: C13_24  and  C14_27 
ROOT
HETATM    1  C10 UNL     1      52.856  20.008  16.752  1.00  0.00     0.081 C 
HETATM    2  C11 UNL     1      52.449  20.485  15.364  1.00  0.00     0.034 C 
HETATM    3  C12 UNL     1      53.339  21.561  14.857  1.00  0.00     0.125 C 
HETATM    4  N5  UNL     1      53.331  22.676  15.822  1.00  0.00    -0.365 N 
HETATM    5  C25 UNL     1      53.722  22.349  17.151  1.00  0.00     0.125 C 
HETATM    6  C26 UNL     1      52.897  21.196  17.685  1.00  0.00     0.034 C 
ENDROOT
BRANCH   1   7
HETATM    7  C9  UNL     1      54.154  19.337  16.599  1.00  0.00     0.225 C 
HETATM    8  N4  UNL     1      54.264  18.283  15.630  1.00  0.00    -0.337 N 
ATOM      9  H4  UNL     1      53.434  17.992  15.114  1.00  0.00     0.168 HD
HETATM   10  O2  UNL     1      55.134  19.680  17.280  1.00  0.00    -0.273 OA
BRANCH   8  11
HETATM   11  C8  UNL     1      55.501  17.637  15.377  1.00  0.00     0.092 C 
BRANCH  11  12
HETATM   12  C7  UNL     1      56.226  17.934  14.170  1.00  0.00     0.034 C 
BRANCH  12  13
HETATM   13  C6  UNL     1      55.787  17.721  12.831  1.00  0.00     0.093 C 
BRANCH  13  14
HETATM   14  N3  UNL     1      55.090  18.642  12.020  1.00  0.00    -0.332 N 
HETATM   15  C5  UNL     1      53.864  18.932  11.791  1.00  0.00     0.221 C 
ATOM     16  H3  UNL     1      55.725  19.227  11.477  1.00  0.00     0.168 HD
BRANCH  15  17
HETATM   17  N2  UNL     1      53.094  19.742  10.943  1.00  0.00    -0.322 N 
ATOM     18  H2  UNL     1      53.508  19.985  10.042  1.00  0.00     0.169 HD
BRANCH  17  19
HETATM   19  C4  UNL     1      51.785  20.265  11.210  1.00  0.00     0.036 A 
HETATM   20  C3  UNL     1      51.636  21.562  11.641  1.00  0.00     0.031 A 
HETATM   21  C2  UNL     1      50.361  22.033  11.947  1.00  0.00     0.030 A 
HETATM   22  C1  UNL     1      49.230  21.286  11.851  1.00  0.00     0.068 A 
HETATM   23  N1  UNL     1      47.924  21.733  12.149  1.00  0.00    -0.101 NA
HETATM   24  C28 UNL     1      49.427  19.963  11.409  1.00  0.00     0.060 A 
HETATM   25  C27 UNL     1      50.665  19.473  11.098  1.00  0.00     0.055 A 
HETATM   26 CL1  UNL     1      48.010  18.922  11.259  1.00  0.00    -0.082 Cl
ENDBRANCH  17  19
ENDBRANCH  15  17
BRANCH  15  27
HETATM   27  O1  UNL     1      52.987  18.238  12.598  1.00  0.00    -0.332 OA
ATOM     28  H1  UNL     1      53.458  18.005  13.390  1.00  0.00     0.220 HD
ENDBRANCH  15  27
ENDBRANCH  13  14
ENDBRANCH  12  13
ENDBRANCH  11  12
ENDBRANCH   8  11
ENDBRANCH   1   7
BRANCH   4  29
HETATM   29  C13 UNL     1      52.962  23.927  15.332  1.00  0.00     0.117 C 
BRANCH  29  30
HETATM   30  O3  UNL     1      51.819  24.423  15.716  1.00  0.00    -0.349 OA
ATOM     31  H3  UNL     1      51.818  25.031  16.446  1.00  0.00     0.219 HD
ENDBRANCH  29  30
BRANCH  29  32
HETATM   32  C14 UNL     1      53.694  24.815  14.403  1.00  0.00     0.060 C 
HETATM   33  C15 UNL     1      55.154  24.673  14.583  1.00  0.00     0.013 C 
HETATM   34  C16 UNL     1      56.006  25.566  13.697  1.00  0.00     0.002 C 
HETATM   35  C17 UNL     1      55.700  25.494  12.251  1.00  0.00     0.010 C 
HETATM   36  C18 UNL     1      54.583  26.394  11.797  1.00  0.00    -0.037 C 
HETATM   37  C19 UNL     1      54.927  27.830  12.135  1.00  0.00     0.037 C 
HETATM   38  C22 UNL     1      54.562  26.299  10.282  1.00  0.00     0.037 C 
HETATM   39  C23 UNL     1      53.241  25.969  12.295  1.00  0.00     0.010 C 
HETATM   40  C20 UNL     1      53.895  28.798  11.614  1.00  0.00     0.233 C 
HETATM   41  N6  UNL     1      53.117  28.226  10.533  1.00  0.00    -0.075 N 
HETATM   42  C21 UNL     1      54.068  27.584   9.648  1.00  0.00     0.233 C 
ATOM     43  H62 UNL     1      52.375  27.604  10.852  1.00  0.00     0.277 HD
ATOM     44  H61 UNL     1      52.518  28.904  10.061  1.00  0.00     0.277 HD
HETATM   45  C24 UNL     1      53.266  24.620  12.975  1.00  0.00     0.013 C 
ENDBRANCH  29  32
ENDBRANCH   4  29
TORSDOF 11
ENDMDL
MODEL 4
REMARK VINA RESULT: -8.659036701      1.385      1.868
REMARK  11 active torsions:
REMARK  status: ('A' for Active; 'I' for Inactive)
REMARK    1  A    between atoms: C4_5  and  N2_6 
REMARK    2  A    between atoms: N2_6  and  C5_8 
REMARK    3  A    between atoms: C5_8  and  O1_9 
REMARK    4  A    between atoms: N3_11  and  C6_13 
REMARK    5  A    between atoms: C6_13  and  C7_14 
REMARK    6  A    between atoms: C7_14  and  C8_15 
REMARK    7  A    between atoms: C8_15  and  N4_16 
REMARK       I    between atoms: N4_16  and  C9_18 
REMARK    8  A    between atoms: C9_18  and  C10_20 
REMARK    9  A    between atoms: N5_23  and  C13_24 
REMARK   10  A    between atoms: C13_24  and  O3_25 
REMARK   11  A    between atoms: C13_24  and  C14_27 
ROOT
HETATM    1  C10 UNL     1      52.732  23.775  16.903  1.00  0.00     0.081 C 
HETATM    2  C11 UNL     1      52.135  23.250  15.604  1.00  0.00     0.034 C 
HETATM    3  C12 UNL     1      53.091  23.341  14.470  1.00  0.00     0.125 C 
HETATM    4  N5  UNL     1      53.520  24.744  14.324  1.00  0.00    -0.365 N 
HETATM    5  C25 UNL     1      54.119  25.332  15.474  1.00  0.00     0.125 C 
HETATM    6  C26 UNL     1      53.217  25.190  16.682  1.00  0.00     0.034 C 
ENDROOT
BRANCH   1   7
HETATM    7  C9  UNL     1      53.802  22.841  17.279  1.00  0.00     0.225 C 
HETATM    8  N4  UNL     1      53.604  21.443  17.021  1.00  0.00    -0.337 N 
ATOM      9  H4  UNL     1      52.714  21.128  16.636  1.00  0.00     0.168 HD
HETATM   10  O2  UNL     1      54.855  23.250  17.794  1.00  0.00    -0.273 OA
BRANCH   8  11
HETATM   11  C8  UNL     1      54.619  20.489  17.292  1.00  0.00     0.092 C 
BRANCH  11  12
HETATM   12  C7  UNL     1      55.454  20.013  16.221  1.00  0.00     0.034 C 
BRANCH  12  13
HETATM   13  C6  UNL     1      55.124  19.021  15.253  1.00  0.00     0.093 C 
BRANCH  13  14
HETATM   14  N3  UNL     1      54.110  19.106  14.275  1.00  0.00    -0.332 N 
HETATM   15  C5  UNL     1      53.863  18.555  13.146  1.00  0.00     0.221 C 
ATOM     16  H3  UNL     1      53.389  19.779  14.533  1.00  0.00     0.168 HD
BRANCH  15  17
HETATM   17  N2  UNL     1      52.955  18.651  12.081  1.00  0.00    -0.322 N 
ATOM     18  H2  UNL     1      52.886  17.841  11.465  1.00  0.00     0.169 HD
BRANCH  17  19
HETATM   19  C4  UNL     1      52.113  19.770  11.769  1.00  0.00     0.036 A 
HETATM   20  C3  UNL     1      52.671  20.992  11.480  1.00  0.00     0.031 A 
HETATM   21  C2  UNL     1      51.834  22.079  11.233  1.00  0.00     0.030 A 
HETATM   22  C1  UNL     1      50.478  22.017  11.260  1.00  0.00     0.068 A 
HETATM   23  N1  UNL     1      49.601  23.096  11.010  1.00  0.00    -0.101 NA
HETATM   24  C28 UNL     1      49.946  20.748  11.562  1.00  0.00     0.060 A 
HETATM   25  C27 UNL     1      50.741  19.662  11.806  1.00  0.00     0.055 A 
HETATM   26 CL1  UNL     1      48.191  20.578  11.622  1.00  0.00    -0.082 Cl
ENDBRANCH  17  19
ENDBRANCH  15  17
BRANCH  15  27
HETATM   27  O1  UNL     1      54.760  17.555  12.827  1.00  0.00    -0.332 OA
ATOM     28  H1  UNL     1      55.632  17.903  12.976  1.00  0.00     0.220 HD
ENDBRANCH  15  27
ENDBRANCH  13  14
ENDBRANCH  12  13
ENDBRANCH  11  12
ENDBRANCH   8  11
ENDBRANCH   1   7
BRANCH   4  29
HETATM   29  C13 UNL     1      53.313  25.337  13.081  1.00  0.00     0.117 C 
BRANCH  29  30
HETATM   30  O3  UNL     1      52.084  25.491  12.672  1.00  0.00    -0.349 OA
ATOM     31  H3  UNL     1      51.743  26.375  12.604  1.00  0.00     0.219 HD
ENDBRANCH  29  30
BRANCH  29  32
HETATM   32  C14 UNL     1      54.311  25.837  12.111  1.00  0.00     0.060 C 
HETATM   33  C15 UNL     1      55.577  25.085  12.227  1.00  0.00     0.013 C 
HETATM   34  C16 UNL     1      56.688  25.537  11.295  1.00  0.00     0.002 C 
HETATM   35  C17 UNL     1      56.316  25.617   9.865  1.00  0.00     0.010 C 
HETATM   36  C18 UNL     1      55.671  26.912   9.452  1.00  0.00    -0.037 C 
HETATM   37  C19 UNL     1      56.609  28.061   9.759  1.00  0.00     0.037 C 
HETATM   38  C22 UNL     1      55.544  26.850   7.940  1.00  0.00     0.037 C 
HETATM   39  C23 UNL     1      54.300  27.095  10.014  1.00  0.00     0.010 C 
HETATM   40  C20 UNL     1      56.067  29.382   9.276  1.00  0.00     0.233 C 
HETATM   41  N6  UNL     1      55.072  29.207   8.236  1.00  0.00    -0.075 N 
HETATM   42  C21 UNL     1      55.617  28.230   7.316  1.00  0.00     0.233 C 
ATOM     43  H62 UNL     1      54.151  28.958   8.594  1.00  0.00     0.277 HD
ATOM     44  H61 UNL     1      54.799  30.081   7.785  1.00  0.00     0.277 HD
HETATM   45  C24 UNL     1      53.778  25.858  10.705  1.00  0.00     0.013 C 
ENDBRANCH  29  32
ENDBRANCH   4  29
TORSDOF 11
ENDMDL
MODEL 5
REMARK VINA RESULT: -8.604794376      4.397      6.309
REMARK  11 active torsions:
REMARK  status: ('A' for Active; 'I' for Inactive)
REMARK    1  A    between atoms: C4_5  and  N2_6 
REMARK    2  A    between atoms: N2_6  and  C5_8 
REMARK    3  A    between atoms: C5_8  and  O1_9 
REMARK    4  A    between atoms: N3_11  and  C6_13 
REMARK    5  A    between atoms: C6_13  and  C7_14 
REMARK    6  A    between atoms: C7_14  and  C8_15 
REMARK    7  A    between atoms: C8_15  and  N4_16 
REMARK       I    between atoms: N4_16  and  C9_18 
REMARK    8  A    between atoms: C9_18  and  C10_20 
REMARK    9  A    between atoms: N5_23  and  C13_24 
REMARK   10  A    between atoms: C13_24  and  O3_25 
REMARK   11  A    between atoms: C13_24  and  C14_27 
ROOT
HETATM    1  C10 UNL     1      55.014  28.169  11.765  1.00  0.00     0.081 C 
HETATM    2  C11 UNL     1      56.312  28.263  12.557  1.00  0.00     0.034 C 
HETATM    3  C12 UNL     1      56.136  28.997  13.837  1.00  0.00     0.125 C 
HETATM    4  N5  UNL     1      55.599  30.339  13.543  1.00  0.00    -0.365 N 
HETATM    5  C25 UNL     1      54.371  30.372  12.826  1.00  0.00     0.125 C 
HETATM    6  C26 UNL     1      54.471  29.564  11.549  1.00  0.00     0.034 C 
ENDROOT
BRANCH   1   7
HETATM    7  C9  UNL     1      54.114  27.303  12.538  1.00  0.00     0.225 C 
HETATM    8  N4  UNL     1      54.695  26.392  13.483  1.00  0.00    -0.337 N 
ATOM      9  H4  UNL     1      55.710  26.330  13.557  1.00  0.00     0.168 HD
HETATM   10  O2  UNL     1      52.883  27.366  12.388  1.00  0.00    -0.273 OA
BRANCH   8  11
HETATM   11  C8  UNL     1      53.887  25.574  14.315  1.00  0.00     0.092 C 
BRANCH  11  12
HETATM   12  C7  UNL     1      53.851  24.152  14.099  1.00  0.00     0.034 C 
BRANCH  12  13
HETATM   13  C6  UNL     1      53.832  23.475  12.845  1.00  0.00     0.093 C 
BRANCH  13  14
HETATM   14  N3  UNL     1      52.697  22.951  12.190  1.00  0.00    -0.332 N 
HETATM   15  C5  UNL     1      51.745  23.415  11.472  1.00  0.00     0.221 C 
ATOM     16  H3  UNL     1      52.614  21.943  12.324  1.00  0.00     0.168 HD
BRANCH  15  17
HETATM   17  N2  UNL     1      50.545  22.994  10.879  1.00  0.00    -0.322 N 
ATOM     18  H2  UNL     1      50.123  23.629  10.201  1.00  0.00     0.169 HD
BRANCH  17  19
HETATM   19  C4  UNL     1      49.848  21.765  11.129  1.00  0.00     0.036 A 
HETATM   20  C3  UNL     1      50.489  20.562  10.951  1.00  0.00     0.031 A 
HETATM   21  C2  UNL     1      49.779  19.379  11.146  1.00  0.00     0.030 A 
HETATM   22  C1  UNL     1      48.470  19.328  11.504  1.00  0.00     0.068 A 
HETATM   23  N1  UNL     1      47.722  18.148  11.714  1.00  0.00    -0.101 NA
HETATM   24  C28 UNL     1      47.850  20.581  11.673  1.00  0.00     0.060 A 
HETATM   25  C27 UNL     1      48.521  21.759  11.492  1.00  0.00     0.055 A 
HETATM   26 CL1  UNL     1      46.147  20.606  12.135  1.00  0.00    -0.082 Cl
ENDBRANCH  17  19
ENDBRANCH  15  17
BRANCH  15  27
HETATM   27  O1  UNL     1      51.897  24.755  11.177  1.00  0.00    -0.332 OA
ATOM     28  H1  UNL     1      52.760  24.861  10.794  1.00  0.00     0.220 HD
ENDBRANCH  15  27
ENDBRANCH  13  14
ENDBRANCH  12  13
ENDBRANCH  11  12
ENDBRANCH   8  11
ENDBRANCH   1   7
BRANCH   4  29
HETATM   29  C13 UNL     1      56.336  31.425  14.010  1.00  0.00     0.117 C 
BRANCH  29  30
HETATM   30  O3  UNL     1      55.830  32.140  14.976  1.00  0.00    -0.349 OA
ATOM     31  H3  UNL     1      55.821  31.769  15.850  1.00  0.00     0.219 HD
ENDBRANCH  29  30
BRANCH  29  32
HETATM   32  C14 UNL     1      57.657  31.916  13.560  1.00  0.00     0.060 C 
HETATM   33  C15 UNL     1      58.738  31.341  14.387  1.00  0.00     0.013 C 
HETATM   34  C16 UNL     1      60.142  31.803  14.031  1.00  0.00     0.002 C 
HETATM   35  C17 UNL     1      60.509  31.659  12.605  1.00  0.00     0.010 C 
HETATM   36  C18 UNL     1      60.089  32.805  11.725  1.00  0.00    -0.037 C 
HETATM   37  C19 UNL     1      60.707  34.087  12.243  1.00  0.00     0.037 C 
HETATM   38  C22 UNL     1      60.717  32.540  10.368  1.00  0.00     0.037 C 
HETATM   39  C23 UNL     1      58.611  32.891  11.531  1.00  0.00     0.010 C 
HETATM   40  C20 UNL     1      60.410  35.263  11.347  1.00  0.00     0.233 C 
HETATM   41  N6  UNL     1      60.057  34.841  10.006  1.00  0.00    -0.075 N 
HETATM   42  C21 UNL     1      61.023  33.829   9.632  1.00  0.00     0.233 C 
ATOM     43  H62 UNL     1      59.089  34.530   9.921  1.00  0.00     0.277 HD
ATOM     44  H61 UNL     1      59.999  35.612   9.340  1.00  0.00     0.277 HD
HETATM   45  C24 UNL     1      57.875  31.697  12.089  1.00  0.00     0.013 C 
ENDBRANCH  29  32
ENDBRANCH   4  29
TORSDOF 11
ENDMDL
