MODEL 1
REMARK VINA RESULT: -4.940864282      0.000      0.000
REMARK  2 active torsions:
REMARK  status: ('A' for Active; 'I' for Inactive)
REMARK    1  A    between atoms: N1_1  and  C1_4 
REMARK    2  A    between atoms: C3_12  and  N5_13 
ROOT
HETATM    1  C1  UNL     1     -10.353  -5.589  42.118  1.00  0.00     0.146 A 
HETATM    2  N2  UNL     1     -10.141  -6.924  41.809  1.00  0.00    -0.335 N 
ATOM      3  H2  UNL     1      -9.274  -7.383  42.087  1.00  0.00     0.168 HD
HETATM    4  C2  UNL     1     -11.075  -7.601  41.148  1.00  0.00     0.199 A 
HETATM    5  N3  UNL     1     -12.213  -6.977  40.790  1.00  0.00    -0.294 N 
ATOM      6  H3  UNL     1     -12.929  -7.499  40.283  1.00  0.00     0.187 HD
HETATM    7  N4  UNL     1     -12.425  -5.714  41.077  1.00  0.00    -0.282 N 
ATOM      8  H4  UNL     1     -13.304  -5.287  40.784  1.00  0.00     0.188 HD
HETATM    9  C3  UNL     1     -11.510  -4.942  41.758  1.00  0.00     0.162 A 
ENDROOT
BRANCH   9  10
HETATM   10  N5  UNL     1     -11.829  -3.611  42.057  1.00  0.00    -0.360 N 
HETATM   11  C4  UNL     1     -11.274  -2.570  41.134  1.00  0.00     0.143 C 
HETATM   12  C5  UNL     1     -11.192  -1.282  41.910  1.00  0.00     0.133 C 
HETATM   13  N6  UNL     1     -10.880  -1.422  43.281  1.00  0.00    -0.418 N 
HETATM   14  C6  UNL     1     -11.687  -2.335  44.042  1.00  0.00     0.133 C 
ATOM     15  H6  UNL     1     -10.117  -0.899  43.711  1.00  0.00     0.153 HD
HETATM   16  C7  UNL     1     -12.623  -3.039  43.077  1.00  0.00     0.143 C 
ENDBRANCH   9  10
BRANCH   1  17
HETATM   17  N1  UNL     1      -9.429  -5.016  42.712  1.00  0.00    -0.382 N 
ATOM     18  H12 UNL     1      -8.448  -5.180  42.484  1.00  0.00     0.157 HD
ATOM     19  H11 UNL     1      -9.706  -4.383  43.461  1.00  0.00     0.157 HD
ENDBRANCH   1  17
TORSDOF 2
ENDMDL
MODEL 2
REMARK VINA RESULT: -4.836626251      1.019      2.348
REMARK  2 active torsions:
REMARK  status: ('A' for Active; 'I' for Inactive)
REMARK    1  A    between atoms: N1_1  and  C1_4 
REMARK    2  A    between atoms: C3_12  and  N5_13 
ROOT
HETATM    1  C1  UNL     1     -11.955  -5.297  41.502  1.00  0.00     0.146 A 
HETATM    2  N2  UNL     1     -11.767  -6.633  41.182  1.00  0.00    -0.335 N 
ATOM      3  H2  UNL     1     -12.524  -7.171  40.760  1.00  0.00     0.168 HD
HETATM    4  C2  UNL     1     -10.594  -7.209  41.430  1.00  0.00     0.199 A 
HETATM    5  N3  UNL     1      -9.607  -6.481  41.988  1.00  0.00    -0.294 N 
ATOM      6  H3  UNL     1      -8.708  -6.925  42.177  1.00  0.00     0.187 HD
HETATM    7  N4  UNL     1      -9.773  -5.217  42.295  1.00  0.00    -0.282 N 
ATOM      8  H4  UNL     1      -8.995  -4.710  42.715  1.00  0.00     0.188 HD
HETATM    9  C3  UNL     1     -10.956  -4.546  42.071  1.00  0.00     0.162 A 
ENDROOT
BRANCH   9  10
HETATM   10  N5  UNL     1     -11.040  -3.185  42.394  1.00  0.00    -0.360 N 
HETATM   11  C4  UNL     1     -11.548  -2.857  43.765  1.00  0.00     0.143 C 
HETATM   12  C5  UNL     1     -12.125  -1.466  43.706  1.00  0.00     0.133 C 
HETATM   13  N6  UNL     1     -12.754  -1.125  42.487  1.00  0.00    -0.418 N 
HETATM   14  C6  UNL     1     -11.995  -1.329  41.285  1.00  0.00     0.133 C 
ATOM     15  H6  UNL     1     -13.702  -0.750  42.462  1.00  0.00     0.153 HD
HETATM   16  C7  UNL     1     -10.700  -2.022  41.667  1.00  0.00     0.143 C 
ENDBRANCH   9  10
BRANCH   1  17
HETATM   17  N1  UNL     1     -13.080  -4.836  41.267  1.00  0.00    -0.382 N 
ATOM     18  H12 UNL     1     -13.839  -5.408  40.893  1.00  0.00     0.157 HD
ATOM     19  H11 UNL     1     -13.202  -3.841  41.449  1.00  0.00     0.157 HD
ENDBRANCH   1  17
TORSDOF 2
ENDMDL
MODEL 3
REMARK VINA RESULT: -4.786465948      0.993      1.645
REMARK  2 active torsions:
REMARK  status: ('A' for Active; 'I' for Inactive)
REMARK    1  A    between atoms: N1_1  and  C1_4 
REMARK    2  A    between atoms: C3_12  and  N5_13 
ROOT
HETATM    1  C1  UNL     1     -10.683  -6.094  41.644  1.00  0.00     0.146 A 
HETATM    2  N2  UNL     1     -11.106  -7.334  41.190  1.00  0.00    -0.335 N 
ATOM      3  H2  UNL     1     -10.484  -8.141  41.248  1.00  0.00     0.168 HD
HETATM    4  C2  UNL     1     -12.326  -7.464  40.678  1.00  0.00     0.199 A 
HETATM    5  N3  UNL     1     -13.131  -6.386  40.611  1.00  0.00    -0.294 N 
ATOM      6  H3  UNL     1     -14.067  -6.489  40.218  1.00  0.00     0.187 HD
HETATM    7  N4  UNL     1     -12.742  -5.209  41.038  1.00  0.00    -0.282 N 
ATOM      8  H4  UNL     1     -13.389  -4.424  40.965  1.00  0.00     0.188 HD
HETATM    9  C3  UNL     1     -11.495  -4.989  41.581  1.00  0.00     0.162 A 
ENDROOT
BRANCH   9  10
HETATM   10  N5  UNL     1     -11.170  -3.708  42.047  1.00  0.00    -0.360 N 
HETATM   11  C4  UNL     1     -11.416  -3.447  43.501  1.00  0.00     0.143 C 
HETATM   12  C5  UNL     1     -11.597  -1.961  43.665  1.00  0.00     0.133 C 
HETATM   13  N6  UNL     1     -12.240  -1.309  42.588  1.00  0.00    -0.418 N 
HETATM   14  C6  UNL     1     -11.703  -1.538  41.276  1.00  0.00     0.133 C 
ATOM     15  H6  UNL     1     -13.048  -0.705  42.735  1.00  0.00     0.153 HD
HETATM   16  C7  UNL     1     -10.610  -2.584  41.399  1.00  0.00     0.143 C 
ENDBRANCH   9  10
BRANCH   1  17
HETATM   17  N1  UNL     1      -9.525  -6.044  42.084  1.00  0.00    -0.382 N 
ATOM     18  H12 UNL     1      -8.820  -6.744  41.851  1.00  0.00     0.157 HD
ATOM     19  H11 UNL     1      -9.321  -5.269  42.715  1.00  0.00     0.157 HD
ENDBRANCH   1  17
TORSDOF 2
ENDMDL
MODEL 4
REMARK VINA RESULT: -4.720357535      0.620      1.795
REMARK  2 active torsions:
REMARK  status: ('A' for Active; 'I' for Inactive)
REMARK    1  A    between atoms: N1_1  and  C1_4 
REMARK    2  A    between atoms: C3_12  and  N5_13 
ROOT
HETATM    1  C1  UNL     1     -12.216  -5.787  41.217  1.00  0.00     0.146 A 
HETATM    2  N2  UNL     1     -11.729  -7.061  40.967  1.00  0.00    -0.335 N 
ATOM      3  H2  UNL     1     -12.312  -7.748  40.488  1.00  0.00     0.168 HD
HETATM    4  C2  UNL     1     -10.498  -7.382  41.356  1.00  0.00     0.199 A 
HETATM    5  N3  UNL     1      -9.745  -6.461  41.987  1.00  0.00    -0.294 N 
ATOM      6  H3  UNL     1      -8.801  -6.709  42.284  1.00  0.00     0.187 HD
HETATM    7  N4  UNL     1     -10.195  -5.252  42.228  1.00  0.00    -0.282 N 
ATOM      8  H4  UNL     1      -9.585  -4.591  42.709  1.00  0.00     0.188 HD
HETATM    9  C3  UNL     1     -11.457  -4.840  41.859  1.00  0.00     0.162 A 
ENDROOT
BRANCH   9  10
HETATM   10  N5  UNL     1     -11.847  -3.520  42.122  1.00  0.00    -0.360 N 
HETATM   11  C4  UNL     1     -11.293  -2.469  41.211  1.00  0.00     0.143 C 
HETATM   12  C5  UNL     1     -11.305  -1.168  41.971  1.00  0.00     0.133 C 
HETATM   13  N6  UNL     1     -11.054  -1.276  43.357  1.00  0.00    -0.418 N 
HETATM   14  C6  UNL     1     -11.857  -2.213  44.092  1.00  0.00     0.133 C 
ATOM     15  H6  UNL     1     -10.336  -0.715  43.816  1.00  0.00     0.153 HD
HETATM   16  C7  UNL     1     -12.714  -2.970  43.094  1.00  0.00     0.143 C 
ENDBRANCH   9  10
BRANCH   1  17
HETATM   17  N1  UNL     1     -13.378  -5.569  40.849  1.00  0.00    -0.382 N 
ATOM     18  H12 UNL     1     -13.891  -6.212  40.244  1.00  0.00     0.157 HD
ATOM     19  H11 UNL     1     -13.791  -4.694  41.171  1.00  0.00     0.157 HD
ENDBRANCH   1  17
TORSDOF 2
ENDMDL
MODEL 5
REMARK VINA RESULT: -4.560910567      1.351      1.660
REMARK  2 active torsions:
REMARK  status: ('A' for Active; 'I' for Inactive)
REMARK    1  A    between atoms: N1_1  and  C1_4 
REMARK    2  A    between atoms: C3_12  and  N5_13 
ROOT
HETATM    1  C1  UNL     1     -10.359  -5.315  41.862  1.00  0.00     0.146 A 
HETATM    2  N2  UNL     1      -9.799  -6.575  41.712  1.00  0.00    -0.335 N 
ATOM      3  H2  UNL     1      -8.819  -6.732  41.948  1.00  0.00     0.168 HD
HETATM    4  C2  UNL     1     -10.547  -7.576  41.257  1.00  0.00     0.199 A 
HETATM    5  N3  UNL     1     -11.838  -7.348  40.951  1.00  0.00    -0.294 N 
ATOM      6  H3  UNL     1     -12.411  -8.117  40.602  1.00  0.00     0.187 HD
HETATM    7  N4  UNL     1     -12.379  -6.161  41.090  1.00  0.00    -0.282 N 
ATOM      8  H4  UNL     1     -13.362  -6.040  40.844  1.00  0.00     0.188 HD
HETATM    9  C3  UNL     1     -11.674  -5.071  41.553  1.00  0.00     0.162 A 
ENDROOT
BRANCH   9  10
HETATM   10  N5  UNL     1     -12.337  -3.846  41.707  1.00  0.00    -0.360 N 
HETATM   11  C4  UNL     1     -13.603  -3.671  40.926  1.00  0.00     0.143 C 
HETATM   12  C5  UNL     1     -13.810  -2.191  40.735  1.00  0.00     0.133 C 
HETATM   13  N6  UNL     1     -12.629  -1.432  40.575  1.00  0.00    -0.418 N 
HETATM   14  C6  UNL     1     -11.608  -1.601  41.571  1.00  0.00     0.133 C 
ATOM     15  H6  UNL     1     -12.507  -0.794  39.789  1.00  0.00     0.153 HD
HETATM   16  C7  UNL     1     -12.050  -2.714  42.503  1.00  0.00     0.143 C 
ENDBRANCH   9  10
BRANCH   1  17
HETATM   17  N1  UNL     1      -9.596  -4.427  42.266  1.00  0.00    -0.382 N 
ATOM     18  H12 UNL     1      -8.622  -4.612  42.511  1.00  0.00     0.157 HD
ATOM     19  H11 UNL     1     -10.004  -3.497  42.361  1.00  0.00     0.157 HD
ENDBRANCH   1  17
TORSDOF 2
ENDMDL
