MODEL 1
REMARK VINA RESULT: -7.463198066      0.000      0.000
REMARK  7 active torsions:
REMARK  status: ('A' for Active; 'I' for Inactive)
REMARK    1  A    between atoms: O1_1  and  C1_3 
REMARK    2  A    between atoms: C1_3  and  C2_4 
REMARK    3  A    between atoms: C3_6  and  C4_7 
REMARK    4  A    between atoms: C7_11  and  O4_12 
REMARK    5  A    between atoms: C8_14  and  O5_15 
REMARK    6  A    between atoms: C9_17  and  O6_18 
REMARK    7  A    between atoms: C10_20  and  O7_21 
ROOT
HETATM    1  C2  UNL     1       1.497   1.676  53.552  1.00  0.00     0.183 C 
HETATM    2  O2  UNL     1       1.845   2.456  54.645  1.00  0.00    -0.342 OA
HETATM    3  C3  UNL     1       2.129   3.733  54.272  1.00  0.00     0.093 C 
HETATM    4  C8  UNL     1       3.357   3.845  53.424  1.00  0.00     0.207 C 
HETATM    5  C9  UNL     1       3.348   2.867  52.328  1.00  0.00     0.184 C 
HETATM    6  C10 UNL     1       2.651   1.586  52.556  1.00  0.00     0.181 C 
ENDROOT
BRANCH   3   7
HETATM    7  C4  UNL     1       1.917   4.781  55.270  1.00  0.00     0.056 A 
HETATM    8  C5  UNL     1       2.403   6.096  55.236  1.00  0.00     0.043 A 
HETATM    9  C6  UNL     1       1.818   6.775  56.286  1.00  0.00     0.146 A 
HETATM   10  O3  UNL     1       1.036   5.923  56.914  1.00  0.00    -0.300 OA
HETATM   11  C7  UNL     1       1.054   4.759  56.372  1.00  0.00     0.195 A 
BRANCH  11  12
HETATM   12  O4  UNL     1       0.348   3.641  56.785  1.00  0.00    -0.340 OA
ATOM     13  H4  UNL     1       0.207   3.405  57.694  1.00  0.00     0.220 HD
ENDBRANCH  11  12
ENDBRANCH   3   7
BRANCH   4  14
HETATM   14  O5  UNL     1       3.449   5.142  52.905  1.00  0.00    -0.386 OA
ATOM     15  H5  UNL     1       4.354   5.330  52.684  1.00  0.00     0.210 HD
ENDBRANCH   4  14
BRANCH   1  16
HETATM   16  C1  UNL     1       0.246   2.101  52.830  1.00  0.00     0.199 C 
BRANCH  16  17
HETATM   17  O1  UNL     1      -0.666   1.061  52.807  1.00  0.00    -0.398 OA
ATOM     18  H1  UNL     1      -1.088   1.016  51.957  1.00  0.00     0.209 HD
ENDBRANCH  16  17
ENDBRANCH   1  16
BRANCH   5  19
HETATM   19  O6  UNL     1       4.704   2.579  52.049  1.00  0.00    -0.390 OA
ATOM     20  H6  UNL     1       4.697   1.884  51.402  1.00  0.00     0.210 HD
ENDBRANCH   5  19
BRANCH   6  21
HETATM   21  O7  UNL     1       2.058   1.193  51.343  1.00  0.00    -0.390 OA
ATOM     22  H7  UNL     1       2.661   0.564  50.964  1.00  0.00     0.210 HD
ENDBRANCH   6  21
TORSDOF 7
ENDMDL
MODEL 2
REMARK VINA RESULT: -6.826593203      1.269      3.194
REMARK  7 active torsions:
REMARK  status: ('A' for Active; 'I' for Inactive)
REMARK    1  A    between atoms: O1_1  and  C1_3 
REMARK    2  A    between atoms: C1_3  and  C2_4 
REMARK    3  A    between atoms: C3_6  and  C4_7 
REMARK    4  A    between atoms: C7_11  and  O4_12 
REMARK    5  A    between atoms: C8_14  and  O5_15 
REMARK    6  A    between atoms: C9_17  and  O6_18 
REMARK    7  A    between atoms: C10_20  and  O7_21 
ROOT
HETATM    1  C2  UNL     1       3.456   2.894  52.447  1.00  0.00     0.183 C 
HETATM    2  O2  UNL     1       2.633   3.829  53.057  1.00  0.00    -0.342 OA
HETATM    3  C3  UNL     1       1.982   3.293  54.125  1.00  0.00     0.093 C 
HETATM    4  C8  UNL     1       0.998   2.231  53.749  1.00  0.00     0.207 C 
HETATM    5  C9  UNL     1       1.587   1.250  52.827  1.00  0.00     0.184 C 
HETATM    6  C10 UNL     1       2.643   1.719  51.909  1.00  0.00     0.181 C 
ENDROOT
BRANCH   3   7
HETATM    7  C4  UNL     1       1.588   4.212  55.193  1.00  0.00     0.056 A 
HETATM    8  C5  UNL     1       0.811   3.916  56.323  1.00  0.00     0.043 A 
HETATM    9  C6  UNL     1       0.837   5.028  57.139  1.00  0.00     0.146 A 
HETATM   10  O3  UNL     1       1.577   5.936  56.538  1.00  0.00    -0.300 OA
HETATM   11  C7  UNL     1       2.035   5.519  55.414  1.00  0.00     0.195 A 
BRANCH  11  12
HETATM   12  O4  UNL     1       2.843   6.224  54.535  1.00  0.00    -0.340 OA
ATOM     13  H4  UNL     1       3.724   5.962  54.295  1.00  0.00     0.220 HD
ENDBRANCH  11  12
ENDBRANCH   3   7
BRANCH   4  14
HETATM   14  O5  UNL     1       0.543   1.586  54.905  1.00  0.00    -0.386 OA
ATOM     15  H5  UNL     1       0.701   0.652  54.830  1.00  0.00     0.210 HD
ENDBRANCH   4  14
BRANCH   1  16
HETATM   16  C1  UNL     1       4.582   2.374  53.300  1.00  0.00     0.199 C 
BRANCH  16  17
HETATM   17  O1  UNL     1       5.799   2.763  52.770  1.00  0.00    -0.398 OA
ATOM     18  H1  UNL     1       6.143   3.505  53.252  1.00  0.00     0.209 HD
ENDBRANCH  16  17
ENDBRANCH   1  16
BRANCH   5  19
HETATM   19  O6  UNL     1       0.518   0.759  52.043  1.00  0.00    -0.390 OA
ATOM     20  H6  UNL     1      -0.151   0.477  52.656  1.00  0.00     0.210 HD
ENDBRANCH   5  19
BRANCH   6  21
HETATM   21  O7  UNL     1       3.571   0.674  51.748  1.00  0.00    -0.390 OA
ATOM     22  H7  UNL     1       3.082  -0.121  51.920  1.00  0.00     0.210 HD
ENDBRANCH   6  21
TORSDOF 7
ENDMDL
MODEL 3
REMARK VINA RESULT: -6.623445021      2.734      4.605
REMARK  7 active torsions:
REMARK  status: ('A' for Active; 'I' for Inactive)
REMARK    1  A    between atoms: O1_1  and  C1_3 
REMARK    2  A    between atoms: C1_3  and  C2_4 
REMARK    3  A    between atoms: C3_6  and  C4_7 
REMARK    4  A    between atoms: C7_11  and  O4_12 
REMARK    5  A    between atoms: C8_14  and  O5_15 
REMARK    6  A    between atoms: C9_17  and  O6_18 
REMARK    7  A    between atoms: C10_20  and  O7_21 
ROOT
HETATM    1  C2  UNL     1       0.911   3.334  54.640  1.00  0.00     0.183 C 
HETATM    2  O2  UNL     1       0.219   3.445  55.836  1.00  0.00    -0.342 OA
HETATM    3  C3  UNL     1      -0.101   2.222  56.339  1.00  0.00     0.093 C 
HETATM    4  C8  UNL     1      -1.084   1.473  55.496  1.00  0.00     0.207 C 
HETATM    5  C9  UNL     1      -0.696   1.478  54.079  1.00  0.00     0.184 C 
HETATM    6  C10 UNL     1       0.058   2.644  53.578  1.00  0.00     0.181 C 
ENDROOT
BRANCH   3   7
HETATM    7  C4  UNL     1      -0.260   2.119  57.790  1.00  0.00     0.056 A 
HETATM    8  C5  UNL     1       0.051   1.018  58.601  1.00  0.00     0.043 A 
HETATM    9  C6  UNL     1      -0.095   1.423  59.912  1.00  0.00     0.146 A 
HETATM   10  O3  UNL     1      -0.474   2.683  59.891  1.00  0.00    -0.300 OA
HETATM   11  C7  UNL     1      -0.585   3.135  58.695  1.00  0.00     0.195 A 
BRANCH  11  12
HETATM   12  O4  UNL     1      -0.964   4.416  58.324  1.00  0.00    -0.340 OA
ATOM     13  H4  UNL     1      -0.397   5.176  58.377  1.00  0.00     0.220 HD
ENDBRANCH  11  12
ENDBRANCH   3   7
BRANCH   4  14
HETATM   14  O5  UNL     1      -1.187   0.156  55.958  1.00  0.00    -0.386 OA
ATOM     15  H5  UNL     1      -1.912   0.090  56.568  1.00  0.00     0.210 HD
ENDBRANCH   4  14
BRANCH   1  16
HETATM   16  C1  UNL     1       2.248   2.648  54.730  1.00  0.00     0.199 C 
BRANCH  16  17
HETATM   17  O1  UNL     1       3.219   3.415  54.113  1.00  0.00    -0.398 OA
ATOM     18  H1  UNL     1       2.846   3.883  53.376  1.00  0.00     0.209 HD
ENDBRANCH  16  17
ENDBRANCH   1  16
BRANCH   5  19
HETATM   19  O6  UNL     1      -1.901   1.393  53.343  1.00  0.00    -0.390 OA
ATOM     20  H6  UNL     1      -1.811   2.002  52.620  1.00  0.00     0.210 HD
ENDBRANCH   5  19
BRANCH   6  21
HETATM   21  O7  UNL     1       0.973   2.186  52.613  1.00  0.00    -0.390 OA
ATOM     22  H7  UNL     1       0.472   2.117  51.809  1.00  0.00     0.210 HD
ENDBRANCH   6  21
TORSDOF 7
ENDMDL
MODEL 4
REMARK VINA RESULT: -6.574513821      1.658      5.321
REMARK  7 active torsions:
REMARK  status: ('A' for Active; 'I' for Inactive)
REMARK    1  A    between atoms: O1_1  and  C1_3 
REMARK    2  A    between atoms: C1_3  and  C2_4 
REMARK    3  A    between atoms: C3_6  and  C4_7 
REMARK    4  A    between atoms: C7_11  and  O4_12 
REMARK    5  A    between atoms: C8_14  and  O5_15 
REMARK    6  A    between atoms: C9_17  and  O6_18 
REMARK    7  A    between atoms: C10_20  and  O7_21 
ROOT
HETATM    1  C2  UNL     1       1.448   2.884  55.874  1.00  0.00     0.183 C 
HETATM    2  O2  UNL     1       2.214   2.095  55.030  1.00  0.00    -0.342 OA
HETATM    3  C3  UNL     1       1.585   1.881  53.843  1.00  0.00     0.093 C 
HETATM    4  C8  UNL     1       0.341   1.059  53.970  1.00  0.00     0.207 C 
HETATM    5  C9  UNL     1      -0.524   1.551  55.050  1.00  0.00     0.184 C 
HETATM    6  C10 UNL     1       0.124   2.201  56.207  1.00  0.00     0.181 C 
ENDROOT
BRANCH   3   7
HETATM    7  C4  UNL     1       2.431   1.626  52.677  1.00  0.00     0.056 A 
HETATM    8  C5  UNL     1       2.343   0.546  51.786  1.00  0.00     0.043 A 
HETATM    9  C6  UNL     1       3.218   0.801  50.749  1.00  0.00     0.146 A 
HETATM   10  O3  UNL     1       3.799   1.954  51.004  1.00  0.00    -0.300 OA
HETATM   11  C7  UNL     1       3.383   2.474  52.101  1.00  0.00     0.195 A 
BRANCH  11  12
HETATM   12  O4  UNL     1       3.790   3.677  52.656  1.00  0.00    -0.340 OA
ATOM     13  H4  UNL     1       3.196   4.330  53.007  1.00  0.00     0.220 HD
ENDBRANCH  11  12
ENDBRANCH   3   7
BRANCH   4  14
HETATM   14  O5  UNL     1      -0.356   1.076  52.756  1.00  0.00    -0.386 OA
ATOM     15  H5  UNL     1       0.227   0.811  52.054  1.00  0.00     0.210 HD
ENDBRANCH   4  14
BRANCH   1  16
HETATM   16  C1  UNL     1       1.178   4.281  55.381  1.00  0.00     0.199 C 
BRANCH  16  17
HETATM   17  O1  UNL     1       2.370   4.928  55.109  1.00  0.00    -0.398 OA
ATOM     18  H1  UNL     1       3.035   4.663  55.734  1.00  0.00     0.209 HD
ENDBRANCH  16  17
ENDBRANCH   1  16
BRANCH   5  19
HETATM   19  O6  UNL     1      -1.233   0.425  55.527  1.00  0.00    -0.390 OA
ATOM     20  H6  UNL     1      -2.155   0.639  55.443  1.00  0.00     0.210 HD
ENDBRANCH   5  19
BRANCH   6  21
HETATM   21  O7  UNL     1      -0.721   3.234  56.652  1.00  0.00    -0.390 OA
ATOM     22  H7  UNL     1      -1.088   3.612  55.862  1.00  0.00     0.210 HD
ENDBRANCH   6  21
TORSDOF 7
ENDMDL
MODEL 5
REMARK VINA RESULT: -6.391920185      2.588      3.514
REMARK  7 active torsions:
REMARK  status: ('A' for Active; 'I' for Inactive)
REMARK    1  A    between atoms: O1_1  and  C1_3 
REMARK    2  A    between atoms: C1_3  and  C2_4 
REMARK    3  A    between atoms: C3_6  and  C4_7 
REMARK    4  A    between atoms: C7_11  and  O4_12 
REMARK    5  A    between atoms: C8_14  and  O5_15 
REMARK    6  A    between atoms: C9_17  and  O6_18 
REMARK    7  A    between atoms: C10_20  and  O7_21 
ROOT
HETATM    1  C2  UNL     1       0.084   1.118  53.978  1.00  0.00     0.183 C 
HETATM    2  O2  UNL     1      -0.046   1.069  55.358  1.00  0.00    -0.342 OA
HETATM    3  C3  UNL     1      -0.120   2.317  55.894  1.00  0.00     0.093 C 
HETATM    4  C8  UNL     1       1.144   3.104  55.742  1.00  0.00     0.207 C 
HETATM    5  C9  UNL     1       1.653   3.050  54.365  1.00  0.00     0.184 C 
HETATM    6  C10 UNL     1       1.371   1.834  53.576  1.00  0.00     0.181 C 
ENDROOT
BRANCH   3   7
HETATM    7  C4  UNL     1      -0.838   2.457  57.161  1.00  0.00     0.056 A 
HETATM    8  C5  UNL     1      -0.448   3.209  58.279  1.00  0.00     0.043 A 
HETATM    9  C6  UNL     1      -1.501   3.191  59.170  1.00  0.00     0.146 A 
HETATM   10  O3  UNL     1      -2.460   2.470  58.627  1.00  0.00    -0.300 OA
HETATM   11  C7  UNL     1      -2.132   2.023  57.469  1.00  0.00     0.195 A 
BRANCH  11  12
HETATM   12  O4  UNL     1      -2.907   1.234  56.635  1.00  0.00    -0.340 OA
ATOM     13  H4  UNL     1      -2.974   1.358  55.695  1.00  0.00     0.220 HD
ENDBRANCH  11  12
ENDBRANCH   3   7
BRANCH   4  14
HETATM   14  O5  UNL     1       0.913   4.434  56.114  1.00  0.00    -0.386 OA
ATOM     15  H5  UNL     1       1.009   4.996  55.354  1.00  0.00     0.210 HD
ENDBRANCH   4  14
BRANCH   1  16
HETATM   16  C1  UNL     1      -1.079   1.730  53.244  1.00  0.00     0.199 C 
BRANCH  16  17
HETATM   17  O1  UNL     1      -2.269   1.206  53.715  1.00  0.00    -0.398 OA
ATOM     18  H1  UNL     1      -2.202   0.261  53.790  1.00  0.00     0.209 HD
ENDBRANCH  16  17
ENDBRANCH   1  16
BRANCH   5  19
HETATM   19  O6  UNL     1       3.056   3.189  54.461  1.00  0.00    -0.390 OA
ATOM     20  H6  UNL     1       3.426   2.459  53.979  1.00  0.00     0.210 HD
ENDBRANCH   5  19
BRANCH   6  21
HETATM   21  O7  UNL     1       1.173   2.223  52.239  1.00  0.00    -0.390 OA
ATOM     22  H7  UNL     1       0.232   2.317  52.145  1.00  0.00     0.210 HD
ENDBRANCH   6  21
TORSDOF 7
ENDMDL
