MODEL 1
REMARK VINA RESULT: -6.544032431      0.000      0.000
REMARK  1 active torsions:
REMARK  status: ('A' for Active; 'I' for Inactive)
REMARK       I    between atoms: C1_2  and  N2_4 
REMARK    1  A    between atoms: N2_4  and  C2_6 
ROOT
HETATM    1  C2  UNL     1      99.634  11.754   7.152  1.00  0.00     0.703 A 
HETATM    2  N3  UNL     1     100.227  12.424   6.145  1.00  0.00    -0.129 N 
ATOM      3  H3  UNL     1      99.661  13.069   5.594  1.00  0.00     0.205 HD
HETATM    4  N4  UNL     1     101.505  12.288   5.833  1.00  0.00    -0.247 N 
ATOM      5  H4  UNL     1     101.916  12.814   5.062  1.00  0.00     0.191 HD
HETATM    6  C3  UNL     1     102.253  11.434   6.565  1.00  0.00     0.329 A 
HETATM    7  O2  UNL     1     103.474  11.279   6.296  1.00  0.00    -0.261 OA
HETATM    8  C4  UNL     1     101.678  10.731   7.606  1.00  0.00     0.329 A 
HETATM    9  O3  UNL     1     102.309   9.929   8.320  1.00  0.00    -0.261 OA
HETATM   10  N5  UNL     1     100.371  10.920   7.867  1.00  0.00    -0.150 N 
ATOM     11  H5  UNL     1      99.939  10.407   8.635  1.00  0.00     0.188 HD
ENDROOT
BRANCH   1  12
HETATM   12  N2  UNL     1      98.373  11.976   7.358  1.00  0.00    -0.142 N 
HETATM   13  C1  UNL     1      97.860  13.296   7.464  1.00  0.00     0.347 C 
HETATM   14  N1  UNL     1      97.336  13.766   8.697  1.00  0.00    -0.039 NA
HETATM   15  O1  UNL     1      97.891  14.020   6.438  1.00  0.00    -0.250 OA
ATOM     16  H2  UNL     1      97.735  11.185   7.444  1.00  0.00     0.189 HD
ENDBRANCH   1  12
TORSDOF 1
ENDMDL
MODEL 2
REMARK VINA RESULT: -6.532039317      1.939      4.510
REMARK  1 active torsions:
REMARK  status: ('A' for Active; 'I' for Inactive)
REMARK       I    between atoms: C1_2  and  N2_4 
REMARK    1  A    between atoms: N2_4  and  C2_6 
ROOT
HETATM    1  C2  UNL     1      99.445  11.663   6.669  1.00  0.00     0.703 A 
HETATM    2  N3  UNL     1      99.119  12.232   5.493  1.00  0.00    -0.129 N 
ATOM      3  H3  UNL     1      99.530  11.850   4.641  1.00  0.00     0.205 HD
HETATM    4  N4  UNL     1      98.295  13.260   5.385  1.00  0.00    -0.247 N 
ATOM      5  H4  UNL     1      98.074  13.662   4.474  1.00  0.00     0.191 HD
HETATM    6  C3  UNL     1      97.752  13.764   6.514  1.00  0.00     0.329 A 
HETATM    7  O2  UNL     1      96.963  14.744   6.449  1.00  0.00    -0.261 OA
HETATM    8  C4  UNL     1      98.064  13.205   7.738  1.00  0.00     0.329 A 
HETATM    9  O3  UNL     1      97.599  13.620   8.817  1.00  0.00    -0.261 OA
HETATM   10  N5  UNL     1      98.910  12.159   7.772  1.00  0.00    -0.150 N 
ATOM     11  H5  UNL     1      99.145  11.738   8.671  1.00  0.00     0.188 HD
ENDROOT
BRANCH   1  12
HETATM   12  N2  UNL     1     100.265  10.658   6.641  1.00  0.00    -0.142 N 
HETATM   13  C1  UNL     1     100.941  10.220   7.811  1.00  0.00     0.347 C 
HETATM   14  N1  UNL     1     102.350  10.354   7.919  1.00  0.00    -0.039 NA
HETATM   15  O1  UNL     1     100.249   9.718   8.732  1.00  0.00    -0.250 OA
ATOM     16  H2  UNL     1     100.429  10.172   5.760  1.00  0.00     0.189 HD
ENDBRANCH   1  12
TORSDOF 1
ENDMDL
MODEL 3
REMARK VINA RESULT: -6.446549896      2.598      2.756
REMARK  1 active torsions:
REMARK  status: ('A' for Active; 'I' for Inactive)
REMARK       I    between atoms: C1_2  and  N2_4 
REMARK    1  A    between atoms: N2_4  and  C2_6 
ROOT
HETATM    1  C2  UNL     1     100.126  10.305   7.744  1.00  0.00     0.703 A 
HETATM    2  N3  UNL     1     101.141  10.882   7.072  1.00  0.00    -0.129 N 
ATOM      3  H3  UNL     1     100.915  11.508   6.299  1.00  0.00     0.205 HD
HETATM    4  N4  UNL     1     102.415  10.679   7.364  1.00  0.00    -0.247 N 
ATOM      5  H4  UNL     1     103.154  11.137   6.830  1.00  0.00     0.191 HD
HETATM    6  C3  UNL     1     102.711   9.851   8.388  1.00  0.00     0.329 A 
HETATM    7  O2  UNL     1     103.915   9.634   8.693  1.00  0.00    -0.261 OA
HETATM    8  C4  UNL     1     101.696   9.242   9.099  1.00  0.00     0.329 A 
HETATM    9  O3  UNL     1     101.898   8.469  10.054  1.00  0.00    -0.261 OA
HETATM   10  N5  UNL     1     100.421   9.496   8.747  1.00  0.00    -0.150 N 
ATOM     11  H5  UNL     1      99.664   9.052   9.268  1.00  0.00     0.188 HD
ENDROOT
BRANCH   1  12
HETATM   12  N2  UNL     1      98.919  10.586   7.360  1.00  0.00    -0.142 N 
HETATM   13  C1  UNL     1      98.548  10.544   5.990  1.00  0.00     0.347 C 
HETATM   14  N1  UNL     1      98.199  11.737   5.304  1.00  0.00    -0.039 NA
HETATM   15  O1  UNL     1      98.542   9.425   5.420  1.00  0.00    -0.250 OA
ATOM     16  H2  UNL     1      98.221  10.842   8.058  1.00  0.00     0.189 HD
ENDBRANCH   1  12
TORSDOF 1
ENDMDL
MODEL 4
REMARK VINA RESULT: -6.377500416      0.785      1.806
REMARK  1 active torsions:
REMARK  status: ('A' for Active; 'I' for Inactive)
REMARK       I    between atoms: C1_2  and  N2_4 
REMARK    1  A    between atoms: N2_4  and  C2_6 
ROOT
HETATM    1  C2  UNL     1      99.697  11.641   7.176  1.00  0.00     0.703 A 
HETATM    2  N3  UNL     1     100.245  10.780   8.055  1.00  0.00    -0.129 N 
ATOM      3  H3  UNL     1      99.648  10.381   8.779  1.00  0.00     0.205 HD
HETATM    4  N4  UNL     1     101.519  10.424   8.027  1.00  0.00    -0.247 N 
ATOM      5  H4  UNL     1     101.895   9.768   8.711  1.00  0.00     0.191 HD
HETATM    6  C3  UNL     1     102.308  10.953   7.067  1.00  0.00     0.329 A 
HETATM    7  O2  UNL     1     103.527  10.637   7.011  1.00  0.00    -0.261 OA
HETATM    8  C4  UNL     1     101.779  11.840   6.150  1.00  0.00     0.329 A 
HETATM    9  O3  UNL     1     102.449  12.363   5.240  1.00  0.00    -0.261 OA
HETATM   10  N5  UNL     1     100.474  12.155   6.238  1.00  0.00    -0.150 N 
ATOM     11  H5  UNL     1     100.073  12.808   5.563  1.00  0.00     0.188 HD
ENDROOT
BRANCH   1  12
HETATM   12  N2  UNL     1      98.434  11.908   7.310  1.00  0.00    -0.142 N 
HETATM   13  C1  UNL     1      97.967  13.246   7.409  1.00  0.00     0.347 C 
HETATM   14  N1  UNL     1      97.387  13.716   8.616  1.00  0.00    -0.039 NA
HETATM   15  O1  UNL     1      98.086  13.983   6.399  1.00  0.00    -0.250 OA
ATOM     16  H2  UNL     1      97.763  11.142   7.344  1.00  0.00     0.189 HD
ENDBRANCH   1  12
TORSDOF 1
ENDMDL
MODEL 5
REMARK VINA RESULT: -6.357789328      3.034      5.085
REMARK  1 active torsions:
REMARK  status: ('A' for Active; 'I' for Inactive)
REMARK       I    between atoms: C1_2  and  N2_4 
REMARK    1  A    between atoms: N2_4  and  C2_6 
ROOT
HETATM    1  C2  UNL     1      98.222  12.058   5.345  1.00  0.00     0.703 A 
HETATM    2  N3  UNL     1      98.386  11.411   6.515  1.00  0.00    -0.129 N 
ATOM      3  H3  UNL     1      98.725  10.449   6.493  1.00  0.00     0.205 HD
HETATM    4  N4  UNL     1      98.131  11.960   7.691  1.00  0.00    -0.247 N 
ATOM      5  H4  UNL     1      98.270  11.435   8.555  1.00  0.00     0.191 HD
HETATM    6  C3  UNL     1      97.684  13.233   7.718  1.00  0.00     0.329 A 
HETATM    7  O2  UNL     1      97.430  13.787   8.821  1.00  0.00    -0.261 OA
HETATM    8  C4  UNL     1      97.504  13.926   6.537  1.00  0.00     0.329 A 
HETATM    9  O3  UNL     1      97.095  15.102   6.490  1.00  0.00    -0.261 OA
HETATM   10  N5  UNL     1      97.784  13.305   5.377  1.00  0.00    -0.150 N 
ATOM     11  H5  UNL     1      97.656  13.810   4.499  1.00  0.00     0.188 HD
ENDROOT
BRANCH   1  12
HETATM   12  N2  UNL     1      98.508  11.409   4.258  1.00  0.00    -0.142 N 
HETATM   13  C1  UNL     1      99.432  10.331   4.260  1.00  0.00     0.347 C 
HETATM   14  N1  UNL     1     100.672  10.446   3.580  1.00  0.00    -0.039 NA
HETATM   15  O1  UNL     1      99.110   9.286   4.879  1.00  0.00    -0.250 OA
ATOM     16  H2  UNL     1      98.059  11.680   3.383  1.00  0.00     0.189 HD
ENDBRANCH   1  12
TORSDOF 1
ENDMDL
