MODEL 1
REMARK VINA RESULT: -6.337592229      0.000      0.000
REMARK  6 active torsions:
REMARK  status: ('A' for Active; 'I' for Inactive)
REMARK    1  A    between atoms: C2_2  and  C3_3 
REMARK    2  A    between atoms: C3_3  and  C4_4 
REMARK    3  A    between atoms: C6_6  and  O1_8 
REMARK    4  A    between atoms: C12_15  and  O3_16 
REMARK    5  A    between atoms: C14_19  and  O4_20 
REMARK    6  A    between atoms: C15_22  and  O5_23 
ROOT
HETATM    1  C4  UNL     1       3.159   9.466  24.639  1.00  0.00     0.047 C 
HETATM    2  C5  UNL     1       3.160   9.454  26.166  1.00  0.00     0.024 C 
HETATM    3  C6  UNL     1       4.020   8.270  24.235  1.00  0.00     0.084 C 
HETATM    4  C7  UNL     1       4.010   8.025  22.747  1.00  0.00     0.051 C 
HETATM    5  C8  UNL     1       5.400   8.383  24.706  1.00  0.00     0.010 C 
HETATM    6  C9  UNL     1       6.213   9.423  24.633  1.00  0.00     0.010 C 
HETATM    7  C10 UNL     1       5.877  10.741  24.032  1.00  0.00     0.083 C 
HETATM    8  C11 UNL     1       7.075  11.229  23.243  1.00  0.00     0.051 C 
HETATM    9  O2  UNL     1       4.770  10.591  23.250  1.00  0.00    -0.339 OA
HETATM   10  C12 UNL     1       3.633  10.749  24.076  1.00  0.00     0.180 C 
HETATM   11  C13 UNL     1       4.011  11.802  25.075  1.00  0.00     0.087 C 
HETATM   12  C14 UNL     1       3.800  13.217  24.629  1.00  0.00     0.156 C 
HETATM   13  C15 UNL     1       4.928  13.904  25.419  1.00  0.00     0.148 C 
HETATM   14  C16 UNL     1       6.093  13.070  24.933  1.00  0.00     0.043 C 
HETATM   15  C17 UNL     1       5.539  11.674  25.156  1.00  0.00     0.038 C 
ENDROOT
BRANCH   1  16
HETATM   16  C3  UNL     1       1.766   9.107  24.216  1.00  0.00     0.018 C 
BRANCH  16  17
HETATM   17  C2  UNL     1       0.704   9.251  25.238  1.00  0.00    -0.004 C 
HETATM   18  C1  UNL     1      -0.281  10.365  24.868  1.00  0.00     0.005 C 
ENDBRANCH  16  17
ENDBRANCH   1  16
BRANCH   3  19
HETATM   19  O1  UNL     1       3.430   7.158  24.849  1.00  0.00    -0.385 OA
ATOM     20  H1  UNL     1       4.151   6.589  25.094  1.00  0.00     0.211 HD
ENDBRANCH   3  19
BRANCH  10  21
HETATM   21  O3  UNL     1       2.674  11.218  23.169  1.00  0.00    -0.364 OA
ATOM     22  H3  UNL     1       2.557  12.150  23.308  1.00  0.00     0.213 HD
ENDBRANCH  10  21
BRANCH  12  23
HETATM   23  O4  UNL     1       2.628  13.788  25.078  1.00  0.00    -0.392 OA
ATOM     24  H4  UNL     1       2.719  14.297  25.874  1.00  0.00     0.210 HD
ENDBRANCH  12  23
BRANCH  13  25
HETATM   25  O5  UNL     1       4.734  13.692  26.783  1.00  0.00    -0.393 OA
ATOM     26  H5  UNL     1       5.270  12.961  27.069  1.00  0.00     0.210 HD
ENDBRANCH  13  25
TORSDOF 6
ENDMDL
MODEL 2
REMARK VINA RESULT: -5.955986114      1.323      1.562
REMARK  6 active torsions:
REMARK  status: ('A' for Active; 'I' for Inactive)
REMARK    1  A    between atoms: C2_2  and  C3_3 
REMARK    2  A    between atoms: C3_3  and  C4_4 
REMARK    3  A    between atoms: C6_6  and  O1_8 
REMARK    4  A    between atoms: C12_15  and  O3_16 
REMARK    5  A    between atoms: C14_19  and  O4_20 
REMARK    6  A    between atoms: C15_22  and  O5_23 
ROOT
HETATM    1  C4  UNL     1       2.131   9.031  25.416  1.00  0.00     0.047 C 
HETATM    2  C5  UNL     1       2.604   9.232  26.854  1.00  0.00     0.024 C 
HETATM    3  C6  UNL     1       2.540   7.602  25.063  1.00  0.00     0.084 C 
HETATM    4  C7  UNL     1       2.014   7.164  23.719  1.00  0.00     0.051 C 
HETATM    5  C8  UNL     1       3.987   7.400  25.115  1.00  0.00     0.010 C 
HETATM    6  C9  UNL     1       4.944   8.159  24.609  1.00  0.00     0.010 C 
HETATM    7  C10 UNL     1       4.736   9.422  23.852  1.00  0.00     0.083 C 
HETATM    8  C11 UNL     1       5.704   9.451  22.688  1.00  0.00     0.051 C 
HETATM    9  O2  UNL     1       3.435   9.471  23.443  1.00  0.00    -0.339 OA
HETATM   10  C12 UNL     1       2.674  10.046  24.487  1.00  0.00     0.180 C 
HETATM   11  C13 UNL     1       3.566  11.085  25.101  1.00  0.00     0.087 C 
HETATM   12  C14 UNL     1       3.540  12.427  24.437  1.00  0.00     0.156 C 
HETATM   13  C15 UNL     1       4.980  12.885  24.734  1.00  0.00     0.148 C 
HETATM   14  C16 UNL     1       5.724  11.706  24.145  1.00  0.00     0.043 C 
HETATM   15  C17 UNL     1       4.976  10.559  24.799  1.00  0.00     0.038 C 
ENDROOT
BRANCH   1  16
HETATM   16  C3  UNL     1       0.632   9.009  25.466  1.00  0.00     0.018 C 
BRANCH  16  17
HETATM   17  C2  UNL     1      -0.001   9.572  26.681  1.00  0.00    -0.004 C 
HETATM   18  C1  UNL     1      -0.764  10.862  26.366  1.00  0.00     0.005 C 
ENDBRANCH  16  17
ENDBRANCH   1  16
BRANCH   3  19
HETATM   19  O1  UNL     1       1.942   6.789  26.034  1.00  0.00    -0.385 OA
ATOM     20  H1  UNL     1       2.430   5.974  26.020  1.00  0.00     0.211 HD
ENDBRANCH   3  19
BRANCH  10  21
HETATM   21  O3  UNL     1       1.609  10.627  23.790  1.00  0.00    -0.364 OA
ATOM     22  H3  UNL     1       1.629  10.315  22.893  1.00  0.00     0.213 HD
ENDBRANCH  10  21
BRANCH  12  23
HETATM   23  O4  UNL     1       2.722  13.352  25.048  1.00  0.00    -0.392 OA
ATOM     24  H4  UNL     1       1.826  13.356  24.731  1.00  0.00     0.210 HD
ENDBRANCH  12  23
BRANCH  13  25
HETATM   25  O5  UNL     1       5.178  12.925  26.113  1.00  0.00    -0.393 OA
ATOM     26  H5  UNL     1       5.721  13.673  26.332  1.00  0.00     0.210 HD
ENDBRANCH  13  25
TORSDOF 6
ENDMDL
MODEL 3
REMARK VINA RESULT: -5.930729692      2.174      4.774
REMARK  6 active torsions:
REMARK  status: ('A' for Active; 'I' for Inactive)
REMARK    1  A    between atoms: C2_2  and  C3_3 
REMARK    2  A    between atoms: C3_3  and  C4_4 
REMARK    3  A    between atoms: C6_6  and  O1_8 
REMARK    4  A    between atoms: C12_15  and  O3_16 
REMARK    5  A    between atoms: C14_19  and  O4_20 
REMARK    6  A    between atoms: C15_22  and  O5_23 
ROOT
HETATM    1  C4  UNL     1       1.183   8.180  25.373  1.00  0.00     0.047 C 
HETATM    2  C5  UNL     1       0.888   7.563  24.008  1.00  0.00     0.024 C 
HETATM    3  C6  UNL     1       0.422   9.504  25.380  1.00  0.00     0.084 C 
HETATM    4  C7  UNL     1       0.467  10.192  26.722  1.00  0.00     0.051 C 
HETATM    5  C8  UNL     1       0.879  10.423  24.339  1.00  0.00     0.010 C 
HETATM    6  C9  UNL     1       2.118  10.750  24.015  1.00  0.00     0.010 C 
HETATM    7  C10 UNL     1       3.348  10.229  24.668  1.00  0.00     0.083 C 
HETATM    8  C11 UNL     1       4.329  11.372  24.826  1.00  0.00     0.051 C 
HETATM    9  O2  UNL     1       3.001   9.677  25.866  1.00  0.00    -0.339 OA
HETATM   10  C12 UNL     1       2.632   8.332  25.632  1.00  0.00     0.180 C 
HETATM   11  C13 UNL     1       3.546   7.854  24.543  1.00  0.00     0.087 C 
HETATM   12  C14 UNL     1       4.875   7.338  25.000  1.00  0.00     0.156 C 
HETATM   13  C15 UNL     1       5.727   7.706  23.771  1.00  0.00     0.148 C 
HETATM   14  C16 UNL     1       5.413   9.185  23.706  1.00  0.00     0.043 C 
HETATM   15  C17 UNL     1       3.898   9.145  23.790  1.00  0.00     0.038 C 
ENDROOT
BRANCH   1  16
HETATM   16  C3  UNL     1       0.484   7.319  26.383  1.00  0.00     0.018 C 
BRANCH  16  17
HETATM   17  C2  UNL     1       0.045   5.981  25.926  1.00  0.00    -0.004 C 
HETATM   18  C1  UNL     1      -0.409   5.110  27.102  1.00  0.00     0.005 C 
ENDBRANCH  16  17
ENDBRANCH   1  16
BRANCH   3  19
HETATM   19  O1  UNL     1      -0.914   9.170  25.123  1.00  0.00    -0.385 OA
ATOM     20  H1  UNL     1      -1.040   9.316  24.193  1.00  0.00     0.211 HD
ENDBRANCH   3  19
BRANCH  10  21
HETATM   21  O3  UNL     1       2.931   7.728  26.859  1.00  0.00    -0.364 OA
ATOM     22  H3  UNL     1       3.842   7.899  27.067  1.00  0.00     0.213 HD
ENDBRANCH  10  21
BRANCH  12  23
HETATM   23  O4  UNL     1       4.950   5.966  25.108  1.00  0.00    -0.392 OA
ATOM     24  H4  UNL     1       4.949   5.641  26.000  1.00  0.00     0.210 HD
ENDBRANCH  12  23
BRANCH  13  25
HETATM   25  O5  UNL     1       5.214   7.066  22.644  1.00  0.00    -0.393 OA
ATOM     26  H5  UNL     1       5.339   6.128  22.729  1.00  0.00     0.210 HD
ENDBRANCH  13  25
TORSDOF 6
ENDMDL
MODEL 4
REMARK VINA RESULT: -5.893003584      2.786      5.153
REMARK  6 active torsions:
REMARK  status: ('A' for Active; 'I' for Inactive)
REMARK    1  A    between atoms: C2_2  and  C3_3 
REMARK    2  A    between atoms: C3_3  and  C4_4 
REMARK    3  A    between atoms: C6_6  and  O1_8 
REMARK    4  A    between atoms: C12_15  and  O3_16 
REMARK    5  A    between atoms: C14_19  and  O4_20 
REMARK    6  A    between atoms: C15_22  and  O5_23 
ROOT
HETATM    1  C4  UNL     1       2.248   7.774  25.173  1.00  0.00     0.047 C 
HETATM    2  C5  UNL     1       1.362   7.387  23.992  1.00  0.00     0.024 C 
HETATM    3  C6  UNL     1       2.112   6.620  26.163  1.00  0.00     0.084 C 
HETATM    4  C7  UNL     1       3.047   6.751  27.339  1.00  0.00     0.051 C 
HETATM    5  C8  UNL     1       0.741   6.444  26.641  1.00  0.00     0.010 C 
HETATM    6  C9  UNL     1      -0.103   7.364  27.078  1.00  0.00     0.010 C 
HETATM    7  C10 UNL     1       0.181   8.820  27.177  1.00  0.00     0.083 C 
HETATM    8  C11 UNL     1      -0.407   9.337  28.473  1.00  0.00     0.051 C 
HETATM    9  O2  UNL     1       1.532   9.002  27.114  1.00  0.00    -0.339 OA
HETATM   10  C12 UNL     1       1.893   9.090  25.749  1.00  0.00     0.180 C 
HETATM   11  C13 UNL     1       0.758   9.810  25.084  1.00  0.00     0.087 C 
HETATM   12  C14 UNL     1       0.832  11.306  25.129  1.00  0.00     0.156 C 
HETATM   13  C15 UNL     1      -0.672  11.635  25.134  1.00  0.00     0.148 C 
HETATM   14  C16 UNL     1      -1.086  10.811  26.334  1.00  0.00     0.043 C 
HETATM   15  C17 UNL     1      -0.442   9.481  25.985  1.00  0.00     0.038 C 
ENDROOT
BRANCH   1  16
HETATM   16  C3  UNL     1       3.662   7.703  24.678  1.00  0.00     0.018 C 
BRANCH  16  17
HETATM   17  C2  UNL     1       3.853   7.695  23.210  1.00  0.00    -0.004 C 
HETATM   18  C1  UNL     1       4.534   8.981  22.729  1.00  0.00     0.005 C 
ENDBRANCH  16  17
ENDBRANCH   1  16
BRANCH   3  19
HETATM   19  O1  UNL     1       2.486   5.470  25.455  1.00  0.00    -0.385 OA
ATOM     20  H1  UNL     1       2.535   4.776  26.102  1.00  0.00     0.211 HD
ENDBRANCH   3  19
BRANCH  10  21
HETATM   21  O3  UNL     1       3.047   9.880  25.801  1.00  0.00    -0.364 OA
ATOM     22  H3  UNL     1       3.171  10.289  24.953  1.00  0.00     0.213 HD
ENDBRANCH  10  21
BRANCH  12  23
HETATM   23  O4  UNL     1       1.337  11.887  23.985  1.00  0.00    -0.392 OA
ATOM     24  H4  UNL     1       1.653  12.775  24.102  1.00  0.00     0.210 HD
ENDBRANCH  12  23
BRANCH  13  25
HETATM   25  O5  UNL     1      -1.263  11.119  23.982  1.00  0.00    -0.393 OA
ATOM     26  H5  UNL     1      -1.642  11.829  23.476  1.00  0.00     0.210 HD
ENDBRANCH  13  25
TORSDOF 6
ENDMDL
MODEL 5
REMARK VINA RESULT: -5.886490957      2.091      2.885
REMARK  6 active torsions:
REMARK  status: ('A' for Active; 'I' for Inactive)
REMARK    1  A    between atoms: C2_2  and  C3_3 
REMARK    2  A    between atoms: C3_3  and  C4_4 
REMARK    3  A    between atoms: C6_6  and  O1_8 
REMARK    4  A    between atoms: C12_15  and  O3_16 
REMARK    5  A    between atoms: C14_19  and  O4_20 
REMARK    6  A    between atoms: C15_22  and  O5_23 
ROOT
HETATM    1  C4  UNL     1       4.333   6.785  24.416  1.00  0.00     0.047 C 
HETATM    2  C5  UNL     1       3.934   7.123  25.851  1.00  0.00     0.024 C 
HETATM    3  C6  UNL     1       5.539   5.858  24.551  1.00  0.00     0.084 C 
HETATM    4  C7  UNL     1       5.983   5.288  23.227  1.00  0.00     0.051 C 
HETATM    5  C8  UNL     1       6.673   6.498  25.216  1.00  0.00     0.010 C 
HETATM    6  C9  UNL     1       7.191   7.694  24.993  1.00  0.00     0.010 C 
HETATM    7  C10 UNL     1       6.709   8.669  23.979  1.00  0.00     0.083 C 
HETATM    8  C11 UNL     1       7.912   9.310  23.320  1.00  0.00     0.051 C 
HETATM    9  O2  UNL     1       5.921   8.007  23.084  1.00  0.00    -0.339 OA
HETATM   10  C12 UNL     1       4.604   7.988  23.598  1.00  0.00     0.180 C 
HETATM   11  C13 UNL     1       4.431   9.305  24.295  1.00  0.00     0.087 C 
HETATM   12  C14 UNL     1       4.000  10.443  23.420  1.00  0.00     0.156 C 
HETATM   13  C15 UNL     1       4.672  11.608  24.169  1.00  0.00     0.148 C 
HETATM   14  C16 UNL     1       6.093  11.090  24.178  1.00  0.00     0.043 C 
HETATM   15  C17 UNL     1       5.865   9.681  24.694  1.00  0.00     0.038 C 
ENDROOT
BRANCH   1  16
HETATM   16  C3  UNL     1       3.235   5.924  23.866  1.00  0.00     0.018 C 
BRANCH  16  17
HETATM   17  C2  UNL     1       1.956   5.921  24.612  1.00  0.00    -0.004 C 
HETATM   18  C1  UNL     1       0.872   6.705  23.866  1.00  0.00     0.005 C 
ENDBRANCH  16  17
ENDBRANCH   1  16
BRANCH   3  19
HETATM   19  O1  UNL     1       5.104   4.788  25.344  1.00  0.00    -0.385 OA
ATOM     20  H1  UNL     1       5.879   4.471  25.793  1.00  0.00     0.211 HD
ENDBRANCH   3  19
BRANCH  10  21
HETATM   21  O3  UNL     1       3.833   7.916  22.431  1.00  0.00    -0.364 OA
ATOM     22  H3  UNL     1       4.052   8.656  21.879  1.00  0.00     0.213 HD
ENDBRANCH  10  21
BRANCH  12  23
HETATM   23  O4  UNL     1       2.647  10.708  23.454  1.00  0.00    -0.392 OA
ATOM     24  H4  UNL     1       2.317  11.163  22.689  1.00  0.00     0.210 HD
ENDBRANCH  12  23
BRANCH  13  25
HETATM   25  O5  UNL     1       4.183  11.663  25.474  1.00  0.00    -0.393 OA
ATOM     26  H5  UNL     1       3.269  11.405  25.480  1.00  0.00     0.210 HD
ENDBRANCH  13  25
TORSDOF 6
ENDMDL
