MODEL 1
REMARK VINA RESULT: -7.112225866      0.000      0.000
REMARK  6 active torsions:
REMARK  status: ('A' for Active; 'I' for Inactive)
REMARK    1  A    between atoms: O1_2  and  C2_3 
REMARK    2  A    between atoms: C2_3  and  C3_5 
REMARK    3  A    between atoms: C3_5  and  N1_7 
REMARK    4  A    between atoms: C6_9  and  O3_10 
REMARK    5  A    between atoms: C12_18  and  O5_19 
REMARK    6  A    between atoms: C19_27  and  O6_28 
ROOT
HETATM    1  N1  UNL     1       0.565   9.752  24.189  1.00  0.00    -0.394 N 
HETATM    2  C5  UNL     1       0.638   8.330  24.183  1.00  0.00     0.159 C 
HETATM    3  C6  UNL     1       2.114   8.121  23.945  1.00  0.00     0.113 C 
HETATM    4  C7  UNL     1       2.615   6.755  24.258  1.00  0.00     0.051 C 
HETATM    5  C8  UNL     1       4.046   6.694  23.816  1.00  0.00     0.028 C 
HETATM    6  C9  UNL     1       5.029   7.247  24.786  1.00  0.00     0.004 C 
HETATM    7  C10 UNL     1       5.306   8.703  24.419  1.00  0.00     0.087 C 
HETATM    8  C11 UNL     1       4.088   9.509  24.517  1.00  0.00     0.166 C 
HETATM    9  O4  UNL     1       4.213  10.678  24.236  1.00  0.00    -0.294 OA
HETATM   10  C12 UNL     1       2.723   9.106  24.910  1.00  0.00     0.166 C 
HETATM   11  C13 UNL     1       1.740  10.266  24.816  1.00  0.00     0.167 C 
HETATM   12  C14 UNL     1       6.318   6.433  24.633  1.00  0.00    -0.003 C 
HETATM   13  C15 UNL     1       6.386   5.544  25.853  1.00  0.00     0.006 C 
HETATM   14  C16 UNL     1       5.071   4.872  26.067  1.00  0.00     0.007 C 
HETATM   15  C17 UNL     1       4.327   4.475  24.846  1.00  0.00     0.017 C 
HETATM   16  C18 UNL     1       4.526   2.986  24.562  1.00  0.00     0.013 C 
HETATM   17  C19 UNL     1       4.571   5.282  23.625  1.00  0.00     0.069 C 
HETATM   18  C20 UNL     1       6.033   5.620  23.408  1.00  0.00     0.021 C 
HETATM   19  C21 UNL     1       6.907   4.470  23.160  1.00  0.00     0.013 C 
ENDROOT
BRANCH   1  20
HETATM   20  C3  UNL     1      -0.665  10.356  24.516  1.00  0.00     0.175 C 
HETATM   21  C4  UNL     1      -0.678  10.717  26.001  1.00  0.00     0.043 C 
BRANCH  20  22
HETATM   22  C2  UNL     1      -1.094  11.492  23.688  1.00  0.00     0.280 C 
HETATM   23  O2  UNL     1      -2.162  11.445  23.059  1.00  0.00    -0.263 OA
BRANCH  22  24
HETATM   24  O1  UNL     1      -0.308  12.618  23.609  1.00  0.00    -0.325 OA
HETATM   25  C1  UNL     1       0.459  12.929  22.457  1.00  0.00     0.213 C 
ENDBRANCH  22  24
ENDBRANCH  20  22
ENDBRANCH   1  20
BRANCH   3  26
HETATM   26  O3  UNL     1       2.421   8.483  22.642  1.00  0.00    -0.385 OA
ATOM     27  H3  UNL     1       2.698   9.392  22.629  1.00  0.00     0.210 HD
ENDBRANCH   3  26
BRANCH  10  28
HETATM   28  O5  UNL     1       2.736   8.689  26.216  1.00  0.00    -0.377 OA
ATOM     29  H5  UNL     1       3.230   9.248  26.803  1.00  0.00     0.211 HD
ENDBRANCH  10  28
BRANCH  17  30
HETATM   30  O6  UNL     1       4.082   4.662  22.507  1.00  0.00    -0.389 OA
ATOM     31  H6  UNL     1       3.437   3.991  22.695  1.00  0.00     0.210 HD
ENDBRANCH  17  30
TORSDOF 6
ENDMDL
MODEL 2
REMARK VINA RESULT: -6.992458773      1.696      2.856
REMARK  6 active torsions:
REMARK  status: ('A' for Active; 'I' for Inactive)
REMARK    1  A    between atoms: O1_2  and  C2_3 
REMARK    2  A    between atoms: C2_3  and  C3_5 
REMARK    3  A    between atoms: C3_5  and  N1_7 
REMARK    4  A    between atoms: C6_9  and  O3_10 
REMARK    5  A    between atoms: C12_18  and  O5_19 
REMARK    6  A    between atoms: C19_27  and  O6_28 
ROOT
HETATM    1  N1  UNL     1       0.712  11.258  24.591  1.00  0.00    -0.394 N 
HETATM    2  C5  UNL     1       1.461  10.610  23.569  1.00  0.00     0.159 C 
HETATM    3  C6  UNL     1       2.021   9.432  24.327  1.00  0.00     0.113 C 
HETATM    4  C7  UNL     1       2.547   8.328  23.478  1.00  0.00     0.051 C 
HETATM    5  C8  UNL     1       3.194   7.333  24.393  1.00  0.00     0.028 C 
HETATM    6  C9  UNL     1       2.263   6.363  25.029  1.00  0.00     0.004 C 
HETATM    7  C10 UNL     1       1.870   6.898  26.403  1.00  0.00     0.087 C 
HETATM    8  C11 UNL     1       1.163   8.175  26.286  1.00  0.00     0.166 C 
HETATM    9  O4  UNL     1       0.820   8.678  27.330  1.00  0.00    -0.294 OA
HETATM   10  C12 UNL     1       0.807   8.945  25.078  1.00  0.00     0.166 C 
HETATM   11  C13 UNL     1       0.121  10.260  25.425  1.00  0.00     0.167 C 
HETATM   12  C14 UNL     1       3.031   5.048  25.199  1.00  0.00    -0.003 C 
HETATM   13  C15 UNL     1       2.475   4.113  24.151  1.00  0.00     0.006 C 
HETATM   14  C16 UNL     1       2.416   4.805  22.830  1.00  0.00     0.007 C 
HETATM   15  C17 UNL     1       3.520   5.752  22.533  1.00  0.00     0.017 C 
HETATM   16  C18 UNL     1       4.558   5.092  21.626  1.00  0.00     0.013 C 
HETATM   17  C19 UNL     1       4.171   6.402  23.696  1.00  0.00     0.069 C 
HETATM   18  C20 UNL     1       4.430   5.453  24.850  1.00  0.00     0.021 C 
HETATM   19  C21 UNL     1       5.380   4.374  24.567  1.00  0.00     0.013 C 
ENDROOT
BRANCH   1  20
HETATM   20  C3  UNL     1      -0.084  12.365  24.237  1.00  0.00     0.175 C 
HETATM   21  C4  UNL     1       0.809  13.584  24.008  1.00  0.00     0.043 C 
BRANCH  20  22
HETATM   22  C2  UNL     1      -1.029  12.182  23.126  1.00  0.00     0.280 C 
HETATM   23  O2  UNL     1      -2.040  11.477  23.268  1.00  0.00    -0.263 OA
BRANCH  22  24
HETATM   24  O1  UNL     1      -0.796  12.797  21.918  1.00  0.00    -0.325 OA
HETATM   25  C1  UNL     1      -1.845  13.312  21.114  1.00  0.00     0.213 C 
ENDBRANCH  22  24
ENDBRANCH  20  22
ENDBRANCH   1  20
BRANCH   3  26
HETATM   26  O3  UNL     1       2.982   9.881  25.221  1.00  0.00    -0.385 OA
ATOM     27  H3  UNL     1       3.389  10.665  24.872  1.00  0.00     0.210 HD
ENDBRANCH   3  26
BRANCH  10  28
HETATM   28  O5  UNL     1      -0.073   8.214  24.322  1.00  0.00    -0.377 OA
ATOM     29  H5  UNL     1       0.059   7.274  24.363  1.00  0.00     0.211 HD
ENDBRANCH  10  28
BRANCH  17  30
HETATM   30  O6  UNL     1       5.346   7.008  23.341  1.00  0.00    -0.389 OA
ATOM     31  H6  UNL     1       5.494   7.031  22.403  1.00  0.00     0.210 HD
ENDBRANCH  17  30
TORSDOF 6
ENDMDL
MODEL 3
REMARK VINA RESULT: -6.985416163      1.231      1.418
REMARK  6 active torsions:
REMARK  status: ('A' for Active; 'I' for Inactive)
REMARK    1  A    between atoms: O1_2  and  C2_3 
REMARK    2  A    between atoms: C2_3  and  C3_5 
REMARK    3  A    between atoms: C3_5  and  N1_7 
REMARK    4  A    between atoms: C6_9  and  O3_10 
REMARK    5  A    between atoms: C12_18  and  O5_19 
REMARK    6  A    between atoms: C19_27  and  O6_28 
ROOT
HETATM    1  N1  UNL     1       1.222   9.548  23.828  1.00  0.00    -0.394 N 
HETATM    2  C5  UNL     1       1.566   8.167  23.831  1.00  0.00     0.159 C 
HETATM    3  C6  UNL     1       3.060   8.243  23.629  1.00  0.00     0.113 C 
HETATM    4  C7  UNL     1       3.805   6.998  23.962  1.00  0.00     0.051 C 
HETATM    5  C8  UNL     1       5.231   7.211  23.553  1.00  0.00     0.028 C 
HETATM    6  C9  UNL     1       6.067   7.943  24.543  1.00  0.00     0.004 C 
HETATM    7  C10 UNL     1       6.070   9.424  24.174  1.00  0.00     0.087 C 
HETATM    8  C11 UNL     1       4.718   9.984  24.239  1.00  0.00     0.166 C 
HETATM    9  O4  UNL     1       4.624  11.154  23.954  1.00  0.00    -0.294 OA
HETATM   10  C12 UNL     1       3.446   9.328  24.603  1.00  0.00     0.166 C 
HETATM   11  C13 UNL     1       2.262  10.279  24.479  1.00  0.00     0.167 C 
HETATM   12  C14 UNL     1       7.491   7.390  24.425  1.00  0.00    -0.003 C 
HETATM   13  C15 UNL     1       7.698   6.532  25.651  1.00  0.00     0.006 C 
HETATM   14  C16 UNL     1       6.531   5.621  25.839  1.00  0.00     0.007 C 
HETATM   15  C17 UNL     1       5.906   5.088  24.603  1.00  0.00     0.017 C 
HETATM   16  C18 UNL     1       6.392   3.664  24.333  1.00  0.00     0.013 C 
HETATM   17  C19 UNL     1       6.020   5.925  23.384  1.00  0.00     0.069 C 
HETATM   18  C20 UNL     1       7.396   6.536  23.198  1.00  0.00     0.021 C 
HETATM   19  C21 UNL     1       8.479   5.574  22.977  1.00  0.00     0.013 C 
ENDROOT
BRANCH   1  20
HETATM   20  C3  UNL     1      -0.108   9.907  24.122  1.00  0.00     0.175 C 
HETATM   21  C4  UNL     1      -0.572   9.164  25.375  1.00  0.00     0.043 C 
BRANCH  20  22
HETATM   22  C2  UNL     1      -0.410  11.342  24.214  1.00  0.00     0.280 C 
HETATM   23  O2  UNL     1      -0.641  11.869  25.313  1.00  0.00    -0.263 OA
BRANCH  22  24
HETATM   24  O1  UNL     1      -0.436  12.111  23.074  1.00  0.00    -0.325 OA
HETATM   25  C1  UNL     1      -1.650  12.525  22.466  1.00  0.00     0.213 C 
ENDBRANCH  22  24
ENDBRANCH  20  22
ENDBRANCH   1  20
BRANCH   3  26
HETATM   26  O3  UNL     1       3.323   8.656  22.332  1.00  0.00    -0.385 OA
ATOM     27  H3  UNL     1       2.785   9.413  22.131  1.00  0.00     0.210 HD
ENDBRANCH   3  26
BRANCH  10  28
HETATM   28  O5  UNL     1       3.507   8.922  25.911  1.00  0.00    -0.377 OA
ATOM     29  H5  UNL     1       3.622   9.627  26.537  1.00  0.00     0.211 HD
ENDBRANCH  10  28
BRANCH  17  30
HETATM   30  O6  UNL     1       5.686   5.222  22.258  1.00  0.00    -0.389 OA
ATOM     31  H6  UNL     1       6.194   4.428  22.140  1.00  0.00     0.210 HD
ENDBRANCH  17  30
TORSDOF 6
ENDMDL
MODEL 4
REMARK VINA RESULT: -6.984143219      1.495      2.295
REMARK  6 active torsions:
REMARK  status: ('A' for Active; 'I' for Inactive)
REMARK    1  A    between atoms: O1_2  and  C2_3 
REMARK    2  A    between atoms: C2_3  and  C3_5 
REMARK    3  A    between atoms: C3_5  and  N1_7 
REMARK    4  A    between atoms: C6_9  and  O3_10 
REMARK    5  A    between atoms: C12_18  and  O5_19 
REMARK    6  A    between atoms: C19_27  and  O6_28 
ROOT
HETATM    1  N1  UNL     1       1.662  10.410  24.061  1.00  0.00    -0.394 N 
HETATM    2  C5  UNL     1       2.013   9.408  25.009  1.00  0.00     0.159 C 
HETATM    3  C6  UNL     1       2.986   8.581  24.203  1.00  0.00     0.113 C 
HETATM    4  C7  UNL     1       3.846   7.664  25.002  1.00  0.00     0.051 C 
HETATM    5  C8  UNL     1       4.621   6.826  24.032  1.00  0.00     0.028 C 
HETATM    6  C9  UNL     1       5.851   7.463  23.490  1.00  0.00     0.004 C 
HETATM    7  C10 UNL     1       5.508   8.125  22.158  1.00  0.00     0.087 C 
HETATM    8  C11 UNL     1       4.507   9.179  22.339  1.00  0.00     0.166 C 
HETATM    9  O4  UNL     1       4.169   9.754  21.331  1.00  0.00    -0.294 OA
HETATM   10  C12 UNL     1       3.847   9.646  23.574  1.00  0.00     0.166 C 
HETATM   11  C13 UNL     1       2.819  10.734  23.290  1.00  0.00     0.167 C 
HETATM   12  C14 UNL     1       6.870   6.344  23.251  1.00  0.00    -0.003 C 
HETATM   13  C15 UNL     1       7.897   6.486  24.350  1.00  0.00     0.006 C 
HETATM   14  C16 UNL     1       7.215   6.638  25.669  1.00  0.00     0.007 C 
HETATM   15  C17 UNL     1       5.964   5.860  25.857  1.00  0.00     0.017 C 
HETATM   16  C18 UNL     1       6.243   4.591  26.662  1.00  0.00     0.013 C 
HETATM   17  C19 UNL     1       5.183   5.550  24.635  1.00  0.00     0.069 C 
HETATM   18  C20 UNL     1       6.042   5.114  23.464  1.00  0.00     0.021 C 
HETATM   19  C21 UNL     1       6.766   3.855  23.658  1.00  0.00     0.013 C 
ENDROOT
BRANCH   1  20
HETATM   20  C3  UNL     1       0.844  11.474  24.487  1.00  0.00     0.175 C 
HETATM   21  C4  UNL     1       0.896  12.603  23.457  1.00  0.00     0.043 C 
BRANCH  20  22
HETATM   22  C2  UNL     1      -0.543  11.150  24.849  1.00  0.00     0.280 C 
HETATM   23  O2  UNL     1      -1.328  10.703  23.998  1.00  0.00    -0.263 OA
BRANCH  22  24
HETATM   24  O1  UNL     1      -0.978  11.340  26.140  1.00  0.00    -0.325 OA
HETATM   25  C1  UNL     1      -1.001  10.291  27.095  1.00  0.00     0.213 C 
ENDBRANCH  22  24
ENDBRANCH  20  22
ENDBRANCH   1  20
BRANCH   3  26
HETATM   26  O3  UNL     1       2.291   7.891  23.221  1.00  0.00    -0.385 OA
ATOM     27  H3  UNL     1       2.835   7.183  22.895  1.00  0.00     0.210 HD
ENDBRANCH   3  26
BRANCH  10  28
HETATM   28  O5  UNL     1       4.789  10.184  24.412  1.00  0.00    -0.377 OA
ATOM     29  H5  UNL     1       5.158  11.007  24.113  1.00  0.00     0.211 HD
ENDBRANCH  10  28
BRANCH  17  30
HETATM   30  O6  UNL     1       4.233   4.593  24.875  1.00  0.00    -0.389 OA
ATOM     31  H6  UNL     1       4.197   3.918  24.208  1.00  0.00     0.210 HD
ENDBRANCH  17  30
TORSDOF 6
ENDMDL
MODEL 5
REMARK VINA RESULT: -6.949933411      1.667      2.941
REMARK  6 active torsions:
REMARK  status: ('A' for Active; 'I' for Inactive)
REMARK    1  A    between atoms: O1_2  and  C2_3 
REMARK    2  A    between atoms: C2_3  and  C3_5 
REMARK    3  A    between atoms: C3_5  and  N1_7 
REMARK    4  A    between atoms: C6_9  and  O3_10 
REMARK    5  A    between atoms: C12_18  and  O5_19 
REMARK    6  A    between atoms: C19_27  and  O6_28 
ROOT
HETATM    1  N1  UNL     1       0.347  10.305  24.427  1.00  0.00    -0.394 N 
HETATM    2  C5  UNL     1       1.499   9.804  23.759  1.00  0.00     0.159 C 
HETATM    3  C6  UNL     1       1.981   8.775  24.752  1.00  0.00     0.113 C 
HETATM    4  C7  UNL     1       2.953   7.785  24.213  1.00  0.00     0.051 C 
HETATM    5  C8  UNL     1       3.430   6.957  25.367  1.00  0.00     0.028 C 
HETATM    6  C9  UNL     1       2.536   5.830  25.746  1.00  0.00     0.004 C 
HETATM    7  C10 UNL     1       1.617   6.299  26.871  1.00  0.00     0.087 C 
HETATM    8  C11 UNL     1       0.767   7.406  26.427  1.00  0.00     0.166 C 
HETATM    9  O4  UNL     1       0.010   7.848  27.258  1.00  0.00    -0.294 OA
HETATM   10  C12 UNL     1       0.698   8.067  25.108  1.00  0.00     0.166 C 
HETATM   11  C13 UNL     1      -0.293   9.224  25.105  1.00  0.00     0.167 C 
HETATM   12  C14 UNL     1       3.431   4.699  26.264  1.00  0.00    -0.003 C 
HETATM   13  C15 UNL     1       3.438   3.653  25.173  1.00  0.00     0.006 C 
HETATM   14  C16 UNL     1       3.695   4.296  23.852  1.00  0.00     0.007 C 
HETATM   15  C17 UNL     1       4.641   5.441  23.849  1.00  0.00     0.017 C 
HETATM   16  C18 UNL     1       6.024   4.987  23.384  1.00  0.00     0.013 C 
HETATM   17  C19 UNL     1       4.737   6.229  25.102  1.00  0.00     0.069 C 
HETATM   18  C20 UNL     1       4.767   5.371  26.353  1.00  0.00     0.021 C 
HETATM   19  C21 UNL     1       5.938   4.500  26.481  1.00  0.00     0.013 C 
ENDROOT
BRANCH   1  20
HETATM   20  C3  UNL     1      -0.475  11.223  23.744  1.00  0.00     0.175 C 
HETATM   21  C4  UNL     1      -1.742  11.478  24.559  1.00  0.00     0.043 C 
BRANCH  20  22
HETATM   22  C2  UNL     1       0.144  12.485  23.315  1.00  0.00     0.280 C 
HETATM   23  O2  UNL     1       0.539  13.310  24.153  1.00  0.00    -0.263 OA
BRANCH  22  24
HETATM   24  O1  UNL     1       0.289  12.757  21.974  1.00  0.00    -0.325 OA
HETATM   25  C1  UNL     1      -0.822  13.000  21.125  1.00  0.00     0.213 C 
ENDBRANCH  22  24
ENDBRANCH  20  22
ENDBRANCH   1  20
BRANCH   3  26
HETATM   26  O3  UNL     1       2.490   9.423  25.868  1.00  0.00    -0.385 OA
ATOM     27  H3  UNL     1       3.342   9.786  25.655  1.00  0.00     0.210 HD
ENDBRANCH   3  26
BRANCH  10  28
HETATM   28  O5  UNL     1       0.270   7.161  24.173  1.00  0.00    -0.377 OA
ATOM     29  H5  UNL     1      -0.072   7.549  23.376  1.00  0.00     0.211 HD
ENDBRANCH  10  28
BRANCH  17  30
HETATM   30  O6  UNL     1       5.831   7.052  25.096  1.00  0.00    -0.389 OA
ATOM     31  H6  UNL     1       6.630   6.620  24.819  1.00  0.00     0.210 HD
ENDBRANCH  17  30
TORSDOF 6
ENDMDL
