MODEL 1
REMARK VINA RESULT: -4.384528716      0.000      0.000
REMARK  7 active torsions:
REMARK  status: ('A' for Active; 'I' for Inactive)
REMARK    1  A    between atoms: C3_3  and  C4_4 
REMARK    2  A    between atoms: C4_4  and  S1_5 
REMARK    3  A    between atoms: S1_5  and  S2_6 
REMARK    4  A    between atoms: C6_9  and  O2_10 
REMARK    5  A    between atoms: C7_12  and  O3_13 
REMARK    6  A    between atoms: C8_15  and  O4_16 
REMARK    7  A    between atoms: C9_18  and  O5_19 
ROOT
HETATM    1  C4  UNL     1      -9.113  20.323   9.071  1.00  0.00     0.168 C 
HETATM    2  O1  UNL     1      -8.517  19.043   9.194  1.00  0.00    -0.330 OA
HETATM    3  C6  UNL     1      -9.462  18.089   9.566  1.00  0.00     0.290 C 
HETATM    4  C7  UNL     1     -10.395  17.747   8.429  1.00  0.00     0.204 C 
HETATM    5  C8  UNL     1     -10.290  18.904   7.423  1.00  0.00     0.184 C 
HETATM    6  C9  UNL     1     -10.410  20.155   8.311  1.00  0.00     0.199 C 
ENDROOT
BRANCH   1   7
HETATM    7  C3  UNL     1      -8.138  21.153   8.317  1.00  0.00     0.021 C 
HETATM    8  C2  UNL     1      -7.046  20.666   7.742  1.00  0.00    -0.031 C 
HETATM    9  C1  UNL     1      -6.102  21.502   7.004  1.00  0.00     0.036 C 
ENDBRANCH   1   7
BRANCH   1  10
HETATM   10  S1  UNL     1      -9.343  20.915  10.759  1.00  0.00    -0.052 SA
BRANCH  10  11
HETATM   11  S2  UNL     1      -9.742  22.999  10.670  1.00  0.00    -0.099 SA
HETATM   12  C5  UNL     1     -11.500  23.201  10.436  1.00  0.00     0.103 C 
ENDBRANCH  10  11
ENDBRANCH   1  10
BRANCH   6  13
HETATM   13  O5  UNL     1     -11.490  19.889   9.154  1.00  0.00    -0.389 OA
ATOM     14  H5  UNL     1     -11.757  18.978   9.124  1.00  0.00     0.210 HD
ENDBRANCH   6  13
BRANCH   3  15
HETATM   15  O2  UNL     1      -8.744  16.920   9.854  1.00  0.00    -0.368 OA
ATOM     16  H2  UNL     1      -9.381  16.215   9.869  1.00  0.00     0.212 HD
ENDBRANCH   3  15
BRANCH   5  17
HETATM   17  O4  UNL     1     -11.370  18.854   6.570  1.00  0.00    -0.390 OA
ATOM     18  H4  UNL     1     -11.057  18.900   5.674  1.00  0.00     0.210 HD
ENDBRANCH   5  17
BRANCH   4  19
HETATM   19  O3  UNL     1     -10.091  16.534   7.830  1.00  0.00    -0.388 OA
ATOM     20  H3  UNL     1      -9.378  16.600   7.206  1.00  0.00     0.210 HD
ENDBRANCH   4  19
TORSDOF 7
ENDMDL
MODEL 2
REMARK VINA RESULT: -4.313841942      1.115      1.775
REMARK  7 active torsions:
REMARK  status: ('A' for Active; 'I' for Inactive)
REMARK    1  A    between atoms: C3_3  and  C4_4 
REMARK    2  A    between atoms: C4_4  and  S1_5 
REMARK    3  A    between atoms: S1_5  and  S2_6 
REMARK    4  A    between atoms: C6_9  and  O2_10 
REMARK    5  A    between atoms: C7_12  and  O3_13 
REMARK    6  A    between atoms: C8_15  and  O4_16 
REMARK    7  A    between atoms: C9_18  and  O5_19 
ROOT
HETATM    1  C4  UNL     1      -9.045  20.316   9.010  1.00  0.00     0.168 C 
HETATM    2  O1  UNL     1      -8.454  19.032   9.113  1.00  0.00    -0.330 OA
HETATM    3  C6  UNL     1      -9.392  18.084   9.514  1.00  0.00     0.290 C 
HETATM    4  C7  UNL     1     -10.363  17.748   8.407  1.00  0.00     0.204 C 
HETATM    5  C8  UNL     1     -10.283  18.906   7.400  1.00  0.00     0.184 C 
HETATM    6  C9  UNL     1     -10.367  20.156   8.291  1.00  0.00     0.199 C 
ENDROOT
BRANCH   1   7
HETATM    7  C3  UNL     1      -8.090  21.141   8.226  1.00  0.00     0.021 C 
HETATM    8  C2  UNL     1      -6.967  20.667   7.701  1.00  0.00    -0.031 C 
HETATM    9  C1  UNL     1      -6.043  21.498   6.932  1.00  0.00     0.036 C 
ENDBRANCH   1   7
BRANCH   1  10
HETATM   10  S1  UNL     1      -9.218  20.908  10.705  1.00  0.00    -0.052 SA
BRANCH  10  11
HETATM   11  S2  UNL     1      -7.379  20.555  11.708  1.00  0.00    -0.099 SA
HETATM   12  C5  UNL     1      -7.559  19.048  12.647  1.00  0.00     0.103 C 
ENDBRANCH  10  11
ENDBRANCH   1  10
BRANCH   6  13
HETATM   13  O5  UNL     1     -11.421  19.896   9.168  1.00  0.00    -0.389 OA
ATOM     14  H5  UNL     1     -11.848  20.690   9.467  1.00  0.00     0.210 HD
ENDBRANCH   6  13
BRANCH   3  15
HETATM   15  O2  UNL     1      -8.673  16.910   9.779  1.00  0.00    -0.368 OA
ATOM     16  H2  UNL     1      -9.317  16.249  10.002  1.00  0.00     0.212 HD
ENDBRANCH   3  15
BRANCH   5  17
HETATM   17  O4  UNL     1     -11.390  18.862   6.581  1.00  0.00    -0.390 OA
ATOM     18  H4  UNL     1     -11.994  19.547   6.844  1.00  0.00     0.210 HD
ENDBRANCH   5  17
BRANCH   4  19
HETATM   19  O3  UNL     1     -10.085  16.534   7.798  1.00  0.00    -0.388 OA
ATOM     20  H3  UNL     1     -10.855  16.129   7.416  1.00  0.00     0.210 HD
ENDBRANCH   4  19
TORSDOF 7
ENDMDL
MODEL 3
REMARK VINA RESULT: -4.135862688      1.830      2.242
REMARK  7 active torsions:
REMARK  status: ('A' for Active; 'I' for Inactive)
REMARK    1  A    between atoms: C3_3  and  C4_4 
REMARK    2  A    between atoms: C4_4  and  S1_5 
REMARK    3  A    between atoms: S1_5  and  S2_6 
REMARK    4  A    between atoms: C6_9  and  O2_10 
REMARK    5  A    between atoms: C7_12  and  O3_13 
REMARK    6  A    between atoms: C8_15  and  O4_16 
REMARK    7  A    between atoms: C9_18  and  O5_19 
ROOT
HETATM    1  C4  UNL     1      -9.459  20.348   9.054  1.00  0.00     0.168 C 
HETATM    2  O1  UNL     1      -8.821  19.916  10.245  1.00  0.00    -0.330 OA
HETATM    3  C6  UNL     1      -9.748  19.392  11.143  1.00  0.00     0.290 C 
HETATM    4  C7  UNL     1     -10.252  18.037  10.705  1.00  0.00     0.204 C 
HETATM    5  C8  UNL     1      -9.944  17.928   9.204  1.00  0.00     0.184 C 
HETATM    6  C9  UNL     1     -10.439  19.272   8.644  1.00  0.00     0.199 C 
ENDROOT
BRANCH   1   7
HETATM    7  C3  UNL     1      -8.376  20.516   8.052  1.00  0.00     0.021 C 
HETATM    8  C2  UNL     1      -7.100  20.246   8.295  1.00  0.00    -0.031 C 
HETATM    9  C1  UNL     1      -6.052  20.419   7.291  1.00  0.00     0.036 C 
ENDBRANCH   1   7
BRANCH   1  10
HETATM   10  S1  UNL     1     -10.248  21.916   9.469  1.00  0.00    -0.052 SA
BRANCH  10  11
HETATM   11  S2  UNL     1     -11.045  22.737   7.680  1.00  0.00    -0.099 SA
HETATM   12  C5  UNL     1      -9.974  24.074   7.177  1.00  0.00     0.103 C 
ENDBRANCH  10  11
ENDBRANCH   1  10
BRANCH   6  13
HETATM   13  O5  UNL     1     -11.699  19.452   9.217  1.00  0.00    -0.389 OA
ATOM     14  H5  UNL     1     -12.224  18.661   9.194  1.00  0.00     0.210 HD
ENDBRANCH   6  13
BRANCH   3  15
HETATM   15  O2  UNL     1      -9.055  19.187  12.344  1.00  0.00    -0.368 OA
ATOM     16  H2  UNL     1      -8.655  18.328  12.276  1.00  0.00     0.212 HD
ENDBRANCH   3  15
BRANCH   5  17
HETATM   17  O4  UNL     1     -10.700  16.910   8.666  1.00  0.00    -0.390 OA
ATOM     18  H4  UNL     1     -10.196  16.105   8.692  1.00  0.00     0.210 HD
ENDBRANCH   5  17
BRANCH   4  19
HETATM   19  O3  UNL     1      -9.674  16.994  11.413  1.00  0.00    -0.388 OA
ATOM     20  H3  UNL     1      -9.828  16.147  11.012  1.00  0.00     0.210 HD
ENDBRANCH   4  19
TORSDOF 7
ENDMDL
MODEL 4
REMARK VINA RESULT: -4.091958519      2.713      4.445
REMARK  7 active torsions:
REMARK  status: ('A' for Active; 'I' for Inactive)
REMARK    1  A    between atoms: C3_3  and  C4_4 
REMARK    2  A    between atoms: C4_4  and  S1_5 
REMARK    3  A    between atoms: S1_5  and  S2_6 
REMARK    4  A    between atoms: C6_9  and  O2_10 
REMARK    5  A    between atoms: C7_12  and  O3_13 
REMARK    6  A    between atoms: C8_15  and  O4_16 
REMARK    7  A    between atoms: C9_18  and  O5_19 
ROOT
HETATM    1  C4  UNL     1      -7.809  18.243  10.374  1.00  0.00     0.168 C 
HETATM    2  O1  UNL     1      -8.264  19.461   9.810  1.00  0.00    -0.330 OA
HETATM    3  C6  UNL     1      -8.810  19.249   8.546  1.00  0.00     0.290 C 
HETATM    4  C7  UNL     1     -10.156  18.568   8.620  1.00  0.00     0.204 C 
HETATM    5  C8  UNL     1     -10.232  17.917  10.010  1.00  0.00     0.184 C 
HETATM    6  C9  UNL     1      -8.878  17.199  10.138  1.00  0.00     0.199 C 
ENDROOT
BRANCH   1   7
HETATM    7  C3  UNL     1      -7.616  18.514  11.822  1.00  0.00     0.021 C 
HETATM    8  C2  UNL     1      -6.759  17.852  12.588  1.00  0.00    -0.031 C 
HETATM    9  C1  UNL     1      -6.587  18.137  14.010  1.00  0.00     0.036 C 
ENDBRANCH   1   7
BRANCH   1  10
HETATM   10  S1  UNL     1      -6.252  17.875   9.541  1.00  0.00    -0.052 SA
BRANCH  10  11
HETATM   11  S2  UNL     1      -5.171  19.693   9.350  1.00  0.00    -0.099 SA
HETATM   12  C5  UNL     1      -5.263  20.198   7.641  1.00  0.00     0.103 C 
ENDBRANCH  10  11
ENDBRANCH   1  10
BRANCH   6  13
HETATM   13  O5  UNL     1      -8.713  16.534   8.922  1.00  0.00    -0.389 OA
ATOM     14  H5  UNL     1      -8.961  15.619   8.973  1.00  0.00     0.210 HD
ENDBRANCH   6  13
BRANCH   3  15
HETATM   15  O2  UNL     1      -9.039  20.520   8.001  1.00  0.00    -0.368 OA
ATOM     16  H2  UNL     1      -9.781  20.428   7.415  1.00  0.00     0.212 HD
ENDBRANCH   3  15
BRANCH   5  17
HETATM   17  O4  UNL     1     -11.240  16.978  10.008  1.00  0.00    -0.390 OA
ATOM     18  H4  UNL     1     -12.078  17.425  10.040  1.00  0.00     0.210 HD
ENDBRANCH   5  17
BRANCH   4  19
HETATM   19  O3  UNL     1     -11.213  19.443   8.419  1.00  0.00    -0.388 OA
ATOM     20  H3  UNL     1     -11.939  19.043   7.955  1.00  0.00     0.210 HD
ENDBRANCH   4  19
TORSDOF 7
ENDMDL
MODEL 5
REMARK VINA RESULT: -4.083315613      6.223      8.255
REMARK  7 active torsions:
REMARK  status: ('A' for Active; 'I' for Inactive)
REMARK    1  A    between atoms: C3_3  and  C4_4 
REMARK    2  A    between atoms: C4_4  and  S1_5 
REMARK    3  A    between atoms: S1_5  and  S2_6 
REMARK    4  A    between atoms: C6_9  and  O2_10 
REMARK    5  A    between atoms: C7_12  and  O3_13 
REMARK    6  A    between atoms: C8_15  and  O4_16 
REMARK    7  A    between atoms: C9_18  and  O5_19 
ROOT
HETATM    1  C4  UNL     1     -11.921  26.652   8.605  1.00  0.00     0.168 C 
HETATM    2  O1  UNL     1     -13.023  27.143   7.861  1.00  0.00    -0.330 OA
HETATM    3  C6  UNL     1     -12.837  26.927   6.497  1.00  0.00     0.290 C 
HETATM    4  C7  UNL     1     -13.004  25.471   6.130  1.00  0.00     0.204 C 
HETATM    5  C8  UNL     1     -12.839  24.677   7.435  1.00  0.00     0.184 C 
HETATM    6  C9  UNL     1     -11.572  25.285   8.061  1.00  0.00     0.199 C 
ENDROOT
BRANCH   1   7
HETATM    7  C3  UNL     1     -12.384  26.580  10.015  1.00  0.00     0.021 C 
HETATM    8  C2  UNL     1     -13.627  26.844  10.396  1.00  0.00    -0.031 C 
HETATM    9  C1  UNL     1     -14.060  26.765  11.789  1.00  0.00     0.036 C 
ENDBRANCH   1   7
BRANCH   1  10
HETATM   10  S1  UNL     1     -10.608  27.868   8.385  1.00  0.00    -0.052 SA
BRANCH  10  11
HETATM   11  S2  UNL     1     -10.923  29.429   9.790  1.00  0.00    -0.099 SA
HETATM   12  C5  UNL     1     -12.390  30.315   9.290  1.00  0.00     0.103 C 
ENDBRANCH  10  11
ENDBRANCH   1  10
BRANCH   6  13
HETATM   13  O5  UNL     1     -10.655  25.348   7.011  1.00  0.00    -0.389 OA
ATOM     14  H5  UNL     1      -9.956  24.711   7.102  1.00  0.00     0.210 HD
ENDBRANCH   6  13
BRANCH   3  15
HETATM   15  O2  UNL     1     -13.869  27.619   5.848  1.00  0.00    -0.368 OA
ATOM     16  H2  UNL     1     -13.520  28.477   5.638  1.00  0.00     0.212 HD
ENDBRANCH   3  15
BRANCH   5  17
HETATM   17  O4  UNL     1     -12.599  23.356   7.126  1.00  0.00    -0.390 OA
ATOM     18  H4  UNL     1     -12.151  23.313   6.289  1.00  0.00     0.210 HD
ENDBRANCH   5  17
BRANCH   4  19
HETATM   19  O3  UNL     1     -14.226  25.204   5.532  1.00  0.00    -0.388 OA
ATOM     20  H3  UNL     1     -14.156  24.591   4.810  1.00  0.00     0.210 HD
ENDBRANCH   4  19
TORSDOF 7
ENDMDL
