MODEL 1
REMARK VINA RESULT: -5.613330393      0.000      0.000
REMARK  7 active torsions:
REMARK  status: ('A' for Active; 'I' for Inactive)
REMARK    1  A    between atoms: C2_2  and  C3_3 
REMARK    2  A    between atoms: C3_3  and  O1_5 
REMARK    3  A    between atoms: O1_5  and  C5_6 
REMARK    4  A    between atoms: C6_8  and  O3_9 
REMARK    5  A    between atoms: C7_11  and  O4_12 
REMARK    6  A    between atoms: C10_16  and  O5_17 
REMARK    7  A    between atoms: C11_19  and  O6_20 
ROOT
HETATM    1  C5  UNL     1     -13.352  25.929   6.444  1.00  0.00     0.300 C 
HETATM    2  O2  UNL     1     -14.481  25.128   6.321  1.00  0.00    -0.326 OA
HETATM    3  C6  UNL     1     -14.426  24.280   5.220  1.00  0.00     0.289 C 
HETATM    4  C7  UNL     1     -15.150  24.863   4.044  1.00  0.00     0.179 C 
HETATM    5  C8  UNL     1     -15.478  26.304   4.374  1.00  0.00     0.046 C 
HETATM    6  C9  UNL     1     -16.496  26.825   3.382  1.00  0.00     0.015 C 
HETATM    7  C10 UNL     1     -14.207  27.073   4.360  1.00  0.00     0.158 C 
HETATM    8  C11 UNL     1     -13.497  27.216   5.635  1.00  0.00     0.203 C 
ENDROOT
BRANCH   1   9
HETATM    9  O1  UNL     1     -13.184  26.273   7.734  1.00  0.00    -0.319 OA
BRANCH   9  10
HETATM   10  C3  UNL     1     -12.374  26.324   8.773  1.00  0.00     0.062 C 
HETATM   11  C4  UNL     1     -12.393  25.280   9.670  1.00  0.00     0.051 C 
BRANCH  10  12
HETATM   12  C2  UNL     1     -11.445  27.381   9.079  1.00  0.00     0.026 C 
HETATM   13  C1  UNL     1     -10.760  28.048   8.189  1.00  0.00     0.014 C 
ENDBRANCH  10  12
ENDBRANCH   9  10
ENDBRANCH   1   9
BRANCH   8  14
HETATM   14  O6  UNL     1     -14.086  28.223   6.399  1.00  0.00    -0.388 OA
ATOM     15  H6  UNL     1     -15.027  28.106   6.450  1.00  0.00     0.210 HD
ENDBRANCH   8  14
BRANCH   3  16
HETATM   16  O3  UNL     1     -15.093  23.100   5.585  1.00  0.00    -0.368 OA
ATOM     17  H3  UNL     1     -15.815  23.356   6.147  1.00  0.00     0.212 HD
ENDBRANCH   3  16
BRANCH   7  18
HETATM   18  O5  UNL     1     -14.494  28.343   3.832  1.00  0.00    -0.392 OA
ATOM     19  H5  UNL     1     -13.723  28.631   3.357  1.00  0.00     0.210 HD
ENDBRANCH   7  18
BRANCH   4  20
HETATM   20  O4  UNL     1     -16.281  24.140   3.685  1.00  0.00    -0.390 OA
ATOM     21  H4  UNL     1     -16.104  23.460   3.046  1.00  0.00     0.210 HD
ENDBRANCH   4  20
TORSDOF 7
ENDMDL
MODEL 2
REMARK VINA RESULT: -5.419828628      1.642      5.782
REMARK  7 active torsions:
REMARK  status: ('A' for Active; 'I' for Inactive)
REMARK    1  A    between atoms: C2_2  and  C3_3 
REMARK    2  A    between atoms: C3_3  and  O1_5 
REMARK    3  A    between atoms: O1_5  and  C5_6 
REMARK    4  A    between atoms: C6_8  and  O3_9 
REMARK    5  A    between atoms: C7_11  and  O4_12 
REMARK    6  A    between atoms: C10_16  and  O5_17 
REMARK    7  A    between atoms: C11_19  and  O6_20 
ROOT
HETATM    1  C5  UNL     1     -13.296  26.356   6.082  1.00  0.00     0.300 C 
HETATM    2  O2  UNL     1     -13.393  26.992   7.314  1.00  0.00    -0.326 OA
HETATM    3  C6  UNL     1     -12.163  27.418   7.802  1.00  0.00     0.289 C 
HETATM    4  C7  UNL     1     -11.580  26.425   8.762  1.00  0.00     0.179 C 
HETATM    5  C8  UNL     1     -12.413  25.163   8.679  1.00  0.00     0.046 C 
HETATM    6  C9  UNL     1     -12.087  24.270   9.859  1.00  0.00     0.015 C 
HETATM    7  C10 UNL     1     -12.131  24.520   7.369  1.00  0.00     0.158 C 
HETATM    8  C11 UNL     1     -13.015  24.865   6.251  1.00  0.00     0.203 C 
ENDROOT
BRANCH   1   9
HETATM    9  O1  UNL     1     -14.459  26.481   5.420  1.00  0.00    -0.319 OA
BRANCH   9  10
HETATM   10  C3  UNL     1     -15.068  26.586   4.255  1.00  0.00     0.062 C 
HETATM   11  C4  UNL     1     -14.840  27.710   3.495  1.00  0.00     0.051 C 
BRANCH  10  12
HETATM   12  C2  UNL     1     -15.969  25.624   3.675  1.00  0.00     0.026 C 
HETATM   13  C1  UNL     1     -15.598  24.515   3.093  1.00  0.00     0.014 C 
ENDBRANCH  10  12
ENDBRANCH   9  10
ENDBRANCH   1   9
BRANCH   8  14
HETATM   14  O6  UNL     1     -14.202  24.139   6.340  1.00  0.00    -0.388 OA
ATOM     15  H6  UNL     1     -14.306  23.561   5.593  1.00  0.00     0.210 HD
ENDBRANCH   8  14
BRANCH   3  16
HETATM   16  O3  UNL     1     -12.399  28.606   8.513  1.00  0.00    -0.368 OA
ATOM     17  H3  UNL     1     -11.561  28.890   8.858  1.00  0.00     0.212 HD
ENDBRANCH   3  16
BRANCH   7  18
HETATM   18  O5  UNL     1     -12.147  23.130   7.576  1.00  0.00    -0.392 OA
ATOM     19  H5  UNL     1     -11.243  22.839   7.595  1.00  0.00     0.210 HD
ENDBRANCH   7  18
BRANCH   4  20
HETATM   20  O4  UNL     1     -11.494  26.907  10.063  1.00  0.00    -0.390 OA
ATOM     21  H4  UNL     1     -12.270  26.728  10.581  1.00  0.00     0.210 HD
ENDBRANCH   4  20
TORSDOF 7
ENDMDL
MODEL 3
REMARK VINA RESULT: -5.061313418      1.360      1.661
REMARK  7 active torsions:
REMARK  status: ('A' for Active; 'I' for Inactive)
REMARK    1  A    between atoms: C2_2  and  C3_3 
REMARK    2  A    between atoms: C3_3  and  O1_5 
REMARK    3  A    between atoms: O1_5  and  C5_6 
REMARK    4  A    between atoms: C6_8  and  O3_9 
REMARK    5  A    between atoms: C7_11  and  O4_12 
REMARK    6  A    between atoms: C10_16  and  O5_17 
REMARK    7  A    between atoms: C11_19  and  O6_20 
ROOT
HETATM    1  C5  UNL     1     -13.410  27.152   6.111  1.00  0.00     0.300 C 
HETATM    2  O2  UNL     1     -14.000  25.947   6.476  1.00  0.00    -0.326 OA
HETATM    3  C6  UNL     1     -13.523  24.867   5.741  1.00  0.00     0.289 C 
HETATM    4  C7  UNL     1     -14.424  24.549   4.587  1.00  0.00     0.179 C 
HETATM    5  C8  UNL     1     -15.421  25.681   4.456  1.00  0.00     0.046 C 
HETATM    6  C9  UNL     1     -16.552  25.250   3.545  1.00  0.00     0.015 C 
HETATM    7  C10 UNL     1     -14.690  26.873   3.951  1.00  0.00     0.158 C 
HETATM    8  C11 UNL     1     -14.158  27.804   4.950  1.00  0.00     0.203 C 
ENDROOT
BRANCH   1   9
HETATM    9  O1  UNL     1     -13.449  28.003   7.152  1.00  0.00    -0.319 OA
BRANCH   9  10
HETATM   10  C3  UNL     1     -12.915  28.383   8.296  1.00  0.00     0.062 C 
HETATM   11  C4  UNL     1     -13.688  29.114   9.169  1.00  0.00     0.051 C 
BRANCH  10  12
HETATM   12  C2  UNL     1     -11.575  28.107   8.745  1.00  0.00     0.026 C 
HETATM   13  C1  UNL     1     -10.494  28.364   8.058  1.00  0.00     0.014 C 
ENDBRANCH  10  12
ENDBRANCH   9  10
ENDBRANCH   1   9
BRANCH   8  14
HETATM   14  O6  UNL     1     -15.174  28.638   5.414  1.00  0.00    -0.388 OA
ATOM     15  H6  UNL     1     -15.608  29.081   4.694  1.00  0.00     0.210 HD
ENDBRANCH   8  14
BRANCH   3  16
HETATM   16  O3  UNL     1     -13.530  23.758   6.602  1.00  0.00    -0.368 OA
ATOM     17  H3  UNL     1     -13.583  22.985   6.053  1.00  0.00     0.212 HD
ENDBRANCH   3  16
BRANCH   7  18
HETATM   18  O5  UNL     1     -15.557  27.555   3.080  1.00  0.00    -0.392 OA
ATOM     19  H5  UNL     1     -16.069  28.156   3.608  1.00  0.00     0.210 HD
ENDBRANCH   7  18
BRANCH   4  20
HETATM   20  O4  UNL     1     -15.052  23.314   4.707  1.00  0.00    -0.390 OA
ATOM     21  H4  UNL     1     -15.984  23.349   4.530  1.00  0.00     0.210 HD
ENDBRANCH   4  20
TORSDOF 7
ENDMDL
MODEL 4
REMARK VINA RESULT: -5.051806314      1.570      1.957
REMARK  7 active torsions:
REMARK  status: ('A' for Active; 'I' for Inactive)
REMARK    1  A    between atoms: C2_2  and  C3_3 
REMARK    2  A    between atoms: C3_3  and  O1_5 
REMARK    3  A    between atoms: O1_5  and  C5_6 
REMARK    4  A    between atoms: C6_8  and  O3_9 
REMARK    5  A    between atoms: C7_11  and  O4_12 
REMARK    6  A    between atoms: C10_16  and  O5_17 
REMARK    7  A    between atoms: C11_19  and  O6_20 
ROOT
HETATM    1  C5  UNL     1     -13.379  27.142   6.177  1.00  0.00     0.300 C 
HETATM    2  O2  UNL     1     -13.909  25.931   6.606  1.00  0.00    -0.326 OA
HETATM    3  C6  UNL     1     -13.386  24.839   5.923  1.00  0.00     0.289 C 
HETATM    4  C7  UNL     1     -14.278  24.421   4.793  1.00  0.00     0.179 C 
HETATM    5  C8  UNL     1     -15.327  25.498   4.613  1.00  0.00     0.046 C 
HETATM    6  C9  UNL     1     -16.441  24.969   3.734  1.00  0.00     0.015 C 
HETATM    7  C10 UNL     1     -14.655  26.694   4.043  1.00  0.00     0.158 C 
HETATM    8  C11 UNL     1     -14.162  27.699   4.990  1.00  0.00     0.203 C 
ENDROOT
BRANCH   1   9
HETATM    9  O1  UNL     1     -13.451  28.042   7.174  1.00  0.00    -0.319 OA
BRANCH   9  10
HETATM   10  C3  UNL     1     -13.035  28.411   8.369  1.00  0.00     0.062 C 
HETATM   11  C4  UNL     1     -11.861  27.876   8.848  1.00  0.00     0.051 C 
BRANCH  10  12
HETATM   12  C2  UNL     1     -13.693  29.338   9.252  1.00  0.00     0.026 C 
HETATM   13  C1  UNL     1     -13.084  30.261   9.948  1.00  0.00     0.014 C 
ENDBRANCH  10  12
ENDBRANCH   9  10
ENDBRANCH   1   9
BRANCH   8  14
HETATM   14  O6  UNL     1     -15.214  28.507   5.419  1.00  0.00    -0.388 OA
ATOM     15  H6  UNL     1     -15.255  29.310   4.913  1.00  0.00     0.210 HD
ENDBRANCH   8  14
BRANCH   3  16
HETATM   16  O3  UNL     1     -13.337  23.775   6.839  1.00  0.00    -0.368 OA
ATOM     17  H3  UNL     1     -12.894  24.102   7.614  1.00  0.00     0.212 HD
ENDBRANCH   3  16
BRANCH   7  18
HETATM   18  O5  UNL     1     -15.557  27.291   3.146  1.00  0.00    -0.392 OA
ATOM     19  H5  UNL     1     -16.018  26.588   2.702  1.00  0.00     0.210 HD
ENDBRANCH   7  18
BRANCH   4  20
HETATM   20  O4  UNL     1     -14.846  23.166   4.980  1.00  0.00    -0.390 OA
ATOM     21  H4  UNL     1     -14.258  22.453   4.762  1.00  0.00     0.210 HD
ENDBRANCH   4  20
TORSDOF 7
ENDMDL
MODEL 5
REMARK VINA RESULT: -4.734244899      1.331      2.924
REMARK  7 active torsions:
REMARK  status: ('A' for Active; 'I' for Inactive)
REMARK    1  A    between atoms: C2_2  and  C3_3 
REMARK    2  A    between atoms: C3_3  and  O1_5 
REMARK    3  A    between atoms: O1_5  and  C5_6 
REMARK    4  A    between atoms: C6_8  and  O3_9 
REMARK    5  A    between atoms: C7_11  and  O4_12 
REMARK    6  A    between atoms: C10_16  and  O5_17 
REMARK    7  A    between atoms: C11_19  and  O6_20 
ROOT
HETATM    1  C5  UNL     1     -13.319  26.463   6.419  1.00  0.00     0.300 C 
HETATM    2  O2  UNL     1     -13.393  26.913   5.106  1.00  0.00    -0.326 OA
HETATM    3  C6  UNL     1     -14.666  27.347   4.753  1.00  0.00     0.289 C 
HETATM    4  C7  UNL     1     -15.437  26.270   4.051  1.00  0.00     0.179 C 
HETATM    5  C8  UNL     1     -14.658  24.979   4.194  1.00  0.00     0.046 C 
HETATM    6  C9  UNL     1     -15.206  23.954   3.223  1.00  0.00     0.015 C 
HETATM    7  C10 UNL     1     -14.753  24.546   5.612  1.00  0.00     0.158 C 
HETATM    8  C11 UNL     1     -13.687  24.985   6.518  1.00  0.00     0.203 C 
ENDROOT
BRANCH   1   9
HETATM    9  O1  UNL     1     -12.060  26.603   6.870  1.00  0.00    -0.319 OA
BRANCH   9  10
HETATM   10  C3  UNL     1     -11.267  27.018   7.838  1.00  0.00     0.062 C 
HETATM   11  C4  UNL     1     -10.840  26.103   8.774  1.00  0.00     0.051 C 
BRANCH  10  12
HETATM   12  C2  UNL     1     -10.784  28.361   8.027  1.00  0.00     0.026 C 
HETATM   13  C1  UNL     1      -9.628  28.801   7.607  1.00  0.00     0.014 C 
ENDBRANCH  10  12
ENDBRANCH   9  10
ENDBRANCH   1   9
BRANCH   8  14
HETATM   14  O6  UNL     1     -12.562  24.177   6.358  1.00  0.00    -0.388 OA
ATOM     15  H6  UNL     1     -12.788  23.257   6.442  1.00  0.00     0.210 HD
ENDBRANCH   8  14
BRANCH   3  16
HETATM   16  O3  UNL     1     -14.496  28.405   3.846  1.00  0.00    -0.368 OA
ATOM     17  H3  UNL     1     -14.503  29.207   4.356  1.00  0.00     0.212 HD
ENDBRANCH   3  16
BRANCH   7  18
HETATM   18  O5  UNL     1     -14.831  23.143   5.614  1.00  0.00    -0.392 OA
ATOM     19  H5  UNL     1     -15.738  22.912   5.456  1.00  0.00     0.210 HD
ENDBRANCH   7  18
BRANCH   4  20
HETATM   20  O4  UNL     1     -15.710  26.570   2.722  1.00  0.00    -0.390 OA
ATOM     21  H4  UNL     1     -16.588  26.323   2.455  1.00  0.00     0.210 HD
ENDBRANCH   4  20
TORSDOF 7
ENDMDL
