MODEL 1
REMARK VINA RESULT: -6.920864933      0.000      0.000
REMARK  10 active torsions:
REMARK  status: ('A' for Active; 'I' for Inactive)
REMARK    1  A    between atoms: N1_1  and  C1_4 
REMARK    2  A    between atoms: C4_12  and  C5_13 
REMARK    3  A    between atoms: C5_13  and  N4_14 
REMARK    4  A    between atoms: N4_14  and  C6_15 
REMARK    5  A    between atoms: N4_14  and  C7_18 
REMARK    6  A    between atoms: C6_15  and  O2_16 
REMARK    7  A    between atoms: C7_18  and  C8_19 
REMARK    8  A    between atoms: C10_21  and  N5_22 
REMARK    9  A    between atoms: C12_28  and  N8_29 
REMARK   10  A    between atoms: C13_34  and  N10_35 
ROOT
HETATM    1  N4  UNL     1     -22.090 -10.140 -43.279  1.00  0.00    -0.342 N 
ENDROOT
BRANCH   1   2
HETATM    2  C5  UNL     1     -21.462  -9.220 -44.156  1.00  0.00     0.207 C 
BRANCH   2   3
HETATM    3  C4  UNL     1     -20.060  -8.909 -43.842  1.00  0.00     0.115 A 
HETATM    4  N3  UNL     1     -19.734  -8.315 -42.677  1.00  0.00    -0.336 N 
HETATM    5  C3  UNL     1     -18.413  -8.061 -42.456  1.00  0.00     0.149 A 
ATOM      6  H3  UNL     1     -20.446  -8.065 -41.991  1.00  0.00     0.167 HD
HETATM    7  C2  UNL     1     -17.994  -7.452 -41.286  1.00  0.00     0.290 A 
HETATM    8  C15 UNL     1     -17.447  -8.395 -43.377  1.00  0.00     0.168 A 
HETATM    9  N2  UNL     1     -16.683  -7.226 -41.119  1.00  0.00    -0.154 N 
HETATM   10  O1  UNL     1     -18.868  -7.141 -40.434  1.00  0.00    -0.265 OA
HETATM   11  C1  UNL     1     -15.755  -7.563 -42.041  1.00  0.00     0.680 A 
ATOM     12  H2  UNL     1     -16.372  -6.777 -40.257  1.00  0.00     0.187 HD
HETATM   13  N14 UNL     1     -16.155  -8.153 -43.174  1.00  0.00    -0.173 N 
ATOM     14  H14 UNL     1     -15.470  -8.416 -43.882  1.00  0.00     0.186 HD
HETATM   15  N13 UNL     1     -17.819  -8.992 -44.536  1.00  0.00    -0.282 N 
HETATM   16  N12 UNL     1     -19.100  -9.240 -44.755  1.00  0.00    -0.286 N 
ATOM     17  H13 UNL     1     -17.119  -9.247 -45.233  1.00  0.00     0.188 HD
ATOM     18  H12 UNL     1     -19.377  -9.689 -45.628  1.00  0.00     0.188 HD
BRANCH  11  19
HETATM   19  N1  UNL     1     -14.515  -7.325 -41.831  1.00  0.00    -0.234 N 
ATOM     20  H12 UNL     1     -14.010  -7.809 -41.089  1.00  0.00     0.174 HD
ATOM     21  H11 UNL     1     -14.016  -6.644 -42.404  1.00  0.00     0.174 HD
ENDBRANCH  11  19
ENDBRANCH   2   3
ENDBRANCH   1   2
BRANCH   1  22
HETATM   22  C6  UNL     1     -23.017  -9.663 -42.347  1.00  0.00     0.225 C 
BRANCH  22  23
HETATM   23  O2  UNL     1     -22.594  -8.520 -41.649  1.00  0.00    -0.356 OA
ATOM     24  H2  UNL     1     -23.091  -8.341 -40.860  1.00  0.00     0.218 HD
ENDBRANCH  22  23
ENDBRANCH   1  22
BRANCH   1  25
HETATM   25  C7  UNL     1     -21.429 -11.362 -43.111  1.00  0.00     0.097 C 
BRANCH  25  26
HETATM   26  C8  UNL     1     -21.351 -11.829 -41.701  1.00  0.00     0.167 C 
HETATM   27  C9  UNL     1     -19.929 -12.054 -41.194  1.00  0.00     0.093 C 
HETATM   28  C10 UNL     1     -20.620 -13.220 -40.501  1.00  0.00     0.251 C 
HETATM   29  O3  UNL     1     -21.508 -13.225 -41.557  1.00  0.00    -0.354 OA
BRANCH  28  30
HETATM   30  N5  UNL     1     -19.848 -14.415 -40.360  1.00  0.00    -0.230 N 
HETATM   31  N6  UNL     1     -19.793 -15.462 -41.153  1.00  0.00    -0.236 N 
HETATM   32  N7  UNL     1     -18.947 -16.375 -40.664  1.00  0.00    -0.279 N 
ATOM     33  H6  UNL     1     -20.321 -15.564 -42.019  1.00  0.00     0.208 HD
HETATM   34  C11 UNL     1     -18.443 -15.892 -39.516  1.00  0.00     0.140 A 
ATOM     35  H7  UNL     1     -18.724 -17.277 -41.086  1.00  0.00     0.189 HD
HETATM   36  C12 UNL     1     -17.548 -16.368 -38.592  1.00  0.00     0.147 A 
HETATM   37  C14 UNL     1     -19.012 -14.666 -39.334  1.00  0.00     0.173 A 
HETATM   38  N9  UNL     1     -17.277 -15.588 -37.537  1.00  0.00    -0.175 N 
HETATM   39  C13 UNL     1     -17.834 -14.383 -37.354  1.00  0.00     0.679 A 
ATOM     40  H9  UNL     1     -16.614 -15.927 -36.840  1.00  0.00     0.186 HD
HETATM   41  N11 UNL     1     -18.709 -13.919 -38.259  1.00  0.00    -0.173 N 
ATOM     42  H11 UNL     1     -19.142 -13.004 -38.133  1.00  0.00     0.186 HD
BRANCH  36  43
HETATM   43  N8  UNL     1     -16.980 -17.523 -38.717  1.00  0.00    -0.383 N 
ATOM     44  H82 UNL     1     -16.324 -17.697 -39.478  1.00  0.00     0.157 HD
ATOM     45  H81 UNL     1     -17.164 -18.290 -38.070  1.00  0.00     0.157 HD
ENDBRANCH  36  43
BRANCH  39  46
HETATM   46  N10 UNL     1     -17.540 -13.660 -36.313  1.00  0.00    -0.234 N 
ATOM     47 2H10 UNL     1     -18.136 -13.699 -35.486  1.00  0.00     0.174 HD
ATOM     48 1H10 UNL     1     -16.720 -13.052 -36.310  1.00  0.00     0.174 HD
ENDBRANCH  39  46
ENDBRANCH  28  30
ENDBRANCH  25  26
ENDBRANCH   1  25
TORSDOF 10
ENDMDL
MODEL 2
REMARK VINA RESULT: -6.883757227      5.829      9.655
REMARK  10 active torsions:
REMARK  status: ('A' for Active; 'I' for Inactive)
REMARK    1  A    between atoms: N1_1  and  C1_4 
REMARK    2  A    between atoms: C4_12  and  C5_13 
REMARK    3  A    between atoms: C5_13  and  N4_14 
REMARK    4  A    between atoms: N4_14  and  C6_15 
REMARK    5  A    between atoms: N4_14  and  C7_18 
REMARK    6  A    between atoms: C6_15  and  O2_16 
REMARK    7  A    between atoms: C7_18  and  C8_19 
REMARK    8  A    between atoms: C10_21  and  N5_22 
REMARK    9  A    between atoms: C12_28  and  N8_29 
REMARK   10  A    between atoms: C13_34  and  N10_35 
ROOT
HETATM    1  N4  UNL     1     -21.252 -11.487 -33.760  1.00  0.00    -0.342 N 
ENDROOT
BRANCH   1   2
HETATM    2  C5  UNL     1     -21.961 -12.202 -32.761  1.00  0.00     0.207 C 
BRANCH   2   3
HETATM    3  C4  UNL     1     -21.267 -13.381 -32.221  1.00  0.00     0.115 A 
HETATM    4  N3  UNL     1     -20.831 -14.355 -33.043  1.00  0.00    -0.336 N 
HETATM    5  C3  UNL     1     -20.194 -15.415 -32.468  1.00  0.00     0.149 A 
ATOM      6  H3  UNL     1     -20.972 -14.302 -34.051  1.00  0.00     0.167 HD
HETATM    7  C2  UNL     1     -19.716 -16.459 -33.241  1.00  0.00     0.290 A 
HETATM    8  C15 UNL     1     -20.000 -15.493 -31.109  1.00  0.00     0.168 A 
HETATM    9  N2  UNL     1     -19.097 -17.477 -32.625  1.00  0.00    -0.154 N 
HETATM   10  O1  UNL     1     -19.887 -16.401 -34.488  1.00  0.00    -0.265 OA
HETATM   11  C1  UNL     1     -18.920 -17.529 -31.287  1.00  0.00     0.680 A 
ATOM     12  H2  UNL     1     -18.744 -18.247 -33.193  1.00  0.00     0.187 HD
HETATM   13  N14 UNL     1     -19.381 -16.522 -30.535  1.00  0.00    -0.173 N 
ATOM     14  H14 UNL     1     -19.256 -16.542 -29.523  1.00  0.00     0.186 HD
HETATM   15  N13 UNL     1     -20.455 -14.490 -30.318  1.00  0.00    -0.282 N 
HETATM   16  N12 UNL     1     -21.074 -13.460 -30.871  1.00  0.00    -0.286 N 
ATOM     17  H13 UNL     1     -20.322 -14.529 -29.307  1.00  0.00     0.188 HD
ATOM     18  H12 UNL     1     -21.415 -12.706 -30.275  1.00  0.00     0.188 HD
BRANCH  11  19
HETATM   19  N1  UNL     1     -18.322 -18.525 -30.750  1.00  0.00    -0.234 N 
ATOM     20  H12 UNL     1     -17.309 -18.521 -30.631  1.00  0.00     0.174 HD
ATOM     21  H11 UNL     1     -18.852 -19.338 -30.435  1.00  0.00     0.174 HD
ENDBRANCH  11  19
ENDBRANCH   2   3
ENDBRANCH   1   2
BRANCH   1  22
HETATM   22  C6  UNL     1     -19.986 -10.976 -33.458  1.00  0.00     0.225 C 
BRANCH  22  23
HETATM   23  O2  UNL     1     -18.953 -11.489 -34.260  1.00  0.00    -0.356 OA
ATOM     24  H2  UNL     1     -18.574 -10.854 -34.857  1.00  0.00     0.218 HD
ENDBRANCH  22  23
ENDBRANCH   1  22
BRANCH   1  25
HETATM   25  C7  UNL     1     -22.031 -10.974 -34.803  1.00  0.00     0.097 C 
BRANCH  25  26
HETATM   26  C8  UNL     1     -21.839 -11.663 -36.107  1.00  0.00     0.167 C 
HETATM   27  C9  UNL     1     -21.795 -13.186 -36.010  1.00  0.00     0.093 C 
HETATM   28  C10 UNL     1     -20.740 -12.982 -37.088  1.00  0.00     0.251 C 
HETATM   29  O3  UNL     1     -20.487 -11.757 -36.505  1.00  0.00    -0.354 OA
BRANCH  28  30
HETATM   30  N5  UNL     1     -19.638 -13.894 -37.071  1.00  0.00    -0.230 N 
HETATM   31  N6  UNL     1     -18.755 -14.105 -36.121  1.00  0.00    -0.236 N 
HETATM   32  N7  UNL     1     -17.880 -15.045 -36.497  1.00  0.00    -0.279 N 
ATOM     33  H6  UNL     1     -18.738 -13.621 -35.224  1.00  0.00     0.208 HD
HETATM   34  C11 UNL     1     -18.220 -15.449 -37.733  1.00  0.00     0.140 A 
ATOM     35  H7  UNL     1     -17.096 -15.393 -35.944  1.00  0.00     0.189 HD
HETATM   36  C12 UNL     1     -17.705 -16.367 -38.611  1.00  0.00     0.147 A 
HETATM   37  C14 UNL     1     -19.320 -14.724 -38.084  1.00  0.00     0.173 A 
HETATM   38  N9  UNL     1     -18.323 -16.506 -39.792  1.00  0.00    -0.175 N 
HETATM   39  C13 UNL     1     -19.404 -15.795 -40.141  1.00  0.00     0.679 A 
ATOM     40  H9  UNL     1     -17.952 -17.185 -40.457  1.00  0.00     0.186 HD
HETATM   41  N11 UNL     1     -19.906 -14.897 -39.280  1.00  0.00    -0.173 N 
ATOM     42  H11 UNL     1     -20.728 -14.348 -39.532  1.00  0.00     0.186 HD
BRANCH  36  43
HETATM   43  N8  UNL     1     -16.664 -17.081 -38.328  1.00  0.00    -0.383 N 
ATOM     44  H82 UNL     1     -15.750 -16.641 -38.214  1.00  0.00     0.157 HD
ATOM     45  H81 UNL     1     -16.716 -18.092 -38.209  1.00  0.00     0.157 HD
ENDBRANCH  36  43
BRANCH  39  46
HETATM   46  N10 UNL     1     -19.971 -15.964 -41.300  1.00  0.00    -0.234 N 
ATOM     47 2H10 UNL     1     -19.768 -16.803 -41.844  1.00  0.00     0.174 HD
ATOM     48 1H10 UNL     1     -20.617 -15.269 -41.674  1.00  0.00     0.174 HD
ENDBRANCH  39  46
ENDBRANCH  28  30
ENDBRANCH  25  26
ENDBRANCH   1  25
TORSDOF 10
ENDMDL
MODEL 3
REMARK VINA RESULT: -6.591223548      3.724      7.213
REMARK  10 active torsions:
REMARK  status: ('A' for Active; 'I' for Inactive)
REMARK    1  A    between atoms: N1_1  and  C1_4 
REMARK    2  A    between atoms: C4_12  and  C5_13 
REMARK    3  A    between atoms: C5_13  and  N4_14 
REMARK    4  A    between atoms: N4_14  and  C6_15 
REMARK    5  A    between atoms: N4_14  and  C7_18 
REMARK    6  A    between atoms: C6_15  and  O2_16 
REMARK    7  A    between atoms: C7_18  and  C8_19 
REMARK    8  A    between atoms: C10_21  and  N5_22 
REMARK    9  A    between atoms: C12_28  and  N8_29 
REMARK   10  A    between atoms: C13_34  and  N10_35 
ROOT
HETATM    1  N4  UNL     1     -17.991 -15.286 -36.907  1.00  0.00    -0.342 N 
ENDROOT
BRANCH   1   2
HETATM    2  C5  UNL     1     -17.833 -15.935 -38.158  1.00  0.00     0.207 C 
BRANCH   2   3
HETATM    3  C4  UNL     1     -18.611 -15.361 -39.266  1.00  0.00     0.115 A 
HETATM    4  N3  UNL     1     -19.006 -14.074 -39.231  1.00  0.00    -0.336 N 
HETATM    5  C3  UNL     1     -19.721 -13.614 -40.297  1.00  0.00     0.149 A 
ATOM      6  H3  UNL     1     -18.780 -13.470 -38.441  1.00  0.00     0.167 HD
HETATM    7  C2  UNL     1     -20.166 -12.305 -40.340  1.00  0.00     0.290 A 
HETATM    8  C15 UNL     1     -20.029 -14.423 -41.366  1.00  0.00     0.168 A 
HETATM    9  N2  UNL     1     -20.865 -11.903 -41.412  1.00  0.00    -0.154 N 
HETATM   10  O1  UNL     1     -19.891 -11.552 -39.368  1.00  0.00    -0.265 OA
HETATM   11  C1  UNL     1     -21.155 -12.719 -42.449  1.00  0.00     0.680 A 
ATOM     12  H2  UNL     1     -21.194 -10.938 -41.445  1.00  0.00     0.187 HD
HETATM   13  N14 UNL     1     -20.726 -13.986 -42.412  1.00  0.00    -0.173 N 
ATOM     14  H14 UNL     1     -20.934 -14.618 -43.186  1.00  0.00     0.186 HD
HETATM   15  N13 UNL     1     -19.611 -15.713 -41.361  1.00  0.00    -0.282 N 
HETATM   16  N12 UNL     1     -18.917 -16.164 -40.329  1.00  0.00    -0.286 N 
ATOM     17  H13 UNL     1     -19.830 -16.329 -42.143  1.00  0.00     0.188 HD
ATOM     18  H12 UNL     1     -18.604 -17.134 -40.326  1.00  0.00     0.188 HD
BRANCH  11  19
HETATM   19  N1  UNL     1     -21.826 -12.284 -43.448  1.00  0.00    -0.234 N 
ATOM     20  H12 UNL     1     -22.173 -11.326 -43.465  1.00  0.00     0.174 HD
ATOM     21  H11 UNL     1     -22.023 -12.894 -44.243  1.00  0.00     0.174 HD
ENDBRANCH  11  19
ENDBRANCH   2   3
ENDBRANCH   1   2
BRANCH   1  22
HETATM   22  C6  UNL     1     -17.044 -14.336 -36.512  1.00  0.00     0.225 C 
BRANCH  22  23
HETATM   23  O2  UNL     1     -17.351 -13.022 -36.903  1.00  0.00    -0.356 OA
ATOM     24  H2  UNL     1     -16.652 -12.398 -36.747  1.00  0.00     0.218 HD
ENDBRANCH  22  23
ENDBRANCH   1  22
BRANCH   1  25
HETATM   25  C7  UNL     1     -18.815 -15.942 -35.986  1.00  0.00     0.097 C 
BRANCH  25  26
HETATM   26  C8  UNL     1     -19.966 -15.131 -35.506  1.00  0.00     0.167 C 
HETATM   27  C9  UNL     1     -20.691 -14.362 -36.607  1.00  0.00     0.093 C 
HETATM   28  C10 UNL     1     -20.774 -13.327 -35.494  1.00  0.00     0.251 C 
HETATM   29  O3  UNL     1     -19.597 -13.862 -35.010  1.00  0.00    -0.354 OA
BRANCH  28  30
HETATM   30  N5  UNL     1     -20.690 -11.958 -35.900  1.00  0.00    -0.230 N 
HETATM   31  N6  UNL     1     -21.475 -11.288 -36.714  1.00  0.00    -0.236 N 
HETATM   32  N7  UNL     1     -21.054 -10.024 -36.834  1.00  0.00    -0.279 N 
ATOM     33  H6  UNL     1     -22.290 -11.676 -37.187  1.00  0.00     0.208 HD
HETATM   34  C11 UNL     1     -19.959  -9.883 -36.067  1.00  0.00     0.140 A 
ATOM     35  H7  UNL     1     -21.486  -9.297 -37.405  1.00  0.00     0.189 HD
HETATM   36  C12 UNL     1     -19.113  -8.839 -35.795  1.00  0.00     0.147 A 
HETATM   37  C14 UNL     1     -19.739 -11.098 -35.487  1.00  0.00     0.173 A 
HETATM   38  N9  UNL     1     -18.094  -9.073 -34.958  1.00  0.00    -0.175 N 
HETATM   39  C13 UNL     1     -17.873 -10.264 -34.386  1.00  0.00     0.679 A 
ATOM     40  H9  UNL     1     -17.454  -8.306 -34.745  1.00  0.00     0.186 HD
HETATM   41  N11 UNL     1     -18.702 -11.285 -34.654  1.00  0.00    -0.173 N 
ATOM     42  H11 UNL     1     -18.547 -12.198 -34.226  1.00  0.00     0.186 HD
BRANCH  36  43
HETATM   43  N8  UNL     1     -19.277  -7.668 -36.318  1.00  0.00    -0.383 N 
ATOM     44  H82 UNL     1     -20.127  -7.134 -36.137  1.00  0.00     0.157 HD
ATOM     45  H81 UNL     1     -18.574  -7.240 -36.921  1.00  0.00     0.157 HD
ENDBRANCH  36  43
BRANCH  39  46
HETATM   46  N10 UNL     1     -16.869 -10.445 -33.578  1.00  0.00    -0.234 N 
ATOM     47 2H10 UNL     1     -16.246  -9.665 -33.365  1.00  0.00     0.174 HD
ATOM     48 1H10 UNL     1     -16.694 -11.356 -33.154  1.00  0.00     0.174 HD
ENDBRANCH  39  46
ENDBRANCH  28  30
ENDBRANCH  25  26
ENDBRANCH   1  25
TORSDOF 10
ENDMDL
MODEL 4
REMARK VINA RESULT: -6.563373272      5.421      9.459
REMARK  10 active torsions:
REMARK  status: ('A' for Active; 'I' for Inactive)
REMARK    1  A    between atoms: N1_1  and  C1_4 
REMARK    2  A    between atoms: C4_12  and  C5_13 
REMARK    3  A    between atoms: C5_13  and  N4_14 
REMARK    4  A    between atoms: N4_14  and  C6_15 
REMARK    5  A    between atoms: N4_14  and  C7_18 
REMARK    6  A    between atoms: C6_15  and  O2_16 
REMARK    7  A    between atoms: C7_18  and  C8_19 
REMARK    8  A    between atoms: C10_21  and  N5_22 
REMARK    9  A    between atoms: C12_28  and  N8_29 
REMARK   10  A    between atoms: C13_34  and  N10_35 
ROOT
HETATM    1  N4  UNL     1     -21.117 -11.492 -34.088  1.00  0.00    -0.342 N 
ENDROOT
BRANCH   1   2
HETATM    2  C5  UNL     1     -21.918 -12.499 -33.492  1.00  0.00     0.207 C 
BRANCH   2   3
HETATM    3  C4  UNL     1     -21.217 -13.753 -33.173  1.00  0.00     0.115 A 
HETATM    4  N3  UNL     1     -20.717 -13.964 -31.941  1.00  0.00    -0.336 N 
HETATM    5  C3  UNL     1     -20.084 -15.151 -31.721  1.00  0.00     0.149 A 
ATOM      6  H3  UNL     1     -20.808 -13.265 -31.203  1.00  0.00     0.167 HD
HETATM    7  C2  UNL     1     -19.540 -15.446 -30.484  1.00  0.00     0.290 A 
HETATM    8  C15 UNL     1     -19.957 -16.098 -32.711  1.00  0.00     0.168 A 
HETATM    9  N2  UNL     1     -18.928 -16.629 -30.321  1.00  0.00    -0.154 N 
HETATM   10  O1  UNL     1     -19.648 -14.588 -29.568  1.00  0.00    -0.265 OA
HETATM   11  C1  UNL     1     -18.817 -17.542 -31.311  1.00  0.00     0.680 A 
ATOM     12  H2  UNL     1     -18.527 -16.848 -29.409  1.00  0.00     0.187 HD
HETATM   13  N14 UNL     1     -19.341 -17.260 -32.510  1.00  0.00    -0.173 N 
ATOM     14  H14 UNL     1     -19.269 -17.937 -33.270  1.00  0.00     0.186 HD
HETATM   15  N13 UNL     1     -20.476 -15.845 -33.938  1.00  0.00    -0.282 N 
HETATM   16  N12 UNL     1     -21.091 -14.694 -34.155  1.00  0.00    -0.286 N 
ATOM     17  H13 UNL     1     -20.392 -16.534 -34.685  1.00  0.00     0.188 HD
ATOM     18  H12 UNL     1     -21.481 -14.505 -35.079  1.00  0.00     0.188 HD
BRANCH  11  19
HETATM   19  N1  UNL     1     -18.222 -18.655 -31.102  1.00  0.00    -0.234 N 
ATOM     20  H12 UNL     1     -18.577 -19.520 -31.510  1.00  0.00     0.174 HD
ATOM     21  H11 UNL     1     -17.383 -18.693 -30.522  1.00  0.00     0.174 HD
ENDBRANCH  11  19
ENDBRANCH   2   3
ENDBRANCH   1   2
BRANCH   1  22
HETATM   22  C6  UNL     1     -20.055 -10.951 -33.357  1.00  0.00     0.225 C 
BRANCH  22  23
HETATM   23  O2  UNL     1     -18.786 -11.255 -33.876  1.00  0.00    -0.356 OA
ATOM     24  H2  UNL     1     -18.065 -10.883 -33.383  1.00  0.00     0.218 HD
ENDBRANCH  22  23
ENDBRANCH   1  22
BRANCH   1  25
HETATM   25  C7  UNL     1     -21.700 -10.816 -35.165  1.00  0.00     0.097 C 
BRANCH  25  26
HETATM   26  C8  UNL     1     -21.081 -11.115 -36.484  1.00  0.00     0.167 C 
HETATM   27  C9  UNL     1     -21.307 -12.544 -36.972  1.00  0.00     0.093 C 
HETATM   28  C10 UNL     1     -19.879 -12.345 -37.460  1.00  0.00     0.251 C 
HETATM   29  O3  UNL     1     -19.717 -11.473 -36.402  1.00  0.00    -0.354 OA
BRANCH  28  30
HETATM   30  N5  UNL     1     -19.034 -13.498 -37.422  1.00  0.00    -0.230 N 
HETATM   31  N6  UNL     1     -18.195 -13.877 -36.485  1.00  0.00    -0.236 N 
HETATM   32  N7  UNL     1     -17.591 -15.019 -36.831  1.00  0.00    -0.279 N 
ATOM     33  H6  UNL     1     -18.027 -13.372 -35.615  1.00  0.00     0.208 HD
HETATM   34  C11 UNL     1     -18.065 -15.382 -38.036  1.00  0.00     0.140 A 
ATOM     35  H7  UNL     1     -16.896 -15.525 -36.281  1.00  0.00     0.189 HD
HETATM   36  C12 UNL     1     -17.823 -16.439 -38.877  1.00  0.00     0.147 A 
HETATM   37  C14 UNL     1     -18.966 -14.425 -38.397  1.00  0.00     0.173 A 
HETATM   38  N9  UNL     1     -18.500 -16.474 -40.033  1.00  0.00    -0.175 N 
HETATM   39  C13 UNL     1     -19.386 -15.535 -40.392  1.00  0.00     0.679 A 
ATOM     40  H9  UNL     1     -18.331 -17.252 -40.670  1.00  0.00     0.186 HD
HETATM   41  N11 UNL     1     -19.621 -14.503 -39.568  1.00  0.00    -0.173 N 
ATOM     42  H11 UNL     1     -20.292 -13.781 -39.828  1.00  0.00     0.186 HD
BRANCH  36  43
HETATM   43  N8  UNL     1     -16.979 -17.373 -38.582  1.00  0.00    -0.383 N 
ATOM     44  H82 UNL     1     -16.936 -17.753 -37.636  1.00  0.00     0.157 HD
ATOM     45  H81 UNL     1     -16.335 -17.758 -39.273  1.00  0.00     0.157 HD
ENDBRANCH  36  43
BRANCH  39  46
HETATM   46  N10 UNL     1     -20.020 -15.611 -41.526  1.00  0.00    -0.234 N 
ATOM     47 2H10 UNL     1     -20.437 -16.497 -41.813  1.00  0.00     0.174 HD
ATOM     48 1H10 UNL     1     -20.107 -14.797 -42.135  1.00  0.00     0.174 HD
ENDBRANCH  39  46
ENDBRANCH  28  30
ENDBRANCH  25  26
ENDBRANCH   1  25
TORSDOF 10
ENDMDL
MODEL 5
REMARK VINA RESULT: -6.540842369      1.838      2.512
REMARK  10 active torsions:
REMARK  status: ('A' for Active; 'I' for Inactive)
REMARK    1  A    between atoms: N1_1  and  C1_4 
REMARK    2  A    between atoms: C4_12  and  C5_13 
REMARK    3  A    between atoms: C5_13  and  N4_14 
REMARK    4  A    between atoms: N4_14  and  C6_15 
REMARK    5  A    between atoms: N4_14  and  C7_18 
REMARK    6  A    between atoms: C6_15  and  O2_16 
REMARK    7  A    between atoms: C7_18  and  C8_19 
REMARK    8  A    between atoms: C10_21  and  N5_22 
REMARK    9  A    between atoms: C12_28  and  N8_29 
REMARK   10  A    between atoms: C13_34  and  N10_35 
ROOT
HETATM    1  N4  UNL     1     -21.129  -8.209 -43.593  1.00  0.00    -0.342 N 
ENDROOT
BRANCH   1   2
HETATM    2  C5  UNL     1     -20.261  -7.207 -44.097  1.00  0.00     0.207 C 
BRANCH   2   3
HETATM    3  C4  UNL     1     -18.874  -7.275 -43.612  1.00  0.00     0.115 A 
HETATM    4  N3  UNL     1     -18.409  -6.361 -42.739  1.00  0.00    -0.336 N 
HETATM    5  C3  UNL     1     -17.114  -6.492 -42.333  1.00  0.00     0.149 A 
ATOM      6  H3  UNL     1     -18.999  -5.603 -42.398  1.00  0.00     0.167 HD
HETATM    7  C2  UNL     1     -16.557  -5.594 -41.439  1.00  0.00     0.290 A 
HETATM    8  C15 UNL     1     -16.311  -7.512 -42.789  1.00  0.00     0.168 A 
HETATM    9  N2  UNL     1     -15.279  -5.769 -41.072  1.00  0.00    -0.154 N 
HETATM   10  O1  UNL     1     -17.281  -4.655 -41.013  1.00  0.00    -0.265 OA
HETATM   11  C1  UNL     1     -14.512  -6.780 -41.536  1.00  0.00     0.680 A 
ATOM     12  H2  UNL     1     -14.867  -5.109 -40.413  1.00  0.00     0.187 HD
HETATM   13  N14 UNL     1     -15.046  -7.651 -42.400  1.00  0.00    -0.173 N 
ATOM     14  H14 UNL     1     -14.484  -8.421 -42.762  1.00  0.00     0.186 HD
HETATM   15  N13 UNL     1     -16.820  -8.411 -43.667  1.00  0.00    -0.282 N 
HETATM   16  N12 UNL     1     -18.076  -8.288 -44.064  1.00  0.00    -0.286 N 
ATOM     17  H13 UNL     1     -16.242  -9.174 -44.018  1.00  0.00     0.188 HD
ATOM     18  H12 UNL     1     -18.458  -8.965 -44.724  1.00  0.00     0.188 HD
BRANCH  11  19
HETATM   19  N1  UNL     1     -13.297  -6.901 -41.152  1.00  0.00    -0.234 N 
ATOM     20  H12 UNL     1     -13.074  -7.058 -40.170  1.00  0.00     0.174 HD
ATOM     21  H11 UNL     1     -12.534  -6.840 -41.827  1.00  0.00     0.174 HD
ENDBRANCH  11  19
ENDBRANCH   2   3
ENDBRANCH   1   2
BRANCH   1  22
HETATM   22  C6  UNL     1     -21.542  -9.238 -44.444  1.00  0.00     0.225 C 
BRANCH  22  23
HETATM   23  O2  UNL     1     -20.689 -10.355 -44.451  1.00  0.00    -0.356 OA
ATOM     24  H2  UNL     1     -20.570 -10.757 -43.599  1.00  0.00     0.218 HD
ENDBRANCH  22  23
ENDBRANCH   1  22
BRANCH   1  25
HETATM   25  C7  UNL     1     -21.845  -7.863 -42.442  1.00  0.00     0.097 C 
BRANCH  25  26
HETATM   26  C8  UNL     1     -21.623  -8.771 -41.285  1.00  0.00     0.167 C 
HETATM   27  C9  UNL     1     -20.248  -9.435 -41.266  1.00  0.00     0.093 C 
HETATM   28  C10 UNL     1     -21.085 -10.597 -40.748  1.00  0.00     0.251 C 
HETATM   29  O3  UNL     1     -22.130 -10.074 -41.482  1.00  0.00    -0.354 OA
BRANCH  28  30
HETATM   30  N5  UNL     1     -20.664 -11.903 -41.148  1.00  0.00    -0.230 N 
HETATM   31  N6  UNL     1     -20.778 -12.485 -42.322  1.00  0.00    -0.236 N 
HETATM   32  N7  UNL     1     -20.257 -13.716 -42.286  1.00  0.00    -0.279 N 
ATOM     33  H6  UNL     1     -21.204 -12.058 -43.144  1.00  0.00     0.208 HD
HETATM   34  C11 UNL     1     -19.792 -13.927 -41.042  1.00  0.00     0.140 A 
ATOM     35  H7  UNL     1     -20.219 -14.377 -43.062  1.00  0.00     0.189 HD
HETATM   36  C12 UNL     1     -19.168 -14.980 -40.423  1.00  0.00     0.147 A 
HETATM   37  C14 UNL     1     -20.051 -12.788 -40.338  1.00  0.00     0.173 A 
HETATM   38  N9  UNL     1     -18.839 -14.830 -39.133  1.00  0.00    -0.175 N 
HETATM   39  C13 UNL     1     -19.092 -13.713 -38.437  1.00  0.00     0.679 A 
ATOM     40  H9  UNL     1     -18.375 -15.603 -38.657  1.00  0.00     0.186 HD
HETATM   41  N11 UNL     1     -19.703 -12.684 -39.045  1.00  0.00    -0.173 N 
ATOM     42  H11 UNL     1     -19.903 -11.828 -38.528  1.00  0.00     0.186 HD
BRANCH  36  43
HETATM   43  N8  UNL     1     -18.899 -16.082 -41.045  1.00  0.00    -0.383 N 
ATOM     44  H82 UNL     1     -19.405 -16.334 -41.894  1.00  0.00     0.157 HD
ATOM     45  H81 UNL     1     -18.183 -16.729 -40.715  1.00  0.00     0.157 HD
ENDBRANCH  36  43
BRANCH  39  46
HETATM   46  N10 UNL     1     -18.755 -13.612 -37.185  1.00  0.00    -0.234 N 
ATOM     47 2H10 UNL     1     -17.782 -13.753 -36.911  1.00  0.00     0.174 HD
ATOM     48 1H10 UNL     1     -19.449 -13.395 -36.469  1.00  0.00     0.174 HD
ENDBRANCH  39  46
ENDBRANCH  28  30
ENDBRANCH  25  26
ENDBRANCH   1  25
TORSDOF 10
ENDMDL
