MODEL 1
REMARK VINA RESULT: -6.377961582      0.000      0.000
REMARK  4 active torsions:
REMARK  status: ('A' for Active; 'I' for Inactive)
REMARK    1  A    between atoms: C2_2  and  N1_3 
REMARK    2  A    between atoms: C5_8  and  N3_9 
REMARK    3  A    between atoms: N3_9  and  C6_11 
REMARK    4  A    between atoms: C6_11  and  C7_12 
ROOT
HETATM    1  N3  UNL     1      14.900  10.316  -1.691  1.00  0.00    -0.226 N 
ATOM      2  H3  UNL     1      14.860  11.286  -1.377  1.00  0.00     0.177 HD
ENDROOT
BRANCH   1   3
HETATM    3  C5  UNL     1      14.789  10.023  -3.079  1.00  0.00     0.672 C 
HETATM    4  N1  UNL     1      13.615   9.476  -3.692  1.00  0.00    -0.217 N 
HETATM    5  C3  UNL     1      14.148   8.691  -4.819  1.00  0.00     0.161 C 
HETATM    6  C4  UNL     1      15.217   9.703  -5.292  1.00  0.00     0.158 C 
HETATM    7  N2  UNL     1      15.723  10.157  -3.993  1.00  0.00    -0.225 N 
ATOM      8  H2  UNL     1      16.660  10.522  -3.824  1.00  0.00     0.177 HD
BRANCH   4   9
HETATM    9  C2  UNL     1      12.252   9.662  -3.271  1.00  0.00     0.137 C 
HETATM   10  C1  UNL     1      11.287   9.286  -4.348  1.00  0.00     0.027 C 
ENDBRANCH   4   9
ENDBRANCH   1   3
BRANCH   1  11
HETATM   11  C6  UNL     1      15.066   9.260  -0.717  1.00  0.00     0.142 C 
BRANCH  11  12
HETATM   12  C7  UNL     1      13.751   9.117   0.108  1.00  0.00     0.004 C 
HETATM   13  C8  UNL     1      14.061   7.987   1.069  1.00  0.00     0.006 C 
HETATM   14  C9  UNL     1      13.223   7.923   2.289  1.00  0.00     0.000 C 
HETATM   15  C10 UNL     1      12.327   9.084   2.519  1.00  0.00     0.000 C 
HETATM   16  C11 UNL     1      12.945  10.409   2.140  1.00  0.00     0.000 C 
HETATM   17  C12 UNL     1      13.512  10.432   0.746  1.00  0.00     0.006 C 
ENDBRANCH  11  12
ENDBRANCH   1  11
TORSDOF 4
ENDMDL
MODEL 2
REMARK VINA RESULT: -6.329239340      2.455      5.789
REMARK  4 active torsions:
REMARK  status: ('A' for Active; 'I' for Inactive)
REMARK    1  A    between atoms: C2_2  and  N1_3 
REMARK    2  A    between atoms: C5_8  and  N3_9 
REMARK    3  A    between atoms: N3_9  and  C6_11 
REMARK    4  A    between atoms: C6_11  and  C7_12 
ROOT
HETATM    1  N3  UNL     1      16.496   9.994   0.845  1.00  0.00    -0.226 N 
ATOM      2  H3  UNL     1      17.106   9.179   0.795  1.00  0.00     0.177 HD
ENDROOT
BRANCH   1   3
HETATM    3  C5  UNL     1      15.982  10.408   2.107  1.00  0.00     0.672 C 
HETATM    4  N1  UNL     1      14.737   9.954   2.653  1.00  0.00    -0.217 N 
HETATM    5  C3  UNL     1      14.285  11.093   3.472  1.00  0.00     0.161 C 
HETATM    6  C4  UNL     1      15.650  11.453   4.102  1.00  0.00     0.158 C 
HETATM    7  N2  UNL     1      16.518  11.276   2.933  1.00  0.00    -0.225 N 
ATOM      8  H2  UNL     1      17.406  11.755   2.785  1.00  0.00     0.177 HD
BRANCH   4   9
HETATM    9  C2  UNL     1      14.103   8.683   2.424  1.00  0.00     0.137 C 
HETATM   10  C1  UNL     1      12.632   8.833   2.207  1.00  0.00     0.027 C 
ENDBRANCH   4   9
ENDBRANCH   1   3
BRANCH   1  11
HETATM   11  C6  UNL     1      16.166  10.712  -0.366  1.00  0.00     0.142 C 
BRANCH  11  12
HETATM   12  C7  UNL     1      15.131   9.882  -1.183  1.00  0.00     0.004 C 
HETATM   13  C8  UNL     1      13.816  10.575  -0.892  1.00  0.00     0.006 C 
HETATM   14  C9  UNL     1      12.728  10.345  -1.872  1.00  0.00     0.000 C 
HETATM   15  C10 UNL     1      13.119   9.636  -3.116  1.00  0.00     0.000 C 
HETATM   16  C11 UNL     1      14.482  10.031  -3.634  1.00  0.00     0.000 C 
HETATM   17  C12 UNL     1      15.569   9.941  -2.597  1.00  0.00     0.006 C 
ENDBRANCH  11  12
ENDBRANCH   1  11
TORSDOF 4
ENDMDL
MODEL 3
REMARK VINA RESULT: -6.288652107      2.074      5.781
REMARK  4 active torsions:
REMARK  status: ('A' for Active; 'I' for Inactive)
REMARK    1  A    between atoms: C2_2  and  N1_3 
REMARK    2  A    between atoms: C5_8  and  N3_9 
REMARK    3  A    between atoms: N3_9  and  C6_11 
REMARK    4  A    between atoms: C6_11  and  C7_12 
ROOT
HETATM    1  N3  UNL     1      15.667   9.878   0.293  1.00  0.00    -0.226 N 
ATOM      2  H3  UNL     1      16.307   9.104   0.117  1.00  0.00     0.177 HD
ENDROOT
BRANCH   1   3
HETATM    3  C5  UNL     1      15.284  10.180   1.631  1.00  0.00     0.672 C 
HETATM    4  N1  UNL     1      13.946  10.055   2.128  1.00  0.00    -0.217 N 
HETATM    5  C3  UNL     1      13.868  11.095   3.171  1.00  0.00     0.161 C 
HETATM    6  C4  UNL     1      15.259  10.862   3.803  1.00  0.00     0.158 C 
HETATM    7  N2  UNL     1      16.052  10.646   2.588  1.00  0.00    -0.225 N 
ATOM      8  H2  UNL     1      17.051  10.831   2.500  1.00  0.00     0.177 HD
BRANCH   4   9
HETATM    9  C2  UNL     1      12.938   9.130   1.684  1.00  0.00     0.137 C 
HETATM   10  C1  UNL     1      13.305   7.718   2.008  1.00  0.00     0.027 C 
ENDBRANCH   4   9
ENDBRANCH   1   3
BRANCH   1  11
HETATM   11  C6  UNL     1      15.161  10.652  -0.819  1.00  0.00     0.142 C 
BRANCH  11  12
HETATM   12  C7  UNL     1      14.599   9.680  -1.900  1.00  0.00     0.004 C 
HETATM   13  C8  UNL     1      13.147  10.094  -2.023  1.00  0.00     0.006 C 
HETATM   14  C9  UNL     1      12.465   9.710  -3.281  1.00  0.00     0.000 C 
HETATM   15  C10 UNL     1      13.338   9.151  -4.344  1.00  0.00     0.000 C 
HETATM   16  C11 UNL     1      14.687   9.825  -4.434  1.00  0.00     0.000 C 
HETATM   17  C12 UNL     1      15.415   9.893  -3.119  1.00  0.00     0.006 C 
ENDBRANCH  11  12
ENDBRANCH   1  11
TORSDOF 4
ENDMDL
MODEL 4
REMARK VINA RESULT: -6.215735298      2.907      6.053
REMARK  4 active torsions:
REMARK  status: ('A' for Active; 'I' for Inactive)
REMARK    1  A    between atoms: C2_2  and  N1_3 
REMARK    2  A    between atoms: C5_8  and  N3_9 
REMARK    3  A    between atoms: N3_9  and  C6_11 
REMARK    4  A    between atoms: C6_11  and  C7_12 
ROOT
HETATM    1  N3  UNL     1      15.371  10.177   0.324  1.00  0.00    -0.226 N 
ATOM      2  H3  UNL     1      15.082   9.329   0.811  1.00  0.00     0.177 HD
ENDROOT
BRANCH   1   3
HETATM    3  C5  UNL     1      16.632  10.764   0.628  1.00  0.00     0.672 C 
HETATM    4  N1  UNL     1      16.883  11.567   1.788  1.00  0.00    -0.217 N 
HETATM    5  C3  UNL     1      17.935  12.498   1.342  1.00  0.00     0.161 C 
HETATM    6  C4  UNL     1      18.791  11.482   0.550  1.00  0.00     0.158 C 
HETATM    7  N2  UNL     1      17.726  10.709  -0.096  1.00  0.00    -0.225 N 
ATOM      8  H2  UNL     1      17.820  10.204  -0.977  1.00  0.00     0.177 HD
BRANCH   4   9
HETATM    9  C2  UNL     1      16.234  11.468   3.068  1.00  0.00     0.137 C 
HETATM   10  C1  UNL     1      17.222  11.291   4.175  1.00  0.00     0.027 C 
ENDBRANCH   4   9
ENDBRANCH   1   3
BRANCH   1  11
HETATM   11  C6  UNL     1      14.494  10.765  -0.664  1.00  0.00     0.142 C 
BRANCH  11  12
HETATM   12  C7  UNL     1      14.269   9.740  -1.817  1.00  0.00     0.004 C 
HETATM   13  C8  UNL     1      12.867  10.055  -2.298  1.00  0.00     0.006 C 
HETATM   14  C9  UNL     1      12.534   9.606  -3.670  1.00  0.00     0.000 C 
HETATM   15  C10 UNL     1      13.669   9.087  -4.473  1.00  0.00     0.000 C 
HETATM   16  C11 UNL     1      14.958   9.846  -4.259  1.00  0.00     0.000 C 
HETATM   17  C12 UNL     1      15.341   9.984  -2.810  1.00  0.00     0.006 C 
ENDBRANCH  11  12
ENDBRANCH   1  11
TORSDOF 4
ENDMDL
MODEL 5
REMARK VINA RESULT: -6.199749033      2.029      5.897
REMARK  4 active torsions:
REMARK  status: ('A' for Active; 'I' for Inactive)
REMARK    1  A    between atoms: C2_2  and  N1_3 
REMARK    2  A    between atoms: C5_8  and  N3_9 
REMARK    3  A    between atoms: N3_9  and  C6_11 
REMARK    4  A    between atoms: C6_11  and  C7_12 
ROOT
HETATM    1  N3  UNL     1      14.680  10.755  -0.140  1.00  0.00    -0.226 N 
ATOM      2  H3  UNL     1      14.932  11.662  -0.533  1.00  0.00     0.177 HD
ENDROOT
BRANCH   1   3
HETATM    3  C5  UNL     1      15.114  10.415   1.172  1.00  0.00     0.672 C 
HETATM    4  N1  UNL     1      14.330  10.623   2.354  1.00  0.00    -0.217 N 
HETATM    5  C3  UNL     1      15.341  10.848   3.402  1.00  0.00     0.161 C 
HETATM    6  C4  UNL     1      16.338   9.747   2.972  1.00  0.00     0.158 C 
HETATM    7  N2  UNL     1      16.276   9.910   1.515  1.00  0.00    -0.225 N 
ATOM      8  H2  UNL     1      17.025   9.669   0.867  1.00  0.00     0.177 HD
BRANCH   4   9
HETATM    9  C2  UNL     1      12.895  10.618   2.454  1.00  0.00     0.137 C 
HETATM   10  C1  UNL     1      12.352   9.227   2.519  1.00  0.00     0.027 C 
ENDBRANCH   4   9
ENDBRANCH   1   3
BRANCH   1  11
HETATM   11  C6  UNL     1      13.889   9.835  -0.926  1.00  0.00     0.142 C 
BRANCH  11  12
HETATM   12  C7  UNL     1      13.820  10.349  -2.396  1.00  0.00     0.004 C 
HETATM   13  C8  UNL     1      15.137   9.893  -2.990  1.00  0.00     0.006 C 
HETATM   14  C9  UNL     1      15.184   9.793  -4.467  1.00  0.00     0.000 C 
HETATM   15  C10 UNL     1      13.886   9.955  -5.168  1.00  0.00     0.000 C 
HETATM   16  C11 UNL     1      12.724   9.318  -4.441  1.00  0.00     0.000 C 
HETATM   17  C12 UNL     1      12.615   9.734  -2.999  1.00  0.00     0.006 C 
ENDBRANCH  11  12
ENDBRANCH   1  11
TORSDOF 4
ENDMDL
