MODEL 1
REMARK VINA RESULT: -4.884447322      0.000      0.000
REMARK  2 active torsions:
REMARK  status: ('A' for Active; 'I' for Inactive)
REMARK    1  A    between atoms: C2_2  and  S1_3 
REMARK    2  A    between atoms: S1_3  and  C3_4 
ROOT
HETATM    1  C3  UNL     1     -14.148  -0.974   2.573  1.00  0.00     0.279 C 
HETATM    2  C4  UNL     1     -13.327  -0.000   1.783  1.00  0.00     0.113 C 
HETATM    3  C5  UNL     1     -13.618  -1.019   0.718  1.00  0.00     0.132 C 
HETATM    4  C6  UNL     1     -14.937  -0.653   0.088  1.00  0.00     0.060 C 
HETATM    5  C7  UNL     1     -16.001  -0.433   1.129  1.00  0.00     0.239 C 
HETATM    6  N1  UNL     1     -15.564  -0.784   2.457  1.00  0.00    -0.033 N 
ATOM      7  H11 UNL     1     -15.891  -0.096   3.136  1.00  0.00     0.281 HD
ATOM      8  H12 UNL     1     -16.065  -1.607   2.793  1.00  0.00     0.281 HD
HETATM    9  O1  UNL     1     -13.743  -1.976   1.718  1.00  0.00    -0.341 OA
ENDROOT
BRANCH   1  10
HETATM   10  S1  UNL     1     -13.566  -1.076   4.268  1.00  0.00    -0.102 SA
BRANCH  10  11
HETATM   11  C2  UNL     1     -12.268  -2.297   4.432  1.00  0.00     0.074 C 
HETATM   12  C1  UNL     1     -10.880  -1.748   4.275  1.00  0.00     0.016 C 
ENDBRANCH  10  11
ENDBRANCH   1  10
TORSDOF 2
ENDMDL
MODEL 2
REMARK VINA RESULT: -4.795279418      2.185      4.326
REMARK  2 active torsions:
REMARK  status: ('A' for Active; 'I' for Inactive)
REMARK    1  A    between atoms: C2_2  and  S1_3 
REMARK    2  A    between atoms: S1_3  and  C3_4 
ROOT
HETATM    1  C3  UNL     1     -15.457  -0.707   1.801  1.00  0.00     0.279 C 
HETATM    2  C4  UNL     1     -14.654  -1.610   0.913  1.00  0.00     0.113 C 
HETATM    3  C5  UNL     1     -13.730  -0.428   0.986  1.00  0.00     0.132 C 
HETATM    4  C6  UNL     1     -12.863  -0.604   2.206  1.00  0.00     0.060 C 
HETATM    5  C7  UNL     1     -13.689  -0.900   3.429  1.00  0.00     0.239 C 
HETATM    6  N1  UNL     1     -15.106  -0.779   3.189  1.00  0.00    -0.033 N 
ATOM      7  H11 UNL     1     -15.613  -1.535   3.649  1.00  0.00     0.281 HD
ATOM      8  H12 UNL     1     -15.488   0.019   3.697  1.00  0.00     0.281 HD
HETATM    9  O1  UNL     1     -14.837   0.378   1.220  1.00  0.00    -0.341 OA
ENDROOT
BRANCH   1  10
HETATM   10  S1  UNL     1     -17.214  -0.897   1.486  1.00  0.00    -0.102 SA
BRANCH  10  11
HETATM   11  C2  UNL     1     -17.819   0.398   0.409  1.00  0.00     0.074 C 
HETATM   12  C1  UNL     1     -17.550   0.163  -1.049  1.00  0.00     0.016 C 
ENDBRANCH  10  11
ENDBRANCH   1  10
TORSDOF 2
ENDMDL
MODEL 3
REMARK VINA RESULT: -4.792551033      2.027      4.157
REMARK  2 active torsions:
REMARK  status: ('A' for Active; 'I' for Inactive)
REMARK    1  A    between atoms: C2_2  and  S1_3 
REMARK    2  A    between atoms: S1_3  and  C3_4 
ROOT
HETATM    1  C3  UNL     1     -14.547  -0.647   2.064  1.00  0.00     0.279 C 
HETATM    2  C4  UNL     1     -13.616  -1.711   1.564  1.00  0.00     0.113 C 
HETATM    3  C5  UNL     1     -12.635  -0.813   2.264  1.00  0.00     0.132 C 
HETATM    4  C6  UNL     1     -12.586  -1.235   3.710  1.00  0.00     0.060 C 
HETATM    5  C7  UNL     1     -13.966  -1.328   4.303  1.00  0.00     0.239 C 
HETATM    6  N1  UNL     1     -14.990  -0.836   3.415  1.00  0.00    -0.033 N 
ATOM      7  H11 UNL     1     -15.810  -1.441   3.442  1.00  0.00     0.281 HD
ATOM      8  H12 UNL     1     -15.398   0.024   3.781  1.00  0.00     0.281 HD
HETATM    9  O1  UNL     1     -13.501   0.250   2.039  1.00  0.00    -0.341 OA
ENDROOT
BRANCH   1  10
HETATM   10  S1  UNL     1     -15.881  -0.364   0.897  1.00  0.00    -0.102 SA
BRANCH  10  11
HETATM   11  C2  UNL     1     -17.477  -0.501   1.696  1.00  0.00     0.074 C 
HETATM   12  C1  UNL     1     -18.525  -1.185   0.867  1.00  0.00     0.016 C 
ENDBRANCH  10  11
ENDBRANCH   1  10
TORSDOF 2
ENDMDL
MODEL 4
REMARK VINA RESULT: -4.778338789      2.039      2.603
REMARK  2 active torsions:
REMARK  status: ('A' for Active; 'I' for Inactive)
REMARK    1  A    between atoms: C2_2  and  S1_3 
REMARK    2  A    between atoms: S1_3  and  C3_4 
ROOT
HETATM    1  C3  UNL     1     -14.216  -0.568   1.043  1.00  0.00     0.279 C 
HETATM    2  C4  UNL     1     -15.349  -1.533   1.229  1.00  0.00     0.113 C 
HETATM    3  C5  UNL     1     -16.068  -0.421   0.521  1.00  0.00     0.132 C 
HETATM    4  C6  UNL     1     -15.914  -0.651  -0.960  1.00  0.00     0.060 C 
HETATM    5  C7  UNL     1     -14.474  -0.876  -1.335  1.00  0.00     0.239 C 
HETATM    6  N1  UNL     1     -13.569  -0.655  -0.234  1.00  0.00    -0.033 N 
ATOM      7  H11 UNL     1     -12.841  -1.368  -0.220  1.00  0.00     0.281 HD
ATOM      8  H12 UNL     1     -12.997   0.172  -0.402  1.00  0.00     0.281 HD
HETATM    9  O1  UNL     1     -15.128   0.465   1.032  1.00  0.00    -0.341 OA
ENDROOT
BRANCH   1  10
HETATM   10  S1  UNL     1     -13.084  -0.632   2.435  1.00  0.00    -0.102 SA
BRANCH  10  11
HETATM   11  C2  UNL     1     -13.797  -1.537   3.804  1.00  0.00     0.074 C 
HETATM   12  C1  UNL     1     -14.534  -0.680   4.793  1.00  0.00     0.016 C 
ENDBRANCH  10  11
ENDBRANCH   1  10
TORSDOF 2
ENDMDL
MODEL 5
REMARK VINA RESULT: -4.707648831      1.378      1.819
REMARK  2 active torsions:
REMARK  status: ('A' for Active; 'I' for Inactive)
REMARK    1  A    between atoms: C2_2  and  S1_3 
REMARK    2  A    between atoms: S1_3  and  C3_4 
ROOT
HETATM    1  C3  UNL     1     -14.566  -0.914   2.064  1.00  0.00     0.279 C 
HETATM    2  C4  UNL     1     -16.060  -0.802   2.009  1.00  0.00     0.113 C 
HETATM    3  C5  UNL     1     -15.702  -0.135   0.712  1.00  0.00     0.132 C 
HETATM    4  C6  UNL     1     -15.592  -1.212  -0.337  1.00  0.00     0.060 C 
HETATM    5  C7  UNL     1     -14.700  -2.335   0.120  1.00  0.00     0.239 C 
HETATM    6  N1  UNL     1     -14.032  -2.047   1.365  1.00  0.00    -0.033 N 
ATOM      7  H11 UNL     1     -14.026  -2.870   1.968  1.00  0.00     0.281 HD
ATOM      8  H12 UNL     1     -13.029  -1.936   1.216  1.00  0.00     0.281 HD
HETATM    9  O1  UNL     1     -14.476   0.207   1.267  1.00  0.00    -0.341 OA
ENDROOT
BRANCH   1  10
HETATM   10  S1  UNL     1     -13.973  -0.757   3.751  1.00  0.00    -0.102 SA
BRANCH  10  11
HETATM   11  C2  UNL     1     -12.895  -2.118   4.184  1.00  0.00     0.074 C 
HETATM   12  C1  UNL     1     -11.489  -1.710   4.517  1.00  0.00     0.016 C 
ENDBRANCH  10  11
ENDBRANCH   1  10
TORSDOF 2
ENDMDL
