MODEL 1
REMARK VINA RESULT: -5.776820027      0.000      0.000
REMARK  3 active torsions:
REMARK  status: ('A' for Active; 'I' for Inactive)
REMARK    1  A    between atoms: O1_3  and  C2_4 
REMARK    2  A    between atoms: C2_4  and  C3_6 
REMARK    3  A    between atoms: C3_6  and  N2_7 
ROOT
HETATM    1  N1  UNL     1      18.613  12.561   0.416  1.00  0.00    -0.164 NA
HETATM    2  C1  UNL     1      17.568  12.187   0.090  1.00  0.00     0.234 C 
HETATM    3  O1  UNL     1      16.319  11.723  -0.286  1.00  0.00    -0.230 OA
ENDROOT
BRANCH   3   4
HETATM    4  C2  UNL     1      15.789  10.698   0.448  1.00  0.00     0.168 C 
HETATM    5  S1  UNL     1      16.218  10.516   2.001  1.00  0.00    -0.053 SA
BRANCH   4   6
HETATM    6  C3  UNL     1      14.831   9.774  -0.186  1.00  0.00     0.183 C 
HETATM    7  C4  UNL     1      15.341   9.476  -1.580  1.00  0.00     0.047 C 
HETATM    8  C5  UNL     1      14.219   9.102  -2.507  1.00  0.00     0.003 C 
HETATM    9  C6  UNL     1      13.328  10.312  -2.688  1.00  0.00     0.000 C 
HETATM   10  C7  UNL     1      13.022  11.017  -1.411  1.00  0.00     0.003 C 
HETATM   11  C8  UNL     1      13.428  10.275  -0.178  1.00  0.00     0.047 C 
BRANCH   6  12
HETATM   12  N2  UNL     1      14.863   8.511   0.566  1.00  0.00    -0.063 N 
ATOM     13  H23 UNL     1      14.825   8.650   1.577  1.00  0.00     0.275 HD
ATOM     14  H22 UNL     1      14.003   7.971   0.472  1.00  0.00     0.275 HD
ATOM     15  H21 UNL     1      15.690   7.993   0.269  1.00  0.00     0.275 HD
ENDBRANCH   6  12
ENDBRANCH   4   6
ENDBRANCH   3   4
TORSDOF 3
ENDMDL
MODEL 2
REMARK VINA RESULT: -5.520565525      0.981      1.210
REMARK  3 active torsions:
REMARK  status: ('A' for Active; 'I' for Inactive)
REMARK    1  A    between atoms: O1_3  and  C2_4 
REMARK    2  A    between atoms: C2_4  and  C3_6 
REMARK    3  A    between atoms: C3_6  and  N2_7 
ROOT
HETATM    1  N1  UNL     1      19.330  12.031   0.054  1.00  0.00    -0.164 NA
HETATM    2  C1  UNL     1      18.178  12.013  -0.049  1.00  0.00     0.234 C 
HETATM    3  O1  UNL     1      16.798  11.973  -0.164  1.00  0.00    -0.230 OA
ENDROOT
BRANCH   3   4
HETATM    4  C2  UNL     1      16.167  10.852   0.302  1.00  0.00     0.168 C 
HETATM    5  S1  UNL     1      16.290  10.454   1.869  1.00  0.00    -0.053 SA
BRANCH   4   6
HETATM    6  C3  UNL     1      15.382  10.023  -0.631  1.00  0.00     0.183 C 
HETATM    7  C4  UNL     1      15.007  10.897  -1.809  1.00  0.00     0.047 C 
HETATM    8  C5  UNL     1      13.749  10.412  -2.473  1.00  0.00     0.003 C 
HETATM    9  C6  UNL     1      12.601  10.586  -1.501  1.00  0.00     0.000 C 
HETATM   10  C7  UNL     1      12.924  10.133  -0.117  1.00  0.00     0.003 C 
HETATM   11  C8  UNL     1      14.203   9.369   0.003  1.00  0.00     0.047 C 
BRANCH   6  12
HETATM   12  N2  UNL     1      16.266   8.964  -1.141  1.00  0.00    -0.063 N 
ATOM     13  H23 UNL     1      15.930   8.026  -0.919  1.00  0.00     0.275 HD
ATOM     14  H22 UNL     1      16.239   8.881  -2.157  1.00  0.00     0.275 HD
ATOM     15  H21 UNL     1      17.204   9.143  -0.783  1.00  0.00     0.275 HD
ENDBRANCH   6  12
ENDBRANCH   4   6
ENDBRANCH   3   4
TORSDOF 3
ENDMDL
MODEL 3
REMARK VINA RESULT: -5.468947756      2.067      2.972
REMARK  3 active torsions:
REMARK  status: ('A' for Active; 'I' for Inactive)
REMARK    1  A    between atoms: O1_3  and  C2_4 
REMARK    2  A    between atoms: C2_4  and  C3_6 
REMARK    3  A    between atoms: C3_6  and  N2_7 
ROOT
HETATM    1  N1  UNL     1      18.230  12.626  -0.126  1.00  0.00    -0.164 NA
HETATM    2  C1  UNL     1      17.292  12.037   0.207  1.00  0.00     0.234 C 
HETATM    3  O1  UNL     1      16.166  11.326   0.586  1.00  0.00    -0.230 OA
ENDROOT
BRANCH   3   4
HETATM    4  C2  UNL     1      15.550  10.577  -0.378  1.00  0.00     0.168 C 
HETATM    5  S1  UNL     1      16.335  10.236  -1.755  1.00  0.00    -0.053 SA
BRANCH   4   6
HETATM    6  C3  UNL     1      14.177  10.090  -0.149  1.00  0.00     0.183 C 
HETATM    7  C4  UNL     1      13.794  10.462   1.268  1.00  0.00     0.047 C 
HETATM    8  C5  UNL     1      12.755   9.526   1.818  1.00  0.00     0.003 C 
HETATM    9  C6  UNL     1      13.374   8.151   1.949  1.00  0.00     0.000 C 
HETATM   10  C7  UNL     1      14.170   7.745   0.756  1.00  0.00     0.003 C 
HETATM   11  C8  UNL     1      14.007   8.638  -0.433  1.00  0.00     0.047 C 
BRANCH   6  12
HETATM   12  N2  UNL     1      13.282  10.833  -1.049  1.00  0.00    -0.063 N 
ATOM     13  H23 UNL     1      13.751  11.602  -1.529  1.00  0.00     0.275 HD
ATOM     14  H22 UNL     1      13.018  10.298  -1.876  1.00  0.00     0.275 HD
ATOM     15  H21 UNL     1      12.477  11.140  -0.503  1.00  0.00     0.275 HD
ENDBRANCH   6  12
ENDBRANCH   4   6
ENDBRANCH   3   4
TORSDOF 3
ENDMDL
MODEL 4
REMARK VINA RESULT: -5.454594237      1.933      2.035
REMARK  3 active torsions:
REMARK  status: ('A' for Active; 'I' for Inactive)
REMARK    1  A    between atoms: O1_3  and  C2_4 
REMARK    2  A    between atoms: C2_4  and  C3_6 
REMARK    3  A    between atoms: C3_6  and  N2_7 
ROOT
HETATM    1  N1  UNL     1      15.235  12.192   3.465  1.00  0.00    -0.164 NA
HETATM    2  C1  UNL     1      15.344  11.197   2.883  1.00  0.00     0.234 C 
HETATM    3  O1  UNL     1      15.475  10.018   2.170  1.00  0.00    -0.230 OA
ENDROOT
BRANCH   3   4
HETATM    4  C2  UNL     1      15.553  10.120   0.808  1.00  0.00     0.168 C 
HETATM    5  S1  UNL     1      16.691  11.060   0.137  1.00  0.00    -0.053 SA
BRANCH   4   6
HETATM    6  C3  UNL     1      14.601   9.370  -0.030  1.00  0.00     0.183 C 
HETATM    7  C4  UNL     1      15.214   9.237  -1.409  1.00  0.00     0.047 C 
HETATM    8  C5  UNL     1      14.158   9.083  -2.466  1.00  0.00     0.003 C 
HETATM    9  C6  UNL     1      13.363  10.369  -2.536  1.00  0.00     0.000 C 
HETATM   10  C7  UNL     1      12.988  10.906  -1.196  1.00  0.00     0.003 C 
HETATM   11  C8  UNL     1      13.236   9.967  -0.059  1.00  0.00     0.047 C 
BRANCH   6  12
HETATM   12  N2  UNL     1      14.488   8.013   0.526  1.00  0.00    -0.063 N 
ATOM     13  H23 UNL     1      14.826   7.293  -0.114  1.00  0.00     0.275 HD
ATOM     14  H22 UNL     1      15.147   7.840   1.284  1.00  0.00     0.275 HD
ATOM     15  H21 UNL     1      13.517   7.871   0.804  1.00  0.00     0.275 HD
ENDBRANCH   6  12
ENDBRANCH   4   6
ENDBRANCH   3   4
TORSDOF 3
ENDMDL
MODEL 5
REMARK VINA RESULT: -5.452024023      2.537      2.903
REMARK  3 active torsions:
REMARK  status: ('A' for Active; 'I' for Inactive)
REMARK    1  A    between atoms: O1_3  and  C2_4 
REMARK    2  A    between atoms: C2_4  and  C3_6 
REMARK    3  A    between atoms: C3_6  and  N2_7 
ROOT
HETATM    1  N1  UNL     1      18.305  12.579  -0.282  1.00  0.00    -0.164 NA
HETATM    2  C1  UNL     1      17.497  12.185   0.446  1.00  0.00     0.234 C 
HETATM    3  O1  UNL     1      16.525  11.699   1.304  1.00  0.00    -0.230 OA
ENDROOT
BRANCH   3   4
HETATM    4  C2  UNL     1      15.779  10.641   0.863  1.00  0.00     0.168 C 
HETATM    5  S1  UNL     1      15.596  10.394  -0.728  1.00  0.00    -0.053 SA
BRANCH   4   6
HETATM    6  C3  UNL     1      15.153   9.738   1.846  1.00  0.00     0.183 C 
HETATM    7  C4  UNL     1      14.433   8.653   1.073  1.00  0.00     0.047 C 
HETATM    8  C5  UNL     1      13.290   8.083   1.864  1.00  0.00     0.003 C 
HETATM    9  C6  UNL     1      12.247   9.166   2.044  1.00  0.00     0.000 C 
HETATM   10  C7  UNL     1      12.826  10.484   2.434  1.00  0.00     0.003 C 
HETATM   11  C8  UNL     1      14.269  10.439   2.820  1.00  0.00     0.047 C 
BRANCH   6  12
HETATM   12  N2  UNL     1      16.231   9.085   2.605  1.00  0.00    -0.063 N 
ATOM     13  H23 UNL     1      17.126   9.100   2.114  1.00  0.00     0.275 HD
ATOM     14  H22 UNL     1      16.518   9.620   3.424  1.00  0.00     0.275 HD
ATOM     15  H21 UNL     1      15.921   8.142   2.836  1.00  0.00     0.275 HD
ENDBRANCH   6  12
ENDBRANCH   4   6
ENDBRANCH   3   4
TORSDOF 3
ENDMDL
