MODEL 1
REMARK VINA RESULT: -6.899379962      0.000      0.000
REMARK  5 active torsions:
REMARK  status: ('A' for Active; 'I' for Inactive)
REMARK    1  A    between atoms: C2_2  and  C3_3 
REMARK    2  A    between atoms: C3_3  and  N1_4 
REMARK    3  A    between atoms: C4_5  and  O1_6 
REMARK    4  A    between atoms: C7_10  and  O2_11 
REMARK    5  A    between atoms: C8_13  and  C9_14 
ROOT
HETATM    1  N1  UNL     1      -3.256  52.900  12.179  1.00  0.00    -0.304 N 
HETATM    2  C4  UNL     1      -3.914  51.810  11.713  1.00  0.00     0.154 A 
HETATM    3  C5  UNL     1      -5.252  52.105  11.740  1.00  0.00     0.039 A 
HETATM    4  C6  UNL     1      -5.414  53.386  12.229  1.00  0.00     0.029 A 
HETATM    5  C7  UNL     1      -4.142  53.863  12.497  1.00  0.00     0.153 A 
HETATM    6  C8  UNL     1      -6.864  53.677  12.249  1.00  0.00     0.117 C 
HETATM    7  C10 UNL     1      -7.390  52.272  12.631  1.00  0.00     0.052 C 
HETATM    8  C11 UNL     1      -8.827  52.338  12.295  1.00  0.00     0.012 C 
HETATM    9  C12 UNL     1      -8.950  53.465  11.261  1.00  0.00     0.040 C 
HETATM   10  C13 UNL     1      -7.486  53.637  10.895  1.00  0.00     0.081 C 
HETATM   11  C14 UNL     1      -7.188  54.705   9.954  1.00  0.00     0.048 C 
HETATM   12  O5  UNL     1      -7.101  52.368  10.399  1.00  0.00    -0.363 OA
HETATM   13  C15 UNL     1      -6.649  51.618  11.458  1.00  0.00     0.095 C 
HETATM   14  C16 UNL     1      -6.776  50.172  11.377  1.00  0.00     0.052 C 
ENDROOT
BRANCH   1  15
HETATM   15  C3  UNL     1      -1.833  53.012  12.316  1.00  0.00     0.160 C 
BRANCH  15  16
HETATM   16  C2  UNL     1      -1.189  53.253  10.979  1.00  0.00    -0.017 C 
HETATM   17  C1  UNL     1      -0.498  52.258  10.421  1.00  0.00     0.008 C 
ENDBRANCH  15  16
ENDBRANCH   1  15
BRANCH   2  18
HETATM   18  O1  UNL     1      -3.378  50.617  11.283  1.00  0.00    -0.345 OA
ATOM     19  H1  UNL     1      -3.760  49.750  11.346  1.00  0.00     0.219 HD
ENDBRANCH   2  18
BRANCH   5  20
HETATM   20  O2  UNL     1      -3.803  55.124  13.010  1.00  0.00    -0.345 OA
ATOM     21  H2  UNL     1      -3.309  55.785  12.539  1.00  0.00     0.219 HD
ENDBRANCH   5  20
BRANCH   6  22
HETATM   22  C9  UNL     1      -7.289  54.677  13.177  1.00  0.00     0.190 C 
HETATM   23  O3  UNL     1      -7.037  54.498  14.422  1.00  0.00    -0.647 OA
HETATM   24  O4  UNL     1      -7.948  55.829  12.869  1.00  0.00    -0.647 OA
ENDBRANCH   6  22
TORSDOF 5
ENDMDL
MODEL 2
REMARK VINA RESULT: -6.589462545      2.030      5.373
REMARK  5 active torsions:
REMARK  status: ('A' for Active; 'I' for Inactive)
REMARK    1  A    between atoms: C2_2  and  C3_3 
REMARK    2  A    between atoms: C3_3  and  N1_4 
REMARK    3  A    between atoms: C4_5  and  O1_6 
REMARK    4  A    between atoms: C7_10  and  O2_11 
REMARK    5  A    between atoms: C8_13  and  C9_14 
ROOT
HETATM    1  N1  UNL     1      -6.157  52.876  13.006  1.00  0.00    -0.304 N 
HETATM    2  C4  UNL     1      -6.224  52.246  11.807  1.00  0.00     0.154 A 
HETATM    3  C5  UNL     1      -4.969  51.771  11.530  1.00  0.00     0.039 A 
HETATM    4  C6  UNL     1      -4.126  52.114  12.568  1.00  0.00     0.029 A 
HETATM    5  C7  UNL     1      -4.899  52.808  13.482  1.00  0.00     0.153 A 
HETATM    6  C8  UNL     1      -2.781  51.592  12.243  1.00  0.00     0.117 C 
HETATM    7  C10 UNL     1      -2.796  51.813  10.710  1.00  0.00     0.052 C 
HETATM    8  C11 UNL     1      -1.681  50.973  10.229  1.00  0.00     0.012 C 
HETATM    9  C12 UNL     1      -1.464  49.920  11.324  1.00  0.00     0.040 C 
HETATM   10  C13 UNL     1      -2.746  50.107  12.116  1.00  0.00     0.081 C 
HETATM   11  C14 UNL     1      -2.875  49.297  13.316  1.00  0.00     0.048 C 
HETATM   12  O5  UNL     1      -3.775  49.838  11.180  1.00  0.00    -0.363 OA
HETATM   13  C15 UNL     1      -4.100  51.019  10.556  1.00  0.00     0.095 C 
HETATM   14  C16 UNL     1      -4.629  50.956   9.203  1.00  0.00     0.052 C 
ENDROOT
BRANCH   1  15
HETATM   15  C3  UNL     1      -7.255  53.518  13.667  1.00  0.00     0.160 C 
BRANCH  15  16
HETATM   16  C2  UNL     1      -7.219  55.003  13.433  1.00  0.00    -0.017 C 
HETATM   17  C1  UNL     1      -7.865  55.492  12.374  1.00  0.00     0.008 C 
ENDBRANCH  15  16
ENDBRANCH   1  15
BRANCH   2  18
HETATM   18  O1  UNL     1      -7.324  52.091  10.993  1.00  0.00    -0.345 OA
ATOM     19  H1  UNL     1      -7.339  51.882  10.067  1.00  0.00     0.219 HD
ENDBRANCH   2  18
BRANCH   5  20
HETATM   20  O2  UNL     1      -4.476  53.358  14.702  1.00  0.00    -0.345 OA
ATOM     21  H2  UNL     1      -3.868  52.941  15.301  1.00  0.00     0.219 HD
ENDBRANCH   5  20
BRANCH   6  22
HETATM   22  C9  UNL     1      -1.682  52.260  12.867  1.00  0.00     0.190 C 
HETATM   23  O3  UNL     1      -1.254  53.349  12.341  1.00  0.00    -0.647 OA
HETATM   24  O4  UNL     1      -1.028  51.850  13.990  1.00  0.00    -0.647 OA
ENDBRANCH   6  22
TORSDOF 5
ENDMDL
MODEL 3
REMARK VINA RESULT: -6.450114518      2.331      5.058
REMARK  5 active torsions:
REMARK  status: ('A' for Active; 'I' for Inactive)
REMARK    1  A    between atoms: C2_2  and  C3_3 
REMARK    2  A    between atoms: C3_3  and  N1_4 
REMARK    3  A    between atoms: C4_5  and  O1_6 
REMARK    4  A    between atoms: C7_10  and  O2_11 
REMARK    5  A    between atoms: C8_13  and  C9_14 
ROOT
HETATM    1  N1  UNL     1      -8.802  54.723  11.269  1.00  0.00    -0.304 N 
HETATM    2  C4  UNL     1      -8.819  53.401  10.968  1.00  0.00     0.154 A 
HETATM    3  C5  UNL     1      -7.648  52.866  11.437  1.00  0.00     0.039 A 
HETATM    4  C6  UNL     1      -6.908  53.870  12.030  1.00  0.00     0.029 A 
HETATM    5  C7  UNL     1      -7.658  55.027  11.910  1.00  0.00     0.153 A 
HETATM    6  C8  UNL     1      -5.652  53.266  12.525  1.00  0.00     0.117 C 
HETATM    7  C10 UNL     1      -5.413  52.235  11.394  1.00  0.00     0.052 C 
HETATM    8  C11 UNL     1      -4.417  51.311  11.973  1.00  0.00     0.012 C 
HETATM    9  C12 UNL     1      -4.554  51.469  13.494  1.00  0.00     0.040 C 
HETATM   10  C13 UNL     1      -5.876  52.213  13.556  1.00  0.00     0.081 C 
HETATM   11  C14 UNL     1      -6.319  52.612  14.882  1.00  0.00     0.048 C 
HETATM   12  O5  UNL     1      -6.797  51.338  12.928  1.00  0.00    -0.363 OA
HETATM   13  C15 UNL     1      -6.807  51.625  11.585  1.00  0.00     0.095 C 
HETATM   14  C16 UNL     1      -7.146  50.556  10.659  1.00  0.00     0.052 C 
ENDROOT
BRANCH   1  15
HETATM   15  C3  UNL     1      -9.843  55.657  10.954  1.00  0.00     0.160 C 
BRANCH  15  16
HETATM   16  C2  UNL     1      -9.425  56.554   9.821  1.00  0.00    -0.017 C 
HETATM   17  C1  UNL     1      -9.860  57.814   9.818  1.00  0.00     0.008 C 
ENDBRANCH  15  16
ENDBRANCH   1  15
BRANCH   2  18
HETATM   18  O1  UNL     1      -9.804  52.694  10.317  1.00  0.00    -0.345 OA
ATOM     19  H1  UNL     1      -9.948  51.755  10.321  1.00  0.00     0.219 HD
ENDBRANCH   2  18
BRANCH   5  20
HETATM   20  O2  UNL     1      -7.313  56.309  12.367  1.00  0.00    -0.345 OA
ATOM     21  H2  UNL     1      -6.674  56.876  11.952  1.00  0.00     0.219 HD
ENDBRANCH   5  20
BRANCH   6  22
HETATM   22  C9  UNL     1      -4.545  54.159  12.676  1.00  0.00     0.190 C 
HETATM   23  O3  UNL     1      -4.646  55.113  13.527  1.00  0.00    -0.647 OA
HETATM   24  O4  UNL     1      -3.367  54.099  11.994  1.00  0.00    -0.647 OA
ENDBRANCH   6  22
TORSDOF 5
ENDMDL
MODEL 4
REMARK VINA RESULT: -6.418957083      3.065      5.035
REMARK  5 active torsions:
REMARK  status: ('A' for Active; 'I' for Inactive)
REMARK    1  A    between atoms: C2_2  and  C3_3 
REMARK    2  A    between atoms: C3_3  and  N1_4 
REMARK    3  A    between atoms: C4_5  and  O1_6 
REMARK    4  A    between atoms: C7_10  and  O2_11 
REMARK    5  A    between atoms: C8_13  and  C9_14 
ROOT
HETATM    1  N1  UNL     1      -7.076  54.598  12.855  1.00  0.00    -0.304 N 
HETATM    2  C4  UNL     1      -8.311  55.157  12.824  1.00  0.00     0.154 A 
HETATM    3  C5  UNL     1      -8.734  55.130  11.521  1.00  0.00     0.039 A 
HETATM    4  C6  UNL     1      -7.748  54.549  10.747  1.00  0.00     0.029 A 
HETATM    5  C7  UNL     1      -6.717  54.224  11.612  1.00  0.00     0.153 A 
HETATM    6  C8  UNL     1      -8.229  54.534   9.349  1.00  0.00     0.117 C 
HETATM    7  C10 UNL     1      -8.996  55.880   9.338  1.00  0.00     0.052 C 
HETATM    8  C11 UNL     1      -9.843  55.785   8.132  1.00  0.00     0.012 C 
HETATM    9  C12 UNL     1      -9.977  54.283   7.848  1.00  0.00     0.040 C 
HETATM   10  C13 UNL     1      -9.468  53.727   9.166  1.00  0.00     0.081 C 
HETATM   11  C14 UNL     1      -9.381  52.278   9.252  1.00  0.00     0.048 C 
HETATM   12  O5  UNL     1     -10.351  54.266  10.134  1.00  0.00    -0.363 OA
HETATM   13  C15 UNL     1      -9.837  55.469  10.553  1.00  0.00     0.095 C 
HETATM   14  C16 UNL     1     -10.766  56.481  11.032  1.00  0.00     0.052 C 
ENDROOT
BRANCH   1  15
HETATM   15  C3  UNL     1      -6.273  54.430  14.030  1.00  0.00     0.160 C 
BRANCH  15  16
HETATM   16  C2  UNL     1      -6.369  53.018  14.541  1.00  0.00    -0.017 C 
HETATM   17  C1  UNL     1      -5.314  52.217  14.389  1.00  0.00     0.008 C 
ENDBRANCH  15  16
ENDBRANCH   1  15
BRANCH   2  18
HETATM   18  O1  UNL     1      -9.037  55.666  13.878  1.00  0.00    -0.345 OA
ATOM     19  H1  UNL     1      -9.577  56.447  13.891  1.00  0.00     0.219 HD
ENDBRANCH   2  18
BRANCH   5  20
HETATM   20  O2  UNL     1      -5.498  53.612  11.282  1.00  0.00    -0.345 OA
ATOM     21  H2  UNL     1      -4.643  53.944  11.529  1.00  0.00     0.219 HD
ENDBRANCH   5  20
BRANCH   6  22
HETATM   22  C9  UNL     1      -7.217  54.488   8.340  1.00  0.00     0.190 C 
HETATM   23  O3  UNL     1      -6.531  55.549   8.118  1.00  0.00    -0.647 OA
HETATM   24  O4  UNL     1      -6.899  53.409   7.572  1.00  0.00    -0.647 OA
ENDBRANCH   6  22
TORSDOF 5
ENDMDL
MODEL 5
REMARK VINA RESULT: -6.388677200      2.144      5.257
REMARK  5 active torsions:
REMARK  status: ('A' for Active; 'I' for Inactive)
REMARK    1  A    between atoms: C2_2  and  C3_3 
REMARK    2  A    between atoms: C3_3  and  N1_4 
REMARK    3  A    between atoms: C4_5  and  O1_6 
REMARK    4  A    between atoms: C7_10  and  O2_11 
REMARK    5  A    between atoms: C8_13  and  C9_14 
ROOT
HETATM    1  N1  UNL     1      -5.867  52.919  13.417  1.00  0.00    -0.304 N 
HETATM    2  C4  UNL     1      -6.495  51.983  12.664  1.00  0.00     0.154 A 
HETATM    3  C5  UNL     1      -5.522  51.272  12.010  1.00  0.00     0.039 A 
HETATM    4  C6  UNL     1      -4.288  51.779  12.368  1.00  0.00     0.029 A 
HETATM    5  C7  UNL     1      -4.535  52.813  13.254  1.00  0.00     0.153 A 
HETATM    6  C8  UNL     1      -3.260  50.996  11.649  1.00  0.00     0.117 C 
HETATM    7  C10 UNL     1      -4.016  50.759  10.319  1.00  0.00     0.052 C 
HETATM    8  C11 UNL     1      -3.258  49.664   9.681  1.00  0.00     0.012 C 
HETATM    9  C12 UNL     1      -2.523  48.957  10.828  1.00  0.00     0.040 C 
HETATM   10  C13 UNL     1      -3.267  49.550  12.011  1.00  0.00     0.081 C 
HETATM   11  C14 UNL     1      -2.788  49.153  13.326  1.00  0.00     0.048 C 
HETATM   12  O5  UNL     1      -4.615  49.171  11.800  1.00  0.00    -0.363 OA
HETATM   13  C15 UNL     1      -5.219  50.151  11.051  1.00  0.00     0.095 C 
HETATM   14  C16 UNL     1      -6.335  49.773  10.198  1.00  0.00     0.052 C 
ENDROOT
BRANCH   1  15
HETATM   15  C3  UNL     1      -6.520  53.877  14.260  1.00  0.00     0.160 C 
BRANCH  15  16
HETATM   16  C2  UNL     1      -6.712  55.180  13.533  1.00  0.00    -0.017 C 
HETATM   17  C1  UNL     1      -7.822  55.346  12.814  1.00  0.00     0.008 C 
ENDBRANCH  15  16
ENDBRANCH   1  15
BRANCH   2  18
HETATM   18  O1  UNL     1      -7.848  51.757  12.549  1.00  0.00    -0.345 OA
ATOM     19  H1  UNL     1      -8.304  50.924  12.566  1.00  0.00     0.219 HD
ENDBRANCH   2  18
BRANCH   5  20
HETATM   20  O2  UNL     1      -3.584  53.628  13.887  1.00  0.00    -0.345 OA
ATOM     21  H2  UNL     1      -3.681  54.563  14.028  1.00  0.00     0.219 HD
ENDBRANCH   5  20
BRANCH   6  22
HETATM   22  C9  UNL     1      -2.006  51.651  11.442  1.00  0.00     0.190 C 
HETATM   23  O3  UNL     1      -1.965  52.639  10.625  1.00  0.00    -0.647 OA
HETATM   24  O4  UNL     1      -0.824  51.327  12.036  1.00  0.00    -0.647 OA
ENDBRANCH   6  22
TORSDOF 5
ENDMDL
