MODEL 1
REMARK VINA RESULT: -6.633186340      0.000      0.000
REMARK  3 active torsions:
REMARK  status: ('A' for Active; 'I' for Inactive)
REMARK    1  A    between atoms: O1_1  and  C1_3 
REMARK    2  A    between atoms: C1_3  and  C2_4 
REMARK    3  A    between atoms: C2_4  and  O2_5 
ROOT
HETATM    1  C2  UNL     1      21.825  -1.150  -8.326  1.00  0.00     0.216 C 
HETATM    2  C3  UNL     1      21.475   0.326  -8.447  1.00  0.00     0.077 C 
HETATM    3  C4  UNL     1      21.872   0.919  -7.088  1.00  0.00     0.047 C 
HETATM    4  C5  UNL     1      20.972   0.248  -6.068  1.00  0.00     0.096 C 
HETATM    5  C6  UNL     1      21.706  -0.090  -4.899  1.00  0.00     0.041 C 
HETATM    6  C7  UNL     1      22.514  -1.073  -4.256  1.00  0.00     0.003 C 
HETATM    7  C8  UNL     1      22.541  -0.620  -2.759  1.00  0.00     0.000 C 
HETATM    8  C9  UNL     1      21.237  -0.377  -2.111  1.00  0.00     0.000 C 
HETATM    9  C10 UNL     1      20.801   1.043  -1.854  1.00  0.00     0.000 C 
HETATM   10  C11 UNL     1      19.359   1.373  -2.012  1.00  0.00     0.000 C 
HETATM   11  C12 UNL     1      18.963   2.122  -3.326  1.00  0.00     0.000 C 
HETATM   12  C13 UNL     1      19.482   1.289  -4.367  1.00  0.00     0.003 C 
HETATM   13  C14 UNL     1      19.833   1.285  -5.749  1.00  0.00     0.041 C 
HETATM   14  O3  UNL     1      20.338  -0.845  -6.659  1.00  0.00    -0.227 OA
HETATM   15  O4  UNL     1      21.140  -1.657  -7.253  1.00  0.00    -0.198 OA
ENDROOT
BRANCH   1  16
HETATM   16  C1  UNL     1      21.482  -1.810  -9.637  1.00  0.00     0.235 C 
BRANCH  16  17
HETATM   17  O1  UNL     1      21.818  -3.159  -9.598  1.00  0.00    -0.395 OA
ATOM     18  H1  UNL     1      21.116  -3.682  -9.964  1.00  0.00     0.209 HD
ENDBRANCH  16  17
ENDBRANCH   1  16
BRANCH   1  19
HETATM   19  O2  UNL     1      23.189  -1.232  -8.055  1.00  0.00    -0.362 OA
ATOM     20  H2  UNL     1      23.671  -0.535  -8.484  1.00  0.00     0.213 HD
ENDBRANCH   1  19
TORSDOF 3
ENDMDL
MODEL 2
REMARK VINA RESULT: -6.627629481      1.923      3.543
REMARK  3 active torsions:
REMARK  status: ('A' for Active; 'I' for Inactive)
REMARK    1  A    between atoms: O1_1  and  C1_3 
REMARK    2  A    between atoms: C1_3  and  C2_4 
REMARK    3  A    between atoms: C2_4  and  O2_5 
ROOT
HETATM    1  C2  UNL     1      20.670   1.216  -8.312  1.00  0.00     0.216 C 
HETATM    2  C3  UNL     1      21.007  -0.263  -8.434  1.00  0.00     0.077 C 
HETATM    3  C4  UNL     1      20.592  -0.855  -7.080  1.00  0.00     0.047 C 
HETATM    4  C5  UNL     1      21.489  -0.195  -6.050  1.00  0.00     0.096 C 
HETATM    5  C6  UNL     1      20.747   0.148  -4.887  1.00  0.00     0.041 C 
HETATM    6  C7  UNL     1      19.943   1.137  -4.250  1.00  0.00     0.003 C 
HETATM    7  C8  UNL     1      19.899   0.681  -2.753  1.00  0.00     0.000 C 
HETATM    8  C9  UNL     1      21.194   0.424  -2.095  1.00  0.00     0.000 C 
HETATM    9  C10 UNL     1      21.614  -1.000  -1.837  1.00  0.00     0.000 C 
HETATM   10  C11 UNL     1      23.054  -1.344  -1.982  1.00  0.00     0.000 C 
HETATM   11  C12 UNL     1      23.455  -2.094  -3.294  1.00  0.00     0.000 C 
HETATM   12  C13 UNL     1      22.953  -1.254  -4.338  1.00  0.00     0.003 C 
HETATM   13  C14 UNL     1      22.615  -1.243  -5.723  1.00  0.00     0.041 C 
HETATM   14  O3  UNL     1      22.139   0.893  -6.633  1.00  0.00    -0.227 OA
HETATM   15  O4  UNL     1      21.350   1.714  -7.233  1.00  0.00    -0.198 OA
ENDROOT
BRANCH   1  16
HETATM   16  C1  UNL     1      21.031   1.876  -9.619  1.00  0.00     0.235 C 
BRANCH  16  17
HETATM   17  O1  UNL     1      20.599   3.197  -9.625  1.00  0.00    -0.395 OA
ATOM     18  H1  UNL     1      21.341   3.784  -9.538  1.00  0.00     0.209 HD
ENDBRANCH  16  17
ENDBRANCH   1  16
BRANCH   1  19
HETATM   19  O2  UNL     1      19.305   1.310  -8.054  1.00  0.00    -0.362 OA
ATOM     20  H2  UNL     1      19.138   1.636  -7.177  1.00  0.00     0.213 HD
ENDBRANCH   1  19
TORSDOF 3
ENDMDL
MODEL 3
REMARK VINA RESULT: -6.199353760      1.621      3.155
REMARK  3 active torsions:
REMARK  status: ('A' for Active; 'I' for Inactive)
REMARK    1  A    between atoms: O1_1  and  C1_3 
REMARK    2  A    between atoms: C1_3  and  C2_4 
REMARK    3  A    between atoms: C2_4  and  O2_5 
ROOT
HETATM    1  C2  UNL     1      20.665   0.492  -8.780  1.00  0.00     0.216 C 
HETATM    2  C3  UNL     1      20.961  -0.995  -8.637  1.00  0.00     0.077 C 
HETATM    3  C4  UNL     1      20.504  -1.333  -7.211  1.00  0.00     0.047 C 
HETATM    4  C5  UNL     1      21.400  -0.528  -6.290  1.00  0.00     0.096 C 
HETATM    5  C6  UNL     1      20.647   0.029  -5.221  1.00  0.00     0.041 C 
HETATM    6  C7  UNL     1      19.861   1.134  -4.782  1.00  0.00     0.003 C 
HETATM    7  C8  UNL     1      19.775   0.945  -3.231  1.00  0.00     0.000 C 
HETATM    8  C9  UNL     1      21.050   0.773  -2.508  1.00  0.00     0.000 C 
HETATM    9  C10 UNL     1      21.423  -0.596  -1.999  1.00  0.00     0.000 C 
HETATM   10  C11 UNL     1      22.855  -0.996  -2.049  1.00  0.00     0.000 C 
HETATM   11  C12 UNL     1      23.258  -1.971  -3.203  1.00  0.00     0.000 C 
HETATM   12  C13 UNL     1      22.801  -1.312  -4.388  1.00  0.00     0.003 C 
HETATM   13  C14 UNL     1      22.489  -1.532  -5.761  1.00  0.00     0.041 C 
HETATM   14  O3  UNL     1      22.092   0.426  -7.036  1.00  0.00    -0.227 OA
HETATM   15  O4  UNL     1      21.339   1.151  -7.786  1.00  0.00    -0.198 OA
ENDROOT
BRANCH   1  16
HETATM   16  C1  UNL     1      21.070   0.906 -10.172  1.00  0.00     0.235 C 
BRANCH  16  17
HETATM   17  O1  UNL     1      21.204  -0.213 -10.986  1.00  0.00    -0.395 OA
ATOM     18  H1  UNL     1      21.902  -0.079 -11.615  1.00  0.00     0.209 HD
ENDBRANCH  16  17
ENDBRANCH   1  16
BRANCH   1  19
HETATM   19  O2  UNL     1      19.298   0.664  -8.573  1.00  0.00    -0.362 OA
ATOM     20  H2  UNL     1      19.121   1.049  -7.723  1.00  0.00     0.213 HD
ENDBRANCH   1  19
TORSDOF 3
ENDMDL
MODEL 4
REMARK VINA RESULT: -5.920294049      7.116      9.467
REMARK  3 active torsions:
REMARK  status: ('A' for Active; 'I' for Inactive)
REMARK    1  A    between atoms: O1_1  and  C1_3 
REMARK    2  A    between atoms: C1_3  and  C2_4 
REMARK    3  A    between atoms: C2_4  and  O2_5 
ROOT
HETATM    1  C2  UNL     1      27.629  -3.073   2.804  1.00  0.00     0.216 C 
HETATM    2  C3  UNL     1      28.143  -2.042   1.809  1.00  0.00     0.077 C 
HETATM    3  C4  UNL     1      26.904  -1.203   1.465  1.00  0.00     0.047 C 
HETATM    4  C5  UNL     1      25.939  -2.155   0.783  1.00  0.00     0.096 C 
HETATM    5  C6  UNL     1      24.611  -1.929   1.235  1.00  0.00     0.041 C 
HETATM    6  C7  UNL     1      23.627  -2.252   2.215  1.00  0.00     0.003 C 
HETATM    7  C8  UNL     1      22.291  -1.718   1.599  1.00  0.00     0.000 C 
HETATM    8  C9  UNL     1      21.963  -2.160   0.231  1.00  0.00     0.000 C 
HETATM    9  C10 UNL     1      22.116  -1.186  -0.910  1.00  0.00     0.000 C 
HETATM   10  C11 UNL     1      22.603  -1.707  -2.216  1.00  0.00     0.000 C 
HETATM   11  C12 UNL     1      24.103  -1.420  -2.556  1.00  0.00     0.000 C 
HETATM   12  C13 UNL     1      24.817  -1.933  -1.427  1.00  0.00     0.003 C 
HETATM   13  C14 UNL     1      26.075  -1.877  -0.759  1.00  0.00     0.041 C 
HETATM   14  O3  UNL     1      26.373  -3.467   0.973  1.00  0.00    -0.227 OA
HETATM   15  O4  UNL     1      26.612  -3.767   2.202  1.00  0.00    -0.198 OA
ENDROOT
BRANCH   1  16
HETATM   16  C1  UNL     1      28.798  -3.934   3.212  1.00  0.00     0.235 C 
BRANCH  16  17
HETATM   17  O1  UNL     1      28.913  -5.024   2.357  1.00  0.00    -0.395 OA
ATOM     18  H1  UNL     1      28.257  -4.974   1.672  1.00  0.00     0.209 HD
ENDBRANCH  16  17
ENDBRANCH   1  16
BRANCH   1  19
HETATM   19  O2  UNL     1      27.104  -2.377   3.889  1.00  0.00    -0.362 OA
ATOM     20  H2  UNL     1      26.292  -2.766   4.192  1.00  0.00     0.213 HD
ENDBRANCH   1  19
TORSDOF 3
ENDMDL
MODEL 5
REMARK VINA RESULT: -5.441387651      9.795     12.219
REMARK  3 active torsions:
REMARK  status: ('A' for Active; 'I' for Inactive)
REMARK    1  A    between atoms: O1_1  and  C1_3 
REMARK    2  A    between atoms: C1_3  and  C2_4 
REMARK    3  A    between atoms: C2_4  and  O2_5 
ROOT
HETATM    1  C2  UNL     1      26.287  -6.270   3.405  1.00  0.00     0.216 C 
HETATM    2  C3  UNL     1      26.806  -5.697   4.717  1.00  0.00     0.077 C 
HETATM    3  C4  UNL     1      26.775  -4.178   4.500  1.00  0.00     0.047 C 
HETATM    4  C5  UNL     1      27.760  -3.902   3.380  1.00  0.00     0.096 C 
HETATM    5  C6  UNL     1      27.236  -2.935   2.480  1.00  0.00     0.041 C 
HETATM    6  C7  UNL     1      26.446  -2.715   1.313  1.00  0.00     0.003 C 
HETATM    7  C8  UNL     1      26.783  -1.244   0.901  1.00  0.00     0.000 C 
HETATM    8  C9  UNL     1      28.211  -0.903   0.749  1.00  0.00     0.000 C 
HETATM    9  C10 UNL     1      28.881  -0.068   1.810  1.00  0.00     0.000 C 
HETATM   10  C11 UNL     1      30.294  -0.379   2.158  1.00  0.00     0.000 C 
HETATM   11  C12 UNL     1      30.517  -1.172   3.488  1.00  0.00     0.000 C 
HETATM   12  C13 UNL     1      29.690  -2.330   3.342  1.00  0.00     0.003 C 
HETATM   13  C14 UNL     1      29.072  -3.384   4.076  1.00  0.00     0.041 C 
HETATM   14  O3  UNL     1      28.106  -5.104   2.762  1.00  0.00    -0.227 OA
HETATM   15  O4  UNL     1      27.097  -5.815   2.399  1.00  0.00    -0.198 OA
ENDROOT
BRANCH   1  16
HETATM   16  C1  UNL     1      26.266  -7.772   3.541  1.00  0.00     0.235 C 
BRANCH  16  17
HETATM   17  O1  UNL     1      27.298  -8.335   2.800  1.00  0.00    -0.395 OA
ATOM     18  H1  UNL     1      28.066  -8.454   3.346  1.00  0.00     0.209 HD
ENDBRANCH  16  17
ENDBRANCH   1  16
BRANCH   1  19
HETATM   19  O2  UNL     1      25.007  -5.758   3.206  1.00  0.00    -0.362 OA
ATOM     20  H2  UNL     1      24.478  -5.830   3.991  1.00  0.00     0.213 HD
ENDBRANCH   1  19
TORSDOF 3
ENDMDL
