MODEL 1
REMARK VINA RESULT: -6.575535419      0.000      0.000
REMARK  2 active torsions:
REMARK  status: ('A' for Active; 'I' for Inactive)
REMARK    1  A    between atoms: N1_3  and  C3_5 
REMARK    2  A    between atoms: C8_15  and  N4_16 
ROOT
HETATM    1  C1  UNL     1      17.963   7.152   4.137  1.00  0.00     0.037 C 
HETATM    2  C2  UNL     1      17.011   6.939   3.417  1.00  0.00     0.001 C 
HETATM    3  N1  UNL     1      15.923   6.701   2.596  1.00  0.00    -0.296 N 
ATOM      4  H1  UNL     1      15.572   7.456   2.007  1.00  0.00     0.178 HD
ENDROOT
BRANCH   3   5
HETATM    5  C3  UNL     1      15.274   5.427   2.548  1.00  0.00     0.157 A 
HETATM    6  N2  UNL     1      15.495   4.407   1.727  1.00  0.00    -0.334 N 
HETATM    7  C4  UNL     1      14.801   3.318   1.833  1.00  0.00     0.066 A 
ATOM      8  H2  UNL     1      16.215   4.481   1.010  1.00  0.00     0.168 HD
HETATM    9  C5  UNL     1      13.845   3.267   2.814  1.00  0.00     0.058 A 
HETATM   10  C14 UNL     1      15.157   2.257   0.846  1.00  0.00     0.018 A 
HETATM   11  S1  UNL     1      14.004   4.816   3.539  1.00  0.00    -0.049 SA
HETATM   12  C6  UNL     1      12.854   2.311   3.312  1.00  0.00     0.023 C 
HETATM   13  C7  UNL     1      12.387   2.737   4.657  1.00  0.00     0.069 C 
HETATM   14  N3  UNL     1      12.346   1.252   2.843  1.00  0.00    -0.349 N 
HETATM   15  C8  UNL     1      12.353   0.387   1.732  1.00  0.00     0.387 C 
ATOM     16  H3  UNL     1      11.683   0.887   3.527  1.00  0.00     0.163 HD
HETATM   17  N5  UNL     1      13.497   0.323   0.905  1.00  0.00    -0.346 N 
HETATM   18  C9  UNL     1      14.646   1.056   0.465  1.00  0.00     0.043 A 
ATOM     19  H5  UNL     1      13.509  -0.590   0.450  1.00  0.00     0.163 HD
HETATM   20  C10 UNL     1      15.258   0.309  -0.516  1.00  0.00     0.030 A 
HETATM   21  C11 UNL     1      16.410   0.765  -1.141  1.00  0.00     0.002 A 
HETATM   22  C12 UNL     1      16.936   1.976  -0.765  1.00  0.00     0.001 A 
HETATM   23  C13 UNL     1      16.309   2.706   0.218  1.00  0.00     0.016 A 
BRANCH  15  24
HETATM   24  N4  UNL     1      12.131  -0.972   2.268  1.00  0.00    -0.041 N 
ATOM     25  H43 UNL     1      12.995  -1.480   2.458  1.00  0.00     0.279 HD
ATOM     26  H42 UNL     1      11.771  -0.978   3.222  1.00  0.00     0.279 HD
ATOM     27  H41 UNL     1      11.521  -1.444   1.600  1.00  0.00     0.279 HD
ENDBRANCH  15  24
ENDBRANCH   3   5
TORSDOF 2
ENDMDL
MODEL 2
REMARK VINA RESULT: -6.259388672      1.914      2.887
REMARK  2 active torsions:
REMARK  status: ('A' for Active; 'I' for Inactive)
REMARK    1  A    between atoms: N1_3  and  C3_5 
REMARK    2  A    between atoms: C8_15  and  N4_16 
ROOT
HETATM    1  C1  UNL     1      15.551   8.080   2.420  1.00  0.00     0.037 C 
HETATM    2  C2  UNL     1      15.350   6.985   2.902  1.00  0.00     0.001 C 
HETATM    3  N1  UNL     1      15.124   5.737   3.455  1.00  0.00    -0.296 N 
ATOM      4  H1  UNL     1      14.937   5.666   4.455  1.00  0.00     0.178 HD
ENDROOT
BRANCH   3   5
HETATM    5  C3  UNL     1      15.142   4.544   2.668  1.00  0.00     0.157 A 
HETATM    6  N2  UNL     1      16.129   4.040   1.937  1.00  0.00    -0.334 N 
HETATM    7  C4  UNL     1      15.963   2.935   1.283  1.00  0.00     0.066 A 
ATOM      8  H2  UNL     1      17.024   4.526   1.890  1.00  0.00     0.168 HD
HETATM    9  C5  UNL     1      14.742   2.318   1.378  1.00  0.00     0.058 A 
HETATM   10  C14 UNL     1      17.155   2.488   0.506  1.00  0.00     0.018 A 
HETATM   11  S1  UNL     1      13.892   3.384   2.421  1.00  0.00    -0.049 SA
HETATM   12  C6  UNL     1      14.093   1.113   0.857  1.00  0.00     0.023 C 
HETATM   13  C7  UNL     1      12.873   0.823   1.654  1.00  0.00     0.069 C 
HETATM   14  N3  UNL     1      14.357   0.317  -0.089  1.00  0.00    -0.349 N 
HETATM   15  C8  UNL     1      15.273   0.050  -1.126  1.00  0.00     0.387 C 
ATOM     16  H3  UNL     1      13.635  -0.404  -0.110  1.00  0.00     0.163 HD
HETATM   17  N5  UNL     1      16.601   0.522  -1.021  1.00  0.00    -0.346 N 
HETATM   18  C9  UNL     1      17.425   1.525  -0.417  1.00  0.00     0.043 A 
ATOM     19  H5  UNL     1      17.197  -0.079  -1.589  1.00  0.00     0.163 HD
HETATM   20  C10 UNL     1      18.689   1.389  -0.945  1.00  0.00     0.030 A 
HETATM   21  C11 UNL     1      19.719   2.231  -0.549  1.00  0.00     0.002 A 
HETATM   22  C12 UNL     1      19.459   3.207   0.382  1.00  0.00     0.001 A 
HETATM   23  C13 UNL     1      18.189   3.325   0.897  1.00  0.00     0.016 A 
BRANCH  15  24
HETATM   24  N4  UNL     1      15.345  -1.421  -1.241  1.00  0.00    -0.041 N 
ATOM     25  H43 UNL     1      14.764  -1.912  -0.561  1.00  0.00     0.279 HD
ATOM     26  H42 UNL     1      14.890  -1.786  -2.078  1.00  0.00     0.279 HD
ATOM     27  H41 UNL     1      16.334  -1.662  -1.178  1.00  0.00     0.279 HD
ENDBRANCH  15  24
ENDBRANCH   3   5
TORSDOF 2
ENDMDL
MODEL 3
REMARK VINA RESULT: -6.068349817      1.868      2.769
REMARK  2 active torsions:
REMARK  status: ('A' for Active; 'I' for Inactive)
REMARK    1  A    between atoms: N1_3  and  C3_5 
REMARK    2  A    between atoms: C8_15  and  N4_16 
ROOT
HETATM    1  C1  UNL     1      18.251   7.065   4.380  1.00  0.00     0.037 C 
HETATM    2  C2  UNL     1      17.172   6.584   4.105  1.00  0.00     0.001 C 
HETATM    3  N1  UNL     1      15.939   6.036   3.796  1.00  0.00    -0.296 N 
ATOM      4  H1  UNL     1      15.095   6.489   4.146  1.00  0.00     0.178 HD
ENDROOT
BRANCH   3   5
HETATM    5  C3  UNL     1      15.813   4.854   3.001  1.00  0.00     0.157 A 
HETATM    6  N2  UNL     1      16.708   4.283   2.204  1.00  0.00    -0.334 N 
HETATM    7  C4  UNL     1      16.413   3.202   1.555  1.00  0.00     0.066 A 
ATOM      8  H2  UNL     1      17.633   4.698   2.103  1.00  0.00     0.168 HD
HETATM    9  C5  UNL     1      15.155   2.682   1.726  1.00  0.00     0.058 A 
HETATM   10  C14 UNL     1      17.513   2.671   0.699  1.00  0.00     0.018 A 
HETATM   11  S1  UNL     1      14.461   3.799   2.830  1.00  0.00    -0.049 SA
HETATM   12  C6  UNL     1      14.381   1.537   1.241  1.00  0.00     0.023 C 
HETATM   13  C7  UNL     1      13.196   1.335   2.114  1.00  0.00     0.069 C 
HETATM   14  N3  UNL     1      14.519   0.734   0.274  1.00  0.00    -0.349 N 
HETATM   15  C8  UNL     1      15.342   0.408  -0.822  1.00  0.00     0.387 C 
ATOM     16  H3  UNL     1      13.743   0.073   0.296  1.00  0.00     0.163 HD
HETATM   17  N5  UNL     1      16.708   0.773  -0.800  1.00  0.00    -0.346 N 
HETATM   18  C9  UNL     1      17.646   1.702  -0.246  1.00  0.00     0.043 A 
ATOM     19  H5  UNL     1      17.216   0.134  -1.410  1.00  0.00     0.163 HD
HETATM   20  C10 UNL     1      18.859   1.473  -0.855  1.00  0.00     0.030 A 
HETATM   21  C11 UNL     1      19.975   2.227  -0.522  1.00  0.00     0.002 A 
HETATM   22  C12 UNL     1      19.854   3.209   0.430  1.00  0.00     0.001 A 
HETATM   23  C13 UNL     1      18.633   3.420   1.027  1.00  0.00     0.016 A 
BRANCH  15  24
HETATM   24  N4  UNL     1      15.291  -1.063  -0.951  1.00  0.00    -0.041 N 
ATOM     25  H43 UNL     1      15.554  -1.399  -1.878  1.00  0.00     0.279 HD
ATOM     26  H42 UNL     1      16.026  -1.542  -0.432  1.00  0.00     0.279 HD
ATOM     27  H41 UNL     1      14.349  -1.339  -0.672  1.00  0.00     0.279 HD
ENDBRANCH  15  24
ENDBRANCH   3   5
TORSDOF 2
ENDMDL
MODEL 4
REMARK VINA RESULT: -6.056668640     12.362     14.517
REMARK  2 active torsions:
REMARK  status: ('A' for Active; 'I' for Inactive)
REMARK    1  A    between atoms: N1_3  and  C3_5 
REMARK    2  A    between atoms: C8_15  and  N4_16 
ROOT
HETATM    1  C1  UNL     1      25.234  -7.085   4.391  1.00  0.00     0.037 C 
HETATM    2  C2  UNL     1      26.303  -6.623   4.051  1.00  0.00     0.001 C 
HETATM    3  N1  UNL     1      27.524  -6.097   3.669  1.00  0.00    -0.296 N 
ATOM      4  H1  UNL     1      28.379  -6.582   3.943  1.00  0.00     0.178 HD
ENDROOT
BRANCH   3   5
HETATM    5  C3  UNL     1      27.625  -4.895   2.901  1.00  0.00     0.157 A 
HETATM    6  N2  UNL     1      26.709  -4.311   2.137  1.00  0.00    -0.334 N 
HETATM    7  C4  UNL     1      26.982  -3.213   1.509  1.00  0.00     0.066 A 
ATOM      8  H2  UNL     1      25.784  -4.731   2.046  1.00  0.00     0.168 HD
HETATM    9  C5  UNL     1      28.240  -2.688   1.664  1.00  0.00     0.058 A 
HETATM   10  C14 UNL     1      25.860  -2.670   0.690  1.00  0.00     0.018 A 
HETATM   11  S1  UNL     1      28.966  -3.827   2.725  1.00  0.00    -0.049 SA
HETATM   12  C6  UNL     1      28.995  -1.527   1.190  1.00  0.00     0.023 C 
HETATM   13  C7  UNL     1      30.198  -1.337   2.042  1.00  0.00     0.069 C 
HETATM   14  N3  UNL     1      28.831  -0.701   0.247  1.00  0.00    -0.349 N 
HETATM   15  C8  UNL     1      27.981  -0.355  -0.822  1.00  0.00     0.387 C 
ATOM     16  H3  UNL     1      29.603  -0.035   0.268  1.00  0.00     0.163 HD
HETATM   17  N5  UNL     1      26.619  -0.730  -0.780  1.00  0.00    -0.346 N 
HETATM   18  C9  UNL     1      25.699  -1.679  -0.228  1.00  0.00     0.043 A 
ATOM     19  H5  UNL     1      26.093  -0.080  -1.363  1.00  0.00     0.163 HD
HETATM   20  C10 UNL     1      24.472  -1.444  -0.805  1.00  0.00     0.030 A 
HETATM   21  C11 UNL     1      23.369  -2.214  -0.465  1.00  0.00     0.002 A 
HETATM   22  C12 UNL     1      23.517  -3.218   0.460  1.00  0.00     0.001 A 
HETATM   23  C13 UNL     1      24.753  -3.435   1.024  1.00  0.00     0.016 A 
BRANCH  15  24
HETATM   24  N4  UNL     1      28.020   1.119  -0.917  1.00  0.00    -0.041 N 
ATOM     25  H43 UNL     1      28.430   1.568  -0.098  1.00  0.00     0.279 HD
ATOM     26  H42 UNL     1      28.695   1.464  -1.599  1.00  0.00     0.279 HD
ATOM     27  H41 UNL     1      27.063   1.416  -1.106  1.00  0.00     0.279 HD
ENDBRANCH  15  24
ENDBRANCH   3   5
TORSDOF 2
ENDMDL
MODEL 5
REMARK VINA RESULT: -6.000449445      3.114      5.801
REMARK  2 active torsions:
REMARK  status: ('A' for Active; 'I' for Inactive)
REMARK    1  A    between atoms: N1_3  and  C3_5 
REMARK    2  A    between atoms: C8_15  and  N4_16 
ROOT
HETATM    1  C1  UNL     1      21.959   2.899   5.258  1.00  0.00     0.037 C 
HETATM    2  C2  UNL     1      21.130   2.321   4.588  1.00  0.00     0.001 C 
HETATM    3  N1  UNL     1      20.188   1.658   3.822  1.00  0.00    -0.296 N 
ATOM      4  H1  UNL     1      20.295   0.656   3.663  1.00  0.00     0.178 HD
ENDROOT
BRANCH   3   5
HETATM    5  C3  UNL     1      19.067   2.334   3.245  1.00  0.00     0.157 A 
HETATM    6  N2  UNL     1      18.635   3.570   3.462  1.00  0.00    -0.334 N 
HETATM    7  C4  UNL     1      17.590   4.018   2.842  1.00  0.00     0.066 A 
ATOM      8  H2  UNL     1      19.129   4.171   4.122  1.00  0.00     0.168 HD
HETATM    9  C5  UNL     1      16.961   3.172   1.966  1.00  0.00     0.058 A 
HETATM   10  C14 UNL     1      17.220   5.422   3.183  1.00  0.00     0.018 A 
HETATM   11  S1  UNL     1      17.928   1.758   2.088  1.00  0.00    -0.049 SA
HETATM   12  C6  UNL     1      15.804   3.206   1.069  1.00  0.00     0.023 C 
HETATM   13  C7  UNL     1      15.891   2.078   0.105  1.00  0.00     0.069 C 
HETATM   14  N3  UNL     1      14.800   3.968   0.963  1.00  0.00    -0.349 N 
HETATM   15  C8  UNL     1      14.178   5.107   1.511  1.00  0.00     0.387 C 
ATOM     16  H3  UNL     1      14.224   3.631   0.192  1.00  0.00     0.163 HD
HETATM   17  N5  UNL     1      14.959   6.066   2.196  1.00  0.00    -0.346 N 
HETATM   18  C9  UNL     1      16.173   6.254   2.932  1.00  0.00     0.043 A 
ATOM     19  H5  UNL     1      14.475   6.962   2.147  1.00  0.00     0.163 HD
HETATM   20  C10 UNL     1      16.161   7.540   3.421  1.00  0.00     0.030 A 
HETATM   21  C11 UNL     1      17.217   8.020   4.183  1.00  0.00     0.002 A 
HETATM   22  C12 UNL     1      18.279   7.191   4.444  1.00  0.00     0.001 A 
HETATM   23  C13 UNL     1      18.271   5.909   3.946  1.00  0.00     0.016 A 
BRANCH  15  24
HETATM   24  N4  UNL     1      13.531   5.805   0.381  1.00  0.00    -0.041 N 
ATOM     25  H43 UNL     1      13.904   5.535  -0.530  1.00  0.00     0.279 HD
ATOM     26  H42 UNL     1      12.570   5.506   0.216  1.00  0.00     0.279 HD
ATOM     27  H41 UNL     1      13.619   6.802   0.576  1.00  0.00     0.279 HD
ENDBRANCH  15  24
ENDBRANCH   3   5
TORSDOF 2
ENDMDL
