MODEL 1
REMARK VINA RESULT: -6.699513842      0.000      0.000
REMARK  3 active torsions:
REMARK  status: ('A' for Active; 'I' for Inactive)
REMARK    1  A    between atoms: O1_2  and  C2_3 
REMARK    2  A    between atoms: C2_3  and  C3_5 
REMARK    3  A    between atoms: C5_7  and  C6_8 
ROOT
HETATM    1  C3  UNL     1      21.190  43.302  40.770  1.00  0.00     0.085 C 
HETATM    2  C4  UNL     1      20.116  44.396  40.866  1.00  0.00     0.030 C 
HETATM    3  C5  UNL     1      22.029  43.395  39.551  1.00  0.00     0.068 C 
HETATM    4  C10 UNL     1      23.452  43.711  39.862  1.00  0.00     0.060 C 
HETATM    5  N1  UNL     1      24.131  44.596  39.235  1.00  0.00    -0.399 N 
ATOM      6  H11 UNL     1      25.105  44.812  39.448  1.00  0.00     0.156 HD
ATOM      7  H12 UNL     1      23.676  45.087  38.466  1.00  0.00     0.156 HD
HETATM    8  C11 UNL     1      24.113  42.998  40.980  1.00  0.00     0.159 C 
HETATM    9  N2  UNL     1      25.329  42.702  40.958  1.00  0.00    -0.378 N 
ATOM     10  H21 UNL     1      25.785  42.211  41.728  1.00  0.00     0.158 HD
ATOM     11  H22 UNL     1      25.984  42.905  40.203  1.00  0.00     0.158 HD
HETATM   12  O3  UNL     1      23.202  42.715  42.030  1.00  0.00    -0.323 OA
HETATM   13  C12 UNL     1      22.082  43.617  42.003  1.00  0.00     0.079 C 
HETATM   14  C13 UNL     1      22.478  45.051  42.061  1.00  0.00     0.047 C 
HETATM   15  C14 UNL     1      21.248  43.310  43.240  1.00  0.00     0.047 C 
ENDROOT
BRANCH   1  16
HETATM   16  C2  UNL     1      20.575  41.997  41.075  1.00  0.00     0.270 C 
HETATM   17  O2  UNL     1      19.341  41.881  41.302  1.00  0.00    -0.264 OA
BRANCH  16  18
HETATM   18  O1  UNL     1      21.299  40.817  41.135  1.00  0.00    -0.326 OA
HETATM   19  C1  UNL     1      21.259  39.953  42.256  1.00  0.00     0.213 C 
ENDBRANCH  16  18
ENDBRANCH   1  16
BRANCH   3  20
HETATM   20  C6  UNL     1      21.981  42.343  38.529  1.00  0.00    -0.041 C 
HETATM   21  C7  UNL     1      22.441  42.959  37.195  1.00  0.00     0.015 C 
HETATM   22  C8  UNL     1      20.597  41.814  38.217  1.00  0.00     0.015 C 
HETATM   23  C9  UNL     1      22.877  41.151  38.745  1.00  0.00     0.015 C 
ENDBRANCH   3  20
TORSDOF 3
ENDMDL
MODEL 2
REMARK VINA RESULT: -6.680386293      2.425      3.947
REMARK  3 active torsions:
REMARK  status: ('A' for Active; 'I' for Inactive)
REMARK    1  A    between atoms: O1_2  and  C2_3 
REMARK    2  A    between atoms: C2_3  and  C3_5 
REMARK    3  A    between atoms: C5_7  and  C6_8 
ROOT
HETATM    1  C3  UNL     1      22.520  41.915  40.788  1.00  0.00     0.085 C 
HETATM    2  C4  UNL     1      23.613  40.841  40.881  1.00  0.00     0.030 C 
HETATM    3  C5  UNL     1      21.690  41.818  39.562  1.00  0.00     0.068 C 
HETATM    4  C10 UNL     1      20.272  41.473  39.863  1.00  0.00     0.060 C 
HETATM    5  N1  UNL     1      19.612  40.582  39.225  1.00  0.00    -0.399 N 
ATOM      6  H11 UNL     1      18.642  40.346  39.430  1.00  0.00     0.156 HD
ATOM      7  H12 UNL     1      20.081  40.106  38.453  1.00  0.00     0.156 HD
HETATM    8  C11 UNL     1      19.591  42.164  40.983  1.00  0.00     0.159 C 
HETATM    9  N2  UNL     1      18.369  42.438  40.957  1.00  0.00    -0.378 N 
ATOM     10  H21 UNL     1      17.901  42.914  41.728  1.00  0.00     0.158 HD
ATOM     11  H22 UNL     1      17.723  42.230  40.196  1.00  0.00     0.158 HD
HETATM   12  O3  UNL     1      20.491  42.454  42.041  1.00  0.00    -0.323 OA
HETATM   13  C12 UNL     1      21.627  41.573  42.012  1.00  0.00     0.079 C 
HETATM   14  C13 UNL     1      21.258  40.132  42.055  1.00  0.00     0.047 C 
HETATM   15  C14 UNL     1      22.449  41.885  43.257  1.00  0.00     0.047 C 
ENDROOT
BRANCH   1  16
HETATM   16  C2  UNL     1      23.110  43.229  41.108  1.00  0.00     0.270 C 
HETATM   17  O2  UNL     1      24.345  43.372  41.309  1.00  0.00    -0.264 OA
BRANCH  16  18
HETATM   18  O1  UNL     1      22.357  44.389  41.209  1.00  0.00    -0.326 OA
HETATM   19  C1  UNL     1      22.450  45.263  42.320  1.00  0.00     0.213 C 
ENDBRANCH  16  18
ENDBRANCH   1  16
BRANCH   3  20
HETATM   20  C6  UNL     1      21.725  42.880  38.551  1.00  0.00    -0.041 C 
HETATM   21  C7  UNL     1      21.215  42.284  37.225  1.00  0.00     0.015 C 
HETATM   22  C8  UNL     1      23.107  43.389  38.202  1.00  0.00     0.015 C 
HETATM   23  C9  UNL     1      20.855  44.084  38.804  1.00  0.00     0.015 C 
ENDBRANCH   3  20
TORSDOF 3
ENDMDL
MODEL 3
REMARK VINA RESULT: -6.238757781      1.817      3.994
REMARK  3 active torsions:
REMARK  status: ('A' for Active; 'I' for Inactive)
REMARK    1  A    between atoms: O1_2  and  C2_3 
REMARK    2  A    between atoms: C2_3  and  C3_5 
REMARK    3  A    between atoms: C5_7  and  C6_8 
ROOT
HETATM    1  C3  UNL     1      22.891  42.210  41.107  1.00  0.00     0.085 C 
HETATM    2  C4  UNL     1      24.381  41.871  40.953  1.00  0.00     0.030 C 
HETATM    3  C5  UNL     1      22.616  43.235  42.143  1.00  0.00     0.068 C 
HETATM    4  C10 UNL     1      22.070  44.495  41.565  1.00  0.00     0.060 C 
HETATM    5  N1  UNL     1      22.488  45.660  41.891  1.00  0.00    -0.399 N 
ATOM      6  H11 UNL     1      22.114  46.522  41.495  1.00  0.00     0.156 HD
ATOM      7  H12 UNL     1      23.215  45.721  42.604  1.00  0.00     0.156 HD
HETATM    8  C11 UNL     1      21.014  44.406  40.529  1.00  0.00     0.159 C 
HETATM    9  N2  UNL     1      20.102  45.258  40.428  1.00  0.00    -0.378 N 
ATOM     10  H21 UNL     1      19.376  45.197  39.715  1.00  0.00     0.158 HD
ATOM     11  H22 UNL     1      19.979  46.080  41.020  1.00  0.00     0.158 HD
HETATM   12  O3  UNL     1      21.186  43.263  39.706  1.00  0.00    -0.323 OA
HETATM   13  C12 UNL     1      22.553  42.816  39.717  1.00  0.00     0.079 C 
HETATM   14  C13 UNL     1      23.522  43.871  39.311  1.00  0.00     0.047 C 
HETATM   15  C14 UNL     1      22.645  41.679  38.707  1.00  0.00     0.047 C 
ENDROOT
BRANCH   1  16
HETATM   16  C2  UNL     1      22.117  40.956  41.169  1.00  0.00     0.270 C 
HETATM   17  O2  UNL     1      20.962  40.863  40.673  1.00  0.00    -0.264 OA
BRANCH  16  18
HETATM   18  O1  UNL     1      22.596  39.802  41.769  1.00  0.00    -0.326 OA
HETATM   19  C1  UNL     1      21.926  39.166  42.843  1.00  0.00     0.213 C 
ENDBRANCH  16  18
ENDBRANCH   1  16
BRANCH   3  20
HETATM   20  C6  UNL     1      21.860  42.891  43.352  1.00  0.00    -0.041 C 
HETATM   21  C7  UNL     1      21.634  44.187  44.152  1.00  0.00     0.015 C 
HETATM   22  C8  UNL     1      22.587  41.993  44.330  1.00  0.00     0.015 C 
HETATM   23  C9  UNL     1      20.486  42.307  43.147  1.00  0.00     0.015 C 
ENDBRANCH   3  20
TORSDOF 3
ENDMDL
MODEL 4
REMARK VINA RESULT: -6.235232978      2.181      4.422
REMARK  3 active torsions:
REMARK  status: ('A' for Active; 'I' for Inactive)
REMARK    1  A    between atoms: O1_2  and  C2_3 
REMARK    2  A    between atoms: C2_3  and  C3_5 
REMARK    3  A    between atoms: C5_7  and  C6_8 
ROOT
HETATM    1  C3  UNL     1      20.804  42.965  41.132  1.00  0.00     0.085 C 
HETATM    2  C4  UNL     1      19.318  43.322  40.978  1.00  0.00     0.030 C 
HETATM    3  C5  UNL     1      21.068  41.950  42.181  1.00  0.00     0.068 C 
HETATM    4  C10 UNL     1      21.595  40.675  41.618  1.00  0.00     0.060 C 
HETATM    5  N1  UNL     1      21.163  39.520  41.960  1.00  0.00    -0.399 N 
ATOM      6  H11 UNL     1      21.524  38.648  41.575  1.00  0.00     0.156 HD
ATOM      7  H12 UNL     1      20.437  39.478  42.677  1.00  0.00     0.156 HD
HETATM    8  C11 UNL     1      22.649  40.736  40.578  1.00  0.00     0.159 C 
HETATM    9  N2  UNL     1      23.549  39.870  40.486  1.00  0.00    -0.378 N 
ATOM     10  H21 UNL     1      24.274  39.912  39.770  1.00  0.00     0.158 HD
ATOM     11  H22 UNL     1      23.663  39.055  41.088  1.00  0.00     0.158 HD
HETATM   12  O3  UNL     1      22.490  41.870  39.741  1.00  0.00    -0.323 OA
HETATM   13  C12 UNL     1      21.130  42.335  39.750  1.00  0.00     0.079 C 
HETATM   14  C13 UNL     1      20.145  41.289  39.360  1.00  0.00     0.047 C 
HETATM   15  C14 UNL     1      21.050  43.460  38.725  1.00  0.00     0.047 C 
ENDROOT
BRANCH   1  16
HETATM   16  C2  UNL     1      21.595  44.209  41.175  1.00  0.00     0.270 C 
HETATM   17  O2  UNL     1      22.744  44.284  40.662  1.00  0.00    -0.264 OA
BRANCH  16  18
HETATM   18  O1  UNL     1      21.140  45.372  41.775  1.00  0.00    -0.326 OA
HETATM   19  C1  UNL     1      21.846  46.018  42.820  1.00  0.00     0.213 C 
ENDBRANCH  16  18
ENDBRANCH   1  16
BRANCH   3  20
HETATM   20  C6  UNL     1      21.833  42.299  43.383  1.00  0.00    -0.041 C 
HETATM   21  C7  UNL     1      22.043  41.011  44.200  1.00  0.00     0.015 C 
HETATM   22  C8  UNL     1      21.121  43.220  44.351  1.00  0.00     0.015 C 
HETATM   23  C9  UNL     1      23.214  42.861  43.166  1.00  0.00     0.015 C 
ENDBRANCH   3  20
TORSDOF 3
ENDMDL
MODEL 5
REMARK VINA RESULT: -6.065845562      2.167      4.365
REMARK  3 active torsions:
REMARK  status: ('A' for Active; 'I' for Inactive)
REMARK    1  A    between atoms: O1_2  and  C2_3 
REMARK    2  A    between atoms: C2_3  and  C3_5 
REMARK    3  A    between atoms: C5_7  and  C6_8 
ROOT
HETATM    1  C3  UNL     1      20.522  42.869  41.009  1.00  0.00     0.085 C 
HETATM    2  C4  UNL     1      19.004  43.067  40.879  1.00  0.00     0.030 C 
HETATM    3  C5  UNL     1      20.919  42.054  42.182  1.00  0.00     0.068 C 
HETATM    4  C10 UNL     1      21.543  40.759  41.788  1.00  0.00     0.060 C 
HETATM    5  N1  UNL     1      21.234  39.636  42.319  1.00  0.00    -0.399 N 
ATOM      6  H11 UNL     1      21.661  38.750  42.050  1.00  0.00     0.156 HD
ATOM      7  H12 UNL     1      20.543  39.640  43.070  1.00  0.00     0.156 HD
HETATM    8  C11 UNL     1      22.547  40.752  40.698  1.00  0.00     0.159 C 
HETATM    9  N2  UNL     1      23.521  39.965  40.690  1.00  0.00    -0.378 N 
ATOM     10  H21 UNL     1      24.212  39.961  39.939  1.00  0.00     0.158 HD
ATOM     11  H22 UNL     1      23.733  39.264  41.400  1.00  0.00     0.158 HD
HETATM   12  O3  UNL     1      22.251  41.727  39.711  1.00  0.00    -0.323 OA
HETATM   13  C12 UNL     1      20.854  42.068  39.720  1.00  0.00     0.079 C 
HETATM   14  C13 UNL     1      19.958  40.892  39.541  1.00  0.00     0.047 C 
HETATM   15  C14 UNL     1      20.631  43.012  38.545  1.00  0.00     0.047 C 
ENDROOT
BRANCH   1  16
HETATM   16  C2  UNL     1      21.194  44.170  40.826  1.00  0.00     0.270 C 
HETATM   17  O2  UNL     1      20.595  45.261  41.027  1.00  0.00    -0.264 OA
BRANCH  16  18
HETATM   18  O1  UNL     1      22.515  44.287  40.425  1.00  0.00    -0.326 OA
HETATM   19  C1  UNL     1      23.388  45.269  40.954  1.00  0.00     0.213 C 
ENDBRANCH  16  18
ENDBRANCH   1  16
BRANCH   3  20
HETATM   20  C6  UNL     1      21.692  42.648  43.278  1.00  0.00    -0.041 C 
HETATM   21  C7  UNL     1      21.502  41.761  44.523  1.00  0.00     0.015 C 
HETATM   22  C8  UNL     1      21.213  44.009  43.736  1.00  0.00     0.015 C 
HETATM   23  C9  UNL     1      23.182  42.741  43.081  1.00  0.00     0.015 C 
ENDBRANCH   3  20
TORSDOF 3
ENDMDL
