MODEL 1
REMARK VINA RESULT: -7.465156394      0.000      0.000
REMARK  3 active torsions:
REMARK  status: ('A' for Active; 'I' for Inactive)
REMARK    1  A    between atoms: C2_2  and  S1_3 
REMARK    2  A    between atoms: S1_3  and  C3_4 
REMARK    3  A    between atoms: N2_9  and  C6_10 
ROOT
HETATM    1  C6  UNL     1      12.510  42.452  56.759  1.00  0.00     0.360 C 
HETATM    2  C7  UNL     1      13.800  41.793  57.155  1.00  0.00     0.268 C 
HETATM    3  O1  UNL     1      13.462  40.545  57.704  1.00  0.00    -0.234 OA
HETATM    4  O2  UNL     1      12.254  40.161  57.344  1.00  0.00    -0.197 OA
HETATM    5  C8  UNL     1      11.254  40.935  57.976  1.00  0.00     0.294 C 
HETATM    6  C9  UNL     1      10.011  40.769  57.130  1.00  0.00     0.075 C 
HETATM    7  C10 UNL     1       9.575  39.321  57.235  1.00  0.00     0.005 C 
HETATM    8  C11 UNL     1       8.712  39.025  58.405  1.00  0.00     0.000 C 
HETATM    9  C12 UNL     1       8.442  40.174  59.314  1.00  0.00     0.000 C 
HETATM   10  C13 UNL     1       9.641  40.860  59.859  1.00  0.00     0.005 C 
HETATM   11  C14 UNL     1      10.953  40.352  59.309  1.00  0.00     0.075 C 
HETATM   12  N3  UNL     1      11.638  42.313  57.937  1.00  0.00     0.148 N 
HETATM   13  C15 UNL     1      12.258  42.813  59.120  1.00  0.00     0.317 C 
ENDROOT
BRANCH   1  14
HETATM   14  N2  UNL     1      12.618  43.803  56.298  1.00  0.00    -0.303 N 
HETATM   15  C3  UNL     1      11.608  44.490  55.758  1.00  0.00     0.148 A 
HETATM   16  N1  UNL     1      12.085  45.710  55.459  1.00  0.00    -0.345 N 
HETATM   17  C4  UNL     1      13.376  45.793  55.803  1.00  0.00     0.107 A 
ATOM     18  H1  UNL     1      11.544  46.462  55.032  1.00  0.00     0.167 HD
HETATM   19  C5  UNL     1      13.717  44.582  56.338  1.00  0.00     0.112 A 
BRANCH  15  20
HETATM   20  S1  UNL     1       9.903  43.948  55.469  1.00  0.00    -0.094 SA
BRANCH  20  21
HETATM   21  C2  UNL     1       9.154  44.990  54.192  1.00  0.00     0.078 C 
HETATM   22  C1  UNL     1       8.433  46.141  54.861  1.00  0.00     0.016 C 
ENDBRANCH  20  21
ENDBRANCH  15  20
ENDBRANCH   1  14
TORSDOF 3
ENDMDL
MODEL 2
REMARK VINA RESULT: -7.225607905      0.956      1.074
REMARK  3 active torsions:
REMARK  status: ('A' for Active; 'I' for Inactive)
REMARK    1  A    between atoms: C2_2  and  S1_3 
REMARK    2  A    between atoms: S1_3  and  C3_4 
REMARK    3  A    between atoms: N2_9  and  C6_10 
ROOT
HETATM    1  C6  UNL     1      12.471  42.428  56.745  1.00  0.00     0.360 C 
HETATM    2  C7  UNL     1      13.749  41.741  57.130  1.00  0.00     0.268 C 
HETATM    3  O1  UNL     1      13.391  40.488  57.653  1.00  0.00    -0.234 OA
HETATM    4  O2  UNL     1      12.178  40.131  57.284  1.00  0.00    -0.197 OA
HETATM    5  C8  UNL     1      11.188  40.907  57.929  1.00  0.00     0.294 C 
HETATM    6  C9  UNL     1       9.945  40.778  57.078  1.00  0.00     0.075 C 
HETATM    7  C10 UNL     1       9.486  39.336  57.153  1.00  0.00     0.005 C 
HETATM    8  C11 UNL     1       8.616  39.030  58.316  1.00  0.00     0.000 C 
HETATM    9  C12 UNL     1       8.361  40.165  59.246  1.00  0.00     0.000 C 
HETATM   10  C13 UNL     1       9.570  40.821  59.807  1.00  0.00     0.005 C 
HETATM   11  C14 UNL     1      10.876  40.303  59.250  1.00  0.00     0.075 C 
HETATM   12  N3  UNL     1      11.594  42.279  57.918  1.00  0.00     0.148 N 
HETATM   13  C15 UNL     1      12.219  42.746  59.112  1.00  0.00     0.317 C 
ENDROOT
BRANCH   1  14
HETATM   14  N2  UNL     1      12.601  43.786  56.311  1.00  0.00    -0.303 N 
HETATM   15  C3  UNL     1      11.619  44.483  55.733  1.00  0.00     0.148 A 
HETATM   16  N1  UNL     1      12.110  45.707  55.476  1.00  0.00    -0.345 N 
HETATM   17  C4  UNL     1      13.383  45.783  55.885  1.00  0.00     0.107 A 
ATOM     18  H1  UNL     1      11.590  46.465  55.035  1.00  0.00     0.167 HD
HETATM   19  C5  UNL     1      13.697  44.563  56.416  1.00  0.00     0.112 A 
BRANCH  15  20
HETATM   20  S1  UNL     1       9.930  43.946  55.352  1.00  0.00    -0.094 SA
BRANCH  20  21
HETATM   21  C2  UNL     1       9.965  42.838  53.921  1.00  0.00     0.078 C 
HETATM   22  C1  UNL     1      11.078  43.276  52.991  1.00  0.00     0.016 C 
ENDBRANCH  20  21
ENDBRANCH  15  20
ENDBRANCH   1  14
TORSDOF 3
ENDMDL
MODEL 3
REMARK VINA RESULT: -7.063362455      1.237      1.538
REMARK  3 active torsions:
REMARK  status: ('A' for Active; 'I' for Inactive)
REMARK    1  A    between atoms: C2_2  and  S1_3 
REMARK    2  A    between atoms: S1_3  and  C3_4 
REMARK    3  A    between atoms: N2_9  and  C6_10 
ROOT
HETATM    1  C6  UNL     1      12.794  43.299  55.766  1.00  0.00     0.360 C 
HETATM    2  C7  UNL     1      14.190  42.751  55.683  1.00  0.00     0.268 C 
HETATM    3  O1  UNL     1      14.201  41.562  56.432  1.00  0.00    -0.234 OA
HETATM    4  O2  UNL     1      12.987  41.084  56.611  1.00  0.00    -0.197 OA
HETATM    5  C8  UNL     1      12.241  41.880  57.510  1.00  0.00     0.294 C 
HETATM    6  C9  UNL     1      10.789  41.558  57.237  1.00  0.00     0.075 C 
HETATM    7  C10 UNL     1      10.556  40.115  57.635  1.00  0.00     0.005 C 
HETATM    8  C11 UNL     1      10.238  39.919  59.072  1.00  0.00     0.000 C 
HETATM    9  C12 UNL     1      10.237  41.155  59.905  1.00  0.00     0.000 C 
HETATM   10  C13 UNL     1      11.487  41.955  59.872  1.00  0.00     0.005 C 
HETATM   11  C14 UNL     1      12.528  41.446  58.901  1.00  0.00     0.075 C 
HETATM   12  N3  UNL     1      12.457  43.260  57.198  1.00  0.00     0.148 N 
HETATM   13  C15 UNL     1      13.437  43.924  57.993  1.00  0.00     0.317 C 
ENDROOT
BRANCH   1  14
HETATM   14  N2  UNL     1      12.597  44.589  55.178  1.00  0.00    -0.303 N 
HETATM   15  C3  UNL     1      11.398  45.110  54.906  1.00  0.00     0.148 A 
HETATM   16  N1  UNL     1      11.614  46.324  54.373  1.00  0.00    -0.345 N 
HETATM   17  C4  UNL     1      12.929  46.567  54.309  1.00  0.00     0.107 A 
ATOM     18  H1  UNL     1      10.884  46.966  54.064  1.00  0.00     0.167 HD
HETATM   19  C5  UNL     1      13.556  45.466  54.821  1.00  0.00     0.112 A 
BRANCH  15  20
HETATM   20  S1  UNL     1       9.762  44.380  55.187  1.00  0.00    -0.094 SA
BRANCH  20  21
HETATM   21  C2  UNL     1       8.542  45.243  54.165  1.00  0.00     0.078 C 
HETATM   22  C1  UNL     1       8.071  46.479  54.904  1.00  0.00     0.016 C 
ENDBRANCH  20  21
ENDBRANCH  15  20
ENDBRANCH   1  14
TORSDOF 3
ENDMDL
MODEL 4
REMARK VINA RESULT: -7.056402424      2.254      5.527
REMARK  3 active torsions:
REMARK  status: ('A' for Active; 'I' for Inactive)
REMARK    1  A    between atoms: C2_2  and  S1_3 
REMARK    2  A    between atoms: S1_3  and  C3_4 
REMARK    3  A    between atoms: N2_9  and  C6_10 
ROOT
HETATM    1  C6  UNL     1      11.948  43.023  58.108  1.00  0.00     0.360 C 
HETATM    2  C7  UNL     1      12.891  43.510  59.170  1.00  0.00     0.268 C 
HETATM    3  O1  UNL     1      13.690  44.501  58.576  1.00  0.00    -0.234 OA
HETATM    4  O2  UNL     1      13.139  44.984  57.481  1.00  0.00    -0.197 OA
HETATM    5  C8  UNL     1      13.169  44.043  56.426  1.00  0.00     0.294 C 
HETATM    6  C9  UNL     1      12.099  44.484  55.452  1.00  0.00     0.075 C 
HETATM    7  C10 UNL     1      12.533  45.813  54.866  1.00  0.00     0.005 C 
HETATM    8  C11 UNL     1      13.432  45.699  53.690  1.00  0.00     0.000 C 
HETATM    9  C12 UNL     1      13.802  44.311  53.295  1.00  0.00     0.000 C 
HETATM   10  C13 UNL     1      14.420  43.481  54.360  1.00  0.00     0.005 C 
HETATM   11  C14 UNL     1      14.470  44.144  55.717  1.00  0.00     0.075 C 
HETATM   12  N3  UNL     1      12.801  42.758  56.938  1.00  0.00     0.148 N 
HETATM   13  C15 UNL     1      13.886  41.889  57.255  1.00  0.00     0.317 C 
ENDROOT
BRANCH   1  14
HETATM   14  N2  UNL     1      11.129  41.906  58.468  1.00  0.00    -0.303 N 
HETATM   15  C3  UNL     1      10.265  41.315  57.639  1.00  0.00     0.148 A 
HETATM   16  N1  UNL     1       9.692  40.312  58.325  1.00  0.00    -0.345 N 
HETATM   17  C4  UNL     1      10.185  40.269  59.569  1.00  0.00     0.107 A 
ATOM     18  H1  UNL     1       8.986  39.676  57.953  1.00  0.00     0.167 HD
HETATM   19  C5  UNL     1      11.099  41.282  59.662  1.00  0.00     0.112 A 
BRANCH  15  20
HETATM   20  S1  UNL     1       9.899  41.727  55.912  1.00  0.00    -0.094 SA
BRANCH  20  21
HETATM   21  C2  UNL     1      10.609  40.458  54.833  1.00  0.00     0.078 C 
HETATM   22  C1  UNL     1      11.598  41.114  53.892  1.00  0.00     0.016 C 
ENDBRANCH  20  21
ENDBRANCH  15  20
ENDBRANCH   1  14
TORSDOF 3
ENDMDL
MODEL 5
REMARK VINA RESULT: -6.786180836      2.652      5.707
REMARK  3 active torsions:
REMARK  status: ('A' for Active; 'I' for Inactive)
REMARK    1  A    between atoms: C2_2  and  S1_3 
REMARK    2  A    between atoms: S1_3  and  C3_4 
REMARK    3  A    between atoms: N2_9  and  C6_10 
ROOT
HETATM    1  C6  UNL     1      10.806  41.472  59.267  1.00  0.00     0.360 C 
HETATM    2  C7  UNL     1      11.942  42.221  59.904  1.00  0.00     0.268 C 
HETATM    3  O1  UNL     1      12.368  43.178  58.969  1.00  0.00    -0.234 OA
HETATM    4  O2  UNL     1      11.449  43.416  58.056  1.00  0.00    -0.197 OA
HETATM    5  C8  UNL     1      11.299  42.324  57.171  1.00  0.00     0.294 C 
HETATM    6  C9  UNL     1       9.933  42.488  56.543  1.00  0.00     0.075 C 
HETATM    7  C10 UNL     1       9.969  43.740  55.690  1.00  0.00     0.005 C 
HETATM    8  C11 UNL     1      10.480  43.528  54.313  1.00  0.00     0.000 C 
HETATM    9  C12 UNL     1      10.916  42.139  53.994  1.00  0.00     0.000 C 
HETATM   10  C13 UNL     1      11.941  41.563  54.900  1.00  0.00     0.005 C 
HETATM   11  C14 UNL     1      12.297  42.440  56.077  1.00  0.00     0.075 C 
HETATM   12  N3  UNL     1      11.298  41.109  57.928  1.00  0.00     0.148 N 
HETATM   13  C15 UNL     1      12.544  40.420  57.988  1.00  0.00     0.317 C 
ENDROOT
BRANCH   1  14
HETATM   14  N2  UNL     1      10.308  40.351  60.005  1.00  0.00    -0.303 N 
HETATM   15  C3  UNL     1       9.323  39.556  59.582  1.00  0.00     0.148 A 
HETATM   16  N1  UNL     1       9.142  38.622  60.530  1.00  0.00    -0.345 N 
HETATM   17  C4  UNL     1       9.999  38.824  61.539  1.00  0.00     0.107 A 
ATOM     18  H1  UNL     1       8.454  37.871  60.488  1.00  0.00     0.167 HD
HETATM   19  C5  UNL     1      10.742  39.922  61.207  1.00  0.00     0.112 A 
BRANCH  15  20
HETATM   20  S1  UNL     1       8.382  39.655  58.035  1.00  0.00    -0.094 SA
BRANCH  20  21
HETATM   21  C2  UNL     1       7.486  38.103  57.783  1.00  0.00     0.078 C 
HETATM   22  C1  UNL     1       6.151  38.187  58.495  1.00  0.00     0.016 C 
ENDBRANCH  20  21
ENDBRANCH  15  20
ENDBRANCH   1  14
TORSDOF 3
ENDMDL
