MODEL 1
REMARK VINA RESULT: -9.655981265      0.000      0.000
REMARK  19 active torsions:
REMARK  status: ('A' for Active; 'I' for Inactive)
REMARK    1  A    between atoms: C2_2  and  C3_3 
REMARK    2  A    between atoms: C3_3  and  C4_4 
REMARK    3  A    between atoms: C4_4  and  C5_5 
REMARK    4  A    between atoms: C5_5  and  N1_6 
REMARK    5  A    between atoms: N1_6  and  C6_7 
REMARK       I    between atoms: N1_6  and  C20_25 
REMARK    6  A    between atoms: C6_7  and  C7_8 
REMARK    7  A    between atoms: C8_9  and  C9_10 
REMARK    8  A    between atoms: C9_10  and  C10_11 
REMARK    9  A    between atoms: C20_25  and  C21_27 
REMARK   10  A    between atoms: C21_27  and  C22_28 
REMARK   11  A    between atoms: C22_28  and  C23_29 
REMARK   12  A    between atoms: C23_29  and  C24_30 
REMARK   13  A    between atoms: C25_31  and  C26_32 
REMARK   14  A    between atoms: C26_32  and  O3_33 
REMARK   15  A    between atoms: O3_33  and  C27_34 
REMARK   16  A    between atoms: C28_36  and  C29_37 
REMARK   17  A    between atoms: C31_39  and  O5_40 
REMARK   18  A    between atoms: C32_42  and  O6_43 
REMARK   19  A    between atoms: C33_45  and  O7_46 
ROOT
HETATM    1  N1  UNL     1      20.530  30.280  13.245  1.00  0.00    -0.349 N 
HETATM    2  C20 UNL     1      21.101  29.023  12.887  1.00  0.00     0.220 C 
HETATM    3  O2  UNL     1      20.653  27.993  13.421  1.00  0.00    -0.273 OA
ENDROOT
BRANCH   1   4
HETATM    4  C5  UNL     1      21.007  31.517  12.670  1.00  0.00     0.126 C 
BRANCH   4   5
HETATM    5  C4  UNL     1      21.605  32.379  13.731  1.00  0.00     0.020 C 
BRANCH   5   6
HETATM    6  C3  UNL     1      22.941  31.830  14.211  1.00  0.00     0.001 C 
BRANCH   6   7
HETATM    7  C2  UNL     1      23.869  32.947  14.630  1.00  0.00    -0.004 C 
HETATM    8  C1  UNL     1      23.225  33.631  15.827  1.00  0.00     0.005 C 
ENDBRANCH   6   7
ENDBRANCH   5   6
ENDBRANCH   4   5
ENDBRANCH   1   4
BRANCH   1   9
HETATM    9  C6  UNL     1      19.418  30.267  14.194  1.00  0.00     0.152 C 
BRANCH   9  10
HETATM   10  C7  UNL     1      18.248  31.041  13.726  1.00  0.00    -0.011 C 
HETATM   11  C8  UNL     1      17.302  31.537  14.464  1.00  0.00    -0.024 C 
BRANCH  11  12
HETATM   12  C9  UNL     1      17.238  31.406  15.926  1.00  0.00     0.071 C 
BRANCH  12  13
HETATM   13  C10 UNL     1      17.352  32.734  16.604  1.00  0.00     0.014 A 
HETATM   14  C11 UNL     1      16.182  33.423  16.916  1.00  0.00     0.029 A 
HETATM   15  C12 UNL     1      16.252  34.654  17.537  1.00  0.00     0.030 A 
HETATM   16  C13 UNL     1      15.104  35.368  17.863  1.00  0.00     0.131 A 
HETATM   17  C17 UNL     1      17.468  35.217  17.856  1.00  0.00     0.053 A 
HETATM   18  F1  UNL     1      13.926  34.791  17.538  1.00  0.00    -0.205 F 
HETATM   19  C14 UNL     1      15.166  36.584  18.477  1.00  0.00     0.085 A 
HETATM   20  C15 UNL     1      16.384  37.143  18.794  1.00  0.00     0.121 A 
HETATM   21  F2  UNL     1      16.503  38.357  19.407  1.00  0.00    -0.206 F 
HETATM   22  C16 UNL     1      17.545  36.453  18.481  1.00  0.00     0.073 A 
HETATM   23  N2  UNL     1      18.592  34.543  17.551  1.00  0.00    -0.317 N 
HETATM   24  C18 UNL     1      19.855  35.156  17.896  1.00  0.00     0.159 C 
HETATM   25  C19 UNL     1      18.536  33.325  16.936  1.00  0.00     0.254 A 
HETATM   26  O1  UNL     1      19.611  32.730  16.669  1.00  0.00    -0.267 OA
ENDBRANCH  12  13
ENDBRANCH  11  12
ENDBRANCH   9  10
ENDBRANCH   1   9
BRANCH   2  27
HETATM   27  C21 UNL     1      22.200  28.924  11.908  1.00  0.00     0.103 C 
BRANCH  27  28
HETATM   28  C22 UNL     1      23.335  28.053  12.304  1.00  0.00     0.013 C 
BRANCH  28  29
HETATM   29  C23 UNL     1      24.318  27.731  11.191  1.00  0.00     0.027 C 
BRANCH  29  30
HETATM   30  C24 UNL     1      24.872  26.397  11.476  1.00  0.00    -0.029 C 
HETATM   31  C25 UNL     1      24.335  25.287  11.061  1.00  0.00    -0.005 C 
BRANCH  31  32
HETATM   32  C26 UNL     1      23.122  25.153  10.262  1.00  0.00     0.198 C 
BRANCH  32  33
HETATM   33  O3  UNL     1      22.104  24.626  11.086  1.00  0.00    -0.355 OA
BRANCH  33  34
HETATM   34  C27 UNL     1      20.833  24.833  10.525  1.00  0.00     0.291 C 
HETATM   35  O4  UNL     1      20.363  26.050  10.933  1.00  0.00    -0.351 OA
HETATM   36  C28 UNL     1      19.003  26.193  10.896  1.00  0.00     0.155 C 
HETATM   37  C31 UNL     1      18.336  25.274   9.895  1.00  0.00     0.178 C 
HETATM   38  C32 UNL     1      18.603  23.828  10.203  1.00  0.00     0.183 C 
HETATM   39  C33 UNL     1      19.940  23.660  10.839  1.00  0.00     0.204 C 
BRANCH  36  40
HETATM   40  C29 UNL     1      18.684  27.616  10.484  1.00  0.00     0.030 C 
HETATM   41  C30 UNL     1      17.637  28.234  11.383  1.00  0.00     0.007 C 
ENDBRANCH  36  40
BRANCH  37  42
HETATM   42  O5  UNL     1      18.675  25.620   8.589  1.00  0.00    -0.390 OA
ATOM     43  H5  UNL     1      17.902  25.825   8.075  1.00  0.00     0.210 HD
ENDBRANCH  37  42
BRANCH  38  44
HETATM   44  O6  UNL     1      18.588  23.141   8.991  1.00  0.00    -0.390 OA
ATOM     45  H6  UNL     1      18.745  22.225   9.187  1.00  0.00     0.210 HD
ENDBRANCH  38  44
BRANCH  39  46
HETATM   46  O7  UNL     1      19.874  23.380  12.201  1.00  0.00    -0.388 OA
ATOM     47  H7  UNL     1      20.720  23.161  12.574  1.00  0.00     0.210 HD
ENDBRANCH  39  46
ENDBRANCH  33  34
ENDBRANCH  32  33
ENDBRANCH  31  32
ENDBRANCH  29  30
ENDBRANCH  28  29
ENDBRANCH  27  28
ENDBRANCH   2  27
TORSDOF 19
ENDMDL
MODEL 2
REMARK VINA RESULT: -9.480836159      4.134     11.067
REMARK  19 active torsions:
REMARK  status: ('A' for Active; 'I' for Inactive)
REMARK    1  A    between atoms: C2_2  and  C3_3 
REMARK    2  A    between atoms: C3_3  and  C4_4 
REMARK    3  A    between atoms: C4_4  and  C5_5 
REMARK    4  A    between atoms: C5_5  and  N1_6 
REMARK    5  A    between atoms: N1_6  and  C6_7 
REMARK       I    between atoms: N1_6  and  C20_25 
REMARK    6  A    between atoms: C6_7  and  C7_8 
REMARK    7  A    between atoms: C8_9  and  C9_10 
REMARK    8  A    between atoms: C9_10  and  C10_11 
REMARK    9  A    between atoms: C20_25  and  C21_27 
REMARK   10  A    between atoms: C21_27  and  C22_28 
REMARK   11  A    between atoms: C22_28  and  C23_29 
REMARK   12  A    between atoms: C23_29  and  C24_30 
REMARK   13  A    between atoms: C25_31  and  C26_32 
REMARK   14  A    between atoms: C26_32  and  O3_33 
REMARK   15  A    between atoms: O3_33  and  C27_34 
REMARK   16  A    between atoms: C28_36  and  C29_37 
REMARK   17  A    between atoms: C31_39  and  O5_40 
REMARK   18  A    between atoms: C32_42  and  O6_43 
REMARK   19  A    between atoms: C33_45  and  O7_46 
ROOT
HETATM    1  N1  UNL     1      20.154  30.106  12.845  1.00  0.00    -0.349 N 
HETATM    2  C20 UNL     1      20.660  31.438  12.751  1.00  0.00     0.220 C 
HETATM    3  O2  UNL     1      19.883  32.344  12.400  1.00  0.00    -0.273 OA
ENDROOT
BRANCH   1   4
HETATM    4  C5  UNL     1      21.003  29.005  13.238  1.00  0.00     0.126 C 
BRANCH   4   5
HETATM    5  C4  UNL     1      21.839  28.564  12.085  1.00  0.00     0.020 C 
BRANCH   5   6
HETATM    6  C3  UNL     1      23.186  28.022  12.544  1.00  0.00     0.001 C 
BRANCH   6   7
HETATM    7  C2  UNL     1      24.096  27.755  11.368  1.00  0.00    -0.004 C 
HETATM    8  C1  UNL     1      24.883  26.496  11.695  1.00  0.00     0.005 C 
ENDBRANCH   6   7
ENDBRANCH   5   6
ENDBRANCH   4   5
ENDBRANCH   1   4
BRANCH   1   9
HETATM    9  C6  UNL     1      18.735  29.904  12.559  1.00  0.00     0.152 C 
BRANCH   9  10
HETATM   10  C7  UNL     1      18.284  28.520  12.820  1.00  0.00    -0.011 C 
HETATM   11  C8  UNL     1      17.890  27.654  11.937  1.00  0.00    -0.024 C 
BRANCH  11  12
HETATM   12  C9  UNL     1      17.827  27.916  10.493  1.00  0.00     0.071 C 
BRANCH  12  13
HETATM   13  C10 UNL     1      18.794  27.062   9.735  1.00  0.00     0.014 A 
HETATM   14  C11 UNL     1      19.801  26.410  10.442  1.00  0.00     0.029 A 
HETATM   15  C12 UNL     1      20.712  25.619   9.772  1.00  0.00     0.030 A 
HETATM   16  C13 UNL     1      21.730  24.954  10.448  1.00  0.00     0.131 A 
HETATM   17  C17 UNL     1      20.642  25.462   8.405  1.00  0.00     0.053 A 
HETATM   18  F1  UNL     1      21.774  25.128  11.787  1.00  0.00    -0.205 F 
HETATM   19  C14 UNL     1      22.632  24.171   9.792  1.00  0.00     0.085 A 
HETATM   20  C15 UNL     1      22.558  24.016   8.425  1.00  0.00     0.121 A 
HETATM   21  F2  UNL     1      23.437  23.245   7.720  1.00  0.00    -0.206 F 
HETATM   22  C16 UNL     1      21.554  24.667   7.726  1.00  0.00     0.073 A 
HETATM   23  N2  UNL     1      19.665  26.096   7.732  1.00  0.00    -0.317 N 
HETATM   24  C18 UNL     1      19.613  25.914   6.298  1.00  0.00     0.159 C 
HETATM   25  C19 UNL     1      18.757  26.881   8.383  1.00  0.00     0.254 A 
HETATM   26  O1  UNL     1      17.861  27.455   7.714  1.00  0.00    -0.267 OA
ENDBRANCH  12  13
ENDBRANCH  11  12
ENDBRANCH   9  10
ENDBRANCH   1   9
BRANCH   2  27
HETATM   27  C21 UNL     1      22.067  31.754  13.056  1.00  0.00     0.103 C 
BRANCH  27  28
HETATM   28  C22 UNL     1      22.283  32.673  14.201  1.00  0.00     0.013 C 
BRANCH  28  29
HETATM   29  C23 UNL     1      21.657  32.228  15.512  1.00  0.00     0.027 C 
BRANCH  29  30
HETATM   30  C24 UNL     1      21.937  33.279  16.504  1.00  0.00    -0.029 C 
HETATM   31  C25 UNL     1      21.070  34.178  16.871  1.00  0.00    -0.005 C 
BRANCH  31  32
HETATM   32  C26 UNL     1      19.701  34.315  16.386  1.00  0.00     0.198 C 
BRANCH  32  33
HETATM   33  O3  UNL     1      19.080  35.362  17.101  1.00  0.00    -0.355 OA
BRANCH  33  34
HETATM   34  C27 UNL     1      17.734  35.069  17.370  1.00  0.00     0.291 C 
HETATM   35  O4  UNL     1      17.322  34.071  16.531  1.00  0.00    -0.351 OA
HETATM   36  C28 UNL     1      15.973  34.008  16.316  1.00  0.00     0.155 C 
HETATM   37  C31 UNL     1      15.162  34.609  17.444  1.00  0.00     0.178 C 
HETATM   38  C32 UNL     1      15.492  36.061  17.654  1.00  0.00     0.183 C 
HETATM   39  C33 UNL     1      16.916  36.334  17.314  1.00  0.00     0.204 C 
BRANCH  36  40
HETATM   40  C29 UNL     1      15.575  32.550  16.203  1.00  0.00     0.030 C 
HETATM   41  C30 UNL     1      16.706  31.705  15.663  1.00  0.00     0.007 C 
ENDBRANCH  36  40
BRANCH  37  42
HETATM   42  O5  UNL     1      15.281  33.854  18.609  1.00  0.00    -0.390 OA
ATOM     43  H5  UNL     1      14.562  33.239  18.695  1.00  0.00     0.210 HD
ENDBRANCH  37  42
BRANCH  38  44
HETATM   44  O6  UNL     1      15.288  36.335  19.005  1.00  0.00    -0.390 OA
ATOM     45  H6  UNL     1      14.349  36.328  19.153  1.00  0.00     0.210 HD
ENDBRANCH  38  44
BRANCH  39  46
HETATM   46  O7  UNL     1      17.075  37.028  16.117  1.00  0.00    -0.388 OA
ATOM     47  H7  UNL     1      16.268  37.096  15.620  1.00  0.00     0.210 HD
ENDBRANCH  39  46
ENDBRANCH  33  34
ENDBRANCH  32  33
ENDBRANCH  31  32
ENDBRANCH  29  30
ENDBRANCH  28  29
ENDBRANCH  27  28
ENDBRANCH   2  27
TORSDOF 19
ENDMDL
MODEL 3
REMARK VINA RESULT: -9.409677677      1.439      2.099
REMARK  19 active torsions:
REMARK  status: ('A' for Active; 'I' for Inactive)
REMARK    1  A    between atoms: C2_2  and  C3_3 
REMARK    2  A    between atoms: C3_3  and  C4_4 
REMARK    3  A    between atoms: C4_4  and  C5_5 
REMARK    4  A    between atoms: C5_5  and  N1_6 
REMARK    5  A    between atoms: N1_6  and  C6_7 
REMARK       I    between atoms: N1_6  and  C20_25 
REMARK    6  A    between atoms: C6_7  and  C7_8 
REMARK    7  A    between atoms: C8_9  and  C9_10 
REMARK    8  A    between atoms: C9_10  and  C10_11 
REMARK    9  A    between atoms: C20_25  and  C21_27 
REMARK   10  A    between atoms: C21_27  and  C22_28 
REMARK   11  A    between atoms: C22_28  and  C23_29 
REMARK   12  A    between atoms: C23_29  and  C24_30 
REMARK   13  A    between atoms: C25_31  and  C26_32 
REMARK   14  A    between atoms: C26_32  and  O3_33 
REMARK   15  A    between atoms: O3_33  and  C27_34 
REMARK   16  A    between atoms: C28_36  and  C29_37 
REMARK   17  A    between atoms: C31_39  and  O5_40 
REMARK   18  A    between atoms: C32_42  and  O6_43 
REMARK   19  A    between atoms: C33_45  and  O7_46 
ROOT
HETATM    1  N1  UNL     1      20.606  30.326  13.484  1.00  0.00    -0.349 N 
HETATM    2  C20 UNL     1      21.320  29.131  13.166  1.00  0.00     0.220 C 
HETATM    3  O2  UNL     1      20.924  28.056  13.651  1.00  0.00    -0.273 OA
ENDROOT
BRANCH   1   4
HETATM    4  C5  UNL     1      21.015  31.609  12.962  1.00  0.00     0.126 C 
BRANCH   4   5
HETATM    5  C4  UNL     1      21.386  32.524  14.081  1.00  0.00     0.020 C 
BRANCH   5   6
HETATM    6  C3  UNL     1      22.618  32.026  14.824  1.00  0.00     0.001 C 
BRANCH   6   7
HETATM    7  C2  UNL     1      23.848  32.810  14.425  1.00  0.00    -0.004 C 
HETATM    8  C1  UNL     1      24.189  33.721  15.594  1.00  0.00     0.005 C 
ENDBRANCH   6   7
ENDBRANCH   5   6
ENDBRANCH   4   5
ENDBRANCH   1   4
BRANCH   1   9
HETATM    9  C6  UNL     1      19.423  30.196  14.333  1.00  0.00     0.152 C 
BRANCH   9  10
HETATM   10  C7  UNL     1      18.252  30.934  13.812  1.00  0.00    -0.011 C 
HETATM   11  C8  UNL     1      17.284  31.443  14.511  1.00  0.00    -0.024 C 
BRANCH  11  12
HETATM   12  C9  UNL     1      17.190  31.365  15.975  1.00  0.00     0.071 C 
BRANCH  12  13
HETATM   13  C10 UNL     1      17.412  32.700  16.613  1.00  0.00     0.014 A 
HETATM   14  C11 UNL     1      18.716  33.177  16.721  1.00  0.00     0.029 A 
HETATM   15  C12 UNL     1      18.954  34.402  17.310  1.00  0.00     0.030 A 
HETATM   16  C13 UNL     1      20.245  34.908  17.434  1.00  0.00     0.131 A 
HETATM   17  C17 UNL     1      17.917  35.169  17.795  1.00  0.00     0.053 A 
HETATM   18  F1  UNL     1      21.241  34.135  16.949  1.00  0.00    -0.205 F 
HETATM   19  C14 UNL     1      20.487  36.118  18.013  1.00  0.00     0.085 A 
HETATM   20  C15 UNL     1      19.447  36.880  18.497  1.00  0.00     0.121 A 
HETATM   21  F2  UNL     1      19.635  38.097  19.087  1.00  0.00    -0.206 F 
HETATM   22  C16 UNL     1      18.151  36.401  18.387  1.00  0.00     0.073 A 
HETATM   23  N2  UNL     1      16.662  34.699  17.685  1.00  0.00    -0.317 N 
HETATM   24  C18 UNL     1      15.591  35.521  18.202  1.00  0.00     0.159 C 
HETATM   25  C19 UNL     1      16.412  33.488  17.105  1.00  0.00     0.254 A 
HETATM   26  O1  UNL     1      15.223  33.088  17.023  1.00  0.00    -0.267 OA
ENDBRANCH  12  13
ENDBRANCH  11  12
ENDBRANCH   9  10
ENDBRANCH   1   9
BRANCH   2  27
HETATM   27  C21 UNL     1      22.502  29.148  12.285  1.00  0.00     0.103 C 
BRANCH  27  28
HETATM   28  C22 UNL     1      23.379  27.954  12.367  1.00  0.00     0.013 C 
BRANCH  28  29
HETATM   29  C23 UNL     1      24.139  27.625  11.093  1.00  0.00     0.027 C 
BRANCH  29  30
HETATM   30  C24 UNL     1      24.883  26.379  11.343  1.00  0.00    -0.029 C 
HETATM   31  C25 UNL     1      24.487  25.206  10.939  1.00  0.00    -0.005 C 
BRANCH  31  32
HETATM   32  C26 UNL     1      23.273  24.910  10.187  1.00  0.00     0.198 C 
BRANCH  32  33
HETATM   33  O3  UNL     1      22.270  24.519  11.100  1.00  0.00    -0.355 OA
BRANCH  33  34
HETATM   34  C27 UNL     1      20.988  24.818  10.612  1.00  0.00     0.291 C 
HETATM   35  O4  UNL     1      20.612  26.045  11.082  1.00  0.00    -0.351 OA
HETATM   36  C28 UNL     1      19.262  26.267  11.118  1.00  0.00     0.155 C 
HETATM   37  C31 UNL     1      18.493  25.424  10.124  1.00  0.00     0.178 C 
HETATM   38  C32 UNL     1      18.689  23.955  10.372  1.00  0.00     0.183 C 
HETATM   39  C33 UNL     1      20.043  23.689  10.933  1.00  0.00     0.204 C 
BRANCH  36  40
HETATM   40  C29 UNL     1      19.008  27.720  10.768  1.00  0.00     0.030 C 
HETATM   41  C30 UNL     1      17.603  28.142  11.135  1.00  0.00     0.007 C 
ENDBRANCH  36  40
BRANCH  37  42
HETATM   42  O5  UNL     1      18.788  25.795   8.813  1.00  0.00    -0.390 OA
ATOM     43  H5  UNL     1      18.851  25.035   8.247  1.00  0.00     0.210 HD
ENDBRANCH  37  42
BRANCH  38  44
HETATM   44  O6  UNL     1      18.574  23.313   9.141  1.00  0.00    -0.390 OA
ATOM     45  H6  UNL     1      18.422  22.392   9.319  1.00  0.00     0.210 HD
ENDBRANCH  38  44
BRANCH  39  46
HETATM   46  O7  UNL     1      20.028  23.365  12.287  1.00  0.00    -0.388 OA
ATOM     47  H7  UNL     1      20.037  22.428  12.443  1.00  0.00     0.210 HD
ENDBRANCH  39  46
ENDBRANCH  33  34
ENDBRANCH  32  33
ENDBRANCH  31  32
ENDBRANCH  29  30
ENDBRANCH  28  29
ENDBRANCH  27  28
ENDBRANCH   2  27
TORSDOF 19
ENDMDL
MODEL 4
REMARK VINA RESULT: -9.403180112      3.753     10.690
REMARK  19 active torsions:
REMARK  status: ('A' for Active; 'I' for Inactive)
REMARK    1  A    between atoms: C2_2  and  C3_3 
REMARK    2  A    between atoms: C3_3  and  C4_4 
REMARK    3  A    between atoms: C4_4  and  C5_5 
REMARK    4  A    between atoms: C5_5  and  N1_6 
REMARK    5  A    between atoms: N1_6  and  C6_7 
REMARK       I    between atoms: N1_6  and  C20_25 
REMARK    6  A    between atoms: C6_7  and  C7_8 
REMARK    7  A    between atoms: C8_9  and  C9_10 
REMARK    8  A    between atoms: C9_10  and  C10_11 
REMARK    9  A    between atoms: C20_25  and  C21_27 
REMARK   10  A    between atoms: C21_27  and  C22_28 
REMARK   11  A    between atoms: C22_28  and  C23_29 
REMARK   12  A    between atoms: C23_29  and  C24_30 
REMARK   13  A    between atoms: C25_31  and  C26_32 
REMARK   14  A    between atoms: C26_32  and  O3_33 
REMARK   15  A    between atoms: O3_33  and  C27_34 
REMARK   16  A    between atoms: C28_36  and  C29_37 
REMARK   17  A    between atoms: C31_39  and  O5_40 
REMARK   18  A    between atoms: C32_42  and  O6_43 
REMARK   19  A    between atoms: C33_45  and  O7_46 
ROOT
HETATM    1  N1  UNL     1      18.741  30.884  13.996  1.00  0.00    -0.349 N 
HETATM    2  C20 UNL     1      19.812  31.465  13.253  1.00  0.00     0.220 C 
HETATM    3  O2  UNL     1      20.006  31.075  12.088  1.00  0.00    -0.273 OA
ENDROOT
BRANCH   1   4
HETATM    4  C5  UNL     1      18.464  31.283  15.357  1.00  0.00     0.126 C 
BRANCH   4   5
HETATM    5  C4  UNL     1      17.003  31.529  15.533  1.00  0.00     0.020 C 
BRANCH   5   6
HETATM    6  C3  UNL     1      16.710  33.001  15.783  1.00  0.00     0.001 C 
BRANCH   6   7
HETATM    7  C2  UNL     1      17.270  33.863  14.675  1.00  0.00    -0.004 C 
HETATM    8  C1  UNL     1      16.408  35.114  14.610  1.00  0.00     0.005 C 
ENDBRANCH   6   7
ENDBRANCH   5   6
ENDBRANCH   4   5
ENDBRANCH   1   4
BRANCH   1   9
HETATM    9  C6  UNL     1      17.913  29.890  13.315  1.00  0.00     0.152 C 
BRANCH   9  10
HETATM   10  C7  UNL     1      17.964  28.557  13.955  1.00  0.00    -0.011 C 
HETATM   11  C8  UNL     1      18.165  27.421  13.360  1.00  0.00    -0.024 C 
BRANCH  11  12
HETATM   12  C9  UNL     1      18.378  27.269  11.915  1.00  0.00     0.071 C 
BRANCH  12  13
HETATM   13  C10 UNL     1      19.776  26.832  11.607  1.00  0.00     0.014 A 
HETATM   14  C11 UNL     1      20.833  27.617  12.062  1.00  0.00     0.029 A 
HETATM   15  C12 UNL     1      22.133  27.245  11.790  1.00  0.00     0.030 A 
HETATM   16  C13 UNL     1      23.212  28.005  12.229  1.00  0.00     0.131 A 
HETATM   17  C17 UNL     1      22.407  26.102  11.071  1.00  0.00     0.053 A 
HETATM   18  F1  UNL     1      22.913  29.121  12.931  1.00  0.00    -0.205 F 
HETATM   19  C14 UNL     1      24.499  27.644  11.965  1.00  0.00     0.085 A 
HETATM   20  C15 UNL     1      24.768  26.500  11.246  1.00  0.00     0.121 A 
HETATM   21  F2  UNL     1      26.038  26.092  10.953  1.00  0.00    -0.206 F 
HETATM   22  C16 UNL     1      23.713  25.723  10.795  1.00  0.00     0.073 A 
HETATM   23  N2  UNL     1      21.379  25.351  10.637  1.00  0.00    -0.317 N 
HETATM   24  C18 UNL     1      21.692  24.156   9.885  1.00  0.00     0.159 C 
HETATM   25  C19 UNL     1      20.087  25.708  10.899  1.00  0.00     0.254 A 
HETATM   26  O1  UNL     1      19.157  24.977  10.475  1.00  0.00    -0.267 OA
ENDBRANCH  12  13
ENDBRANCH  11  12
ENDBRANCH   9  10
ENDBRANCH   1   9
BRANCH   2  27
HETATM   27  C21 UNL     1      20.682  32.504  13.835  1.00  0.00     0.103 C 
BRANCH  27  28
HETATM   28  C22 UNL     1      22.136  32.207  13.817  1.00  0.00     0.013 C 
BRANCH  28  29
HETATM   29  C23 UNL     1      22.972  33.024  14.787  1.00  0.00     0.027 C 
BRANCH  29  30
HETATM   30  C24 UNL     1      22.838  32.393  16.111  1.00  0.00    -0.029 C 
HETATM   31  C25 UNL     1      22.193  32.929  17.107  1.00  0.00    -0.005 C 
BRANCH  31  32
HETATM   32  C26 UNL     1      21.504  34.215  17.105  1.00  0.00     0.198 C 
BRANCH  32  33
HETATM   33  O3  UNL     1      20.114  33.973  17.156  1.00  0.00    -0.355 OA
BRANCH  33  34
HETATM   34  C27 UNL     1      19.391  35.169  17.281  1.00  0.00     0.291 C 
HETATM   35  O4  UNL     1      20.271  36.212  17.354  1.00  0.00    -0.351 OA
HETATM   36  C28 UNL     1      19.787  37.344  17.952  1.00  0.00     0.155 C 
HETATM   37  C31 UNL     1      18.280  37.459  17.878  1.00  0.00     0.178 C 
HETATM   38  C32 UNL     1      17.599  36.298  18.549  1.00  0.00     0.183 C 
HETATM   39  C33 UNL     1      18.423  35.063  18.432  1.00  0.00     0.204 C 
BRANCH  36  40
HETATM   40  C29 UNL     1      20.367  38.548  17.237  1.00  0.00     0.030 C 
HETATM   41  C30 UNL     1      21.639  38.197  16.499  1.00  0.00     0.007 C 
ENDBRANCH  36  40
BRANCH  37  42
HETATM   42  O5  UNL     1      17.853  37.650  16.565  1.00  0.00    -0.390 OA
ATOM     43  H5  UNL     1      17.003  38.073  16.538  1.00  0.00     0.210 HD
ENDBRANCH  37  42
BRANCH  38  44
HETATM   44  O6  UNL     1      16.387  36.099  17.892  1.00  0.00    -0.390 OA
ATOM     45  H6  UNL     1      16.171  35.178  17.978  1.00  0.00     0.210 HD
ENDBRANCH  38  44
BRANCH  39  46
HETATM   46  O7  UNL     1      19.040  34.694  19.625  1.00  0.00    -0.388 OA
ATOM     47  H7  UNL     1      19.066  35.400  20.260  1.00  0.00     0.210 HD
ENDBRANCH  39  46
ENDBRANCH  33  34
ENDBRANCH  32  33
ENDBRANCH  31  32
ENDBRANCH  29  30
ENDBRANCH  28  29
ENDBRANCH  27  28
ENDBRANCH   2  27
TORSDOF 19
ENDMDL
MODEL 5
REMARK VINA RESULT: -9.384679167      3.640     10.695
REMARK  19 active torsions:
REMARK  status: ('A' for Active; 'I' for Inactive)
REMARK    1  A    between atoms: C2_2  and  C3_3 
REMARK    2  A    between atoms: C3_3  and  C4_4 
REMARK    3  A    between atoms: C4_4  and  C5_5 
REMARK    4  A    between atoms: C5_5  and  N1_6 
REMARK    5  A    between atoms: N1_6  and  C6_7 
REMARK       I    between atoms: N1_6  and  C20_25 
REMARK    6  A    between atoms: C6_7  and  C7_8 
REMARK    7  A    between atoms: C8_9  and  C9_10 
REMARK    8  A    between atoms: C9_10  and  C10_11 
REMARK    9  A    between atoms: C20_25  and  C21_27 
REMARK   10  A    between atoms: C21_27  and  C22_28 
REMARK   11  A    between atoms: C22_28  and  C23_29 
REMARK   12  A    between atoms: C23_29  and  C24_30 
REMARK   13  A    between atoms: C25_31  and  C26_32 
REMARK   14  A    between atoms: C26_32  and  O3_33 
REMARK   15  A    between atoms: O3_33  and  C27_34 
REMARK   16  A    between atoms: C28_36  and  C29_37 
REMARK   17  A    between atoms: C31_39  and  O5_40 
REMARK   18  A    between atoms: C32_42  and  O6_43 
REMARK   19  A    between atoms: C33_45  and  O7_46 
ROOT
HETATM    1  N1  UNL     1      18.263  31.123  14.428  1.00  0.00    -0.349 N 
HETATM    2  C20 UNL     1      19.659  31.103  14.727  1.00  0.00     0.220 C 
HETATM    3  O2  UNL     1      20.278  30.031  14.602  1.00  0.00    -0.273 OA
ENDROOT
BRANCH   1   4
HETATM    4  C5  UNL     1      17.482  32.331  14.559  1.00  0.00     0.126 C 
BRANCH   4   5
HETATM    5  C4  UNL     1      16.436  32.156  15.608  1.00  0.00     0.020 C 
BRANCH   5   6
HETATM    6  C3  UNL     1      15.738  33.470  15.928  1.00  0.00     0.001 C 
BRANCH   6   7
HETATM    7  C2  UNL     1      15.441  33.583  17.406  1.00  0.00    -0.004 C 
HETATM    8  C1  UNL     1      14.588  34.828  17.590  1.00  0.00     0.005 C 
ENDBRANCH   6   7
ENDBRANCH   5   6
ENDBRANCH   4   5
ENDBRANCH   1   4
BRANCH   1   9
HETATM    9  C6  UNL     1      17.660  29.879  13.954  1.00  0.00     0.152 C 
BRANCH   9  10
HETATM   10  C7  UNL     1      17.672  29.756  12.480  1.00  0.00    -0.011 C 
HETATM   11  C8  UNL     1      17.927  28.683  11.794  1.00  0.00    -0.024 C 
BRANCH  11  12
HETATM   12  C9  UNL     1      18.255  27.380  12.388  1.00  0.00     0.071 C 
BRANCH  12  13
HETATM   13  C10 UNL     1      19.619  26.917  11.985  1.00  0.00     0.014 A 
HETATM   14  C11 UNL     1      20.716  27.703  12.331  1.00  0.00     0.029 A 
HETATM   15  C12 UNL     1      21.988  27.307  11.969  1.00  0.00     0.030 A 
HETATM   16  C13 UNL     1      23.105  28.068  12.298  1.00  0.00     0.131 A 
HETATM   17  C17 UNL     1      22.193  26.139  11.267  1.00  0.00     0.053 A 
HETATM   18  F1  UNL     1      22.873  29.207  12.986  1.00  0.00    -0.205 F 
HETATM   19  C14 UNL     1      24.364  27.683  11.944  1.00  0.00     0.085 A 
HETATM   20  C15 UNL     1      24.564  26.514  11.243  1.00  0.00     0.121 A 
HETATM   21  F2  UNL     1      25.802  26.083  10.863  1.00  0.00    -0.206 F 
HETATM   22  C16 UNL     1      23.469  25.737  10.901  1.00  0.00     0.073 A 
HETATM   23  N2  UNL     1      21.126  25.388  10.938  1.00  0.00    -0.317 N 
HETATM   24  C18 UNL     1      21.368  24.168  10.202  1.00  0.00     0.159 C 
HETATM   25  C19 UNL     1      19.863  25.769  11.290  1.00  0.00     0.254 A 
HETATM   26  O1  UNL     1      18.895  25.036  10.963  1.00  0.00    -0.267 OA
ENDBRANCH  12  13
ENDBRANCH  11  12
ENDBRANCH   9  10
ENDBRANCH   1   9
BRANCH   2  27
HETATM   27  C21 UNL     1      20.371  32.314  15.174  1.00  0.00     0.103 C 
BRANCH  27  28
HETATM   28  C22 UNL     1      21.620  32.632  14.439  1.00  0.00     0.013 C 
BRANCH  28  29
HETATM   29  C23 UNL     1      22.879  31.994  15.001  1.00  0.00     0.027 C 
BRANCH  29  30
HETATM   30  C24 UNL     1      23.959  32.987  14.878  1.00  0.00    -0.029 C 
HETATM   31  C25 UNL     1      24.171  33.937  15.741  1.00  0.00    -0.005 C 
BRANCH  31  32
HETATM   32  C26 UNL     1      23.405  34.196  16.955  1.00  0.00     0.198 C 
BRANCH  32  33
HETATM   33  O3  UNL     1      22.540  35.284  16.711  1.00  0.00    -0.355 OA
BRANCH  33  34
HETATM   34  C27 UNL     1      21.450  35.279  17.595  1.00  0.00     0.291 C 
HETATM   35  O4  UNL     1      20.373  35.845  16.972  1.00  0.00    -0.351 OA
HETATM   36  C28 UNL     1      19.417  36.356  17.807  1.00  0.00     0.155 C 
HETATM   37  C31 UNL     1      19.409  35.703  19.172  1.00  0.00     0.178 C 
HETATM   38  C32 UNL     1      20.725  35.874  19.878  1.00  0.00     0.183 C 
HETATM   39  C33 UNL     1      21.848  35.920  18.900  1.00  0.00     0.204 C 
BRANCH  36  40
HETATM   40  C29 UNL     1      18.058  36.111  17.183  1.00  0.00     0.030 C 
HETATM   41  C30 UNL     1      17.210  37.363  17.188  1.00  0.00     0.007 C 
ENDBRANCH  36  40
BRANCH  37  42
HETATM   42  O5  UNL     1      19.008  34.371  19.092  1.00  0.00    -0.390 OA
ATOM     43  H5  UNL     1      19.756  33.786  19.084  1.00  0.00     0.210 HD
ENDBRANCH  37  42
BRANCH  38  44
HETATM   44  O6  UNL     1      20.892  34.767  20.707  1.00  0.00    -0.390 OA
ATOM     45  H6  UNL     1      20.375  34.923  21.490  1.00  0.00     0.210 HD
ENDBRANCH  38  44
BRANCH  39  46
HETATM   46  O7  UNL     1      22.385  37.194  18.735  1.00  0.00    -0.388 OA
ATOM     47  H7  UNL     1      21.903  37.862  19.209  1.00  0.00     0.210 HD
ENDBRANCH  39  46
ENDBRANCH  33  34
ENDBRANCH  32  33
ENDBRANCH  31  32
ENDBRANCH  29  30
ENDBRANCH  28  29
ENDBRANCH  27  28
ENDBRANCH   2  27
TORSDOF 19
ENDMDL
