MODEL 1
REMARK VINA RESULT: -8.331399301      0.000      0.000
REMARK  15 active torsions:
REMARK  status: ('A' for Active; 'I' for Inactive)
REMARK    1  A    between atoms: C2_2  and  C3_3 
REMARK    2  A    between atoms: C3_3  and  C4_4 
REMARK    3  A    between atoms: C4_4  and  C5_5 
REMARK    4  A    between atoms: C5_5  and  C6_6 
REMARK    5  A    between atoms: C6_6  and  C7_7 
REMARK    6  A    between atoms: C7_7  and  C8_8 
REMARK    7  A    between atoms: C8_8  and  C9_9 
REMARK    8  A    between atoms: C9_9  and  C10_10 
REMARK    9  A    between atoms: C10_10  and  N1_11 
REMARK       I    between atoms: N1_11  and  C11_13 
REMARK   10  A    between atoms: C11_13  and  C12_15 
REMARK   11  A    between atoms: C12_15  and  N2_16 
REMARK   12  A    between atoms: C15_20  and  N3_21 
REMARK   13  A    between atoms: N3_21  and  S1_23 
REMARK   14  A    between atoms: S1_23  and  N4_26 
REMARK   15  A    between atoms: N5_32  and  C21_33 
ROOT
HETATM    1  N2  UNL     1      20.206  28.878  13.865  1.00  0.00    -0.257 N 
HETATM    2  C13 UNL     1      21.462  29.312  13.682  1.00  0.00     0.255 A 
HETATM    3  O2  UNL     1      22.013  30.017  14.545  1.00  0.00    -0.268 OA
HETATM    4  C14 UNL     1      22.147  28.964  12.515  1.00  0.00     0.124 A 
HETATM    5  C15 UNL     1      21.491  28.180  11.592  1.00  0.00     0.128 A 
HETATM    6  N5  UNL     1      20.219  27.753  11.800  1.00  0.00    -0.272 N 
HETATM    7  C27 UNL     1      19.588  28.103  12.931  1.00  0.00     0.334 A 
HETATM    8  O6  UNL     1      18.428  27.738  13.169  1.00  0.00    -0.246 OA
ENDROOT
BRANCH   1   9
HETATM    9  C12 UNL     1      19.541  29.277  15.082  1.00  0.00     0.239 C 
BRANCH   9  10
HETATM   10  C11 UNL     1      18.631  30.447  14.846  1.00  0.00     0.236 C 
HETATM   11  N1  UNL     1      19.175  31.601  14.269  1.00  0.00    -0.360 N 
ATOM     12  H1  UNL     1      20.164  31.532  14.028  1.00  0.00     0.162 HD
HETATM   13  O1  UNL     1      17.440  30.341  15.173  1.00  0.00    -0.272 OA
BRANCH  11  14
HETATM   14  C10 UNL     1      18.578  32.852  13.963  1.00  0.00     0.122 C 
BRANCH  14  15
HETATM   15  C9  UNL     1      18.045  33.713  15.047  1.00  0.00     0.020 C 
BRANCH  15  16
HETATM   16  C8  UNL     1      16.766  34.422  14.835  1.00  0.00     0.002 C 
BRANCH  16  17
HETATM   17  C7  UNL     1      15.638  33.751  15.647  1.00  0.00     0.000 C 
BRANCH  17  18
HETATM   18  C6  UNL     1      16.108  33.391  17.013  1.00  0.00     0.000 C 
BRANCH  18  19
HETATM   19  C5  UNL     1      15.187  33.958  18.085  1.00  0.00     0.000 C 
BRANCH  19  20
HETATM   20  C4  UNL     1      14.496  35.213  17.642  1.00  0.00     0.000 C 
BRANCH  20  21
HETATM   21  C3  UNL     1      15.089  36.454  18.292  1.00  0.00    -0.000 C 
BRANCH  21  22
HETATM   22  C2  UNL     1      16.182  37.051  17.455  1.00  0.00    -0.005 C 
HETATM   23  C1  UNL     1      17.532  36.787  18.117  1.00  0.00     0.005 C 
ENDBRANCH  21  22
ENDBRANCH  20  21
ENDBRANCH  19  20
ENDBRANCH  18  19
ENDBRANCH  17  18
ENDBRANCH  16  17
ENDBRANCH  15  16
ENDBRANCH  14  15
ENDBRANCH  11  14
ENDBRANCH   9  10
ENDBRANCH   1   9
BRANCH   6  24
HETATM   24  C21 UNL     1      19.589  26.931  10.827  1.00  0.00     0.165 C 
HETATM   25  C22 UNL     1      19.104  25.608  11.406  1.00  0.00     0.034 C 
HETATM   26  C23 UNL     1      17.713  25.257  10.936  1.00  0.00     0.003 C 
HETATM   27  C24 UNL     1      17.565  25.381   9.449  1.00  0.00     0.007 C 
HETATM   28  C25 UNL     1      17.895  26.756   8.943  1.00  0.00     0.080 C 
HETATM   29  C26 UNL     1      18.454  27.541  10.102  1.00  0.00     0.150 C 
HETATM   30  O5  UNL     1      17.938  28.613  10.357  1.00  0.00    -0.296 OA
ENDBRANCH   6  24
BRANCH   5  31
HETATM   31  N3  UNL     1      22.175  27.802  10.417  1.00  0.00    -0.252 N 
ATOM     32  H3  UNL     1      21.975  28.299   9.548  1.00  0.00     0.182 HD
BRANCH  31  33
HETATM   33  S1  UNL     1      23.326  26.545  10.401  1.00  0.00     0.329 S 
HETATM   34  O3  UNL     1      24.737  27.112  10.304  1.00  0.00    -0.182 OA
HETATM   35  O4  UNL     1      23.313  25.798  11.732  1.00  0.00    -0.182 OA
BRANCH  33  36
HETATM   36  N4  UNL     1      23.154  25.396   9.187  1.00  0.00    -0.253 N 
HETATM   37  C16 UNL     1      24.193  25.227   8.261  1.00  0.00     0.082 C 
HETATM   38  C17 UNL     1      23.858  24.611   6.948  1.00  0.00     0.046 C 
HETATM   39  C18 UNL     1      22.446  25.012   6.577  1.00  0.00     0.010 C 
HETATM   40  C19 UNL     1      21.550  24.389   7.624  1.00  0.00     0.046 C 
HETATM   41  C20 UNL     1      21.923  24.756   9.012  1.00  0.00     0.082 C 
ENDBRANCH  33  36
ENDBRANCH  31  33
ENDBRANCH   5  31
TORSDOF 15
ENDMDL
MODEL 2
REMARK VINA RESULT: -8.291516825      2.166      3.920
REMARK  15 active torsions:
REMARK  status: ('A' for Active; 'I' for Inactive)
REMARK    1  A    between atoms: C2_2  and  C3_3 
REMARK    2  A    between atoms: C3_3  and  C4_4 
REMARK    3  A    between atoms: C4_4  and  C5_5 
REMARK    4  A    between atoms: C5_5  and  C6_6 
REMARK    5  A    between atoms: C6_6  and  C7_7 
REMARK    6  A    between atoms: C7_7  and  C8_8 
REMARK    7  A    between atoms: C8_8  and  C9_9 
REMARK    8  A    between atoms: C9_9  and  C10_10 
REMARK    9  A    between atoms: C10_10  and  N1_11 
REMARK       I    between atoms: N1_11  and  C11_13 
REMARK   10  A    between atoms: C11_13  and  C12_15 
REMARK   11  A    between atoms: C12_15  and  N2_16 
REMARK   12  A    between atoms: C15_20  and  N3_21 
REMARK   13  A    between atoms: N3_21  and  S1_23 
REMARK   14  A    between atoms: S1_23  and  N4_26 
REMARK   15  A    between atoms: N5_32  and  C21_33 
ROOT
HETATM    1  N2  UNL     1      20.771  28.384  13.411  1.00  0.00    -0.257 N 
HETATM    2  C13 UNL     1      19.478  28.561  13.102  1.00  0.00     0.255 A 
HETATM    3  O2  UNL     1      18.697  29.056  13.933  1.00  0.00    -0.268 OA
HETATM    4  C14 UNL     1      19.016  28.184  11.839  1.00  0.00     0.124 A 
HETATM    5  C15 UNL     1      19.923  27.641  10.956  1.00  0.00     0.128 A 
HETATM    6  N5  UNL     1      21.227  27.473  11.293  1.00  0.00    -0.272 N 
HETATM    7  C27 UNL     1      21.641  27.845  12.513  1.00  0.00     0.334 A 
HETATM    8  O6  UNL     1      22.820  27.714  12.869  1.00  0.00    -0.246 OA
ENDROOT
BRANCH   1   9
HETATM    9  C12 UNL     1      21.192  28.779  14.734  1.00  0.00     0.239 C 
BRANCH   9  10
HETATM   10  C11 UNL     1      21.265  30.273  14.858  1.00  0.00     0.236 C 
HETATM   11  N1  UNL     1      20.564  30.884  15.907  1.00  0.00    -0.360 N 
ATOM     12  H1  UNL     1      20.075  30.238  16.526  1.00  0.00     0.162 HD
HETATM   13  O1  UNL     1      21.940  30.900  14.029  1.00  0.00    -0.272 OA
BRANCH  11  14
HETATM   14  C10 UNL     1      20.422  32.254  16.249  1.00  0.00     0.122 C 
BRANCH  14  15
HETATM   15  C9  UNL     1      19.193  32.997  15.878  1.00  0.00     0.020 C 
BRANCH  15  16
HETATM   16  C8  UNL     1      18.704  32.922  14.485  1.00  0.00     0.002 C 
BRANCH  16  17
HETATM   17  C7  UNL     1      17.311  32.261  14.438  1.00  0.00     0.000 C 
BRANCH  17  18
HETATM   18  C6  UNL     1      16.921  31.746  15.780  1.00  0.00     0.000 C 
BRANCH  18  19
HETATM   19  C5  UNL     1      15.557  32.273  16.201  1.00  0.00     0.000 C 
BRANCH  19  20
HETATM   20  C4  UNL     1      15.545  33.763  16.369  1.00  0.00     0.000 C 
BRANCH  20  21
HETATM   21  C3  UNL     1      15.187  34.177  17.789  1.00  0.00    -0.000 C 
BRANCH  21  22
HETATM   22  C2  UNL     1      14.366  35.433  17.810  1.00  0.00    -0.005 C 
HETATM   23  C1  UNL     1      15.104  36.511  18.601  1.00  0.00     0.005 C 
ENDBRANCH  21  22
ENDBRANCH  20  21
ENDBRANCH  19  20
ENDBRANCH  18  19
ENDBRANCH  17  18
ENDBRANCH  16  17
ENDBRANCH  15  16
ENDBRANCH  14  15
ENDBRANCH  11  14
ENDBRANCH   9  10
ENDBRANCH   1   9
BRANCH   6  24
HETATM   24  C21 UNL     1      22.130  26.924  10.342  1.00  0.00     0.165 C 
HETATM   25  C22 UNL     1      23.437  27.702  10.262  1.00  0.00     0.034 C 
HETATM   26  C23 UNL     1      24.641  26.790  10.225  1.00  0.00     0.003 C 
HETATM   27  C24 UNL     1      24.498  25.700   9.205  1.00  0.00     0.007 C 
HETATM   28  C25 UNL     1      23.277  24.852   9.425  1.00  0.00     0.080 C 
HETATM   29  C26 UNL     1      22.472  25.498  10.524  1.00  0.00     0.150 C 
HETATM   30  O5  UNL     1      22.161  24.805  11.475  1.00  0.00    -0.296 OA
ENDBRANCH   6  24
BRANCH   5  31
HETATM   31  N3  UNL     1      19.477  27.274   9.668  1.00  0.00    -0.252 N 
ATOM     32  H3  UNL     1      19.765  27.836   8.867  1.00  0.00     0.182 HD
BRANCH  31  33
HETATM   33  S1  UNL     1      18.473  25.921   9.407  1.00  0.00     0.329 S 
HETATM   34  O3  UNL     1      18.646  24.903  10.528  1.00  0.00    -0.182 OA
HETATM   35  O4  UNL     1      17.005  26.328   9.493  1.00  0.00    -0.182 OA
BRANCH  33  36
HETATM   36  N4  UNL     1      18.679  25.114   7.948  1.00  0.00    -0.253 N 
HETATM   37  C16 UNL     1      19.974  24.965   7.432  1.00  0.00     0.082 C 
HETATM   38  C17 UNL     1      20.114  24.720   5.970  1.00  0.00     0.046 C 
HETATM   39  C18 UNL     1      18.992  25.441   5.254  1.00  0.00     0.010 C 
HETATM   40  C19 UNL     1      17.713  24.778   5.715  1.00  0.00     0.046 C 
HETATM   41  C20 UNL     1      17.558  24.761   7.191  1.00  0.00     0.082 C 
ENDBRANCH  33  36
ENDBRANCH  31  33
ENDBRANCH   5  31
TORSDOF 15
ENDMDL
MODEL 3
REMARK VINA RESULT: -8.192591529      3.089     10.581
REMARK  15 active torsions:
REMARK  status: ('A' for Active; 'I' for Inactive)
REMARK    1  A    between atoms: C2_2  and  C3_3 
REMARK    2  A    between atoms: C3_3  and  C4_4 
REMARK    3  A    between atoms: C4_4  and  C5_5 
REMARK    4  A    between atoms: C5_5  and  C6_6 
REMARK    5  A    between atoms: C6_6  and  C7_7 
REMARK    6  A    between atoms: C7_7  and  C8_8 
REMARK    7  A    between atoms: C8_8  and  C9_9 
REMARK    8  A    between atoms: C9_9  and  C10_10 
REMARK    9  A    between atoms: C10_10  and  N1_11 
REMARK       I    between atoms: N1_11  and  C11_13 
REMARK   10  A    between atoms: C11_13  and  C12_15 
REMARK   11  A    between atoms: C12_15  and  N2_16 
REMARK   12  A    between atoms: C15_20  and  N3_21 
REMARK   13  A    between atoms: N3_21  and  S1_23 
REMARK   14  A    between atoms: S1_23  and  N4_26 
REMARK   15  A    between atoms: N5_32  and  C21_33 
ROOT
HETATM    1  N2  UNL     1      18.567  30.064  14.779  1.00  0.00    -0.257 N 
HETATM    2  C13 UNL     1      19.671  29.702  15.450  1.00  0.00     0.255 A 
HETATM    3  O2  UNL     1      20.145  28.562  15.306  1.00  0.00    -0.268 OA
HETATM    4  C14 UNL     1      20.283  30.617  16.310  1.00  0.00     0.124 A 
HETATM    5  C15 UNL     1      19.717  31.867  16.430  1.00  0.00     0.128 A 
HETATM    6  N5  UNL     1      18.599  32.209  15.740  1.00  0.00    -0.272 N 
HETATM    7  C27 UNL     1      18.035  31.309  14.922  1.00  0.00     0.334 A 
HETATM    8  O6  UNL     1      17.015  31.572  14.268  1.00  0.00    -0.246 OA
ENDROOT
BRANCH   1   9
HETATM    9  C12 UNL     1      17.968  29.076  13.913  1.00  0.00     0.239 C 
BRANCH   9  10
HETATM   10  C11 UNL     1      18.737  28.938  12.631  1.00  0.00     0.236 C 
HETATM   11  N1  UNL     1      19.582  27.830  12.483  1.00  0.00    -0.360 N 
ATOM     12  H1  UNL     1      19.578  27.183  13.271  1.00  0.00     0.162 HD
HETATM   13  O1  UNL     1      18.591  29.809  11.762  1.00  0.00    -0.272 OA
BRANCH  11  14
HETATM   14  C10 UNL     1      20.442  27.460  11.416  1.00  0.00     0.122 C 
BRANCH  14  15
HETATM   15  C9  UNL     1      21.599  26.565  11.662  1.00  0.00     0.020 C 
BRANCH  15  16
HETATM   16  C8  UNL     1      21.488  25.136  11.307  1.00  0.00     0.002 C 
BRANCH  16  17
HETATM   17  C7  UNL     1      21.814  24.925   9.813  1.00  0.00     0.000 C 
BRANCH  17  18
HETATM   18  C6  UNL     1      23.275  24.710   9.613  1.00  0.00     0.000 C 
BRANCH  18  19
HETATM   19  C5  UNL     1      23.889  25.821   8.771  1.00  0.00     0.000 C 
BRANCH  19  20
HETATM   20  C4  UNL     1      24.570  26.863   9.606  1.00  0.00     0.000 C 
BRANCH  20  21
HETATM   21  C3  UNL     1      25.317  26.256  10.785  1.00  0.00    -0.000 C 
BRANCH  21  22
HETATM   22  C2  UNL     1      26.126  27.286  11.517  1.00  0.00    -0.005 C 
HETATM   23  C1  UNL     1      25.331  27.802  12.714  1.00  0.00     0.005 C 
ENDBRANCH  21  22
ENDBRANCH  20  21
ENDBRANCH  19  20
ENDBRANCH  18  19
ENDBRANCH  17  18
ENDBRANCH  16  17
ENDBRANCH  15  16
ENDBRANCH  14  15
ENDBRANCH  11  14
ENDBRANCH   9  10
ENDBRANCH   1   9
BRANCH   6  24
HETATM   24  C21 UNL     1      18.061  33.516  15.885  1.00  0.00     0.165 C 
HETATM   25  C22 UNL     1      17.769  34.178  14.544  1.00  0.00     0.034 C 
HETATM   26  C23 UNL     1      16.426  34.867  14.530  1.00  0.00     0.003 C 
HETATM   27  C24 UNL     1      16.228  35.755  15.722  1.00  0.00     0.007 C 
HETATM   28  C25 UNL     1      16.361  35.020  17.025  1.00  0.00     0.080 C 
HETATM   29  C26 UNL     1      16.839  33.625  16.709  1.00  0.00     0.150 C 
HETATM   30  O5  UNL     1      16.192  32.694  17.152  1.00  0.00    -0.296 OA
ENDBRANCH   6  24
BRANCH   5  31
HETATM   31  N3  UNL     1      20.334  32.810  17.280  1.00  0.00    -0.252 N 
ATOM     32  H3  UNL     1      19.904  33.019  18.181  1.00  0.00     0.182 HD
BRANCH  31  33
HETATM   33  S1  UNL     1      21.776  33.611  16.849  1.00  0.00     0.329 S 
HETATM   34  O3  UNL     1      22.987  32.743  17.169  1.00  0.00    -0.182 OA
HETATM   35  O4  UNL     1      21.842  33.805  15.337  1.00  0.00    -0.182 OA
BRANCH  33  36
HETATM   36  N4  UNL     1      22.028  35.116  17.553  1.00  0.00    -0.253 N 
HETATM   37  C16 UNL     1      22.078  35.211  18.951  1.00  0.00     0.082 C 
HETATM   38  C17 UNL     1      21.800  36.538  19.567  1.00  0.00     0.046 C 
HETATM   39  C18 UNL     1      20.793  37.266  18.701  1.00  0.00     0.010 C 
HETATM   40  C19 UNL     1      21.480  37.504  17.376  1.00  0.00     0.046 C 
HETATM   41  C20 UNL     1      22.007  36.263  16.755  1.00  0.00     0.082 C 
ENDBRANCH  33  36
ENDBRANCH  31  33
ENDBRANCH   5  31
TORSDOF 15
ENDMDL
MODEL 4
REMARK VINA RESULT: -8.189922634      3.112     10.502
REMARK  15 active torsions:
REMARK  status: ('A' for Active; 'I' for Inactive)
REMARK    1  A    between atoms: C2_2  and  C3_3 
REMARK    2  A    between atoms: C3_3  and  C4_4 
REMARK    3  A    between atoms: C4_4  and  C5_5 
REMARK    4  A    between atoms: C5_5  and  C6_6 
REMARK    5  A    between atoms: C6_6  and  C7_7 
REMARK    6  A    between atoms: C7_7  and  C8_8 
REMARK    7  A    between atoms: C8_8  and  C9_9 
REMARK    8  A    between atoms: C9_9  and  C10_10 
REMARK    9  A    between atoms: C10_10  and  N1_11 
REMARK       I    between atoms: N1_11  and  C11_13 
REMARK   10  A    between atoms: C11_13  and  C12_15 
REMARK   11  A    between atoms: C12_15  and  N2_16 
REMARK   12  A    between atoms: C15_20  and  N3_21 
REMARK   13  A    between atoms: N3_21  and  S1_23 
REMARK   14  A    between atoms: S1_23  and  N4_26 
REMARK   15  A    between atoms: N5_32  and  C21_33 
ROOT
HETATM    1  N2  UNL     1      20.473  31.362  13.743  1.00  0.00    -0.257 N 
HETATM    2  C13 UNL     1      21.594  31.351  14.480  1.00  0.00     0.255 A 
HETATM    3  O2  UNL     1      22.618  30.790  14.053  1.00  0.00    -0.268 OA
HETATM    4  C14 UNL     1      21.601  31.975  15.729  1.00  0.00     0.124 A 
HETATM    5  C15 UNL     1      20.440  32.583  16.153  1.00  0.00     0.128 A 
HETATM    6  N5  UNL     1      19.318  32.580  15.389  1.00  0.00    -0.272 N 
HETATM    7  C27 UNL     1      19.342  31.973  14.194  1.00  0.00     0.334 A 
HETATM    8  O6  UNL     1      18.346  31.944  13.457  1.00  0.00    -0.246 OA
ENDROOT
BRANCH   1   9
HETATM    9  C12 UNL     1      20.517  30.691  12.466  1.00  0.00     0.239 C 
BRANCH   9  10
HETATM   10  C11 UNL     1      19.919  29.316  12.552  1.00  0.00     0.236 C 
HETATM   11  N1  UNL     1      18.626  29.125  12.048  1.00  0.00    -0.360 N 
ATOM     12  H1  UNL     1      18.205  29.955  11.630  1.00  0.00     0.162 HD
HETATM   13  O1  UNL     1      20.594  28.413  13.066  1.00  0.00    -0.272 OA
BRANCH  11  14
HETATM   14  C10 UNL     1      17.806  27.967  12.022  1.00  0.00     0.122 C 
BRANCH  14  15
HETATM   15  C9  UNL     1      18.024  26.916  10.999  1.00  0.00     0.020 C 
BRANCH  15  16
HETATM   16  C8  UNL     1      18.864  25.749  11.338  1.00  0.00     0.002 C 
BRANCH  16  17
HETATM   17  C7  UNL     1      20.218  25.828  10.602  1.00  0.00     0.000 C 
BRANCH  17  18
HETATM   18  C6  UNL     1      21.265  25.060  11.332  1.00  0.00     0.000 C 
BRANCH  18  19
HETATM   19  C5  UNL     1      22.662  25.436  10.856  1.00  0.00     0.000 C 
BRANCH  19  20
HETATM   20  C4  UNL     1      22.825  26.914  10.665  1.00  0.00     0.000 C 
BRANCH  20  21
HETATM   21  C3  UNL     1      24.105  27.258   9.917  1.00  0.00    -0.000 C 
BRANCH  21  22
HETATM   22  C2  UNL     1      25.271  26.456  10.418  1.00  0.00    -0.005 C 
HETATM   23  C1  UNL     1      25.941  27.199  11.572  1.00  0.00     0.005 C 
ENDBRANCH  21  22
ENDBRANCH  20  21
ENDBRANCH  19  20
ENDBRANCH  18  19
ENDBRANCH  17  18
ENDBRANCH  16  17
ENDBRANCH  15  16
ENDBRANCH  14  15
ENDBRANCH  11  14
ENDBRANCH   9  10
ENDBRANCH   1   9
BRANCH   6  24
HETATM   24  C21 UNL     1      18.149  33.235  15.861  1.00  0.00     0.165 C 
HETATM   25  C22 UNL     1      17.590  34.231  14.853  1.00  0.00     0.034 C 
HETATM   26  C23 UNL     1      16.090  34.125  14.719  1.00  0.00     0.003 C 
HETATM   27  C24 UNL     1      15.397  34.126  16.049  1.00  0.00     0.007 C 
HETATM   28  C25 UNL     1      15.864  33.020  16.951  1.00  0.00     0.080 C 
HETATM   29  C26 UNL     1      17.037  32.354  16.277  1.00  0.00     0.150 C 
HETATM   30  O5  UNL     1      16.988  31.147  16.125  1.00  0.00    -0.296 OA
ENDBRANCH   6  24
BRANCH   5  31
HETATM   31  N3  UNL     1      20.436  33.236  17.404  1.00  0.00    -0.252 N 
ATOM     32  H3  UNL     1      20.195  32.702  18.239  1.00  0.00     0.182 HD
BRANCH  31  33
HETATM   33  S1  UNL     1      20.821  34.889  17.566  1.00  0.00     0.329 S 
HETATM   34  O3  UNL     1      22.010  35.072  18.502  1.00  0.00    -0.182 OA
HETATM   35  O4  UNL     1      21.303  35.453  16.232  1.00  0.00    -0.182 OA
BRANCH  33  36
HETATM   36  N4  UNL     1      19.585  35.890  18.109  1.00  0.00    -0.253 N 
HETATM   37  C16 UNL     1      18.424  35.308  18.635  1.00  0.00     0.082 C 
HETATM   38  C17 UNL     1      17.180  36.127  18.642  1.00  0.00     0.046 C 
HETATM   39  C18 UNL     1      17.201  37.041  17.435  1.00  0.00     0.010 C 
HETATM   40  C19 UNL     1      18.373  37.974  17.643  1.00  0.00     0.046 C 
HETATM   41  C20 UNL     1      19.657  37.265  17.871  1.00  0.00     0.082 C 
ENDBRANCH  33  36
ENDBRANCH  31  33
ENDBRANCH   5  31
TORSDOF 15
ENDMDL
MODEL 5
REMARK VINA RESULT: -8.172477029      2.069      3.632
REMARK  15 active torsions:
REMARK  status: ('A' for Active; 'I' for Inactive)
REMARK    1  A    between atoms: C2_2  and  C3_3 
REMARK    2  A    between atoms: C3_3  and  C4_4 
REMARK    3  A    between atoms: C4_4  and  C5_5 
REMARK    4  A    between atoms: C5_5  and  C6_6 
REMARK    5  A    between atoms: C6_6  and  C7_7 
REMARK    6  A    between atoms: C7_7  and  C8_8 
REMARK    7  A    between atoms: C8_8  and  C9_9 
REMARK    8  A    between atoms: C9_9  and  C10_10 
REMARK    9  A    between atoms: C10_10  and  N1_11 
REMARK       I    between atoms: N1_11  and  C11_13 
REMARK   10  A    between atoms: C11_13  and  C12_15 
REMARK   11  A    between atoms: C12_15  and  N2_16 
REMARK   12  A    between atoms: C15_20  and  N3_21 
REMARK   13  A    between atoms: N3_21  and  S1_23 
REMARK   14  A    between atoms: S1_23  and  N4_26 
REMARK   15  A    between atoms: N5_32  and  C21_33 
ROOT
HETATM    1  N2  UNL     1      20.166  28.513  13.615  1.00  0.00    -0.257 N 
HETATM    2  C13 UNL     1      18.900  28.647  13.192  1.00  0.00     0.255 A 
HETATM    3  O2  UNL     1      18.031  29.104  13.954  1.00  0.00    -0.268 OA
HETATM    4  C14 UNL     1      18.568  28.269  11.890  1.00  0.00     0.124 A 
HETATM    5  C15 UNL     1      19.570  27.770  11.087  1.00  0.00     0.128 A 
HETATM    6  N5  UNL     1      20.844  27.644  11.539  1.00  0.00    -0.272 N 
HETATM    7  C27 UNL     1      21.132  28.016  12.794  1.00  0.00     0.334 A 
HETATM    8  O6  UNL     1      22.279  27.923  13.254  1.00  0.00    -0.246 OA
ENDROOT
BRANCH   1   9
HETATM    9  C12 UNL     1      20.452  28.907  14.975  1.00  0.00     0.239 C 
BRANCH   9  10
HETATM   10  C11 UNL     1      20.566  30.399  15.096  1.00  0.00     0.236 C 
HETATM   11  N1  UNL     1      19.574  31.082  15.811  1.00  0.00    -0.360 N 
ATOM     12  H1  UNL     1      18.857  30.484  16.221  1.00  0.00     0.162 HD
HETATM   13  O1  UNL     1      21.531  30.961  14.557  1.00  0.00    -0.272 OA
BRANCH  11  14
HETATM   14  C10 UNL     1      19.403  32.469  16.060  1.00  0.00     0.122 C 
BRANCH  14  15
HETATM   15  C9  UNL     1      18.580  33.298  15.146  1.00  0.00     0.020 C 
BRANCH  15  16
HETATM   16  C8  UNL     1      17.224  32.837  14.786  1.00  0.00     0.002 C 
BRANCH  16  17
HETATM   17  C7  UNL     1      16.156  33.728  15.454  1.00  0.00     0.000 C 
BRANCH  17  18
HETATM   18  C6  UNL     1      15.589  33.064  16.661  1.00  0.00     0.000 C 
BRANCH  18  19
HETATM   19  C5  UNL     1      15.558  34.012  17.852  1.00  0.00     0.000 C 
BRANCH  19  20
HETATM   20  C4  UNL     1      14.408  34.973  17.791  1.00  0.00     0.000 C 
BRANCH  20  21
HETATM   21  C3  UNL     1      14.821  36.386  18.176  1.00  0.00    -0.000 C 
BRANCH  21  22
HETATM   22  C2  UNL     1      16.314  36.532  18.228  1.00  0.00    -0.005 C 
HETATM   23  C1  UNL     1      16.781  37.405  17.066  1.00  0.00     0.005 C 
ENDBRANCH  21  22
ENDBRANCH  20  21
ENDBRANCH  19  20
ENDBRANCH  18  19
ENDBRANCH  17  18
ENDBRANCH  16  17
ENDBRANCH  15  16
ENDBRANCH  14  15
ENDBRANCH  11  14
ENDBRANCH   9  10
ENDBRANCH   1   9
BRANCH   6  24
HETATM   24  C21 UNL     1      21.847  27.139  10.669  1.00  0.00     0.165 C 
HETATM   25  C22 UNL     1      23.120  27.976  10.698  1.00  0.00     0.034 C 
HETATM   26  C23 UNL     1      24.363  27.121  10.764  1.00  0.00     0.003 C 
HETATM   27  C24 UNL     1      24.357  26.027   9.738  1.00  0.00     0.007 C 
HETATM   28  C25 UNL     1      23.162  25.124   9.855  1.00  0.00     0.080 C 
HETATM   29  C26 UNL     1      22.239  25.730  10.881  1.00  0.00     0.150 C 
HETATM   30  O5  UNL     1      21.880  25.021  11.804  1.00  0.00    -0.296 OA
ENDBRANCH   6  24
BRANCH   5  31
HETATM   31  N3  UNL     1      19.255  27.402   9.762  1.00  0.00    -0.252 N 
ATOM     32  H3  UNL     1      19.515  28.030   9.000  1.00  0.00     0.182 HD
BRANCH  31  33
HETATM   33  S1  UNL     1      18.455  25.944   9.390  1.00  0.00     0.329 S 
HETATM   34  O3  UNL     1      18.684  24.912  10.489  1.00  0.00    -0.182 OA
HETATM   35  O4  UNL     1      16.943  26.156   9.385  1.00  0.00    -0.182 OA
BRANCH  33  36
HETATM   36  N4  UNL     1      18.859  25.226   7.925  1.00  0.00    -0.253 N 
HETATM   37  C16 UNL     1      20.208  24.963   7.649  1.00  0.00     0.082 C 
HETATM   38  C17 UNL     1      20.606  24.810   6.222  1.00  0.00     0.046 C 
HETATM   39  C18 UNL     1      19.727  25.710   5.381  1.00  0.00     0.010 C 
HETATM   40  C19 UNL     1      18.321  25.172   5.530  1.00  0.00     0.046 C 
HETATM   41  C20 UNL     1      17.878  25.066   6.942  1.00  0.00     0.082 C 
ENDBRANCH  33  36
ENDBRANCH  31  33
ENDBRANCH   5  31
TORSDOF 15
ENDMDL
