MODEL 1
REMARK VINA RESULT: -8.601617974      0.000      0.000
REMARK  4 active torsions:
REMARK  status: ('A' for Active; 'I' for Inactive)
REMARK    1  A    between atoms: C1_2  and  C2_3 
REMARK       I    between atoms: C1_2  and  N2_14 
REMARK    2  A    between atoms: C2_3  and  O2_4 
REMARK    3  A    between atoms: O2_4  and  C3_5 
REMARK    4  A    between atoms: N2_14  and  C8_16 
ROOT
HETATM    1  O1  UNL     1      39.694  68.450  39.646  1.00  0.00    -0.271 OA
HETATM    2  C1  UNL     1      39.073  67.952  40.619  1.00  0.00     0.246 C 
HETATM    3  N2  UNL     1      39.695  67.567  41.792  1.00  0.00    -0.323 N 
ATOM      4  H2  UNL     1      39.085  67.166  42.505  1.00  0.00     0.169 HD
ENDROOT
BRANCH   2   5
HETATM    5  C2  UNL     1      37.616  67.804  40.418  1.00  0.00     0.280 C 
BRANCH   5   6
HETATM    6  O2  UNL     1      37.173  66.482  40.473  1.00  0.00    -0.326 OA
BRANCH   6   7
HETATM    7  C3  UNL     1      37.699  65.540  39.579  1.00  0.00     0.143 A 
HETATM    8  C4  UNL     1      38.468  64.478  40.054  1.00  0.00     0.081 A 
HETATM    9  C5  UNL     1      38.986  63.555  39.182  1.00  0.00     0.056 A 
HETATM   10 CL1  UNL     1      39.953  62.219  39.781  1.00  0.00    -0.083 Cl
HETATM   11  C6  UNL     1      38.745  63.682  37.845  1.00  0.00     0.048 A 
HETATM   12 BR1  UNL     1      39.466  62.402  36.645  1.00  0.00    -0.048 Br
HETATM   13  C7  UNL     1      37.980  64.739  37.371  1.00  0.00     0.111 A 
HETATM   14  N1  UNL     1      37.498  65.610  38.258  1.00  0.00    -0.345 N 
ATOM     15  H1  UNL     1      36.935  66.384  37.905  1.00  0.00     0.167 HD
ENDBRANCH   6   7
ENDBRANCH   5   6
ENDBRANCH   2   5
BRANCH   3  16
HETATM   16  C8  UNL     1      41.076  67.653  42.141  1.00  0.00     0.080 A 
HETATM   17  C9  UNL     1      41.672  68.759  42.683  1.00  0.00     0.078 A 
HETATM   18  C10 UNL     1      43.042  68.779  43.006  1.00  0.00     0.160 A 
HETATM   19  F1  UNL     1      43.608  69.883  43.541  1.00  0.00    -0.203 F 
HETATM   20  C11 UNL     1      43.846  67.687  42.789  1.00  0.00     0.196 A 
HETATM   21  F2  UNL     1      45.163  67.709  43.100  1.00  0.00    -0.199 F 
HETATM   22  C12 UNL     1      43.250  66.573  42.244  1.00  0.00     0.198 A 
HETATM   23  F3  UNL     1      44.055  65.496  42.034  1.00  0.00    -0.199 F 
HETATM   24  C13 UNL     1      41.911  66.544  41.926  1.00  0.00     0.184 A 
HETATM   25  F4  UNL     1      41.354  65.427  41.389  1.00  0.00    -0.200 F 
ENDBRANCH   3  16
TORSDOF 4
ENDMDL
MODEL 2
REMARK VINA RESULT: -8.445109969      4.875      7.619
REMARK  4 active torsions:
REMARK  status: ('A' for Active; 'I' for Inactive)
REMARK    1  A    between atoms: C1_2  and  C2_3 
REMARK       I    between atoms: C1_2  and  N2_14 
REMARK    2  A    between atoms: C2_3  and  O2_4 
REMARK    3  A    between atoms: O2_4  and  C3_5 
REMARK    4  A    between atoms: N2_14  and  C8_16 
ROOT
HETATM    1  O1  UNL     1      40.093  63.164  37.151  1.00  0.00    -0.271 OA
HETATM    2  C1  UNL     1      40.014  64.081  38.006  1.00  0.00     0.246 C 
HETATM    3  N2  UNL     1      39.545  65.348  37.712  1.00  0.00    -0.323 N 
ATOM      4  H2  UNL     1      39.539  66.008  38.489  1.00  0.00     0.169 HD
ENDROOT
BRANCH   2   5
HETATM    5  C2  UNL     1      40.467  63.707  39.363  1.00  0.00     0.280 C 
BRANCH   5   6
HETATM    6  O2  UNL     1      40.139  64.645  40.343  1.00  0.00    -0.326 OA
BRANCH   6   7
HETATM    7  C3  UNL     1      41.153  65.410  40.933  1.00  0.00     0.143 A 
HETATM    8  C4  UNL     1      40.832  66.537  41.689  1.00  0.00     0.081 A 
HETATM    9  C5  UNL     1      41.821  67.290  42.266  1.00  0.00     0.056 A 
HETATM   10 CL1  UNL     1      41.415  68.707  43.216  1.00  0.00    -0.083 Cl
HETATM   11  C6  UNL     1      43.127  66.930  42.096  1.00  0.00     0.048 A 
HETATM   12 BR1  UNL     1      44.491  67.977  42.896  1.00  0.00    -0.048 Br
HETATM   13  C7  UNL     1      43.450  65.809  41.343  1.00  0.00     0.111 A 
HETATM   14  N1  UNL     1      42.451  65.109  40.803  1.00  0.00    -0.345 N 
ATOM     15  H1  UNL     1      42.693  64.285  40.252  1.00  0.00     0.167 HD
ENDBRANCH   6   7
ENDBRANCH   5   6
ENDBRANCH   2   5
BRANCH   3  16
HETATM   16  C8  UNL     1      39.067  65.855  36.467  1.00  0.00     0.080 A 
HETATM   17  C9  UNL     1      37.869  65.518  35.898  1.00  0.00     0.078 A 
HETATM   18  C10 UNL     1      37.456  66.057  34.666  1.00  0.00     0.160 A 
HETATM   19  F1  UNL     1      36.268  65.707  34.125  1.00  0.00    -0.203 F 
HETATM   20  C11 UNL     1      38.238  66.948  33.974  1.00  0.00     0.196 A 
HETATM   21  F2  UNL     1      37.839  67.465  32.788  1.00  0.00    -0.199 F 
HETATM   22  C12 UNL     1      39.443  67.291  34.543  1.00  0.00     0.198 A 
HETATM   23  F3  UNL     1      40.211  68.175  33.850  1.00  0.00    -0.199 F 
HETATM   24  C13 UNL     1      39.855  66.769  35.748  1.00  0.00     0.184 A 
HETATM   25  F4  UNL     1      41.052  67.130  36.282  1.00  0.00    -0.200 F 
ENDBRANCH   3  16
TORSDOF 4
ENDMDL
MODEL 3
REMARK VINA RESULT: -8.393408273      4.365      6.306
REMARK  4 active torsions:
REMARK  status: ('A' for Active; 'I' for Inactive)
REMARK    1  A    between atoms: C1_2  and  C2_3 
REMARK       I    between atoms: C1_2  and  N2_14 
REMARK    2  A    between atoms: C2_3  and  O2_4 
REMARK    3  A    between atoms: O2_4  and  C3_5 
REMARK    4  A    between atoms: N2_14  and  C8_16 
ROOT
HETATM    1  O1  UNL     1      37.407  65.194  38.124  1.00  0.00    -0.271 OA
HETATM    2  C1  UNL     1      37.510  66.313  38.686  1.00  0.00     0.246 C 
HETATM    3  N2  UNL     1      38.153  67.390  38.106  1.00  0.00    -0.323 N 
ATOM      4  H2  UNL     1      38.180  68.243  38.666  1.00  0.00     0.169 HD
ENDROOT
BRANCH   2   5
HETATM    5  C2  UNL     1      36.891  66.397  40.026  1.00  0.00     0.280 C 
BRANCH   5   6
HETATM    6  O2  UNL     1      37.555  65.649  40.999  1.00  0.00    -0.326 OA
BRANCH   6   7
HETATM    7  C3  UNL     1      38.951  65.724  41.095  1.00  0.00     0.143 A 
HETATM    8  C4  UNL     1      39.547  66.663  41.935  1.00  0.00     0.081 A 
HETATM    9  C5  UNL     1      40.912  66.741  42.030  1.00  0.00     0.056 A 
HETATM   10 CL1  UNL     1      41.659  67.923  43.088  1.00  0.00    -0.083 Cl
HETATM   11  C6  UNL     1      41.687  65.892  41.294  1.00  0.00     0.048 A 
HETATM   12 BR1  UNL     1      43.576  66.006  41.429  1.00  0.00    -0.048 Br
HETATM   13  C7  UNL     1      41.096  64.956  40.456  1.00  0.00     0.111 A 
HETATM   14  N1  UNL     1      39.764  64.919  40.399  1.00  0.00    -0.345 N 
ATOM     15  H1  UNL     1      39.335  64.229  39.783  1.00  0.00     0.167 HD
ENDBRANCH   6   7
ENDBRANCH   5   6
ENDBRANCH   2   5
BRANCH   3  16
HETATM   16  C8  UNL     1      38.785  67.472  36.829  1.00  0.00     0.080 A 
HETATM   17  C9  UNL     1      38.125  67.669  35.647  1.00  0.00     0.078 A 
HETATM   18  C10 UNL     1      38.809  67.741  34.419  1.00  0.00     0.160 A 
HETATM   19  F1  UNL     1      38.134  67.937  33.265  1.00  0.00    -0.203 F 
HETATM   20  C11 UNL     1      40.174  67.614  34.350  1.00  0.00     0.196 A 
HETATM   21  F2  UNL     1      40.830  67.682  33.168  1.00  0.00    -0.199 F 
HETATM   22  C12 UNL     1      40.842  67.415  35.537  1.00  0.00     0.198 A 
HETATM   23  F3  UNL     1      42.194  67.290  35.458  1.00  0.00    -0.199 F 
HETATM   24  C13 UNL     1      40.181  67.344  36.742  1.00  0.00     0.184 A 
HETATM   25  F4  UNL     1      40.872  67.147  37.896  1.00  0.00    -0.200 F 
ENDBRANCH   3  16
TORSDOF 4
ENDMDL
MODEL 4
REMARK VINA RESULT: -8.383015742      2.771      3.408
REMARK  4 active torsions:
REMARK  status: ('A' for Active; 'I' for Inactive)
REMARK    1  A    between atoms: C1_2  and  C2_3 
REMARK       I    between atoms: C1_2  and  N2_14 
REMARK    2  A    between atoms: C2_3  and  O2_4 
REMARK    3  A    between atoms: O2_4  and  C3_5 
REMARK    4  A    between atoms: N2_14  and  C8_16 
ROOT
HETATM    1  O1  UNL     1      38.947  66.808  41.756  1.00  0.00    -0.271 OA
HETATM    2  C1  UNL     1      39.231  66.267  40.657  1.00  0.00     0.246 C 
HETATM    3  N2  UNL     1      40.530  66.070  40.228  1.00  0.00    -0.323 N 
ATOM      4  H2  UNL     1      40.631  65.629  39.314  1.00  0.00     0.169 HD
ENDROOT
BRANCH   2   5
HETATM    5  C2  UNL     1      38.065  65.854  39.847  1.00  0.00     0.280 C 
BRANCH   5   6
HETATM    6  O2  UNL     1      38.376  64.941  38.839  1.00  0.00    -0.326 OA
BRANCH   6   7
HETATM    7  C3  UNL     1      38.172  65.297  37.499  1.00  0.00     0.143 A 
HETATM    8  C4  UNL     1      38.506  66.575  37.054  1.00  0.00     0.081 A 
HETATM    9  C5  UNL     1      38.305  66.927  35.744  1.00  0.00     0.056 A 
HETATM   10 CL1  UNL     1      38.726  68.536  35.186  1.00  0.00    -0.083 Cl
HETATM   11  C6  UNL     1      37.775  66.017  34.876  1.00  0.00     0.048 A 
HETATM   12 BR1  UNL     1      37.500  66.511  33.065  1.00  0.00    -0.048 Br
HETATM   13  C7  UNL     1      37.442  64.743  35.317  1.00  0.00     0.111 A 
HETATM   14  N1  UNL     1      37.656  64.449  36.600  1.00  0.00    -0.345 N 
ATOM     15  H1  UNL     1      37.410  63.512  36.919  1.00  0.00     0.167 HD
ENDBRANCH   6   7
ENDBRANCH   5   6
ENDBRANCH   2   5
BRANCH   3  16
HETATM   16  C8  UNL     1      41.749  66.399  40.892  1.00  0.00     0.080 A 
HETATM   17  C9  UNL     1      42.342  65.628  41.855  1.00  0.00     0.078 A 
HETATM   18  C10 UNL     1      43.548  66.011  42.471  1.00  0.00     0.160 A 
HETATM   19  F1  UNL     1      44.113  65.232  43.420  1.00  0.00    -0.203 F 
HETATM   20  C11 UNL     1      44.187  67.178  42.135  1.00  0.00     0.196 A 
HETATM   21  F2  UNL     1      45.346  67.545  42.730  1.00  0.00    -0.199 F 
HETATM   22  C12 UNL     1      43.594  67.956  41.167  1.00  0.00     0.198 A 
HETATM   23  F3  UNL     1      44.235  69.111  40.840  1.00  0.00    -0.199 F 
HETATM   24  C13 UNL     1      42.415  67.590  40.559  1.00  0.00     0.184 A 
HETATM   25  F4  UNL     1      41.857  68.381  39.605  1.00  0.00    -0.200 F 
ENDBRANCH   3  16
TORSDOF 4
ENDMDL
MODEL 5
REMARK VINA RESULT: -8.373255454      4.699      6.663
REMARK  4 active torsions:
REMARK  status: ('A' for Active; 'I' for Inactive)
REMARK    1  A    between atoms: C1_2  and  C2_3 
REMARK       I    between atoms: C1_2  and  N2_14 
REMARK    2  A    between atoms: C2_3  and  O2_4 
REMARK    3  A    between atoms: O2_4  and  C3_5 
REMARK    4  A    between atoms: N2_14  and  C8_16 
ROOT
HETATM    1  O1  UNL     1      38.005  65.381  38.824  1.00  0.00    -0.271 OA
HETATM    2  C1  UNL     1      38.274  66.462  39.407  1.00  0.00     0.246 C 
HETATM    3  N2  UNL     1      38.889  67.526  38.774  1.00  0.00    -0.323 N 
ATOM      4  H2  UNL     1      39.064  68.345  39.356  1.00  0.00     0.169 HD
ENDROOT
BRANCH   2   5
HETATM    5  C2  UNL     1      37.884  66.514  40.832  1.00  0.00     0.280 C 
BRANCH   5   6
HETATM    6  O2  UNL     1      38.738  65.802  41.675  1.00  0.00    -0.326 OA
BRANCH   6   7
HETATM    7  C3  UNL     1      40.085  66.178  41.770  1.00  0.00     0.143 A 
HETATM    8  C4  UNL     1      40.439  67.355  42.430  1.00  0.00     0.081 A 
HETATM    9  C5  UNL     1      41.755  67.726  42.524  1.00  0.00     0.056 A 
HETATM   10 CL1  UNL     1      42.199  69.206  43.354  1.00  0.00    -0.083 Cl
HETATM   11  C6  UNL     1      42.719  66.937  41.966  1.00  0.00     0.048 A 
HETATM   12 BR1  UNL     1      44.538  67.459  42.099  1.00  0.00    -0.048 Br
HETATM   13  C7  UNL     1      42.368  65.766  41.308  1.00  0.00     0.111 A 
HETATM   14  N1  UNL     1      41.075  65.447  41.245  1.00  0.00    -0.345 N 
ATOM     15  H1  UNL     1      40.823  64.585  40.761  1.00  0.00     0.167 HD
ENDBRANCH   6   7
ENDBRANCH   5   6
ENDBRANCH   2   5
BRANCH   3  16
HETATM   16  C8  UNL     1      39.313  67.633  37.416  1.00  0.00     0.080 A 
HETATM   17  C9  UNL     1      40.577  67.355  36.972  1.00  0.00     0.078 A 
HETATM   18  C10 UNL     1      40.931  67.480  35.616  1.00  0.00     0.160 A 
HETATM   19  F1  UNL     1      42.187  67.200  35.203  1.00  0.00    -0.203 F 
HETATM   20  C11 UNL     1      40.022  67.891  34.673  1.00  0.00     0.196 A 
HETATM   21  F2  UNL     1      40.364  68.012  33.369  1.00  0.00    -0.199 F 
HETATM   22  C12 UNL     1      38.749  68.171  35.115  1.00  0.00     0.198 A 
HETATM   23  F3  UNL     1      37.856  68.577  34.172  1.00  0.00    -0.199 F 
HETATM   24  C13 UNL     1      38.395  68.051  36.439  1.00  0.00     0.184 A 
HETATM   25  F4  UNL     1      37.128  68.335  36.842  1.00  0.00    -0.200 F 
ENDBRANCH   3  16
TORSDOF 4
ENDMDL
