MODEL 1
REMARK VINA RESULT: -6.993432508      0.000      0.000
REMARK  3 active torsions:
REMARK  status: ('A' for Active; 'I' for Inactive)
REMARK    1  A    between atoms: C3_5  and  N2_6 
REMARK    2  A    between atoms: N2_6  and  N3_8 
REMARK    3  A    between atoms: C4_10  and  C5_11 
ROOT
HETATM    1  N2  UNL     1      28.046 -15.402  40.639  1.00  0.00    -0.132 N 
ATOM      2  H2  UNL     1      28.897 -15.796  41.041  1.00  0.00     0.205 HD
ENDROOT
BRANCH   1   3
HETATM    3  C3  UNL     1      27.125 -15.002  41.457  1.00  0.00     0.697 A 
HETATM    4  N1  UNL     1      27.409 -14.445  42.641  1.00  0.00    -0.189 N 
HETATM    5  C2  UNL     1      26.273 -14.135  43.263  1.00  0.00     0.066 A 
ATOM      6  H1  UNL     1      28.347 -14.283  43.009  1.00  0.00     0.184 HD
HETATM    7  C1  UNL     1      26.134 -13.560  44.473  1.00  0.00     0.046 C 
HETATM    8  C11 UNL     1      25.247 -14.517  42.426  1.00  0.00     0.066 A 
HETATM    9  N4  UNL     1      25.790 -15.048  41.322  1.00  0.00    -0.189 N 
HETATM   10  C12 UNL     1      23.955 -14.379  42.677  1.00  0.00     0.046 C 
ATOM     11  H4  UNL     1      25.280 -15.420  40.520  1.00  0.00     0.184 HD
ENDBRANCH   1   3
BRANCH   1  12
HETATM   12  N3  UNL     1      27.959 -15.333  39.264  1.00  0.00    -0.297 N 
HETATM   13  C4  UNL     1      28.582 -16.108  38.447  1.00  0.00     0.119 C 
ATOM     14  H3  UNL     1      27.355 -14.614  38.865  1.00  0.00     0.186 HD
BRANCH  13  15
HETATM   15  C5  UNL     1      28.412 -15.941  37.022  1.00  0.00    -0.017 A 
HETATM   16  C6  UNL     1      28.444 -17.021  36.184  1.00  0.00     0.032 A 
HETATM   17  C7  UNL     1      28.281 -16.875  34.800  1.00  0.00     0.013 A 
HETATM   18 BR1  UNL     1      28.344 -18.454  33.744  1.00  0.00    -0.051 Br
HETATM   19  C8  UNL     1      28.085 -15.625  34.271  1.00  0.00     0.038 A 
HETATM   20  C9  UNL     1      28.053 -14.545  35.097  1.00  0.00     0.013 A 
HETATM   21 BR2  UNL     1      27.781 -12.823  34.343  1.00  0.00    -0.051 Br
HETATM   22  C10 UNL     1      28.216 -14.696  36.478  1.00  0.00     0.032 A 
ENDBRANCH  13  15
ENDBRANCH   1  12
TORSDOF 3
ENDMDL
MODEL 2
REMARK VINA RESULT: -6.985435178      0.055      2.199
REMARK  3 active torsions:
REMARK  status: ('A' for Active; 'I' for Inactive)
REMARK    1  A    between atoms: C3_5  and  N2_6 
REMARK    2  A    between atoms: N2_6  and  N3_8 
REMARK    3  A    between atoms: C4_10  and  C5_11 
ROOT
HETATM    1  N2  UNL     1      28.057 -15.408  40.626  1.00  0.00    -0.132 N 
ATOM      2  H2  UNL     1      28.912 -15.787  41.033  1.00  0.00     0.205 HD
ENDROOT
BRANCH   1   3
HETATM    3  C3  UNL     1      27.131 -15.006  41.438  1.00  0.00     0.697 A 
HETATM    4  N1  UNL     1      27.409 -14.466  42.632  1.00  0.00    -0.189 N 
HETATM    5  C2  UNL     1      26.269 -14.149  43.244  1.00  0.00     0.066 A 
ATOM      6  H1  UNL     1      28.345 -14.321  43.012  1.00  0.00     0.184 HD
HETATM    7  C1  UNL     1      26.124 -13.586  44.459  1.00  0.00     0.046 C 
HETATM    8  C11 UNL     1      25.248 -14.508  42.391  1.00  0.00     0.066 A 
HETATM    9  N4  UNL     1      25.798 -15.033  41.287  1.00  0.00    -0.189 N 
HETATM   10  C12 UNL     1      23.956 -14.357  42.629  1.00  0.00     0.046 C 
ATOM     11  H4  UNL     1      25.292 -15.390  40.476  1.00  0.00     0.184 HD
ENDBRANCH   1   3
BRANCH   1  12
HETATM   12  N3  UNL     1      27.968 -15.361  39.250  1.00  0.00    -0.297 N 
HETATM   13  C4  UNL     1      28.615 -16.128  38.444  1.00  0.00     0.119 C 
ATOM     14  H3  UNL     1      27.343 -14.666  38.841  1.00  0.00     0.186 HD
BRANCH  13  15
HETATM   15  C5  UNL     1      28.442 -15.986  37.017  1.00  0.00    -0.017 A 
HETATM   16  C6  UNL     1      28.258 -14.753  36.456  1.00  0.00     0.032 A 
HETATM   17  C7  UNL     1      28.088 -14.599  35.073  1.00  0.00     0.013 A 
HETATM   18 BR1  UNL     1      27.841 -12.831  34.417  1.00  0.00    -0.051 Br
HETATM   19  C8  UNL     1      28.106 -15.704  34.263  1.00  0.00     0.038 A 
HETATM   20  C9  UNL     1      28.288 -16.936  34.812  1.00  0.00     0.013 A 
HETATM   21 BR2  UNL     1      28.310 -18.453  33.672  1.00  0.00    -0.051 Br
HETATM   22  C10 UNL     1      28.458 -17.084  36.193  1.00  0.00     0.032 A 
ENDBRANCH  13  15
ENDBRANCH   1  12
TORSDOF 3
ENDMDL
MODEL 3
REMARK VINA RESULT: -6.980152365      2.069      2.238
REMARK  3 active torsions:
REMARK  status: ('A' for Active; 'I' for Inactive)
REMARK    1  A    between atoms: C3_5  and  N2_6 
REMARK    2  A    between atoms: N2_6  and  N3_8 
REMARK    3  A    between atoms: C4_10  and  C5_11 
ROOT
HETATM    1  N2  UNL     1      26.095 -15.328  39.667  1.00  0.00    -0.132 N 
ATOM      2  H2  UNL     1      25.291 -15.842  39.304  1.00  0.00     0.205 HD
ENDROOT
BRANCH   1   3
HETATM    3  C3  UNL     1      26.120 -15.068  40.935  1.00  0.00     0.697 A 
HETATM    4  N1  UNL     1      27.264 -14.874  41.605  1.00  0.00    -0.189 N 
HETATM    5  C2  UNL     1      26.984 -14.628  42.884  1.00  0.00     0.066 A 
ATOM      6  H1  UNL     1      28.200 -14.910  41.200  1.00  0.00     0.184 HD
HETATM    7  C1  UNL     1      27.859 -14.382  43.878  1.00  0.00     0.046 C 
HETATM    8  C11 UNL     1      25.612 -14.671  43.005  1.00  0.00     0.066 A 
HETATM    9  N4  UNL     1      25.099 -14.944  41.797  1.00  0.00    -0.189 N 
HETATM   10  C12 UNL     1      24.931 -14.477  44.122  1.00  0.00     0.046 C 
ATOM     11  H4  UNL     1      24.109 -15.039  41.573  1.00  0.00     0.184 HD
ENDBRANCH   1   3
BRANCH   1  12
HETATM   12  N3  UNL     1      27.076 -14.959  38.770  1.00  0.00    -0.297 N 
HETATM   13  C4  UNL     1      28.057 -15.708  38.402  1.00  0.00     0.119 C 
ATOM     14  H3  UNL     1      27.022 -14.023  38.369  1.00  0.00     0.186 HD
BRANCH  13  15
HETATM   15  C5  UNL     1      29.027 -15.213  37.454  1.00  0.00    -0.017 A 
HETATM   16  C6  UNL     1      30.258 -15.799  37.344  1.00  0.00     0.032 A 
HETATM   17  C7  UNL     1      31.210 -15.329  36.429  1.00  0.00     0.013 A 
HETATM   18 BR1  UNL     1      32.882 -16.231  36.373  1.00  0.00    -0.051 Br
HETATM   19  C8  UNL     1      30.906 -14.261  35.626  1.00  0.00     0.038 A 
HETATM   20  C9  UNL     1      29.684 -13.670  35.729  1.00  0.00     0.013 A 
HETATM   21 BR2  UNL     1      29.284 -12.191  34.609  1.00  0.00    -0.051 Br
HETATM   22  C10 UNL     1      28.737 -14.143  36.644  1.00  0.00     0.032 A 
ENDBRANCH  13  15
ENDBRANCH   1  12
TORSDOF 3
ENDMDL
MODEL 4
REMARK VINA RESULT: -6.977652004      2.071      2.914
REMARK  3 active torsions:
REMARK  status: ('A' for Active; 'I' for Inactive)
REMARK    1  A    between atoms: C3_5  and  N2_6 
REMARK    2  A    between atoms: N2_6  and  N3_8 
REMARK    3  A    between atoms: C4_10  and  C5_11 
ROOT
HETATM    1  N2  UNL     1      26.081 -15.308  39.671  1.00  0.00    -0.132 N 
ATOM      2  H2  UNL     1      25.270 -15.809  39.307  1.00  0.00     0.205 HD
ENDROOT
BRANCH   1   3
HETATM    3  C3  UNL     1      26.107 -15.047  40.939  1.00  0.00     0.697 A 
HETATM    4  N1  UNL     1      27.251 -14.854  41.608  1.00  0.00    -0.189 N 
HETATM    5  C2  UNL     1      26.973 -14.606  42.887  1.00  0.00     0.066 A 
ATOM      6  H1  UNL     1      28.187 -14.890  41.203  1.00  0.00     0.184 HD
HETATM    7  C1  UNL     1      27.848 -14.360  43.880  1.00  0.00     0.046 C 
HETATM    8  C11 UNL     1      25.601 -14.649  43.009  1.00  0.00     0.066 A 
HETATM    9  N4  UNL     1      25.087 -14.921  41.802  1.00  0.00    -0.189 N 
HETATM   10  C12 UNL     1      24.920 -14.453  44.127  1.00  0.00     0.046 C 
ATOM     11  H4  UNL     1      24.096 -15.016  41.578  1.00  0.00     0.184 HD
ENDBRANCH   1   3
BRANCH   1  12
HETATM   12  N3  UNL     1      27.071 -14.957  38.777  1.00  0.00    -0.297 N 
HETATM   13  C4  UNL     1      28.056 -15.712  38.434  1.00  0.00     0.119 C 
ATOM     14  H3  UNL     1      27.020 -14.029  38.356  1.00  0.00     0.186 HD
BRANCH  13  15
HETATM   15  C5  UNL     1      29.035 -15.235  37.486  1.00  0.00    -0.017 A 
HETATM   16  C6  UNL     1      28.755 -14.179  36.665  1.00  0.00     0.032 A 
HETATM   17  C7  UNL     1      29.695 -13.704  35.740  1.00  0.00     0.013 A 
HETATM   18 BR1  UNL     1      29.183 -12.228  34.656  1.00  0.00    -0.051 Br
HETATM   19  C8  UNL     1      30.922 -14.309  35.653  1.00  0.00     0.038 A 
HETATM   20  C9  UNL     1      31.210 -15.362  36.465  1.00  0.00     0.013 A 
HETATM   21 BR2  UNL     1      32.915 -16.185  36.328  1.00  0.00    -0.051 Br
HETATM   22  C10 UNL     1      30.268 -15.831  37.387  1.00  0.00     0.032 A 
ENDBRANCH  13  15
ENDBRANCH   1  12
TORSDOF 3
ENDMDL
MODEL 5
REMARK VINA RESULT: -6.938044873      2.082      2.488
REMARK  3 active torsions:
REMARK  status: ('A' for Active; 'I' for Inactive)
REMARK    1  A    between atoms: C3_5  and  N2_6 
REMARK    2  A    between atoms: N2_6  and  N3_8 
REMARK    3  A    between atoms: C4_10  and  C5_11 
ROOT
HETATM    1  N2  UNL     1      26.200 -15.343  39.562  1.00  0.00    -0.132 N 
ATOM      2  H2  UNL     1      25.362 -15.821  39.230  1.00  0.00     0.205 HD
ENDROOT
BRANCH   1   3
HETATM    3  C3  UNL     1      26.280 -15.082  40.829  1.00  0.00     0.697 A 
HETATM    4  N1  UNL     1      25.195 -14.958  41.606  1.00  0.00    -0.189 N 
HETATM    5  C2  UNL     1      25.580 -14.691  42.852  1.00  0.00     0.066 A 
ATOM      6  H1  UNL     1      24.229 -15.053  41.292  1.00  0.00     0.184 HD
HETATM    7  C1  UNL     1      24.791 -14.496  43.926  1.00  0.00     0.046 C 
HETATM    8  C11 UNL     1      26.958 -14.649  42.842  1.00  0.00     0.066 A 
HETATM    9  N4  UNL     1      27.369 -14.892  41.590  1.00  0.00    -0.189 N 
HETATM   10  C12 UNL     1      27.729 -14.411  43.890  1.00  0.00     0.046 C 
ATOM     11  H4  UNL     1      28.337 -14.926  41.271  1.00  0.00     0.184 HD
ENDBRANCH   1   3
BRANCH   1  12
HETATM   12  N3  UNL     1      27.166 -15.020  38.632  1.00  0.00    -0.297 N 
HETATM   13  C4  UNL     1      28.295 -15.625  38.503  1.00  0.00     0.119 C 
ATOM     14  H3  UNL     1      26.971 -14.245  37.999  1.00  0.00     0.186 HD
BRANCH  13  15
HETATM   15  C5  UNL     1      29.231 -15.197  37.490  1.00  0.00    -0.017 A 
HETATM   16  C6  UNL     1      30.406 -15.869  37.297  1.00  0.00     0.032 A 
HETATM   17  C7  UNL     1      31.324 -15.467  36.317  1.00  0.00     0.013 A 
HETATM   18 BR1  UNL     1      32.920 -16.485  36.148  1.00  0.00    -0.051 Br
HETATM   19  C8  UNL     1      31.042 -14.377  35.534  1.00  0.00     0.038 A 
HETATM   20  C9  UNL     1      29.876 -13.702  35.719  1.00  0.00     0.013 A 
HETATM   21 BR2  UNL     1      29.505 -12.196  34.624  1.00  0.00    -0.051 Br
HETATM   22  C10 UNL     1      28.962 -14.108  36.698  1.00  0.00     0.032 A 
ENDBRANCH  13  15
ENDBRANCH   1  12
TORSDOF 3
ENDMDL
