MODEL 1
REMARK VINA RESULT: -5.628606018      0.000      0.000
REMARK  3 active torsions:
REMARK  status: ('A' for Active; 'I' for Inactive)
REMARK    1  A    between atoms: C8_11  and  C9_12 
REMARK    2  A    between atoms: C9_12  and  O2_13 
REMARK    3  A    between atoms: C9_12  and  C10_15 
ROOT
HETATM    1  O1  UNL     1      30.988 -17.317  33.310  1.00  0.00    -0.247 OA
HETATM    2  C1  UNL     1      30.022 -17.052  34.107  1.00  0.00     0.316 C 
HETATM    3  N1  UNL     1      29.913 -17.412  35.461  1.00  0.00    -0.336 N 
ATOM      4  H1  UNL     1      30.683 -17.584  36.108  1.00  0.00     0.164 HD
HETATM    5  C2  UNL     1      28.526 -17.492  35.756  1.00  0.00     0.117 C 
HETATM    6  C3  UNL     1      28.097 -17.141  37.105  1.00  0.00     0.037 C 
HETATM    7  C4  UNL     1      29.078 -16.646  38.058  1.00  0.00    -0.024 C 
HETATM    8  C5  UNL     1      28.562 -15.613  38.700  1.00  0.00    -0.030 C 
HETATM    9  C6  UNL     1      27.178 -15.353  38.201  1.00  0.00     0.032 C 
HETATM   10  C7  UNL     1      27.117 -15.988  36.886  1.00  0.00     0.007 C 
HETATM   11  C8  UNL     1      27.590 -15.266  35.661  1.00  0.00     0.046 C 
HETATM   12  C11 UNL     1      27.933 -16.430  34.810  1.00  0.00     0.116 C 
HETATM   13  N2  UNL     1      28.848 -16.327  33.765  1.00  0.00    -0.336 N 
ATOM     14  H2  UNL     1      28.701 -15.813  32.896  1.00  0.00     0.164 HD
ENDROOT
BRANCH  11  15
HETATM   15  C9  UNL     1      28.509 -14.184  35.865  1.00  0.00     0.149 C 
BRANCH  15  16
HETATM   16  O2  UNL     1      27.855 -13.024  36.302  1.00  0.00    -0.393 OA
ATOM     17  H2  UNL     1      27.317 -13.191  37.067  1.00  0.00     0.210 HD
ENDBRANCH  15  16
BRANCH  15  18
HETATM   18  C10 UNL     1      29.351 -13.681  34.736  1.00  0.00     0.158 C 
HETATM   19 BR1  UNL     1      31.193 -13.856  35.430  1.00  0.00    -0.076 Br
HETATM   20 BR2  UNL     1      29.151 -11.788  34.446  1.00  0.00    -0.076 Br
ENDBRANCH  15  18
ENDBRANCH  11  15
TORSDOF 3
ENDMDL
MODEL 2
REMARK VINA RESULT: -5.228987630      2.296      3.992
REMARK  3 active torsions:
REMARK  status: ('A' for Active; 'I' for Inactive)
REMARK    1  A    between atoms: C8_11  and  C9_12 
REMARK    2  A    between atoms: C9_12  and  O2_13 
REMARK    3  A    between atoms: C9_12  and  C10_15 
ROOT
HETATM    1  O1  UNL     1      30.023 -11.835  34.589  1.00  0.00    -0.247 OA
HETATM    2  C1  UNL     1      29.661 -12.909  35.184  1.00  0.00     0.316 C 
HETATM    3  N1  UNL     1      28.702 -13.840  34.749  1.00  0.00    -0.336 N 
ATOM      4  H1  UNL     1      28.432 -14.029  33.783  1.00  0.00     0.164 HD
HETATM    5  C2  UNL     1      28.180 -14.467  35.913  1.00  0.00     0.117 C 
HETATM    6  C3  UNL     1      27.760 -15.859  35.803  1.00  0.00     0.037 C 
HETATM    7  C4  UNL     1      27.968 -16.570  34.550  1.00  0.00    -0.024 C 
HETATM    8  C5  UNL     1      28.438 -17.775  34.820  1.00  0.00    -0.030 C 
HETATM    9  C6  UNL     1      28.575 -17.941  36.299  1.00  0.00     0.032 C 
HETATM   10  C7  UNL     1      28.625 -16.582  36.835  1.00  0.00     0.007 C 
HETATM   11  C8  UNL     1      29.918 -15.826  36.898  1.00  0.00     0.046 C 
HETATM   12  C11 UNL     1      29.392 -14.442  36.864  1.00  0.00     0.116 C 
HETATM   13  N2  UNL     1      30.172 -13.374  36.425  1.00  0.00    -0.336 N 
ATOM     14  H2  UNL     1      30.980 -12.990  36.915  1.00  0.00     0.164 HD
ENDROOT
BRANCH  11  15
HETATM   15  C9  UNL     1      30.960 -16.260  36.014  1.00  0.00     0.149 C 
BRANCH  15  16
HETATM   16  O2  UNL     1      31.442 -17.529  36.364  1.00  0.00    -0.393 OA
ATOM     17  H2  UNL     1      31.886 -17.949  35.637  1.00  0.00     0.210 HD
ENDBRANCH  15  16
BRANCH  15  18
HETATM   18  C10 UNL     1      32.216 -15.458  35.872  1.00  0.00     0.158 C 
HETATM   19 BR1  UNL     1      32.446 -15.319  33.914  1.00  0.00    -0.076 Br
HETATM   20 BR2  UNL     1      33.781 -16.422  36.447  1.00  0.00    -0.076 Br
ENDBRANCH  15  18
ENDBRANCH  11  15
TORSDOF 3
ENDMDL
MODEL 3
REMARK VINA RESULT: -5.161797765      1.876      2.204
REMARK  3 active torsions:
REMARK  status: ('A' for Active; 'I' for Inactive)
REMARK    1  A    between atoms: C8_11  and  C9_12 
REMARK    2  A    between atoms: C9_12  and  O2_13 
REMARK    3  A    between atoms: C9_12  and  C10_15 
ROOT
HETATM    1  O1  UNL     1      33.010 -15.202  36.054  1.00  0.00    -0.247 OA
HETATM    2  C1  UNL     1      31.826 -15.657  36.231  1.00  0.00     0.316 C 
HETATM    3  N1  UNL     1      31.058 -15.594  37.406  1.00  0.00    -0.336 N 
ATOM      4  H1  UNL     1      31.129 -14.892  38.142  1.00  0.00     0.164 HD
HETATM    5  C2  UNL     1      30.164 -16.698  37.372  1.00  0.00     0.117 C 
HETATM    6  C3  UNL     1      28.855 -16.531  37.993  1.00  0.00     0.037 C 
HETATM    7  C4  UNL     1      28.486 -15.233  38.540  1.00  0.00    -0.024 C 
HETATM    8  C5  UNL     1      27.243 -14.961  38.183  1.00  0.00    -0.030 C 
HETATM    9  C6  UNL     1      26.700 -16.083  37.361  1.00  0.00     0.032 C 
HETATM   10  C7  UNL     1      27.873 -16.789  36.850  1.00  0.00     0.007 C 
HETATM   11  C8  UNL     1      28.562 -16.334  35.599  1.00  0.00     0.046 C 
HETATM   12  C11 UNL     1      29.919 -16.869  35.860  1.00  0.00     0.116 C 
HETATM   13  N2  UNL     1      31.047 -16.327  35.248  1.00  0.00    -0.336 N 
ATOM     14  H2  UNL     1      31.277 -16.398  34.257  1.00  0.00     0.164 HD
ENDROOT
BRANCH  11  15
HETATM   15  C9  UNL     1      28.350 -14.971  35.208  1.00  0.00     0.149 C 
BRANCH  15  16
HETATM   16  O2  UNL     1      27.089 -14.790  34.622  1.00  0.00    -0.393 OA
ATOM     17  H2  UNL     1      26.440 -14.521  35.262  1.00  0.00     0.210 HD
ENDBRANCH  15  16
BRANCH  15  18
HETATM   18  C10 UNL     1      29.266 -14.313  34.224  1.00  0.00     0.158 C 
HETATM   19 BR1  UNL     1      29.855 -12.683  35.173  1.00  0.00    -0.076 Br
HETATM   20 BR2  UNL     1      28.335 -13.631  32.682  1.00  0.00    -0.076 Br
ENDBRANCH  15  18
ENDBRANCH  11  15
TORSDOF 3
ENDMDL
MODEL 4
REMARK VINA RESULT: -4.997969846      2.447      3.753
REMARK  3 active torsions:
REMARK  status: ('A' for Active; 'I' for Inactive)
REMARK    1  A    between atoms: C8_11  and  C9_12 
REMARK    2  A    between atoms: C9_12  and  O2_13 
REMARK    3  A    between atoms: C9_12  and  C10_15 
ROOT
HETATM    1  O1  UNL     1      28.489 -12.541  33.180  1.00  0.00    -0.247 OA
HETATM    2  C1  UNL     1      28.747 -13.149  34.277  1.00  0.00     0.316 C 
HETATM    3  N1  UNL     1      27.829 -13.766  35.143  1.00  0.00    -0.336 N 
ATOM      4  H1  UNL     1      26.923 -14.160  34.889  1.00  0.00     0.164 HD
HETATM    5  C2  UNL     1      28.404 -13.735  36.442  1.00  0.00     0.117 C 
HETATM    6  C3  UNL     1      28.097 -14.837  37.347  1.00  0.00     0.037 C 
HETATM    7  C4  UNL     1      27.296 -15.953  36.865  1.00  0.00    -0.024 C 
HETATM    8  C5  UNL     1      27.844 -17.080  37.283  1.00  0.00    -0.030 C 
HETATM    9  C6  UNL     1      29.069 -16.776  38.082  1.00  0.00     0.032 C 
HETATM   10  C7  UNL     1      29.467 -15.428  37.680  1.00  0.00     0.007 C 
HETATM   11  C8  UNL     1      30.321 -15.208  36.468  1.00  0.00     0.046 C 
HETATM   12  C11 UNL     1      29.911 -13.824  36.130  1.00  0.00     0.116 C 
HETATM   13  N2  UNL     1      30.042 -13.318  34.839  1.00  0.00    -0.336 N 
ATOM     14  H2  UNL     1      30.923 -13.105  34.372  1.00  0.00     0.164 HD
ENDROOT
BRANCH  11  15
HETATM   15  C9  UNL     1      30.329 -16.253  35.487  1.00  0.00     0.149 C 
BRANCH  15  16
HETATM   16  O2  UNL     1      31.082 -17.357  35.912  1.00  0.00    -0.393 OA
ATOM     17  H2  UNL     1      31.182 -18.001  35.221  1.00  0.00     0.210 HD
ENDBRANCH  15  16
BRANCH  15  18
HETATM   18  C10 UNL     1      30.864 -16.000  34.113  1.00  0.00     0.158 C 
HETATM   19 BR1  UNL     1      29.405 -16.622  32.935  1.00  0.00    -0.076 Br
HETATM   20 BR2  UNL     1      32.337 -17.158  33.664  1.00  0.00    -0.076 Br
ENDBRANCH  15  18
ENDBRANCH  11  15
TORSDOF 3
ENDMDL
MODEL 5
REMARK VINA RESULT: -4.939197434      2.398      3.064
REMARK  3 active torsions:
REMARK  status: ('A' for Active; 'I' for Inactive)
REMARK    1  A    between atoms: C8_11  and  C9_12 
REMARK    2  A    between atoms: C9_12  and  O2_13 
REMARK    3  A    between atoms: C9_12  and  C10_15 
ROOT
HETATM    1  O1  UNL     1      29.102 -14.121  32.156  1.00  0.00    -0.247 OA
HETATM    2  C1  UNL     1      28.950 -14.351  33.406  1.00  0.00     0.316 C 
HETATM    3  N1  UNL     1      28.300 -15.449  33.995  1.00  0.00    -0.336 N 
ATOM      4  H1  UNL     1      28.191 -16.380  33.591  1.00  0.00     0.164 HD
HETATM    5  C2  UNL     1      27.823 -15.014  35.261  1.00  0.00     0.117 C 
HETATM    6  C3  UNL     1      27.770 -15.995  36.340  1.00  0.00     0.037 C 
HETATM    7  C4  UNL     1      28.280 -17.338  36.108  1.00  0.00    -0.024 C 
HETATM    8  C5  UNL     1      28.998 -17.705  37.155  1.00  0.00    -0.030 C 
HETATM    9  C6  UNL     1      29.010 -16.605  38.166  1.00  0.00     0.032 C 
HETATM   10  C7  UNL     1      28.668 -15.394  37.422  1.00  0.00     0.007 C 
HETATM   11  C8  UNL     1      29.723 -14.611  36.700  1.00  0.00     0.046 C 
HETATM   12  C11 UNL     1      28.881 -13.969  35.662  1.00  0.00     0.116 C 
HETATM   13  N2  UNL     1      29.421 -13.521  34.458  1.00  0.00    -0.336 N 
ATOM     14  H2  UNL     1      30.052 -12.727  34.350  1.00  0.00     0.164 HD
ENDROOT
BRANCH  11  15
HETATM   15  C9  UNL     1      30.929 -15.311  36.367  1.00  0.00     0.149 C 
BRANCH  15  16
HETATM   16  O2  UNL     1      31.800 -15.393  37.462  1.00  0.00    -0.393 OA
ATOM     17  H2  UNL     1      31.373 -15.769  38.223  1.00  0.00     0.210 HD
ENDBRANCH  15  16
BRANCH  15  18
HETATM   18  C10 UNL     1      31.820 -14.808  35.275  1.00  0.00     0.158 C 
HETATM   19 BR1  UNL     1      31.981 -16.364  34.067  1.00  0.00    -0.076 Br
HETATM   20 BR2  UNL     1      33.627 -14.505  35.871  1.00  0.00    -0.076 Br
ENDBRANCH  15  18
ENDBRANCH  11  15
TORSDOF 3
ENDMDL
