MODEL 1
REMARK VINA RESULT: -7.935452638      0.000      0.000
REMARK  11 active torsions:
REMARK  status: ('A' for Active; 'I' for Inactive)
REMARK    1  A    between atoms: N1_1  and  C1_4 
REMARK    2  A    between atoms: C2_7  and  N3_8 
REMARK    3  A    between atoms: N3_8  and  C3_9 
REMARK    4  A    between atoms: N3_8  and  C4_12 
REMARK    5  A    between atoms: C3_9  and  O1_10 
REMARK    6  A    between atoms: C4_12  and  C5_13 
REMARK    7  A    between atoms: C5_13  and  C6_14 
REMARK    8  A    between atoms: C10_20  and  N5_21 
REMARK    9  A    between atoms: C11_23  and  O2_25 
REMARK   10  A    between atoms: C14_32  and  N9_33 
REMARK   11  A    between atoms: N10_36  and  C15_37 
ROOT
HETATM    1  N3  UNL     1      10.777  26.854  18.534  1.00  0.00    -0.195 N 
ENDROOT
BRANCH   1   2
HETATM    2  C2  UNL     1      10.616  25.440  18.472  1.00  0.00     0.711 A 
HETATM    3  N2  UNL     1      11.260  24.610  19.289  1.00  0.00    -0.021 N 
HETATM    4  C1  UNL     1      11.088  23.280  19.191  1.00  0.00     0.710 A 
ATOM      5  H2  UNL     1      11.891  24.986  19.997  1.00  0.00     0.203 HD
HETATM    6  N10 UNL     1      10.284  22.703  18.294  1.00  0.00     0.032 N 
HETATM    7  C14 UNL     1       9.625  23.555  17.461  1.00  0.00     0.710 A 
HETATM    8  N8  UNL     1       9.798  24.888  17.559  1.00  0.00    -0.021 N 
ATOM      9  H8  UNL     1       9.291  25.499  16.918  1.00  0.00     0.203 HD
BRANCH   4  10
HETATM   10  N1  UNL     1      11.724  22.540  20.034  1.00  0.00    -0.233 N 
ATOM     11  H12 UNL     1      11.230  22.174  20.848  1.00  0.00     0.174 HD
ATOM     12  H11 UNL     1      12.714  22.370  19.852  1.00  0.00     0.174 HD
ENDBRANCH   4  10
BRANCH   6  13
HETATM   13  C15 UNL     1      10.111  21.298  18.173  1.00  0.00     0.404 C 
HETATM   14  N11 UNL     1      10.367  20.714  16.846  1.00  0.00    -0.063 NA
HETATM   15  N12 UNL     1      11.018  19.609  17.516  1.00  0.00     0.019 NA
HETATM   16  O3  UNL     1      11.282  20.552  18.479  1.00  0.00    -0.223 OA
ENDBRANCH   6  13
BRANCH   7  17
HETATM   17  N9  UNL     1       8.798  23.125  16.565  1.00  0.00    -0.233 N 
ATOM     18  H92 UNL     1       7.788  23.183  16.696  1.00  0.00     0.174 HD
ATOM     19  H91 UNL     1       9.193  22.740  15.708  1.00  0.00     0.174 HD
ENDBRANCH   7  17
ENDBRANCH   1   2
BRANCH   1  20
HETATM   20  C3  UNL     1      11.902  27.438  17.828  1.00  0.00     0.308 C 
BRANCH  20  21
HETATM   21  O1  UNL     1      13.101  27.188  18.532  1.00  0.00    -0.381 OA
ATOM     22  H1  UNL     1      13.183  26.260  18.720  1.00  0.00     0.211 HD
ENDBRANCH  20  21
ENDBRANCH   1  20
BRANCH   1  23
HETATM   23  C4  UNL     1       9.938  27.774  19.228  1.00  0.00     0.149 C 
BRANCH  23  24
HETATM   24  C5  UNL     1       9.172  28.758  18.434  1.00  0.00     0.079 C 
BRANCH  24  25
HETATM   25  C6  UNL     1       7.901  28.057  18.012  1.00  0.00     0.035 A 
HETATM   26  C7  UNL     1       6.736  27.914  18.731  1.00  0.00     0.115 A 
HETATM   27  N4  UNL     1       5.857  27.234  18.004  1.00  0.00    -0.350 N 
HETATM   28  C8  UNL     1       6.432  26.934  16.828  1.00  0.00     0.113 A 
ATOM     29  H4  UNL     1       4.911  26.982  18.290  1.00  0.00     0.166 HD
HETATM   30  C9  UNL     1       5.931  26.243  15.739  1.00  0.00     0.078 A 
HETATM   31  N7  UNL     1       7.679  27.436  16.828  1.00  0.00    -0.311 N 
HETATM   32  C10 UNL     1       6.749  26.079  14.645  1.00  0.00     0.039 A 
HETATM   33  C12 UNL     1       8.025  26.595  14.655  1.00  0.00     0.047 A 
HETATM   34  C13 UNL     1       8.474  27.273  15.761  1.00  0.00     0.101 A 
BRANCH  32  35
HETATM   35  N5  UNL     1       6.270  25.377  13.514  1.00  0.00    -0.325 N 
HETATM   36  C11 UNL     1       5.768  25.966  12.497  1.00  0.00     0.229 C 
HETATM   37  N6  UNL     1       5.306  25.217  11.395  1.00  0.00    -0.056 NA
ATOM     38  H5  UNL     1       6.328  24.359  13.510  1.00  0.00     0.169 HD
BRANCH  36  39
HETATM   39  O2  UNL     1       5.676  27.340  12.476  1.00  0.00    -0.335 OA
ATOM     40  H2  UNL     1       6.438  27.862  12.257  1.00  0.00     0.220 HD
ENDBRANCH  36  39
ENDBRANCH  32  35
ENDBRANCH  24  25
ENDBRANCH  23  24
ENDBRANCH   1  23
TORSDOF 11
ENDMDL
MODEL 2
REMARK VINA RESULT: -7.899275442      2.902      6.672
REMARK  11 active torsions:
REMARK  status: ('A' for Active; 'I' for Inactive)
REMARK    1  A    between atoms: N1_1  and  C1_4 
REMARK    2  A    between atoms: C2_7  and  N3_8 
REMARK    3  A    between atoms: N3_8  and  C3_9 
REMARK    4  A    between atoms: N3_8  and  C4_12 
REMARK    5  A    between atoms: C3_9  and  O1_10 
REMARK    6  A    between atoms: C4_12  and  C5_13 
REMARK    7  A    between atoms: C5_13  and  C6_14 
REMARK    8  A    between atoms: C10_20  and  N5_21 
REMARK    9  A    between atoms: C11_23  and  O2_25 
REMARK   10  A    between atoms: C14_32  and  N9_33 
REMARK   11  A    between atoms: N10_36  and  C15_37 
ROOT
HETATM    1  N3  UNL     1      11.337  30.388  16.252  1.00  0.00    -0.195 N 
ENDROOT
BRANCH   1   2
HETATM    2  C2  UNL     1      10.343  29.639  16.945  1.00  0.00     0.711 A 
HETATM    3  N2  UNL     1       9.510  28.808  16.323  1.00  0.00    -0.021 N 
HETATM    4  C1  UNL     1       8.579  28.127  17.013  1.00  0.00     0.710 A 
ATOM      5  H2  UNL     1       9.579  28.686  15.312  1.00  0.00     0.203 HD
HETATM    6  N10 UNL     1       8.417  28.228  18.335  1.00  0.00     0.032 N 
HETATM    7  C14 UNL     1       9.272  29.077  18.968  1.00  0.00     0.710 A 
HETATM    8  N8  UNL     1      10.206  29.760  18.277  1.00  0.00    -0.021 N 
ATOM      9  H8  UNL     1      10.830  30.390  18.781  1.00  0.00     0.203 HD
BRANCH   4  10
HETATM   10  N1  UNL     1       7.825  27.319  16.347  1.00  0.00    -0.233 N 
ATOM     11  H12 UNL     1       7.790  26.336  16.614  1.00  0.00     0.174 HD
ATOM     12  H11 UNL     1       7.307  27.709  15.558  1.00  0.00     0.174 HD
ENDBRANCH   4  10
BRANCH   6  13
HETATM   13  C15 UNL     1       7.423  27.525  19.068  1.00  0.00     0.404 C 
HETATM   14  N11 UNL     1       6.503  28.340  19.880  1.00  0.00    -0.063 NA
HETATM   15  N12 UNL     1       5.433  27.468  19.446  1.00  0.00     0.019 NA
HETATM   16  O3  UNL     1       6.225  27.306  18.336  1.00  0.00    -0.223 OA
ENDBRANCH   6  13
BRANCH   7  17
HETATM   17  N9  UNL     1       9.238  29.246  20.250  1.00  0.00    -0.233 N 
ATOM     18  H92 UNL     1       9.638  30.073  20.692  1.00  0.00     0.174 HD
ATOM     19  H91 UNL     1       8.778  28.526  20.806  1.00  0.00     0.174 HD
ENDBRANCH   7  17
ENDBRANCH   1   2
BRANCH   1  20
HETATM   20  C3  UNL     1      11.033  31.765  15.912  1.00  0.00     0.308 C 
BRANCH  20  21
HETATM   21  O1  UNL     1       9.653  32.015  16.083  1.00  0.00    -0.381 OA
ATOM     22  H1  UNL     1       9.524  32.794  16.610  1.00  0.00     0.211 HD
ENDBRANCH  20  21
ENDBRANCH   1  20
BRANCH   1  23
HETATM   23  C4  UNL     1      12.622  29.920  15.847  1.00  0.00     0.149 C 
BRANCH  23  24
HETATM   24  C5  UNL     1      13.271  28.869  16.659  1.00  0.00     0.079 C 
BRANCH  24  25
HETATM   25  C6  UNL     1      12.583  27.574  16.293  1.00  0.00     0.035 A 
HETATM   26  C7  UNL     1      12.409  27.035  15.038  1.00  0.00     0.115 A 
HETATM   27  N4  UNL     1      11.754  25.884  15.147  1.00  0.00    -0.350 N 
HETATM   28  C8  UNL     1      11.502  25.668  16.448  1.00  0.00     0.113 A 
ATOM     29  H4  UNL     1      11.489  25.271  14.376  1.00  0.00     0.166 HD
HETATM   30  C9  UNL     1      10.853  24.618  17.070  1.00  0.00     0.078 A 
HETATM   31  N7  UNL     1      12.007  26.697  17.151  1.00  0.00    -0.311 N 
HETATM   32  C10 UNL     1      10.733  24.651  18.440  1.00  0.00     0.039 A 
HETATM   33  C12 UNL     1      11.253  25.709  19.152  1.00  0.00     0.047 A 
HETATM   34  C13 UNL     1      11.889  26.727  18.486  1.00  0.00     0.101 A 
BRANCH  32  35
HETATM   35  N5  UNL     1      10.074  23.593  19.110  1.00  0.00    -0.325 N 
HETATM   36  C11 UNL     1      10.690  22.560  19.543  1.00  0.00     0.229 C 
HETATM   37  N6  UNL     1       9.983  21.534  20.205  1.00  0.00    -0.056 NA
ATOM     38  H5  UNL     1       9.067  23.658  19.254  1.00  0.00     0.169 HD
BRANCH  36  39
HETATM   39  O2  UNL     1      12.049  22.445  19.361  1.00  0.00    -0.335 OA
ATOM     40  H2  UNL     1      12.420  22.535  18.491  1.00  0.00     0.220 HD
ENDBRANCH  36  39
ENDBRANCH  32  35
ENDBRANCH  24  25
ENDBRANCH  23  24
ENDBRANCH   1  23
TORSDOF 11
ENDMDL
MODEL 3
REMARK VINA RESULT: -7.883057206      2.317      4.794
REMARK  11 active torsions:
REMARK  status: ('A' for Active; 'I' for Inactive)
REMARK    1  A    between atoms: N1_1  and  C1_4 
REMARK    2  A    between atoms: C2_7  and  N3_8 
REMARK    3  A    between atoms: N3_8  and  C3_9 
REMARK    4  A    between atoms: N3_8  and  C4_12 
REMARK    5  A    between atoms: C3_9  and  O1_10 
REMARK    6  A    between atoms: C4_12  and  C5_13 
REMARK    7  A    between atoms: C5_13  and  C6_14 
REMARK    8  A    between atoms: C10_20  and  N5_21 
REMARK    9  A    between atoms: C11_23  and  O2_25 
REMARK   10  A    between atoms: C14_32  and  N9_33 
REMARK   11  A    between atoms: N10_36  and  C15_37 
ROOT
HETATM    1  N3  UNL     1       9.543  25.334  15.189  1.00  0.00    -0.195 N 
ENDROOT
BRANCH   1   2
HETATM    2  C2  UNL     1       9.924  24.551  16.316  1.00  0.00     0.711 A 
HETATM    3  N2  UNL     1       9.822  23.224  16.334  1.00  0.00    -0.021 N 
HETATM    4  C1  UNL     1      10.183  22.523  17.422  1.00  0.00     0.710 A 
ATOM      5  H2  UNL     1       9.465  22.734  15.513  1.00  0.00     0.203 HD
HETATM    6  N10 UNL     1      10.658  23.083  18.538  1.00  0.00     0.032 N 
HETATM    7  C14 UNL     1      10.763  24.439  18.516  1.00  0.00     0.710 A 
HETATM    8  N8  UNL     1      10.401  25.143  17.425  1.00  0.00    -0.021 N 
ATOM      9  H8  UNL     1      10.491  26.159  17.442  1.00  0.00     0.203 HD
BRANCH   4  10
HETATM   10  N1  UNL     1      10.082  21.238  17.356  1.00  0.00    -0.233 N 
ATOM     11  H12 UNL     1       9.274  20.780  17.779  1.00  0.00     0.174 HD
ATOM     12  H11 UNL     1      10.838  20.734  16.893  1.00  0.00     0.174 HD
ENDBRANCH   4  10
BRANCH   6  13
HETATM   13  C15 UNL     1      11.025  22.348  19.698  1.00  0.00     0.404 C 
HETATM   14  N11 UNL     1      10.094  21.292  20.132  1.00  0.00    -0.063 NA
HETATM   15  N12 UNL     1      11.247  20.466  20.416  1.00  0.00     0.019 NA
HETATM   16  O3  UNL     1      11.831  21.211  19.421  1.00  0.00    -0.223 OA
ENDBRANCH   6  13
BRANCH   7  17
HETATM   17  N9  UNL     1      11.232  25.102  19.523  1.00  0.00    -0.233 N 
ATOM     18  H92 UNL     1      11.300  26.119  19.511  1.00  0.00     0.174 HD
ATOM     19  H91 UNL     1      11.518  24.568  20.344  1.00  0.00     0.174 HD
ENDBRANCH   7  17
ENDBRANCH   1   2
BRANCH   1  20
HETATM   20  C3  UNL     1      10.534  26.228  14.620  1.00  0.00     0.308 C 
BRANCH  20  21
HETATM   21  O1  UNL     1      11.833  25.716  14.836  1.00  0.00    -0.381 OA
ATOM     22  H1  UNL     1      12.143  25.964  15.699  1.00  0.00     0.211 HD
ENDBRANCH  20  21
ENDBRANCH   1  20
BRANCH   1  23
HETATM   23  C4  UNL     1       8.269  25.335  14.549  1.00  0.00     0.149 C 
BRANCH  23  24
HETATM   24  C5  UNL     1       7.462  26.573  14.601  1.00  0.00     0.079 C 
BRANCH  24  25
HETATM   25  C6  UNL     1       6.782  26.573  15.951  1.00  0.00     0.035 A 
HETATM   26  C7  UNL     1       5.593  25.972  16.298  1.00  0.00     0.115 A 
HETATM   27  N4  UNL     1       5.346  26.208  17.582  1.00  0.00    -0.350 N 
HETATM   28  C8  UNL     1       6.353  26.949  18.071  1.00  0.00     0.113 A 
ATOM     29  H4  UNL     1       4.533  25.882  18.104  1.00  0.00     0.166 HD
HETATM   30  C9  UNL     1       6.558  27.448  19.345  1.00  0.00     0.078 A 
HETATM   31  N7  UNL     1       7.233  27.173  17.080  1.00  0.00    -0.311 N 
HETATM   32  C10 UNL     1       7.694  28.188  19.575  1.00  0.00     0.039 A 
HETATM   33  C12 UNL     1       8.589  28.413  18.552  1.00  0.00     0.047 A 
HETATM   34  C13 UNL     1       8.339  27.895  17.306  1.00  0.00     0.101 A 
BRANCH  32  35
HETATM   35  N5  UNL     1       7.937  28.715  20.866  1.00  0.00    -0.325 N 
HETATM   36  C11 UNL     1       8.688  28.132  21.720  1.00  0.00     0.229 C 
HETATM   37  N6  UNL     1       8.895  28.702  22.994  1.00  0.00    -0.056 NA
ATOM     38  H5  UNL     1       7.493  29.595  21.126  1.00  0.00     0.169 HD
BRANCH  36  39
HETATM   39  O2  UNL     1       9.298  26.941  21.397  1.00  0.00    -0.335 OA
ATOM     40  H2  UNL     1       8.782  26.146  21.337  1.00  0.00     0.220 HD
ENDBRANCH  36  39
ENDBRANCH  32  35
ENDBRANCH  24  25
ENDBRANCH  23  24
ENDBRANCH   1  23
TORSDOF 11
ENDMDL
MODEL 4
REMARK VINA RESULT: -7.881786222      5.781      7.742
REMARK  11 active torsions:
REMARK  status: ('A' for Active; 'I' for Inactive)
REMARK    1  A    between atoms: N1_1  and  C1_4 
REMARK    2  A    between atoms: C2_7  and  N3_8 
REMARK    3  A    between atoms: N3_8  and  C3_9 
REMARK    4  A    between atoms: N3_8  and  C4_12 
REMARK    5  A    between atoms: C3_9  and  O1_10 
REMARK    6  A    between atoms: C4_12  and  C5_13 
REMARK    7  A    between atoms: C5_13  and  C6_14 
REMARK    8  A    between atoms: C10_20  and  N5_21 
REMARK    9  A    between atoms: C11_23  and  O2_25 
REMARK   10  A    between atoms: C14_32  and  N9_33 
REMARK   11  A    between atoms: N10_36  and  C15_37 
ROOT
HETATM    1  N3  UNL     1      14.258  30.370  15.890  1.00  0.00    -0.195 N 
ENDROOT
BRANCH   1   2
HETATM    2  C2  UNL     1      12.900  30.186  16.279  1.00  0.00     0.711 A 
HETATM    3  N2  UNL     1      12.503  29.162  17.031  1.00  0.00    -0.021 N 
HETATM    4  C1  UNL     1      11.210  29.020  17.367  1.00  0.00     0.710 A 
ATOM      5  H2  UNL     1      13.188  28.478  17.355  1.00  0.00     0.203 HD
HETATM    6  N10 UNL     1      10.249  29.866  16.986  1.00  0.00     0.032 N 
HETATM    7  C14 UNL     1      10.658  30.913  16.219  1.00  0.00     0.710 A 
HETATM    8  N8  UNL     1      11.956  31.056  15.881  1.00  0.00    -0.021 N 
ATOM      9  H8  UNL     1      12.229  31.851  15.303  1.00  0.00     0.203 HD
BRANCH   4  10
HETATM   10  N1  UNL     1      10.904  28.018  18.121  1.00  0.00    -0.233 N 
ATOM     11  H12 UNL     1      11.650  27.449  18.521  1.00  0.00     0.174 HD
ATOM     12  H11 UNL     1       9.911  27.830  18.266  1.00  0.00     0.174 HD
ENDBRANCH   4  10
BRANCH   6  13
HETATM   13  C15 UNL     1       8.877  29.711  17.324  1.00  0.00     0.404 C 
HETATM   14  N11 UNL     1       8.352  28.335  17.331  1.00  0.00    -0.063 NA
HETATM   15  N12 UNL     1       7.617  28.678  18.529  1.00  0.00     0.019 NA
HETATM   16  O3  UNL     1       8.648  29.566  18.719  1.00  0.00    -0.223 OA
ENDBRANCH   6  13
BRANCH   7  17
HETATM   17  N9  UNL     1       9.832  31.817  15.805  1.00  0.00    -0.233 N 
ATOM     18  H92 UNL     1       9.933  32.797  16.068  1.00  0.00     0.174 HD
ATOM     19  H91 UNL     1       9.079  31.517  15.187  1.00  0.00     0.174 HD
ENDBRANCH   7  17
ENDBRANCH   1   2
BRANCH   1  20
HETATM   20  C3  UNL     1      15.060  29.184  15.653  1.00  0.00     0.308 C 
BRANCH  20  21
HETATM   21  O1  UNL     1      15.648  28.744  16.860  1.00  0.00    -0.381 OA
ATOM     22  H1  UNL     1      16.594  28.764  16.789  1.00  0.00     0.211 HD
ENDBRANCH  20  21
ENDBRANCH   1  20
BRANCH   1  23
HETATM   23  C4  UNL     1      14.927  31.616  15.707  1.00  0.00     0.149 C 
BRANCH  23  24
HETATM   24  C5  UNL     1      15.421  31.952  14.354  1.00  0.00     0.079 C 
BRANCH  24  25
HETATM   25  C6  UNL     1      14.206  32.371  13.559  1.00  0.00     0.035 A 
HETATM   26  C7  UNL     1      13.563  33.588  13.577  1.00  0.00     0.115 A 
HETATM   27  N4  UNL     1      12.539  33.551  12.733  1.00  0.00    -0.350 N 
HETATM   28  C8  UNL     1      12.508  32.333  12.167  1.00  0.00     0.113 A 
ATOM     29  H4  UNL     1      11.889  34.315  12.546  1.00  0.00     0.166 HD
HETATM   30  C9  UNL     1      11.639  31.806  11.230  1.00  0.00     0.078 A 
HETATM   31  N7  UNL     1      13.524  31.610  12.668  1.00  0.00    -0.311 N 
HETATM   32  C10 UNL     1      11.841  30.509  10.818  1.00  0.00     0.039 A 
HETATM   33  C12 UNL     1      12.885  29.776  11.338  1.00  0.00     0.047 A 
HETATM   34  C13 UNL     1      13.719  30.347  12.266  1.00  0.00     0.101 A 
BRANCH  32  35
HETATM   35  N5  UNL     1      10.972  29.936   9.860  1.00  0.00    -0.325 N 
HETATM   36  C11 UNL     1      11.187  30.006   8.602  1.00  0.00     0.229 C 
HETATM   37  N6  UNL     1      10.286  29.416   7.691  1.00  0.00    -0.056 NA
ATOM     38  H5  UNL     1      10.139  29.446  10.187  1.00  0.00     0.169 HD
BRANCH  36  39
HETATM   39  O2  UNL     1      12.302  30.662   8.133  1.00  0.00    -0.335 OA
ATOM     40  H2  UNL     1      12.430  31.581   8.335  1.00  0.00     0.220 HD
ENDBRANCH  36  39
ENDBRANCH  32  35
ENDBRANCH  24  25
ENDBRANCH  23  24
ENDBRANCH   1  23
TORSDOF 11
ENDMDL
MODEL 5
REMARK VINA RESULT: -7.846839401      4.064      6.507
REMARK  11 active torsions:
REMARK  status: ('A' for Active; 'I' for Inactive)
REMARK    1  A    between atoms: N1_1  and  C1_4 
REMARK    2  A    between atoms: C2_7  and  N3_8 
REMARK    3  A    between atoms: N3_8  and  C3_9 
REMARK    4  A    between atoms: N3_8  and  C4_12 
REMARK    5  A    between atoms: C3_9  and  O1_10 
REMARK    6  A    between atoms: C4_12  and  C5_13 
REMARK    7  A    between atoms: C5_13  and  C6_14 
REMARK    8  A    between atoms: C10_20  and  N5_21 
REMARK    9  A    between atoms: C11_23  and  O2_25 
REMARK   10  A    between atoms: C14_32  and  N9_33 
REMARK   11  A    between atoms: N10_36  and  C15_37 
ROOT
HETATM    1  N3  UNL     1       9.080  28.341  18.274  1.00  0.00    -0.195 N 
ENDROOT
BRANCH   1   2
HETATM    2  C2  UNL     1       9.967  29.136  17.494  1.00  0.00     0.711 A 
HETATM    3  N2  UNL     1       9.564  30.218  16.830  1.00  0.00    -0.021 N 
HETATM    4  C1  UNL     1      10.432  30.936  16.097  1.00  0.00     0.710 A 
ATOM      5  H2  UNL     1       8.585  30.504  16.879  1.00  0.00     0.203 HD
HETATM    6  N10 UNL     1      11.727  30.632  15.977  1.00  0.00     0.032 N 
HETATM    7  C14 UNL     1      12.137  29.527  16.658  1.00  0.00     0.710 A 
HETATM    8  N8  UNL     1      11.266  28.806  17.393  1.00  0.00    -0.021 N 
ATOM      9  H8  UNL     1      11.606  27.982  17.890  1.00  0.00     0.203 HD
BRANCH   4  10
HETATM   10  N1  UNL     1       9.974  31.987  15.504  1.00  0.00    -0.233 N 
ATOM     11  H12 UNL     1       9.260  31.881  14.784  1.00  0.00     0.174 HD
ATOM     12  H11 UNL     1      10.371  32.886  15.777  1.00  0.00     0.174 HD
ENDBRANCH   4  10
BRANCH   6  13
HETATM   13  C15 UNL     1      12.645  31.377  15.189  1.00  0.00     0.404 C 
HETATM   14  N11 UNL     1      12.271  31.608  13.783  1.00  0.00    -0.063 NA
HETATM   15  N12 UNL     1      12.781  32.955  13.925  1.00  0.00     0.019 NA
HETATM   16  O3  UNL     1      12.432  32.781  15.242  1.00  0.00    -0.223 OA
ENDBRANCH   6  13
BRANCH   7  17
HETATM   17  N9  UNL     1      13.370  29.139  16.645  1.00  0.00    -0.233 N 
ATOM     18  H92 UNL     1      13.844  28.833  17.494  1.00  0.00     0.174 HD
ATOM     19  H91 UNL     1      13.851  29.134  15.746  1.00  0.00     0.174 HD
ENDBRANCH   7  17
ENDBRANCH   1   2
BRANCH   1  20
HETATM   20  C3  UNL     1       9.151  28.466  19.718  1.00  0.00     0.308 C 
BRANCH  20  21
HETATM   21  O1  UNL     1       8.982  29.815  20.098  1.00  0.00    -0.381 OA
ATOM     22  H1  UNL     1       9.216  29.930  21.011  1.00  0.00     0.211 HD
ENDBRANCH  20  21
ENDBRANCH   1  20
BRANCH   1  23
HETATM   23  C4  UNL     1       8.113  27.417  17.780  1.00  0.00     0.149 C 
BRANCH  23  24
HETATM   24  C5  UNL     1       6.909  27.956  17.112  1.00  0.00     0.079 C 
BRANCH  24  25
HETATM   25  C6  UNL     1       5.868  26.863  17.180  1.00  0.00     0.035 A 
HETATM   26  C7  UNL     1       4.849  26.722  18.095  1.00  0.00     0.115 A 
HETATM   27  N4  UNL     1       4.154  25.628  17.807  1.00  0.00    -0.350 N 
HETATM   28  C8  UNL     1       4.703  25.058  16.722  1.00  0.00     0.113 A 
ATOM     29  H4  UNL     1       3.344  25.281  18.320  1.00  0.00     0.166 HD
HETATM   30  C9  UNL     1       4.346  23.911  16.038  1.00  0.00     0.078 A 
HETATM   31  N7  UNL     1       5.750  25.809  16.336  1.00  0.00    -0.311 N 
HETATM   32  C10 UNL     1       5.095  23.551  14.941  1.00  0.00     0.039 A 
HETATM   33  C12 UNL     1       6.165  24.327  14.554  1.00  0.00     0.047 A 
HETATM   34  C13 UNL     1       6.477  25.456  15.267  1.00  0.00     0.101 A 
BRANCH  32  35
HETATM   35  N5  UNL     1       4.758  22.383  14.217  1.00  0.00    -0.325 N 
HETATM   36  C11 UNL     1       5.149  21.217  14.566  1.00  0.00     0.229 C 
HETATM   37  N6  UNL     1       4.784  20.086  13.807  1.00  0.00    -0.056 NA
ATOM     38  H5  UNL     1       4.181  22.475  13.382  1.00  0.00     0.169 HD
BRANCH  36  39
HETATM   39  O2  UNL     1       5.932  21.063  15.688  1.00  0.00    -0.335 OA
ATOM     40  H2  UNL     1       5.753  21.580  16.465  1.00  0.00     0.220 HD
ENDBRANCH  36  39
ENDBRANCH  32  35
ENDBRANCH  24  25
ENDBRANCH  23  24
ENDBRANCH   1  23
TORSDOF 11
ENDMDL
