MODEL 1
REMARK VINA RESULT: -7.358034687      0.000      0.000
REMARK  5 active torsions:
REMARK  status: ('A' for Active; 'I' for Inactive)
REMARK    1  A    between atoms: C2_2  and  C4_4 
REMARK    2  A    between atoms: C4_4  and  N1_5 
REMARK    3  A    between atoms: N1_5  and  C5_7 
REMARK    4  A    between atoms: C8_10  and  S1_11 
REMARK    5  A    between atoms: S1_11  and  N2_12 
ROOT
HETATM    1  C5  UNL     1      45.571 -46.783  66.811  1.00  0.00     0.052 A 
HETATM    2  C6  UNL     1      46.687 -46.033  66.462  1.00  0.00     0.032 A 
HETATM    3  C7  UNL     1      46.871 -45.494  65.209  1.00  0.00     0.027 A 
HETATM    4  C8  UNL     1      45.876 -45.723  64.255  1.00  0.00     0.081 A 
HETATM    5  C9  UNL     1      44.754 -46.462  64.558  1.00  0.00     0.054 A 
HETATM    6  C10 UNL     1      44.618 -46.981  65.828  1.00  0.00     0.074 A 
HETATM    7  N3  UNL     1      43.472 -47.742  66.155  1.00  0.00    -0.100 NA
ENDROOT
BRANCH   1   8
HETATM    8  N1  UNL     1      45.421 -47.323  68.118  1.00  0.00    -0.388 N 
ATOM      9  H1  UNL     1      45.199 -48.312  68.234  1.00  0.00     0.159 HD
BRANCH   8  10
HETATM   10  C4  UNL     1      45.579 -46.490  69.280  1.00  0.00     0.123 C 
BRANCH  10  11
HETATM   11  C2  UNL     1      44.547 -46.876  70.311  1.00  0.00    -0.005 C 
HETATM   12  C1  UNL     1      44.938 -46.460  71.699  1.00  0.00     0.011 C 
HETATM   13  C3  UNL     1      43.211 -46.327  69.884  1.00  0.00     0.011 C 
ENDBRANCH  10  11
ENDBRANCH   8  10
ENDBRANCH   1   8
BRANCH   4  14
HETATM   14  S1  UNL     1      46.112 -45.041  62.675  1.00  0.00     0.256 S 
HETATM   15  O1  UNL     1      45.947 -46.083  61.598  1.00  0.00    -0.201 OA
HETATM   16  O2  UNL     1      45.096 -43.963  62.447  1.00  0.00    -0.201 OA
BRANCH  14  17
HETATM   17  N2  UNL     1      47.678 -44.330  62.627  1.00  0.00    -0.324 N 
ATOM     18  H22 UNL     1      48.457 -44.663  62.058  1.00  0.00     0.169 HD
ATOM     19  H21 UNL     1      47.683 -43.530  63.260  1.00  0.00     0.169 HD
ENDBRANCH  14  17
ENDBRANCH   4  14
TORSDOF 5
ENDMDL
MODEL 2
REMARK VINA RESULT: -7.242721500      4.275      6.314
REMARK  5 active torsions:
REMARK  status: ('A' for Active; 'I' for Inactive)
REMARK    1  A    between atoms: C2_2  and  C4_4 
REMARK    2  A    between atoms: C4_4  and  N1_5 
REMARK    3  A    between atoms: N1_5  and  C5_7 
REMARK    4  A    between atoms: C8_10  and  S1_11 
REMARK    5  A    between atoms: S1_11  and  N2_12 
ROOT
HETATM    1  C5  UNL     1      45.879 -46.446  66.782  1.00  0.00     0.052 A 
HETATM    2  C6  UNL     1      46.578 -45.910  67.856  1.00  0.00     0.032 A 
HETATM    3  C7  UNL     1      46.050 -45.804  69.122  1.00  0.00     0.027 A 
HETATM    4  C8  UNL     1      44.744 -46.263  69.318  1.00  0.00     0.081 A 
HETATM    5  C9  UNL     1      44.015 -46.800  68.280  1.00  0.00     0.054 A 
HETATM    6  C10 UNL     1      44.590 -46.884  67.031  1.00  0.00     0.074 A 
HETATM    7  N3  UNL     1      43.854 -47.433  65.956  1.00  0.00    -0.100 NA
ENDROOT
BRANCH   1   8
HETATM    8  N1  UNL     1      46.463 -46.536  65.489  1.00  0.00    -0.388 N 
ATOM      9  H1  UNL     1      46.640 -47.453  65.078  1.00  0.00     0.159 HD
BRANCH   8  10
HETATM   10  C4  UNL     1      46.807 -45.349  64.753  1.00  0.00     0.123 C 
BRANCH  10  11
HETATM   11  C2  UNL     1      45.812 -45.154  63.634  1.00  0.00    -0.005 C 
HETATM   12  C1  UNL     1      44.667 -44.268  64.032  1.00  0.00     0.011 C 
HETATM   13  C3  UNL     1      46.547 -44.658  62.417  1.00  0.00     0.011 C 
ENDBRANCH  10  11
ENDBRANCH   8  10
ENDBRANCH   1   8
BRANCH   4  14
HETATM   14  S1  UNL     1      44.081 -46.127  70.917  1.00  0.00     0.256 S 
HETATM   15  O1  UNL     1      44.350 -44.767  71.509  1.00  0.00    -0.201 OA
HETATM   16  O2  UNL     1      42.597 -46.329  70.854  1.00  0.00    -0.201 OA
BRANCH  14  17
HETATM   17  N2  UNL     1      44.758 -47.378  71.885  1.00  0.00    -0.324 N 
ATOM     18  H22 UNL     1      44.254 -48.201  72.219  1.00  0.00     0.169 HD
ATOM     19  H21 UNL     1      45.737 -47.150  72.060  1.00  0.00     0.169 HD
ENDBRANCH  14  17
ENDBRANCH   4  14
TORSDOF 5
ENDMDL
MODEL 3
REMARK VINA RESULT: -7.177708321      1.250      2.039
REMARK  5 active torsions:
REMARK  status: ('A' for Active; 'I' for Inactive)
REMARK    1  A    between atoms: C2_2  and  C4_4 
REMARK    2  A    between atoms: C4_4  and  N1_5 
REMARK    3  A    between atoms: N1_5  and  C5_7 
REMARK    4  A    between atoms: C8_10  and  S1_11 
REMARK    5  A    between atoms: S1_11  and  N2_12 
ROOT
HETATM    1  C5  UNL     1      45.018 -46.847  67.265  1.00  0.00     0.052 A 
HETATM    2  C6  UNL     1      44.169 -47.228  66.234  1.00  0.00     0.032 A 
HETATM    3  C7  UNL     1      44.419 -46.951  64.910  1.00  0.00     0.027 A 
HETATM    4  C8  UNL     1      45.590 -46.251  64.606  1.00  0.00     0.081 A 
HETATM    5  C9  UNL     1      46.460 -45.853  65.598  1.00  0.00     0.054 A 
HETATM    6  C10 UNL     1      46.163 -46.155  66.909  1.00  0.00     0.074 A 
HETATM    7  N3  UNL     1      47.046 -45.754  67.938  1.00  0.00    -0.100 NA
ENDROOT
BRANCH   1   8
HETATM    8  N1  UNL     1      44.721 -47.154  68.621  1.00  0.00    -0.388 N 
ATOM      9  H1  UNL     1      45.032 -48.041  69.018  1.00  0.00     0.159 HD
BRANCH   8  10
HETATM   10  C4  UNL     1      43.988 -46.228  69.441  1.00  0.00     0.123 C 
BRANCH  10  11
HETATM   11  C2  UNL     1      44.539 -46.264  70.846  1.00  0.00    -0.005 C 
HETATM   12  C1  UNL     1      45.676 -47.233  70.992  1.00  0.00     0.011 C 
HETATM   13  C3  UNL     1      44.900 -44.862  71.259  1.00  0.00     0.011 C 
ENDBRANCH  10  11
ENDBRANCH   8  10
ENDBRANCH   1   8
BRANCH   4  14
HETATM   14  S1  UNL     1      45.902 -45.903  62.934  1.00  0.00     0.256 S 
HETATM   15  O1  UNL     1      46.836 -46.920  62.328  1.00  0.00    -0.201 OA
HETATM   16  O2  UNL     1      44.611 -45.937  62.173  1.00  0.00    -0.201 OA
BRANCH  14  17
HETATM   17  N2  UNL     1      46.551 -44.313  62.830  1.00  0.00    -0.324 N 
ATOM     18  H22 UNL     1      46.000 -43.454  62.804  1.00  0.00     0.169 HD
ATOM     19  H21 UNL     1      47.568 -44.387  62.798  1.00  0.00     0.169 HD
ENDBRANCH  14  17
ENDBRANCH   4  14
TORSDOF 5
ENDMDL
MODEL 4
REMARK VINA RESULT: -7.109489943      1.228      2.021
REMARK  5 active torsions:
REMARK  status: ('A' for Active; 'I' for Inactive)
REMARK    1  A    between atoms: C2_2  and  C4_4 
REMARK    2  A    between atoms: C4_4  and  N1_5 
REMARK    3  A    between atoms: N1_5  and  C5_7 
REMARK    4  A    between atoms: C8_10  and  S1_11 
REMARK    5  A    between atoms: S1_11  and  N2_12 
ROOT
HETATM    1  C5  UNL     1      45.040 -46.840  67.192  1.00  0.00     0.052 A 
HETATM    2  C6  UNL     1      44.166 -47.211  66.179  1.00  0.00     0.032 A 
HETATM    3  C7  UNL     1      44.359 -46.880  64.857  1.00  0.00     0.027 A 
HETATM    4  C8  UNL     1      45.497 -46.134  64.539  1.00  0.00     0.081 A 
HETATM    5  C9  UNL     1      46.390 -45.744  65.513  1.00  0.00     0.054 A 
HETATM    6  C10 UNL     1      46.150 -46.101  66.822  1.00  0.00     0.074 A 
HETATM    7  N3  UNL     1      47.057 -45.709  67.833  1.00  0.00    -0.100 NA
ENDROOT
BRANCH   1   8
HETATM    8  N1  UNL     1      44.801 -47.203  68.546  1.00  0.00    -0.388 N 
ATOM      9  H1  UNL     1      45.210 -48.060  68.919  1.00  0.00     0.159 HD
BRANCH   8  10
HETATM   10  C4  UNL     1      43.989 -46.375  69.397  1.00  0.00     0.123 C 
BRANCH  10  11
HETATM   11  C2  UNL     1      44.569 -46.377  70.791  1.00  0.00    -0.005 C 
HETATM   12  C1  UNL     1      45.776 -47.260  70.910  1.00  0.00     0.011 C 
HETATM   13  C3  UNL     1      44.836 -44.953  71.203  1.00  0.00     0.011 C 
ENDBRANCH  10  11
ENDBRANCH   8  10
ENDBRANCH   1   8
BRANCH   4  14
HETATM   14  S1  UNL     1      45.738 -45.718  62.870  1.00  0.00     0.256 S 
HETATM   15  O1  UNL     1      44.560 -46.133  62.026  1.00  0.00    -0.201 OA
HETATM   16  O2  UNL     1      45.905 -44.233  62.750  1.00  0.00    -0.201 OA
BRANCH  14  17
HETATM   17  N2  UNL     1      47.190 -46.471  62.335  1.00  0.00    -0.324 N 
ATOM     18  H22 UNL     1      47.272 -47.444  62.038  1.00  0.00     0.169 HD
ATOM     19  H21 UNL     1      47.939 -45.779  62.370  1.00  0.00     0.169 HD
ENDBRANCH  14  17
ENDBRANCH   4  14
TORSDOF 5
ENDMDL
MODEL 5
REMARK VINA RESULT: -7.083857081      4.335      6.307
REMARK  5 active torsions:
REMARK  status: ('A' for Active; 'I' for Inactive)
REMARK    1  A    between atoms: C2_2  and  C4_4 
REMARK    2  A    between atoms: C4_4  and  N1_5 
REMARK    3  A    between atoms: N1_5  and  C5_7 
REMARK    4  A    between atoms: C8_10  and  S1_11 
REMARK    5  A    between atoms: S1_11  and  N2_12 
ROOT
HETATM    1  C5  UNL     1      45.900 -46.414  66.725  1.00  0.00     0.052 A 
HETATM    2  C6  UNL     1      46.626 -45.888  67.786  1.00  0.00     0.032 A 
HETATM    3  C7  UNL     1      46.138 -45.812  69.070  1.00  0.00     0.027 A 
HETATM    4  C8  UNL     1      44.845 -46.292  69.299  1.00  0.00     0.081 A 
HETATM    5  C9  UNL     1      44.090 -46.821  68.275  1.00  0.00     0.054 A 
HETATM    6  C10 UNL     1      44.625 -46.874  67.007  1.00  0.00     0.074 A 
HETATM    7  N3  UNL     1      43.863 -47.414  65.945  1.00  0.00    -0.100 NA
ENDROOT
BRANCH   1   8
HETATM    8  N1  UNL     1      46.444 -46.473  65.412  1.00  0.00    -0.388 N 
ATOM      9  H1  UNL     1      46.620 -47.379  64.980  1.00  0.00     0.159 HD
BRANCH   8  10
HETATM   10  C4  UNL     1      46.748 -45.268  64.688  1.00  0.00     0.123 C 
BRANCH  10  11
HETATM   11  C2  UNL     1      45.748 -45.096  63.570  1.00  0.00    -0.005 C 
HETATM   12  C1  UNL     1      44.595 -44.218  63.961  1.00  0.00     0.011 C 
HETATM   13  C3  UNL     1      46.474 -44.607  62.345  1.00  0.00     0.011 C 
ENDBRANCH  10  11
ENDBRANCH   8  10
ENDBRANCH   1   8
BRANCH   4  14
HETATM   14  S1  UNL     1      44.232 -46.195  70.920  1.00  0.00     0.256 S 
HETATM   15  O1  UNL     1      42.728 -46.304  70.945  1.00  0.00    -0.201 OA
HETATM   16  O2  UNL     1      44.799 -47.321  71.731  1.00  0.00    -0.201 OA
BRANCH  14  17
HETATM   17  N2  UNL     1      44.766 -44.710  71.607  1.00  0.00    -0.324 N 
ATOM     18  H22 UNL     1      44.372 -43.792  71.399  1.00  0.00     0.169 HD
ATOM     19  H21 UNL     1      45.534 -44.914  72.247  1.00  0.00     0.169 HD
ENDBRANCH  14  17
ENDBRANCH   4  14
TORSDOF 5
ENDMDL
