MODEL 1
REMARK VINA RESULT: -7.143630001      0.000      0.000
REMARK  3 active torsions:
REMARK  status: ('A' for Active; 'I' for Inactive)
REMARK    1  A    between atoms: C10_12  and  O3_13 
REMARK    2  A    between atoms: C15_19  and  C16_20 
REMARK    3  A    between atoms: C16_20  and  O5_22 
ROOT
HETATM    1  C1  UNL     1     -15.764  34.912  -3.137  1.00  0.00     0.025 C 
HETATM    2  C2  UNL     1     -16.942  35.048  -2.573  1.00  0.00     0.014 C 
HETATM    3  C3  UNL     1     -17.380  34.433  -1.325  1.00  0.00     0.289 C 
HETATM    4  O1  UNL     1     -16.725  33.599  -0.618  1.00  0.00    -0.260 OA
HETATM    5  O2  UNL     1     -18.672  34.921  -1.018  1.00  0.00    -0.311 OA
HETATM    6  C4  UNL     1     -18.711  36.186  -1.653  1.00  0.00     0.141 C 
HETATM    7  C5  UNL     1     -20.092  36.689  -1.921  1.00  0.00     0.038 C 
HETATM    8  C6  UNL     1     -20.072  38.163  -2.053  1.00  0.00    -0.002 C 
HETATM    9  C7  UNL     1     -21.383  38.809  -2.453  1.00  0.00    -0.001 C 
HETATM   10  C8  UNL     1     -22.421  37.917  -3.033  1.00  0.00     0.008 C 
HETATM   11  C9  UNL     1     -23.307  38.767  -3.942  1.00  0.00     0.037 C 
HETATM   12  C10 UNL     1     -22.437  39.011  -5.189  1.00  0.00     0.146 C 
HETATM   13  C11 UNL     1     -21.287  39.859  -4.708  1.00  0.00    -0.056 C 
HETATM   14  C12 UNL     1     -20.938  40.861  -5.487  1.00  0.00     0.017 C 
HETATM   15  C13 UNL     1     -20.592  39.615  -3.454  1.00  0.00     0.026 C 
HETATM   16  C14 UNL     1     -19.457  38.711  -3.312  1.00  0.00     0.012 C 
HETATM   17  C15 UNL     1     -19.089  37.673  -4.291  1.00  0.00     0.091 C 
HETATM   18  C18 UNL     1     -17.771  37.040  -3.801  1.00  0.00     0.027 C 
HETATM   19  C19 UNL     1     -18.113  35.831  -3.023  1.00  0.00     0.054 C 
ENDROOT
BRANCH  17  20
HETATM   20  C16 UNL     1     -18.735  38.219  -5.624  1.00  0.00     0.263 C 
HETATM   21  O4  UNL     1     -19.059  37.641  -6.713  1.00  0.00    -0.265 OA
BRANCH  20  22
HETATM   22  O5  UNL     1     -18.020  39.408  -5.761  1.00  0.00    -0.326 OA
HETATM   23  C17 UNL     1     -16.666  39.437  -6.174  1.00  0.00     0.213 C 
ENDBRANCH  20  22
ENDBRANCH  17  20
BRANCH  12  24
HETATM   24  O3  UNL     1     -23.230  39.665  -6.095  1.00  0.00    -0.391 OA
ATOM     25  H3  UNL     1     -23.480  39.023  -6.748  1.00  0.00     0.210 HD
ENDBRANCH  12  24
TORSDOF 3
ENDMDL
MODEL 2
REMARK VINA RESULT: -6.683399128      7.716     10.502
REMARK  3 active torsions:
REMARK  status: ('A' for Active; 'I' for Inactive)
REMARK    1  A    between atoms: C10_12  and  O3_13 
REMARK    2  A    between atoms: C15_19  and  C16_20 
REMARK    3  A    between atoms: C16_20  and  O5_22 
ROOT
HETATM    1  C1  UNL     1     -15.660  25.010  -0.437  1.00  0.00     0.025 C 
HETATM    2  C2  UNL     1     -16.293  26.026  -0.979  1.00  0.00     0.014 C 
HETATM    3  C3  UNL     1     -17.701  26.066  -1.358  1.00  0.00     0.289 C 
HETATM    4  O1  UNL     1     -18.529  25.099  -1.305  1.00  0.00    -0.260 OA
HETATM    5  O2  UNL     1     -18.006  27.374  -1.802  1.00  0.00    -0.311 OA
HETATM    6  C4  UNL     1     -17.062  28.185  -1.126  1.00  0.00     0.141 C 
HETATM    7  C5  UNL     1     -16.822  29.508  -1.775  1.00  0.00     0.038 C 
HETATM    8  C6  UNL     1     -16.297  30.468  -0.778  1.00  0.00    -0.002 C 
HETATM    9  C7  UNL     1     -15.885  31.823  -1.317  1.00  0.00    -0.001 C 
HETATM   10  C8  UNL     1     -15.684  31.927  -2.786  1.00  0.00     0.008 C 
HETATM   11  C9  UNL     1     -14.683  33.053  -3.038  1.00  0.00     0.037 C 
HETATM   12  C10 UNL     1     -13.328  32.448  -2.626  1.00  0.00     0.146 C 
HETATM   13  C11 UNL     1     -13.434  32.221  -1.139  1.00  0.00    -0.056 C 
HETATM   14  C12 UNL     1     -12.380  32.556  -0.424  1.00  0.00     0.017 C 
HETATM   15  C13 UNL     1     -14.623  31.678  -0.502  1.00  0.00     0.026 C 
HETATM   16  C14 UNL     1     -14.877  30.253  -0.329  1.00  0.00     0.012 C 
HETATM   17  C15 UNL     1     -14.179  29.185  -1.067  1.00  0.00     0.091 C 
HETATM   18  C18 UNL     1     -14.673  27.843  -0.489  1.00  0.00     0.027 C 
HETATM   19  C19 UNL     1     -15.781  27.364  -1.343  1.00  0.00     0.054 C 
ENDROOT
BRANCH  17  20
HETATM   20  C16 UNL     1     -12.717  29.152  -0.814  1.00  0.00     0.263 C 
HETATM   21  O4  UNL     1     -11.855  29.260  -1.747  1.00  0.00    -0.265 OA
BRANCH  20  22
HETATM   22  O5  UNL     1     -12.201  28.999   0.471  1.00  0.00    -0.326 OA
HETATM   23  C17 UNL     1     -11.291  27.965   0.807  1.00  0.00     0.213 C 
ENDBRANCH  20  22
ENDBRANCH  17  20
BRANCH  12  24
HETATM   24  O3  UNL     1     -12.373  33.375  -2.950  1.00  0.00    -0.391 OA
ATOM     25  H3  UNL     1     -11.967  33.075  -3.754  1.00  0.00     0.210 HD
ENDBRANCH  12  24
TORSDOF 3
ENDMDL
MODEL 3
REMARK VINA RESULT: -6.604350503      7.681     10.784
REMARK  3 active torsions:
REMARK  status: ('A' for Active; 'I' for Inactive)
REMARK    1  A    between atoms: C10_12  and  O3_13 
REMARK    2  A    between atoms: C15_19  and  C16_20 
REMARK    3  A    between atoms: C16_20  and  O5_22 
ROOT
HETATM    1  C1  UNL     1     -13.776  24.898   0.408  1.00  0.00     0.025 C 
HETATM    2  C2  UNL     1     -14.683  25.639  -0.186  1.00  0.00     0.014 C 
HETATM    3  C3  UNL     1     -16.068  25.265  -0.452  1.00  0.00     0.289 C 
HETATM    4  O1  UNL     1     -16.604  24.130  -0.230  1.00  0.00    -0.260 OA
HETATM    5  O2  UNL     1     -16.732  26.383  -1.007  1.00  0.00    -0.311 OA
HETATM    6  C4  UNL     1     -16.007  27.489  -0.500  1.00  0.00     0.141 C 
HETATM    7  C5  UNL     1     -16.162  28.738  -1.304  1.00  0.00     0.038 C 
HETATM    8  C6  UNL     1     -15.863  29.917  -0.460  1.00  0.00    -0.002 C 
HETATM    9  C7  UNL     1     -15.855  31.254  -1.173  1.00  0.00    -0.001 C 
HETATM   10  C8  UNL     1     -15.762  31.224  -2.656  1.00  0.00     0.008 C 
HETATM   11  C9  UNL     1     -15.112  32.531  -3.107  1.00  0.00     0.037 C 
HETATM   12  C10 UNL     1     -13.626  32.354  -2.743  1.00  0.00     0.146 C 
HETATM   13  C11 UNL     1     -13.594  32.294  -1.236  1.00  0.00    -0.056 C 
HETATM   14  C12 UNL     1     -12.634  32.976  -0.648  1.00  0.00     0.017 C 
HETATM   15  C13 UNL     1     -14.561  31.545  -0.451  1.00  0.00     0.026 C 
HETATM   16  C14 UNL     1     -14.416  30.135  -0.108  1.00  0.00     0.012 C 
HETATM   17  C15 UNL     1     -13.497  29.201  -0.780  1.00  0.00     0.091 C 
HETATM   18  C18 UNL     1     -13.585  27.860  -0.025  1.00  0.00     0.027 C 
HETATM   19  C19 UNL     1     -14.566  27.008  -0.731  1.00  0.00     0.054 C 
ENDROOT
BRANCH  17  20
HETATM   20  C16 UNL     1     -12.068  29.581  -0.644  1.00  0.00     0.263 C 
HETATM   21  O4  UNL     1     -11.324  29.829  -1.649  1.00  0.00    -0.265 OA
BRANCH  20  22
HETATM   22  O5  UNL     1     -11.456  29.687   0.603  1.00  0.00    -0.326 OA
HETATM   23  C17 UNL     1     -10.920  28.567   1.285  1.00  0.00     0.213 C 
ENDBRANCH  20  22
ENDBRANCH  17  20
BRANCH  12  24
HETATM   24  O3  UNL     1     -12.970  33.449  -3.239  1.00  0.00    -0.391 OA
ATOM     25  H3  UNL     1     -12.827  34.034  -2.505  1.00  0.00     0.210 HD
ENDBRANCH  12  24
TORSDOF 3
ENDMDL
MODEL 4
REMARK VINA RESULT: -6.393283304      6.445     10.053
REMARK  3 active torsions:
REMARK  status: ('A' for Active; 'I' for Inactive)
REMARK    1  A    between atoms: C10_12  and  O3_13 
REMARK    2  A    between atoms: C15_19  and  C16_20 
REMARK    3  A    between atoms: C16_20  and  O5_22 
ROOT
HETATM    1  C1  UNL     1     -15.600  26.808  -0.107  1.00  0.00     0.025 C 
HETATM    2  C2  UNL     1     -14.415  27.351   0.061  1.00  0.00     0.014 C 
HETATM    3  C3  UNL     1     -13.188  26.653   0.427  1.00  0.00     0.289 C 
HETATM    4  O1  UNL     1     -13.076  25.419   0.726  1.00  0.00    -0.260 OA
HETATM    5  O2  UNL     1     -12.122  27.582   0.397  1.00  0.00    -0.311 OA
HETATM    6  C4  UNL     1     -12.554  28.558  -0.534  1.00  0.00     0.141 C 
HETATM    7  C5  UNL     1     -11.878  29.881  -0.386  1.00  0.00     0.038 C 
HETATM    8  C6  UNL     1     -11.953  30.628  -1.662  1.00  0.00    -0.002 C 
HETATM    9  C7  UNL     1     -11.418  32.045  -1.631  1.00  0.00    -0.001 C 
HETATM   10  C8  UNL     1     -11.238  32.665  -0.292  1.00  0.00     0.008 C 
HETATM   11  C9  UNL     1     -11.361  34.178  -0.462  1.00  0.00     0.037 C 
HETATM   12  C10 UNL     1     -12.870  34.410  -0.663  1.00  0.00     0.146 C 
HETATM   13  C11 UNL     1     -13.199  33.750  -1.978  1.00  0.00    -0.056 C 
HETATM   14  C12 UNL     1     -13.996  34.421  -2.783  1.00  0.00     0.017 C 
HETATM   15  C13 UNL     1     -12.671  32.452  -2.368  1.00  0.00     0.026 C 
HETATM   16  C14 UNL     1     -13.302  31.181  -2.033  1.00  0.00     0.012 C 
HETATM   17  C15 UNL     1     -14.322  31.005  -0.984  1.00  0.00     0.091 C 
HETATM   18  C18 UNL     1     -14.791  29.538  -1.054  1.00  0.00     0.027 C 
HETATM   19  C19 UNL     1     -14.005  28.765  -0.068  1.00  0.00     0.054 C 
ENDROOT
BRANCH  17  20
HETATM   20  C16 UNL     1     -15.564  31.776  -1.235  1.00  0.00     0.263 C 
HETATM   21  O4  UNL     1     -16.312  31.566  -2.246  1.00  0.00    -0.265 OA
BRANCH  20  22
HETATM   22  O5  UNL     1     -15.986  32.785  -0.371  1.00  0.00    -0.326 OA
HETATM   23  C17 UNL     1     -16.749  33.894  -0.811  1.00  0.00     0.213 C 
ENDBRANCH  20  22
ENDBRANCH  17  20
BRANCH  12  24
HETATM   24  O3  UNL     1     -13.055  35.767  -0.695  1.00  0.00    -0.391 OA
ATOM     25  H3  UNL     1     -13.690  35.937  -1.381  1.00  0.00     0.210 HD
ENDBRANCH  12  24
TORSDOF 3
ENDMDL
MODEL 5
REMARK VINA RESULT: -6.319324442      7.381     10.430
REMARK  3 active torsions:
REMARK  status: ('A' for Active; 'I' for Inactive)
REMARK    1  A    between atoms: C10_12  and  O3_13 
REMARK    2  A    between atoms: C15_19  and  C16_20 
REMARK    3  A    between atoms: C16_20  and  O5_22 
ROOT
HETATM    1  C1  UNL     1     -14.906  26.635   0.212  1.00  0.00     0.025 C 
HETATM    2  C2  UNL     1     -13.751  27.252   0.315  1.00  0.00     0.014 C 
HETATM    3  C3  UNL     1     -12.465  26.637   0.624  1.00  0.00     0.289 C 
HETATM    4  O1  UNL     1     -12.261  25.416   0.926  1.00  0.00    -0.260 OA
HETATM    5  O2  UNL     1     -11.463  27.631   0.533  1.00  0.00    -0.311 OA
HETATM    6  C4  UNL     1     -12.002  28.568  -0.382  1.00  0.00     0.141 C 
HETATM    7  C5  UNL     1     -11.405  29.932  -0.278  1.00  0.00     0.038 C 
HETATM    8  C6  UNL     1     -11.590  30.659  -1.555  1.00  0.00    -0.002 C 
HETATM    9  C7  UNL     1     -11.145  32.107  -1.562  1.00  0.00    -0.001 C 
HETATM   10  C8  UNL     1     -10.938  32.751  -0.238  1.00  0.00     0.008 C 
HETATM   11  C9  UNL     1     -11.165  34.252  -0.413  1.00  0.00     0.037 C 
HETATM   12  C10 UNL     1     -12.694  34.386  -0.539  1.00  0.00     0.146 C 
HETATM   13  C11 UNL     1     -13.045  33.693  -1.831  1.00  0.00    -0.056 C 
HETATM   14  C12 UNL     1     -13.922  34.304  -2.599  1.00  0.00     0.017 C 
HETATM   15  C13 UNL     1     -12.457  32.427  -2.237  1.00  0.00     0.026 C 
HETATM   16  C14 UNL     1     -12.988  31.122  -1.861  1.00  0.00     0.012 C 
HETATM   17  C15 UNL     1     -13.941  30.894  -0.760  1.00  0.00     0.091 C 
HETATM   18  C18 UNL     1     -14.319  29.399  -0.795  1.00  0.00     0.027 C 
HETATM   19  C19 UNL     1     -13.438  28.688   0.155  1.00  0.00     0.054 C 
ENDROOT
BRANCH  17  20
HETATM   20  C16 UNL     1     -15.241  31.583  -0.954  1.00  0.00     0.263 C 
HETATM   21  O4  UNL     1     -15.734  32.377  -0.087  1.00  0.00    -0.265 OA
BRANCH  20  22
HETATM   22  O5  UNL     1     -16.002  31.397  -2.107  1.00  0.00    -0.326 OA
HETATM   23  C17 UNL     1     -17.057  30.454  -2.178  1.00  0.00     0.213 C 
ENDBRANCH  20  22
ENDBRANCH  17  20
BRANCH  12  24
HETATM   24  O3  UNL     1     -12.965  35.729  -0.573  1.00  0.00    -0.391 OA
ATOM     25  H3  UNL     1     -12.392  36.103  -1.231  1.00  0.00     0.210 HD
ENDBRANCH  12  24
TORSDOF 3
ENDMDL
