MODEL 1
REMARK VINA RESULT: -4.222121773      0.000      0.000
REMARK  3 active torsions:
REMARK  status: ('A' for Active; 'I' for Inactive)
REMARK    1  A    between atoms: C2_2  and  C4_4 
REMARK    2  A    between atoms: C4_4  and  C5_5 
REMARK    3  A    between atoms: C19_23  and  N2_24 
ROOT
HETATM    1  C5  UNL     1     -10.221  34.970   1.497  1.00  0.00    -0.016 C 
HETATM    2  C6  UNL     1      -9.774  36.025   2.069  1.00  0.00    -0.039 C 
HETATM    3  C7  UNL     1     -10.199  37.406   1.641  1.00  0.00     0.058 C 
HETATM    4  C8  UNL     1      -8.891  38.174   1.563  1.00  0.00     0.196 A 
HETATM    5  O1  UNL     1      -8.000  37.659   0.647  1.00  0.00    -0.341 OA
HETATM    6  C9  UNL     1      -7.706  37.637   2.007  1.00  0.00     0.189 A 
HETATM    7  C10 UNL     1      -6.565  38.591   2.392  1.00  0.00     0.082 C 
HETATM    8  O2  UNL     1      -7.601  36.422   2.660  1.00  0.00    -0.335 OA
HETATM    9  C11 UNL     1      -8.809  36.122   3.204  1.00  0.00     0.127 C 
HETATM   10  C12 UNL     1      -9.202  37.218   4.191  1.00  0.00     0.077 C 
HETATM   11  C13 UNL     1     -10.711  37.303   4.091  1.00  0.00     0.038 C 
HETATM   12  C14 UNL     1     -11.155  38.273   5.189  1.00  0.00     0.039 C 
HETATM   13  C15 UNL     1     -11.121  37.858   2.734  1.00  0.00     0.020 C 
HETATM   14  C16 UNL     1     -11.296  39.358   2.780  1.00  0.00     0.013 C 
HETATM   15  N1  UNL     1     -11.212  35.971   4.342  1.00  0.00    -0.345 N 
HETATM   16  C17 UNL     1     -12.604  35.823   4.671  1.00  0.00     0.153 C 
HETATM   17  C18 UNL     1     -10.409  34.799   4.280  1.00  0.00     0.254 C 
HETATM   18  O3  UNL     1     -10.955  33.692   4.449  1.00  0.00    -0.271 OA
HETATM   19  C19 UNL     1      -8.931  34.886   4.020  1.00  0.00     0.313 C 
ENDROOT
BRANCH   1  20
HETATM   20  C4  UNL     1     -11.192  34.998   0.374  1.00  0.00     0.060 C 
BRANCH  20  21
HETATM   21  C2  UNL     1     -10.989  33.842  -0.549  1.00  0.00    -0.090 C 
HETATM   22  C1  UNL     1      -9.930  33.076  -0.453  1.00  0.00     0.014 C 
HETATM   23  C3  UNL     1     -12.012  33.575  -1.579  1.00  0.00     0.043 C 
ENDBRANCH  20  21
ENDBRANCH   1  20
BRANCH  19  24
HETATM   24  N2  UNL     1      -8.333  33.702   3.556  1.00  0.00    -0.063 N 
ATOM     25  H23 UNL     1      -7.914  33.881   2.644  1.00  0.00     0.275 HD
ATOM     26  H22 UNL     1      -7.506  33.508   4.121  1.00  0.00     0.275 HD
ATOM     27  H21 UNL     1      -8.897  32.853   3.498  1.00  0.00     0.275 HD
ENDBRANCH  19  24
TORSDOF 3
ENDMDL
MODEL 2
REMARK VINA RESULT: -4.125446380      1.696      4.251
REMARK  3 active torsions:
REMARK  status: ('A' for Active; 'I' for Inactive)
REMARK    1  A    between atoms: C2_2  and  C4_4 
REMARK    2  A    between atoms: C4_4  and  C5_5 
REMARK    3  A    between atoms: C19_23  and  N2_24 
ROOT
HETATM    1  C5  UNL     1     -10.553  35.302   1.249  1.00  0.00    -0.016 C 
HETATM    2  C6  UNL     1     -10.501  35.751   2.447  1.00  0.00    -0.039 C 
HETATM    3  C7  UNL     1      -9.757  35.028   3.540  1.00  0.00     0.058 C 
HETATM    4  C8  UNL     1     -10.732  35.038   4.704  1.00  0.00     0.196 A 
HETATM    5  O1  UNL     1     -11.916  34.386   4.441  1.00  0.00    -0.341 OA
HETATM    6  C9  UNL     1     -11.902  35.759   4.665  1.00  0.00     0.189 A 
HETATM    7  C10 UNL     1     -12.564  36.160   5.992  1.00  0.00     0.082 C 
HETATM    8  O2  UNL     1     -12.250  36.618   3.638  1.00  0.00    -0.335 OA
HETATM    9  C11 UNL     1     -11.116  36.997   2.994  1.00  0.00     0.127 C 
HETATM   10  C12 UNL     1     -10.188  37.702   3.980  1.00  0.00     0.077 C 
HETATM   11  C13 UNL     1      -8.791  37.340   3.521  1.00  0.00     0.038 C 
HETATM   12  C14 UNL     1      -7.834  38.166   4.383  1.00  0.00     0.039 C 
HETATM   13  C15 UNL     1      -8.526  35.858   3.753  1.00  0.00     0.020 C 
HETATM   14  C16 UNL     1      -7.872  35.616   5.093  1.00  0.00     0.013 C 
HETATM   15  N1  UNL     1      -8.704  37.728   2.131  1.00  0.00    -0.345 N 
HETATM   16  C17 UNL     1      -7.398  37.841   1.542  1.00  0.00     0.153 C 
HETATM   17  C18 UNL     1      -9.836  38.003   1.315  1.00  0.00     0.254 C 
HETATM   18  O3  UNL     1      -9.652  38.265   0.111  1.00  0.00    -0.271 OA
HETATM   19  C19 UNL     1     -11.226  37.981   1.886  1.00  0.00     0.313 C 
ENDROOT
BRANCH   1  20
HETATM   20  C4  UNL     1      -9.889  34.045   0.819  1.00  0.00     0.060 C 
BRANCH  20  21
HETATM   21  C2  UNL     1     -10.480  33.527  -0.450  1.00  0.00    -0.090 C 
HETATM   22  C1  UNL     1     -11.462  34.156  -1.048  1.00  0.00     0.014 C 
HETATM   23  C3  UNL     1      -9.932  32.283  -1.026  1.00  0.00     0.043 C 
ENDBRANCH  20  21
ENDBRANCH   1  20
BRANCH  19  24
HETATM   24  N2  UNL     1     -12.259  37.834   0.943  1.00  0.00    -0.063 N 
ATOM     25  H23 UNL     1     -12.093  38.480   0.172  1.00  0.00     0.275 HD
ATOM     26  H22 UNL     1     -12.151  36.933   0.476  1.00  0.00     0.275 HD
ATOM     27  H21 UNL     1     -13.227  37.930   1.251  1.00  0.00     0.275 HD
ENDBRANCH  19  24
TORSDOF 3
ENDMDL
MODEL 3
REMARK VINA RESULT: -4.046567902      2.400      3.505
REMARK  3 active torsions:
REMARK  status: ('A' for Active; 'I' for Inactive)
REMARK    1  A    between atoms: C2_2  and  C4_4 
REMARK    2  A    between atoms: C4_4  and  C5_5 
REMARK    3  A    between atoms: C19_23  and  N2_24 
ROOT
HETATM    1  C5  UNL     1      -8.971  32.742   1.774  1.00  0.00    -0.016 C 
HETATM    2  C6  UNL     1      -8.921  33.566   2.752  1.00  0.00    -0.039 C 
HETATM    3  C7  UNL     1     -10.105  34.409   3.148  1.00  0.00     0.058 C 
HETATM    4  C8  UNL     1      -9.512  35.796   3.329  1.00  0.00     0.196 A 
HETATM    5  O1  UNL     1      -8.941  36.307   2.185  1.00  0.00    -0.341 OA
HETATM    6  C9  UNL     1      -8.156  36.015   3.296  1.00  0.00     0.189 A 
HETATM    7  C10 UNL     1      -7.596  37.269   3.985  1.00  0.00     0.082 C 
HETATM    8  O2  UNL     1      -7.209  35.010   3.212  1.00  0.00    -0.335 OA
HETATM    9  C11 UNL     1      -7.769  33.855   3.657  1.00  0.00     0.127 C 
HETATM   10  C12 UNL     1      -8.217  34.039   5.105  1.00  0.00     0.077 C 
HETATM   11  C13 UNL     1      -9.459  33.183   5.235  1.00  0.00     0.038 C 
HETATM   12  C14 UNL     1      -9.839  33.208   6.718  1.00  0.00     0.039 C 
HETATM   13  C15 UNL     1     -10.597  33.774   4.414  1.00  0.00     0.020 C 
HETATM   14  C16 UNL     1     -11.458  34.697   5.245  1.00  0.00     0.013 C 
HETATM   15  N1  UNL     1      -9.083  31.851   4.819  1.00  0.00    -0.345 N 
HETATM   16  C17 UNL     1      -9.947  30.760   5.180  1.00  0.00     0.153 C 
HETATM   17  C18 UNL     1      -7.908  31.558   4.072  1.00  0.00     0.254 C 
HETATM   18  O3  UNL     1      -7.711  30.384   3.707  1.00  0.00    -0.271 OA
HETATM   19  C19 UNL     1      -6.920  32.638   3.728  1.00  0.00     0.313 C 
ENDROOT
BRANCH   1  20
HETATM   20  C4  UNL     1     -10.185  32.532   0.944  1.00  0.00     0.060 C 
BRANCH  20  21
HETATM   21  C2  UNL     1      -9.942  32.910  -0.479  1.00  0.00    -0.090 C 
HETATM   22  C1  UNL     1      -9.778  31.996  -1.405  1.00  0.00     0.014 C 
HETATM   23  C3  UNL     1      -9.891  34.343  -0.829  1.00  0.00     0.043 C 
ENDBRANCH  20  21
ENDBRANCH   1  20
BRANCH  19  24
HETATM   24  N2  UNL     1      -6.060  32.343   2.656  1.00  0.00    -0.063 N 
ATOM     25  H23 UNL     1      -6.297  32.949   1.870  1.00  0.00     0.275 HD
ATOM     26  H22 UNL     1      -5.123  32.674   2.887  1.00  0.00     0.275 HD
ATOM     27  H21 UNL     1      -5.996  31.381   2.323  1.00  0.00     0.275 HD
ENDBRANCH  19  24
TORSDOF 3
ENDMDL
MODEL 4
REMARK VINA RESULT: -3.962729128      2.027      2.838
REMARK  3 active torsions:
REMARK  status: ('A' for Active; 'I' for Inactive)
REMARK    1  A    between atoms: C2_2  and  C4_4 
REMARK    2  A    between atoms: C4_4  and  C5_5 
REMARK    3  A    between atoms: C19_23  and  N2_24 
ROOT
HETATM    1  C5  UNL     1      -9.879  34.443   2.561  1.00  0.00    -0.016 C 
HETATM    2  C6  UNL     1      -9.095  34.769   3.518  1.00  0.00    -0.039 C 
HETATM    3  C7  UNL     1      -8.186  35.969   3.433  1.00  0.00     0.058 C 
HETATM    4  C8  UNL     1      -6.850  35.441   3.926  1.00  0.00     0.196 A 
HETATM    5  O1  UNL     1      -6.340  34.419   3.157  1.00  0.00    -0.341 OA
HETATM    6  C9  UNL     1      -6.722  34.188   4.475  1.00  0.00     0.189 A 
HETATM    7  C10 UNL     1      -5.533  33.911   5.407  1.00  0.00     0.082 C 
HETATM    8  O2  UNL     1      -7.786  33.342   4.735  1.00  0.00    -0.335 OA
HETATM    9  C11 UNL     1      -8.914  34.091   4.836  1.00  0.00     0.127 C 
HETATM   10  C12 UNL     1      -8.750  35.097   5.973  1.00  0.00     0.077 C 
HETATM   11  C13 UNL     1      -9.524  36.317   5.523  1.00  0.00     0.038 C 
HETATM   12  C14 UNL     1      -9.523  37.283   6.711  1.00  0.00     0.039 C 
HETATM   13  C15 UNL     1      -8.829  36.977   4.338  1.00  0.00     0.020 C 
HETATM   14  C16 UNL     1      -7.879  38.062   4.788  1.00  0.00     0.013 C 
HETATM   15  N1  UNL     1     -10.863  35.865   5.223  1.00  0.00    -0.345 N 
HETATM   16  C17 UNL     1     -11.905  36.851   5.126  1.00  0.00     0.153 C 
HETATM   17  C18 UNL     1     -11.210  34.500   5.018  1.00  0.00     0.254 C 
HETATM   18  O3  UNL     1     -12.381  34.224   4.701  1.00  0.00    -0.271 OA
HETATM   19  C19 UNL     1     -10.188  33.409   5.182  1.00  0.00     0.313 C 
ENDROOT
BRANCH   1  20
HETATM   20  C4  UNL     1      -9.979  35.205   1.290  1.00  0.00     0.060 C 
BRANCH  20  21
HETATM   21  C2  UNL     1     -10.398  34.324   0.160  1.00  0.00    -0.090 C 
HETATM   22  C1  UNL     1      -9.875  33.133  -0.001  1.00  0.00     0.014 C 
HETATM   23  C3  UNL     1     -11.422  34.822  -0.779  1.00  0.00     0.043 C 
ENDBRANCH  20  21
ENDBRANCH   1  20
BRANCH  19  24
HETATM   24  N2  UNL     1     -10.504  32.194   4.552  1.00  0.00    -0.063 N 
ATOM     25  H23 UNL     1     -11.370  31.831   4.952  1.00  0.00     0.275 HD
ATOM     26  H22 UNL     1     -10.793  32.387   3.593  1.00  0.00     0.275 HD
ATOM     27  H21 UNL     1      -9.809  31.447   4.541  1.00  0.00     0.275 HD
ENDBRANCH  19  24
TORSDOF 3
ENDMDL
MODEL 5
REMARK VINA RESULT: -3.867592324      3.127      4.535
REMARK  3 active torsions:
REMARK  status: ('A' for Active; 'I' for Inactive)
REMARK    1  A    between atoms: C2_2  and  C4_4 
REMARK    2  A    between atoms: C4_4  and  C5_5 
REMARK    3  A    between atoms: C19_23  and  N2_24 
ROOT
HETATM    1  C5  UNL     1      -9.032  37.024  -0.896  1.00  0.00    -0.016 C 
HETATM    2  C6  UNL     1      -9.473  37.250   0.284  1.00  0.00    -0.039 C 
HETATM    3  C7  UNL     1      -8.741  38.142   1.253  1.00  0.00     0.058 C 
HETATM    4  C8  UNL     1      -8.747  37.345   2.546  1.00  0.00     0.196 A 
HETATM    5  O1  UNL     1      -8.099  36.133   2.453  1.00  0.00    -0.341 OA
HETATM    6  C9  UNL     1      -9.471  36.185   2.682  1.00  0.00     0.189 A 
HETATM    7  C10 UNL     1      -9.865  35.723   4.093  1.00  0.00     0.082 C 
HETATM    8  O2  UNL     1     -10.338  35.695   1.721  1.00  0.00    -0.335 OA
HETATM    9  C11 UNL     1     -10.718  36.725   0.921  1.00  0.00     0.127 C 
HETATM   10  C12 UNL     1     -11.414  37.788   1.767  1.00  0.00     0.077 C 
HETATM   11  C13 UNL     1     -11.051  39.102   1.109  1.00  0.00     0.038 C 
HETATM   12  C14 UNL     1     -11.869  40.178   1.828  1.00  0.00     0.039 C 
HETATM   13  C15 UNL     1      -9.567  39.393   1.291  1.00  0.00     0.020 C 
HETATM   14  C16 UNL     1      -9.315  40.234   2.520  1.00  0.00     0.013 C 
HETATM   15  N1  UNL     1     -11.447  38.989  -0.277  1.00  0.00    -0.345 N 
HETATM   16  C17 UNL     1     -11.560  40.197  -1.049  1.00  0.00     0.153 C 
HETATM   17  C18 UNL     1     -11.730  37.752  -0.920  1.00  0.00     0.254 C 
HETATM   18  O3  UNL     1     -12.000  37.760  -2.135  1.00  0.00    -0.271 OA
HETATM   19  C19 UNL     1     -11.709  36.459  -0.153  1.00  0.00     0.313 C 
ENDROOT
BRANCH   1  20
HETATM   20  C4  UNL     1      -7.776  37.614  -1.426  1.00  0.00     0.060 C 
BRANCH  20  21
HETATM   21  C2  UNL     1      -7.678  37.443  -2.906  1.00  0.00    -0.090 C 
HETATM   22  C1  UNL     1      -8.194  38.325  -3.726  1.00  0.00     0.014 C 
HETATM   23  C3  UNL     1      -6.982  36.252  -3.433  1.00  0.00     0.043 C 
ENDBRANCH  20  21
ENDBRANCH   1  20
BRANCH  19  24
HETATM   24  N2  UNL     1     -11.570  35.300  -0.937  1.00  0.00    -0.063 N 
ATOM     25  H23 UNL     1     -11.224  35.568  -1.859  1.00  0.00     0.275 HD
ATOM     26  H22 UNL     1     -10.786  34.755  -0.580  1.00  0.00     0.275 HD
ATOM     27  H21 UNL     1     -12.374  34.683  -1.054  1.00  0.00     0.275 HD
ENDBRANCH  19  24
TORSDOF 3
ENDMDL
