MODEL 1
REMARK VINA RESULT: -6.740079295      0.000      0.000
REMARK  4 active torsions:
REMARK  status: ('A' for Active; 'I' for Inactive)
REMARK    1  A    between atoms: C2_2  and  C4_4 
REMARK    2  A    between atoms: C11_13  and  O3_14 
REMARK    3  A    between atoms: C15_19  and  O4_20 
REMARK    4  A    between atoms: O4_20  and  C16_21 
ROOT
HETATM    1  C4  UNL     1      -2.277 -46.409 -22.902  1.00  0.00     0.044 C 
HETATM    2  C5  UNL     1      -2.811 -47.098 -21.619  1.00  0.00     0.025 C 
HETATM    3  C6  UNL     1      -1.625 -47.415 -20.801  1.00  0.00     0.006 C 
HETATM    4  C7  UNL     1      -1.196 -48.834 -21.089  1.00  0.00     0.019 C 
HETATM    5  C8  UNL     1      -0.560 -46.475 -21.256  1.00  0.00     0.057 C 
HETATM    6  C9  UNL     1      -0.420 -45.316 -20.337  1.00  0.00     0.143 C 
HETATM    7  O1  UNL     1       0.233 -45.873 -19.170  1.00  0.00    -0.313 OA
HETATM    8  C10 UNL     1      -0.387 -47.073 -18.759  1.00  0.00     0.294 C 
HETATM    9  O2  UNL     1       0.153 -47.905 -18.026  1.00  0.00    -0.262 OA
HETATM   10  C11 UNL     1      -1.782 -47.231 -19.314  1.00  0.00     0.153 C 
HETATM   11  C12 UNL     1      -2.463 -45.900 -19.008  1.00  0.00     0.056 C 
HETATM   12  C13 UNL     1      -1.755 -44.817 -19.766  1.00  0.00     0.015 C 
HETATM   13  C14 UNL     1      -1.352 -43.758 -18.725  1.00  0.00     0.012 C 
HETATM   14  C15 UNL     1      -0.852 -46.147 -22.697  1.00  0.00     0.147 C 
ENDROOT
BRANCH  14  15
HETATM   15  O4  UNL     1      -0.276 -44.974 -23.133  1.00  0.00    -0.315 OA
BRANCH  15  16
HETATM   16  C16 UNL     1       0.640 -44.856 -24.189  1.00  0.00     0.255 C 
HETATM   17  C17 UNL     1       1.961 -45.533 -24.116  1.00  0.00     0.126 C 
HETATM   18  O5  UNL     1       0.291 -44.165 -25.175  1.00  0.00    -0.266 OA
ENDBRANCH  15  16
ENDBRANCH  14  15
BRANCH   1  19
HETATM   19  C2  UNL     1      -3.191 -45.348 -23.313  1.00  0.00    -0.086 C 
HETATM   20  C1  UNL     1      -3.171 -44.510 -24.311  1.00  0.00     0.014 C 
HETATM   21  C3  UNL     1      -4.432 -45.184 -22.407  1.00  0.00     0.043 C 
ENDBRANCH   1  19
BRANCH  10  22
HETATM   22  O3  UNL     1      -2.370 -48.292 -18.676  1.00  0.00    -0.379 OA
ATOM     23  H3  UNL     1      -1.762 -48.843 -18.197  1.00  0.00     0.211 HD
ENDBRANCH  10  22
TORSDOF 4
ENDMDL
MODEL 2
REMARK VINA RESULT: -6.435003855      1.543      2.058
REMARK  4 active torsions:
REMARK  status: ('A' for Active; 'I' for Inactive)
REMARK    1  A    between atoms: C2_2  and  C4_4 
REMARK    2  A    between atoms: C11_13  and  O3_14 
REMARK    3  A    between atoms: C15_19  and  O4_20 
REMARK    4  A    between atoms: O4_20  and  C16_21 
ROOT
HETATM    1  C4  UNL     1      -3.697 -46.388 -21.917  1.00  0.00     0.044 C 
HETATM    2  C5  UNL     1      -3.260 -47.027 -20.573  1.00  0.00     0.025 C 
HETATM    3  C6  UNL     1      -1.794 -47.168 -20.644  1.00  0.00     0.006 C 
HETATM    4  C7  UNL     1      -1.458 -48.558 -21.132  1.00  0.00     0.019 C 
HETATM    5  C8  UNL     1      -1.342 -46.168 -21.654  1.00  0.00     0.057 C 
HETATM    6  C9  UNL     1      -0.817 -44.936 -21.012  1.00  0.00     0.143 C 
HETATM    7  O1  UNL     1       0.469 -45.340 -20.481  1.00  0.00    -0.313 OA
HETATM    8  C10 UNL     1       0.373 -46.559 -19.777  1.00  0.00     0.294 C 
HETATM    9  O2  UNL     1       1.342 -47.280 -19.521  1.00  0.00    -0.262 OA
HETATM   10  C11 UNL     1      -1.042 -46.890 -19.368  1.00  0.00     0.153 C 
HETATM   11  C12 UNL     1      -1.555 -45.611 -18.713  1.00  0.00     0.056 C 
HETATM   12  C13 UNL     1      -1.585 -44.524 -19.747  1.00  0.00     0.015 C 
HETATM   13  C14 UNL     1      -0.766 -43.358 -19.167  1.00  0.00     0.012 C 
HETATM   14  C15 UNL     1      -2.481 -45.977 -22.622  1.00  0.00     0.147 C 
ENDROOT
BRANCH  14  15
HETATM   15  O4  UNL     1      -2.431 -44.791 -23.320  1.00  0.00    -0.315 OA
BRANCH  15  16
HETATM   16  C16 UNL     1      -2.414 -44.664 -24.716  1.00  0.00     0.255 C 
HETATM   17  C17 UNL     1      -3.515 -43.957 -25.420  1.00  0.00     0.126 C 
HETATM   18  O5  UNL     1      -1.440 -45.168 -25.325  1.00  0.00    -0.266 OA
ENDBRANCH  15  16
ENDBRANCH  14  15
BRANCH   1  19
HETATM   19  C2  UNL     1      -4.793 -45.451 -21.690  1.00  0.00    -0.086 C 
HETATM   20  C1  UNL     1      -5.437 -44.643 -22.484  1.00  0.00     0.014 C 
HETATM   21  C3  UNL     1      -5.308 -45.409 -20.234  1.00  0.00     0.043 C 
ENDBRANCH   1  19
BRANCH  10  22
HETATM   22  O3  UNL     1      -0.993 -47.952 -18.503  1.00  0.00    -0.379 OA
ATOM     23  H3  UNL     1      -1.750 -48.025 -17.934  1.00  0.00     0.211 HD
ENDBRANCH  10  22
TORSDOF 4
ENDMDL
MODEL 3
REMARK VINA RESULT: -6.252483154      2.228      5.323
REMARK  4 active torsions:
REMARK  status: ('A' for Active; 'I' for Inactive)
REMARK    1  A    between atoms: C2_2  and  C4_4 
REMARK    2  A    between atoms: C11_13  and  O3_14 
REMARK    3  A    between atoms: C15_19  and  O4_20 
REMARK    4  A    between atoms: O4_20  and  C16_21 
ROOT
HETATM    1  C4  UNL     1       0.649 -48.337 -20.585  1.00  0.00     0.044 C 
HETATM    2  C5  UNL     1       0.126 -47.241 -21.550  1.00  0.00     0.025 C 
HETATM    3  C6  UNL     1      -1.326 -47.146 -21.313  1.00  0.00     0.006 C 
HETATM    4  C7  UNL     1      -2.044 -48.022 -22.313  1.00  0.00     0.019 C 
HETATM    5  C8  UNL     1      -1.546 -47.682 -19.939  1.00  0.00     0.057 C 
HETATM    6  C9  UNL     1      -1.691 -46.592 -18.940  1.00  0.00     0.143 C 
HETATM    7  O1  UNL     1      -3.009 -46.051 -19.201  1.00  0.00    -0.313 OA
HETATM    8  C10 UNL     1      -3.206 -45.823 -20.580  1.00  0.00     0.294 C 
HETATM    9  O2  UNL     1      -4.318 -45.691 -21.100  1.00  0.00    -0.262 OA
HETATM   10  C11 UNL     1      -1.911 -45.757 -21.353  1.00  0.00     0.153 C 
HETATM   11  C12 UNL     1      -1.043 -44.788 -20.556  1.00  0.00     0.056 C 
HETATM   12  C13 UNL     1      -0.777 -45.386 -19.206  1.00  0.00     0.015 C 
HETATM   13  C14 UNL     1      -1.225 -44.335 -18.176  1.00  0.00     0.012 C 
HETATM   14  C15 UNL     1      -0.448 -48.679 -19.677  1.00  0.00     0.147 C 
ENDROOT
BRANCH  14  15
HETATM   15  O4  UNL     1      -0.215 -48.919 -18.341  1.00  0.00    -0.315 OA
BRANCH  15  16
HETATM   16  C16 UNL     1      -0.267 -50.173 -17.714  1.00  0.00     0.255 C 
HETATM   17  C17 UNL     1      -1.210 -51.215 -18.198  1.00  0.00     0.126 C 
HETATM   18  O5  UNL     1       0.507 -50.363 -16.746  1.00  0.00    -0.266 OA
ENDBRANCH  15  16
ENDBRANCH  14  15
BRANCH   1  19
HETATM   19  C2  UNL     1       1.965 -47.965 -20.075  1.00  0.00    -0.086 C 
HETATM   20  C1  UNL     1       2.701 -48.443 -19.112  1.00  0.00     0.014 C 
HETATM   21  C3  UNL     1       2.630 -46.786 -20.820  1.00  0.00     0.043 C 
ENDBRANCH   1  19
BRANCH  10  22
HETATM   22  O3  UNL     1      -2.197 -45.306 -22.615  1.00  0.00    -0.379 OA
ATOM     23  H3  UNL     1      -3.005 -44.808 -22.676  1.00  0.00     0.211 HD
ENDBRANCH  10  22
TORSDOF 4
ENDMDL
MODEL 4
REMARK VINA RESULT: -5.829969037      2.536      4.221
REMARK  4 active torsions:
REMARK  status: ('A' for Active; 'I' for Inactive)
REMARK    1  A    between atoms: C2_2  and  C4_4 
REMARK    2  A    between atoms: C11_13  and  O3_14 
REMARK    3  A    between atoms: C15_19  and  O4_20 
REMARK    4  A    between atoms: O4_20  and  C16_21 
ROOT
HETATM    1  C4  UNL     1      -0.769 -46.285 -20.196  1.00  0.00     0.044 C 
HETATM    2  C5  UNL     1       0.441 -46.907 -19.451  1.00  0.00     0.025 C 
HETATM    3  C6  UNL     1       0.971 -47.960 -20.338  1.00  0.00     0.006 C 
HETATM    4  C7  UNL     1       0.361 -49.285 -19.942  1.00  0.00     0.019 C 
HETATM    5  C8  UNL     1       0.515 -47.597 -21.710  1.00  0.00     0.057 C 
HETATM    6  C9  UNL     1       1.590 -46.926 -22.487  1.00  0.00     0.143 C 
HETATM    7  O1  UNL     1       2.506 -48.000 -22.813  1.00  0.00    -0.313 OA
HETATM    8  C10 UNL     1       2.795 -48.791 -21.680  1.00  0.00     0.294 C 
HETATM    9  O2  UNL     1       3.261 -49.932 -21.743  1.00  0.00    -0.262 OA
HETATM   10  C11 UNL     1       2.471 -48.093 -20.381  1.00  0.00     0.153 C 
HETATM   11  C12 UNL     1       3.126 -46.721 -20.516  1.00  0.00     0.056 C 
HETATM   12  C13 UNL     1       2.464 -45.986 -21.644  1.00  0.00     0.015 C 
HETATM   13  C14 UNL     1       3.594 -45.560 -22.599  1.00  0.00     0.012 C 
HETATM   14  C15 UNL     1      -0.770 -46.826 -21.556  1.00  0.00     0.147 C 
ENDROOT
BRANCH  14  15
HETATM   15  O4  UNL     1      -1.080 -46.030 -22.636  1.00  0.00    -0.315 OA
BRANCH  15  16
HETATM   16  C16 UNL     1      -2.374 -45.701 -23.065  1.00  0.00     0.255 C 
HETATM   17  C17 UNL     1      -3.558 -46.127 -22.273  1.00  0.00     0.126 C 
HETATM   18  O5  UNL     1      -2.476 -45.042 -24.127  1.00  0.00    -0.266 OA
ENDBRANCH  15  16
ENDBRANCH  14  15
BRANCH   1  19
HETATM   19  C2  UNL     1      -0.817 -44.847 -19.953  1.00  0.00    -0.086 C 
HETATM   20  C1  UNL     1      -0.393 -43.825 -20.643  1.00  0.00     0.014 C 
HETATM   21  C3  UNL     1      -1.513 -44.442 -18.635  1.00  0.00     0.043 C 
ENDBRANCH   1  19
BRANCH  10  22
HETATM   22  O3  UNL     1       2.998 -48.839 -19.360  1.00  0.00    -0.379 OA
ATOM     23  H3  UNL     1       3.811 -49.279 -19.580  1.00  0.00     0.211 HD
ENDBRANCH  10  22
TORSDOF 4
ENDMDL
MODEL 5
REMARK VINA RESULT: -5.534053389      3.530      5.584
REMARK  4 active torsions:
REMARK  status: ('A' for Active; 'I' for Inactive)
REMARK    1  A    between atoms: C2_2  and  C4_4 
REMARK    2  A    between atoms: C11_13  and  O3_14 
REMARK    3  A    between atoms: C15_19  and  O4_20 
REMARK    4  A    between atoms: O4_20  and  C16_21 
ROOT
HETATM    1  C4  UNL     1       3.454 -46.425 -22.953  1.00  0.00     0.044 C 
HETATM    2  C5  UNL     1       2.571 -45.746 -21.874  1.00  0.00     0.025 C 
HETATM    3  C6  UNL     1       1.446 -46.667 -21.626  1.00  0.00     0.006 C 
HETATM    4  C7  UNL     1       0.277 -46.255 -22.490  1.00  0.00     0.019 C 
HETATM    5  C8  UNL     1       1.926 -48.012 -22.053  1.00  0.00     0.057 C 
HETATM    6  C9  UNL     1       2.364 -48.833 -20.894  1.00  0.00     0.143 C 
HETATM    7  O1  UNL     1       1.124 -49.214 -20.248  1.00  0.00    -0.313 OA
HETATM    8  C10 UNL     1       0.267 -48.104 -20.088  1.00  0.00     0.294 C 
HETATM    9  O2  UNL     1      -0.946 -48.200 -19.883  1.00  0.00    -0.262 OA
HETATM   10  C11 UNL     1       0.993 -46.784 -20.193  1.00  0.00     0.153 C 
HETATM   11  C12 UNL     1       2.193 -46.937 -19.264  1.00  0.00     0.056 C 
HETATM   12  C13 UNL     1       3.076 -48.025 -19.800  1.00  0.00     0.015 C 
HETATM   13  C14 UNL     1       3.266 -49.029 -18.649  1.00  0.00     0.012 C 
HETATM   14  C15 UNL     1       2.953 -47.789 -23.132  1.00  0.00     0.147 C 
ENDROOT
BRANCH  14  15
HETATM   15  O4  UNL     1       3.819 -48.846 -23.310  1.00  0.00    -0.315 OA
BRANCH  15  16
HETATM   16  C16 UNL     1       3.585 -49.965 -24.122  1.00  0.00     0.255 C 
HETATM   17  C17 UNL     1       3.344 -49.799 -25.579  1.00  0.00     0.126 C 
HETATM   18  O5  UNL     1       3.590 -51.089 -23.564  1.00  0.00    -0.266 OA
ENDBRANCH  15  16
ENDBRANCH  14  15
BRANCH   1  19
HETATM   19  C2  UNL     1       4.864 -46.167 -22.676  1.00  0.00    -0.086 C 
HETATM   20  C1  UNL     1       5.750 -46.804 -21.964  1.00  0.00     0.014 C 
HETATM   21  C3  UNL     1       5.431 -44.905 -23.365  1.00  0.00     0.043 C 
ENDBRANCH   1  19
BRANCH  10  22
HETATM   22  O3  UNL     1       0.130 -45.797 -19.795  1.00  0.00    -0.379 OA
ATOM     23  H3  UNL     1      -0.466 -46.057 -19.103  1.00  0.00     0.211 HD
ENDBRANCH  10  22
TORSDOF 4
ENDMDL
