MODEL 1
REMARK VINA RESULT: -5.088087486      0.000      0.000
REMARK  4 active torsions:
REMARK  status: ('A' for Active; 'I' for Inactive)
REMARK    1  A    between atoms: C2_2  and  C3_3 
REMARK    2  A    between atoms: C3_3  and  C4_4 
REMARK    3  A    between atoms: C6_6  and  N1_7 
REMARK    4  A    between atoms: C6_6  and  C7_11 
ROOT
HETATM    1  C7  UNL     1      18.289 -18.335 -51.365  1.00  0.00     0.162 C 
HETATM    2  C8  UNL     1      17.582 -17.132 -51.788  1.00  0.00     0.061 C 
HETATM    3  N2  UNL     1      17.006 -16.177 -52.110  1.00  0.00    -0.197 NA
ENDROOT
BRANCH   1   4
HETATM    4  C6  UNL     1      17.720 -18.847 -50.036  1.00  0.00     0.139 C 
HETATM    5  C5  UNL     1      18.213 -18.028 -48.903  1.00  0.00     0.072 C 
HETATM    6  C4  UNL     1      19.497 -18.490 -48.294  1.00  0.00     0.188 C 
HETATM    7  N3  UNL     1      19.516 -19.944 -48.171  1.00  0.00    -0.071 N 
HETATM    8  C10 UNL     1      19.351 -20.595 -49.449  1.00  0.00     0.235 C 
ATOM      9  H32 UNL     1      20.361 -20.265 -47.698  1.00  0.00     0.277 HD
ATOM     10  H31 UNL     1      18.821 -20.268 -47.497  1.00  0.00     0.277 HD
HETATM   11  C9  UNL     1      17.924 -20.320 -49.891  1.00  0.00     0.067 C 
BRANCH   6  12
HETATM   12  C3  UNL     1      19.671 -17.977 -46.885  1.00  0.00     0.033 C 
BRANCH  12  13
HETATM   13  C2  UNL     1      20.694 -18.739 -46.103  1.00  0.00    -0.002 C 
HETATM   14  C1  UNL     1      21.890 -17.924 -45.724  1.00  0.00     0.005 C 
ENDBRANCH  12  13
ENDBRANCH   6  12
BRANCH   4  15
HETATM   15  N1  UNL     1      16.268 -18.621 -50.142  1.00  0.00    -0.069 N 
ATOM     16  H13 UNL     1      15.984 -17.696 -49.819  1.00  0.00     0.275 HD
ATOM     17  H12 UNL     1      15.948 -18.528 -51.106  1.00  0.00     0.275 HD
ATOM     18  H11 UNL     1      15.804 -19.378 -49.639  1.00  0.00     0.275 HD
ENDBRANCH   4  15
ENDBRANCH   1   4
TORSDOF 4
ENDMDL
MODEL 2
REMARK VINA RESULT: -5.069604624      2.440      4.260
REMARK  4 active torsions:
REMARK  status: ('A' for Active; 'I' for Inactive)
REMARK    1  A    between atoms: C2_2  and  C3_3 
REMARK    2  A    between atoms: C3_3  and  C4_4 
REMARK    3  A    between atoms: C6_6  and  N1_7 
REMARK    4  A    between atoms: C6_6  and  C7_11 
ROOT
HETATM    1  C7  UNL     1      17.675 -18.661 -47.930  1.00  0.00     0.162 C 
HETATM    2  C8  UNL     1      16.380 -18.350 -47.334  1.00  0.00     0.061 C 
HETATM    3  N2  UNL     1      15.342 -18.109 -46.876  1.00  0.00    -0.197 NA
ENDROOT
BRANCH   1   4
HETATM    4  C6  UNL     1      17.484 -19.432 -49.243  1.00  0.00     0.139 C 
HETATM    5  C5  UNL     1      17.155 -20.853 -48.976  1.00  0.00     0.072 C 
HETATM    6  C4  UNL     1      18.331 -21.766 -48.850  1.00  0.00     0.188 C 
HETATM    7  N3  UNL     1      19.336 -21.455 -49.863  1.00  0.00    -0.071 N 
HETATM    8  C10 UNL     1      19.798 -20.091 -49.762  1.00  0.00     0.235 C 
ATOM      9  H32 UNL     1      20.114 -22.114 -49.828  1.00  0.00     0.277 HD
ATOM     10  H31 UNL     1      18.993 -21.662 -50.801  1.00  0.00     0.277 HD
HETATM   11  C9  UNL     1      18.632 -19.209 -50.174  1.00  0.00     0.067 C 
BRANCH   6  12
HETATM   12  C3  UNL     1      17.957 -23.206 -49.102  1.00  0.00     0.033 C 
BRANCH  12  13
HETATM   13  C2  UNL     1      19.117 -24.051 -49.528  1.00  0.00    -0.002 C 
HETATM   14  C1  UNL     1      19.750 -24.811 -48.405  1.00  0.00     0.005 C 
ENDBRANCH  12  13
ENDBRANCH   6  12
BRANCH   4  15
HETATM   15  N1  UNL     1      16.299 -18.817 -49.866  1.00  0.00    -0.069 N 
ATOM     16  H13 UNL     1      16.364 -18.766 -50.882  1.00  0.00     0.275 HD
ATOM     17  H12 UNL     1      15.470 -19.409 -49.816  1.00  0.00     0.275 HD
ATOM     18  H11 UNL     1      16.164 -17.905 -49.430  1.00  0.00     0.275 HD
ENDBRANCH   4  15
ENDBRANCH   1   4
TORSDOF 4
ENDMDL
MODEL 3
REMARK VINA RESULT: -5.054498634      1.965      3.642
REMARK  4 active torsions:
REMARK  status: ('A' for Active; 'I' for Inactive)
REMARK    1  A    between atoms: C2_2  and  C3_3 
REMARK    2  A    between atoms: C3_3  and  C4_4 
REMARK    3  A    between atoms: C6_6  and  N1_7 
REMARK    4  A    between atoms: C6_6  and  C7_11 
ROOT
HETATM    1  C7  UNL     1      16.738 -21.228 -48.965  1.00  0.00     0.162 C 
HETATM    2  C8  UNL     1      16.846 -22.662 -48.722  1.00  0.00     0.061 C 
HETATM    3  N2  UNL     1      16.951 -23.803 -48.535  1.00  0.00    -0.197 NA
ENDROOT
BRANCH   1   4
HETATM    4  C6  UNL     1      18.108 -20.647 -49.333  1.00  0.00     0.139 C 
HETATM    5  C5  UNL     1      18.726 -19.974 -48.165  1.00  0.00     0.072 C 
HETATM    6  C4  UNL     1      18.383 -18.529 -48.007  1.00  0.00     0.188 C 
HETATM    7  N3  UNL     1      18.403 -17.850 -49.299  1.00  0.00    -0.071 N 
HETATM    8  C10 UNL     1      17.476 -18.444 -50.234  1.00  0.00     0.235 C 
ATOM      9  H32 UNL     1      18.234 -16.849 -49.195  1.00  0.00     0.277 HD
ATOM     10  H31 UNL     1      19.347 -17.814 -49.686  1.00  0.00     0.277 HD
HETATM   11  C9  UNL     1      18.029 -19.818 -50.574  1.00  0.00     0.067 C 
BRANCH   6  12
HETATM   12  C3  UNL     1      19.401 -17.796 -47.167  1.00  0.00     0.033 C 
BRANCH  12  13
HETATM   13  C2  UNL     1      20.284 -18.713 -46.378  1.00  0.00    -0.002 C 
HETATM   14  C1  UNL     1      21.579 -18.088 -45.964  1.00  0.00     0.005 C 
ENDBRANCH  12  13
ENDBRANCH   6  12
BRANCH   4  15
HETATM   15  N1  UNL     1      18.937 -21.822 -49.653  1.00  0.00    -0.069 N 
ATOM     16  H13 UNL     1      19.937 -21.619 -49.641  1.00  0.00     0.275 HD
ATOM     17  H12 UNL     1      18.937 -22.523 -48.912  1.00  0.00     0.275 HD
ATOM     18  H11 UNL     1      18.615 -22.188 -50.549  1.00  0.00     0.275 HD
ENDBRANCH   4  15
ENDBRANCH   1   4
TORSDOF 4
ENDMDL
MODEL 4
REMARK VINA RESULT: -4.980297512      1.780      3.752
REMARK  4 active torsions:
REMARK  status: ('A' for Active; 'I' for Inactive)
REMARK    1  A    between atoms: C2_2  and  C3_3 
REMARK    2  A    between atoms: C3_3  and  C4_4 
REMARK    3  A    between atoms: C6_6  and  N1_7 
REMARK    4  A    between atoms: C6_6  and  C7_11 
ROOT
HETATM    1  C7  UNL     1      18.214 -21.703 -49.108  1.00  0.00     0.162 C 
HETATM    2  C8  UNL     1      19.010 -22.926 -49.094  1.00  0.00     0.061 C 
HETATM    3  N2  UNL     1      19.658 -23.888 -49.090  1.00  0.00    -0.197 NA
ENDROOT
BRANCH   1   4
HETATM    4  C6  UNL     1      19.083 -20.509 -49.521  1.00  0.00     0.139 C 
HETATM    5  C5  UNL     1      19.639 -19.826 -48.328  1.00  0.00     0.072 C 
HETATM    6  C4  UNL     1      18.782 -18.743 -47.756  1.00  0.00     0.188 C 
HETATM    7  N3  UNL     1      18.197 -17.933 -48.820  1.00  0.00    -0.071 N 
HETATM    8  C10 UNL     1      17.396 -18.727 -49.723  1.00  0.00     0.235 C 
ATOM      9  H32 UNL     1      17.662 -17.152 -48.440  1.00  0.00     0.277 HD
ATOM     10  H31 UNL     1      18.912 -17.408 -49.324  1.00  0.00     0.277 HD
HETATM   11  C9  UNL     1      18.361 -19.621 -50.482  1.00  0.00     0.067 C 
BRANCH   6  12
HETATM   12  C3  UNL     1      19.582 -17.771 -46.923  1.00  0.00     0.033 C 
BRANCH  12  13
HETATM   13  C2  UNL     1      20.693 -18.424 -46.161  1.00  0.00    -0.002 C 
HETATM   14  C1  UNL     1      21.890 -17.547 -45.977  1.00  0.00     0.005 C 
ENDBRANCH  12  13
ENDBRANCH   6  12
BRANCH   4  15
HETATM   15  N1  UNL     1      20.214 -21.106 -50.252  1.00  0.00    -0.069 N 
ATOM     16  H13 UNL     1      20.741 -21.776 -49.691  1.00  0.00     0.275 HD
ATOM     17  H12 UNL     1      19.919 -21.751 -50.985  1.00  0.00     0.275 HD
ATOM     18  H11 UNL     1      20.789 -20.340 -50.602  1.00  0.00     0.275 HD
ENDBRANCH   4  15
ENDBRANCH   1   4
TORSDOF 4
ENDMDL
MODEL 5
REMARK VINA RESULT: -4.976726845      2.527      4.622
REMARK  4 active torsions:
REMARK  status: ('A' for Active; 'I' for Inactive)
REMARK    1  A    between atoms: C2_2  and  C3_3 
REMARK    2  A    between atoms: C3_3  and  C4_4 
REMARK    3  A    between atoms: C6_6  and  N1_7 
REMARK    4  A    between atoms: C6_6  and  C7_11 
ROOT
HETATM    1  C7  UNL     1      17.272 -18.922 -47.919  1.00  0.00     0.162 C 
HETATM    2  C8  UNL     1      17.764 -17.552 -48.003  1.00  0.00     0.061 C 
HETATM    3  N2  UNL     1      18.161 -16.464 -48.088  1.00  0.00    -0.197 NA
ENDROOT
BRANCH   1   4
HETATM    4  C6  UNL     1      17.310 -19.585 -49.302  1.00  0.00     0.139 C 
HETATM    5  C5  UNL     1      16.650 -20.912 -49.267  1.00  0.00     0.072 C 
HETATM    6  C4  UNL     1      17.542 -22.059 -48.920  1.00  0.00     0.188 C 
HETATM    7  N3  UNL     1      18.831 -21.932 -49.595  1.00  0.00    -0.071 N 
HETATM    8  C10 UNL     1      19.503 -20.703 -49.247  1.00  0.00     0.235 C 
ATOM      9  H32 UNL     1      19.424 -22.743 -49.417  1.00  0.00     0.277 HD
ATOM     10  H31 UNL     1      18.731 -22.026 -50.607  1.00  0.00     0.277 HD
HETATM   11  C9  UNL     1      18.693 -19.578 -49.869  1.00  0.00     0.067 C 
BRANCH   6  12
HETATM   12  C3  UNL     1      16.981 -23.376 -49.397  1.00  0.00     0.033 C 
BRANCH  12  13
HETATM   13  C2  UNL     1      18.024 -24.295 -49.953  1.00  0.00    -0.002 C 
HETATM   14  C1  UNL     1      17.525 -25.167 -51.062  1.00  0.00     0.005 C 
ENDBRANCH  12  13
ENDBRANCH   6  12
BRANCH   4  15
HETATM   15  N1  UNL     1      16.489 -18.709 -50.157  1.00  0.00    -0.069 N 
ATOM     16  H13 UNL     1      15.780 -19.218 -50.684  1.00  0.00     0.275 HD
ATOM     17  H12 UNL     1      15.856 -18.112 -49.625  1.00  0.00     0.275 HD
ATOM     18  H11 UNL     1      17.127 -18.182 -50.754  1.00  0.00     0.275 HD
ENDBRANCH   4  15
ENDBRANCH   1   4
TORSDOF 4
ENDMDL
