MODEL 1
REMARK VINA RESULT: -7.517685868      0.000      0.000
REMARK  4 active torsions:
REMARK  status: ('A' for Active; 'I' for Inactive)
REMARK       I    between atoms: C1_4  and  N3_6 
REMARK    1  A    between atoms: N3_6  and  N4_8 
REMARK       I    between atoms: N5_11  and  C4_12 
REMARK       I    between atoms: C4_12  and  N6_14 
REMARK    2  A    between atoms: N6_14  and  N7_16 
REMARK    3  A    between atoms: N7_16  and  S1_18 
REMARK    4  A    between atoms: S1_18  and  N8_19 
ROOT
HETATM    1  N4  UNL     1      20.384 -28.674 -17.541  1.00  0.00    -0.226 NA
HETATM    2  C2  UNL     1      19.519 -27.585 -17.858  1.00  0.00     0.133 C 
HETATM    3  C3  UNL     1      18.119 -27.821 -17.244  1.00  0.00     0.144 C 
HETATM    4  N5  UNL     1      18.239 -27.813 -15.798  1.00  0.00    -0.331 N 
HETATM    5  C4  UNL     1      17.231 -27.468 -14.889  1.00  0.00     0.337 C 
HETATM    6  O1  UNL     1      17.455 -27.496 -13.664  1.00  0.00    -0.245 OA
HETATM    7  N6  UNL     1      15.919 -27.070 -15.335  1.00  0.00    -0.241 N 
ATOM      8  H6  UNL     1      15.675 -27.032 -16.325  1.00  0.00     0.192 HD
HETATM    9  C5  UNL     1      19.569 -28.211 -15.312  1.00  0.00     0.144 C 
HETATM   10  C6  UNL     1      20.016 -29.299 -16.271  1.00  0.00     0.133 C 
ENDROOT
BRANCH   7  11
HETATM   11  N7  UNL     1      14.992 -26.735 -14.324  1.00  0.00    -0.206 N 
ATOM     12  H7  UNL     1      14.286 -27.371 -13.954  1.00  0.00     0.201 HD
BRANCH  11  13
HETATM   13  S1  UNL     1      15.211 -25.117 -13.801  1.00  0.00     0.330 S 
HETATM   14  O2  UNL     1      15.853 -25.024 -12.466  1.00  0.00    -0.181 OA
HETATM   15  O3  UNL     1      13.889 -24.366 -13.705  1.00  0.00    -0.181 OA
BRANCH  13  16
HETATM   16  N8  UNL     1      16.187 -24.290 -14.970  1.00  0.00    -0.310 N 
ATOM     17  H82 UNL     1      16.856 -24.738 -15.596  1.00  0.00     0.170 HD
ATOM     18  H81 UNL     1      15.975 -23.293 -14.920  1.00  0.00     0.170 HD
ENDBRANCH  13  16
ENDBRANCH  11  13
ENDBRANCH   7  11
BRANCH   1  19
HETATM   19  N3  UNL     1      21.734 -28.464 -17.597  1.00  0.00    -0.293 N 
HETATM   20  C1  UNL     1      22.551 -28.428 -18.746  1.00  0.00     0.196 C 
HETATM   21  N1  UNL     1      22.330 -27.536 -19.700  1.00  0.00    -0.373 N 
HETATM   22  N2  UNL     1      23.650 -29.298 -18.945  1.00  0.00    -0.063 NA
ATOM     23  H12 UNL     1      22.921 -27.510 -20.531  1.00  0.00     0.158 HD
ATOM     24  H11 UNL     1      21.538 -26.909 -19.557  1.00  0.00     0.158 HD
ATOM     25  H3  UNL     1      22.205 -28.315 -16.705  1.00  0.00     0.183 HD
ENDBRANCH   1  19
TORSDOF 4
ENDMDL
MODEL 2
REMARK VINA RESULT: -7.096821589      1.341      1.886
REMARK  4 active torsions:
REMARK  status: ('A' for Active; 'I' for Inactive)
REMARK       I    between atoms: C1_4  and  N3_6 
REMARK    1  A    between atoms: N3_6  and  N4_8 
REMARK       I    between atoms: N5_11  and  C4_12 
REMARK       I    between atoms: C4_12  and  N6_14 
REMARK    2  A    between atoms: N6_14  and  N7_16 
REMARK    3  A    between atoms: N7_16  and  S1_18 
REMARK    4  A    between atoms: S1_18  and  N8_19 
ROOT
HETATM    1  N4  UNL     1      21.250 -27.622 -18.079  1.00  0.00    -0.226 NA
HETATM    2  C2  UNL     1      21.042 -28.058 -16.737  1.00  0.00     0.133 C 
HETATM    3  C3  UNL     1      19.982 -27.167 -16.047  1.00  0.00     0.144 C 
HETATM    4  N5  UNL     1      18.709 -27.356 -16.719  1.00  0.00    -0.331 N 
HETATM    5  C4  UNL     1      17.442 -27.188 -16.146  1.00  0.00     0.337 C 
HETATM    6  O1  UNL     1      16.417 -27.384 -16.824  1.00  0.00    -0.245 OA
HETATM    7  N6  UNL     1      17.285 -26.793 -14.768  1.00  0.00    -0.241 N 
ATOM      8  H6  UNL     1      18.087 -26.614 -14.164  1.00  0.00     0.192 HD
HETATM    9  C5  UNL     1      18.837 -27.765 -18.125  1.00  0.00     0.144 C 
HETATM   10  C6  UNL     1      20.048 -27.004 -18.636  1.00  0.00     0.133 C 
ENDROOT
BRANCH   7  11
HETATM   11  N7  UNL     1      15.958 -26.668 -14.303  1.00  0.00    -0.206 N 
ATOM     12  H7  UNL     1      15.286 -27.435 -14.261  1.00  0.00     0.201 HD
BRANCH  11  13
HETATM   13  S1  UNL     1      15.625 -25.058 -13.819  1.00  0.00     0.330 S 
HETATM   14  O2  UNL     1      16.011 -24.787 -12.412  1.00  0.00    -0.181 OA
HETATM   15  O3  UNL     1      14.143 -24.722 -13.940  1.00  0.00    -0.181 OA
BRANCH  13  16
HETATM   16  N8  UNL     1      16.482 -23.980 -14.870  1.00  0.00    -0.310 N 
ATOM     17  H82 UNL     1      17.208 -23.327 -14.573  1.00  0.00     0.170 HD
ATOM     18  H81 UNL     1      16.138 -24.114 -15.821  1.00  0.00     0.170 HD
ENDBRANCH  13  16
ENDBRANCH  11  13
ENDBRANCH   7  11
BRANCH   1  19
HETATM   19  N3  UNL     1      21.788 -28.510 -18.970  1.00  0.00    -0.293 N 
HETATM   20  C1  UNL     1      22.802 -29.460 -18.731  1.00  0.00     0.196 C 
HETATM   21  N1  UNL     1      22.633 -30.409 -17.821  1.00  0.00    -0.373 N 
HETATM   22  N2  UNL     1      24.027 -29.483 -19.440  1.00  0.00    -0.063 NA
ATOM     23  H12 UNL     1      23.367 -31.096 -17.649  1.00  0.00     0.158 HD
ATOM     24  H11 UNL     1      21.751 -30.392 -17.310  1.00  0.00     0.158 HD
ATOM     25  H3  UNL     1      21.411 -28.483 -19.917  1.00  0.00     0.183 HD
ENDBRANCH   1  19
TORSDOF 4
ENDMDL
MODEL 3
REMARK VINA RESULT: -7.075442756      1.175      1.658
REMARK  4 active torsions:
REMARK  status: ('A' for Active; 'I' for Inactive)
REMARK       I    between atoms: C1_4  and  N3_6 
REMARK    1  A    between atoms: N3_6  and  N4_8 
REMARK       I    between atoms: N5_11  and  C4_12 
REMARK       I    between atoms: C4_12  and  N6_14 
REMARK    2  A    between atoms: N6_14  and  N7_16 
REMARK    3  A    between atoms: N7_16  and  S1_18 
REMARK    4  A    between atoms: S1_18  and  N8_19 
ROOT
HETATM    1  N4  UNL     1      21.590 -28.202 -16.752  1.00  0.00    -0.226 NA
HETATM    2  C2  UNL     1      21.015 -28.624 -15.516  1.00  0.00     0.133 C 
HETATM    3  C3  UNL     1      19.928 -27.620 -15.065  1.00  0.00     0.144 C 
HETATM    4  N5  UNL     1      18.843 -27.647 -16.029  1.00  0.00    -0.331 N 
HETATM    5  C4  UNL     1      17.503 -27.333 -15.769  1.00  0.00     0.337 C 
HETATM    6  O1  UNL     1      16.657 -27.396 -16.680  1.00  0.00    -0.245 OA
HETATM    7  N6  UNL     1      17.063 -26.937 -14.455  1.00  0.00    -0.241 N 
ATOM      8  H6  UNL     1      17.710 -26.862 -13.669  1.00  0.00     0.192 HD
HETATM    9  C5  UNL     1      19.260 -28.053 -17.379  1.00  0.00     0.144 C 
HETATM   10  C6  UNL     1      20.637 -27.438 -17.555  1.00  0.00     0.133 C 
ENDROOT
BRANCH   7  11
HETATM   11  N7  UNL     1      15.686 -26.658 -14.316  1.00  0.00    -0.206 N 
ATOM     12  H7  UNL     1      14.940 -27.328 -14.499  1.00  0.00     0.201 HD
BRANCH  11  13
HETATM   13  S1  UNL     1      15.435 -25.043 -13.798  1.00  0.00     0.330 S 
HETATM   14  O2  UNL     1      15.905 -24.802 -12.412  1.00  0.00    -0.181 OA
HETATM   15  O3  UNL     1      13.962 -24.656 -13.836  1.00  0.00    -0.181 OA
BRANCH  13  16
HETATM   16  N8  UNL     1      16.271 -23.983 -14.884  1.00  0.00    -0.310 N 
ATOM     17  H82 UNL     1      16.487 -24.194 -15.858  1.00  0.00     0.170 HD
ATOM     18  H81 UNL     1      16.503 -23.125 -14.383  1.00  0.00     0.170 HD
ENDBRANCH  13  16
ENDBRANCH  11  13
ENDBRANCH   7  11
BRANCH   1  19
HETATM   19  N3  UNL     1      22.222 -29.140 -17.522  1.00  0.00    -0.293 N 
HETATM   20  C1  UNL     1      22.710 -28.985 -18.836  1.00  0.00     0.196 C 
HETATM   21  N1  UNL     1      23.637 -28.077 -19.106  1.00  0.00    -0.373 N 
HETATM   22  N2  UNL     1      22.277 -29.781 -19.924  1.00  0.00    -0.063 NA
ATOM     23  H12 UNL     1      23.990 -27.966 -20.056  1.00  0.00     0.158 HD
ATOM     24  H11 UNL     1      23.948 -27.504 -18.322  1.00  0.00     0.158 HD
ATOM     25  H3  UNL     1      22.355 -30.057 -17.097  1.00  0.00     0.183 HD
ENDBRANCH   1  19
TORSDOF 4
ENDMDL
MODEL 4
REMARK VINA RESULT: -7.056997529      1.993      2.513
REMARK  4 active torsions:
REMARK  status: ('A' for Active; 'I' for Inactive)
REMARK       I    between atoms: C1_4  and  N3_6 
REMARK    1  A    between atoms: N3_6  and  N4_8 
REMARK       I    between atoms: N5_11  and  C4_12 
REMARK       I    between atoms: C4_12  and  N6_14 
REMARK    2  A    between atoms: N6_14  and  N7_16 
REMARK    3  A    between atoms: N7_16  and  S1_18 
REMARK    4  A    between atoms: S1_18  and  N8_19 
ROOT
HETATM    1  N4  UNL     1      21.834 -28.841 -18.995  1.00  0.00    -0.226 NA
HETATM    2  C2  UNL     1      21.132 -27.612 -19.171  1.00  0.00     0.133 C 
HETATM    3  C3  UNL     1      19.831 -27.618 -18.333  1.00  0.00     0.144 C 
HETATM    4  N5  UNL     1      20.187 -27.664 -16.927  1.00  0.00    -0.331 N 
HETATM    5  C4  UNL     1      19.416 -27.172 -15.865  1.00  0.00     0.337 C 
HETATM    6  O1  UNL     1      19.829 -27.267 -14.694  1.00  0.00    -0.245 OA
HETATM    7  N6  UNL     1      18.138 -26.544 -16.090  1.00  0.00    -0.241 N 
ATOM      8  H6  UNL     1      17.745 -26.442 -17.026  1.00  0.00     0.192 HD
HETATM    9  C5  UNL     1      21.488 -28.296 -16.665  1.00  0.00     0.144 C 
HETATM   10  C6  UNL     1      21.576 -29.423 -17.679  1.00  0.00     0.133 C 
ENDROOT
BRANCH   7  11
HETATM   11  N7  UNL     1      17.462 -26.078 -14.942  1.00  0.00    -0.206 N 
ATOM     12  H7  UNL     1      17.705 -26.334 -13.985  1.00  0.00     0.201 HD
BRANCH  11  13
HETATM   13  S1  UNL     1      16.180 -25.023 -15.369  1.00  0.00     0.330 S 
HETATM   14  O2  UNL     1      15.255 -25.614 -16.366  1.00  0.00    -0.181 OA
HETATM   15  O3  UNL     1      16.692 -23.717 -15.964  1.00  0.00    -0.181 OA
BRANCH  13  16
HETATM   16  N8  UNL     1      15.299 -24.620 -13.932  1.00  0.00    -0.310 N 
ATOM     17  H82 UNL     1      15.716 -24.467 -13.013  1.00  0.00     0.170 HD
ATOM     18  H81 UNL     1      14.308 -24.564 -14.166  1.00  0.00     0.170 HD
ENDBRANCH  13  16
ENDBRANCH  11  13
ENDBRANCH   7  11
BRANCH   1  19
HETATM   19  N3  UNL     1      23.173 -28.865 -19.276  1.00  0.00    -0.293 N 
HETATM   20  C1  UNL     1      23.942 -29.965 -19.706  1.00  0.00     0.196 C 
HETATM   21  N1  UNL     1      23.650 -30.587 -20.839  1.00  0.00    -0.373 N 
HETATM   22  N2  UNL     1      25.062 -30.456 -18.992  1.00  0.00    -0.063 NA
ATOM     23  H12 UNL     1      24.207 -31.383 -21.150  1.00  0.00     0.158 HD
ATOM     24  H11 UNL     1      22.843 -30.233 -21.353  1.00  0.00     0.158 HD
ATOM     25  H3  UNL     1      23.673 -27.983 -19.160  1.00  0.00     0.183 HD
ENDBRANCH   1  19
TORSDOF 4
ENDMDL
MODEL 5
REMARK VINA RESULT: -7.001089090      3.457      4.213
REMARK  4 active torsions:
REMARK  status: ('A' for Active; 'I' for Inactive)
REMARK       I    between atoms: C1_4  and  N3_6 
REMARK    1  A    between atoms: N3_6  and  N4_8 
REMARK       I    between atoms: N5_11  and  C4_12 
REMARK       I    between atoms: C4_12  and  N6_14 
REMARK    2  A    between atoms: N6_14  and  N7_16 
REMARK    3  A    between atoms: N7_16  and  S1_18 
REMARK    4  A    between atoms: S1_18  and  N8_19 
ROOT
HETATM    1  N4  UNL     1      19.598 -26.901 -16.623  1.00  0.00    -0.226 NA
HETATM    2  C2  UNL     1      19.525 -27.363 -15.275  1.00  0.00     0.133 C 
HETATM    3  C3  UNL     1      18.058 -27.678 -14.899  1.00  0.00     0.144 C 
HETATM    4  N5  UNL     1      17.598 -28.787 -15.715  1.00  0.00    -0.331 N 
HETATM    5  C4  UNL     1      16.596 -29.703 -15.371  1.00  0.00     0.337 C 
HETATM    6  O1  UNL     1      16.288 -30.619 -16.156  1.00  0.00    -0.245 OA
HETATM    7  N6  UNL     1      15.899 -29.619 -14.112  1.00  0.00    -0.241 N 
ATOM      8  H6  UNL     1      16.104 -28.888 -13.430  1.00  0.00     0.192 HD
HETATM    9  C5  UNL     1      18.293 -28.901 -17.006  1.00  0.00     0.144 C 
HETATM   10  C6  UNL     1      18.526 -27.465 -17.442  1.00  0.00     0.133 C 
ENDROOT
BRANCH   7  11
HETATM   11  N7  UNL     1      14.918 -30.607 -13.875  1.00  0.00    -0.206 N 
ATOM     12  H7  UNL     1      14.049 -30.695 -14.402  1.00  0.00     0.201 HD
BRANCH  11  13
HETATM   13  S1  UNL     1      15.381 -31.637 -12.586  1.00  0.00     0.330 S 
HETATM   14  O2  UNL     1      16.851 -31.814 -12.487  1.00  0.00    -0.181 OA
HETATM   15  O3  UNL     1      14.779 -33.030 -12.727  1.00  0.00    -0.181 OA
BRANCH  13  16
HETATM   16  N8  UNL     1      14.780 -30.967 -11.105  1.00  0.00    -0.310 N 
ATOM     17  H82 UNL     1      13.961 -30.364 -11.026  1.00  0.00     0.170 HD
ATOM     18  H81 UNL     1      15.381 -31.279 -10.342  1.00  0.00     0.170 HD
ENDBRANCH  13  16
ENDBRANCH  11  13
ENDBRANCH   7  11
BRANCH   1  19
HETATM   19  N3  UNL     1      20.798 -26.995 -17.273  1.00  0.00    -0.293 N 
HETATM   20  C1  UNL     1      21.035 -27.489 -18.572  1.00  0.00     0.196 C 
HETATM   21  N1  UNL     1      20.463 -26.919 -19.622  1.00  0.00    -0.373 N 
HETATM   22  N2  UNL     1      21.896 -28.580 -18.843  1.00  0.00    -0.063 NA
ATOM     23  H12 UNL     1      20.635 -27.276 -20.562  1.00  0.00     0.158 HD
ATOM     24  H11 UNL     1      19.842 -26.134 -19.427  1.00  0.00     0.158 HD
ATOM     25  H3  UNL     1      21.616 -26.669 -16.758  1.00  0.00     0.183 HD
ENDBRANCH   1  19
TORSDOF 4
ENDMDL
