MODEL 1
REMARK VINA RESULT: -6.190215482      0.000      0.000
REMARK  3 active torsions:
REMARK  status: ('A' for Active; 'I' for Inactive)
REMARK    1  A    between atoms: C4_5  and  C5_6 
REMARK    2  A    between atoms: C5_6  and  N2_7 
REMARK    3  A    between atoms: N2_7  and  C6_10 
ROOT
HETATM    1  C5  UNL     1      14.986   9.122  -0.882  1.00  0.00     0.239 C 
ENDROOT
BRANCH   1   2
HETATM    2  C4  UNL     1      15.103  10.415  -1.610  1.00  0.00     0.038 C 
HETATM    3  C3  UNL     1      15.535  10.059  -3.042  1.00  0.00     0.025 C 
HETATM    4  C2  UNL     1      14.366   9.990  -3.975  1.00  0.00     0.120 C 
HETATM    5  N1  UNL     1      13.150   9.577  -3.366  1.00  0.00    -0.201 NA
HETATM    6  C1  UNL     1      12.123   9.371  -4.327  1.00  0.00     0.143 C 
HETATM    7  O1  UNL     1      12.790  10.241  -2.278  1.00  0.00    -0.303 OA
HETATM    8  C11 UNL     1      13.766  11.109  -1.799  1.00  0.00     0.200 C 
ENDBRANCH   1   2
BRANCH   1   9
HETATM    9  N2  UNL     1      13.875   8.970  -0.003  1.00  0.00    -0.070 N 
ATOM     10  H22 UNL     1      13.199   9.722  -0.140  1.00  0.00     0.277 HD
ATOM     11  H21 UNL     1      13.300   8.175  -0.279  1.00  0.00     0.277 HD
BRANCH   9  12
HETATM   12  C6  UNL     1      14.260   8.869   1.397  1.00  0.00     0.185 C 
HETATM   13  C7  UNL     1      14.537  10.278   1.874  1.00  0.00     0.033 C 
HETATM   14  C8  UNL     1      13.858  10.421   3.225  1.00  0.00     0.002 C 
HETATM   15  C9  UNL     1      13.329   9.069   3.561  1.00  0.00     0.002 C 
HETATM   16  C10 UNL     1      13.040   8.486   2.201  1.00  0.00     0.033 C 
ENDBRANCH   9  12
ENDBRANCH   1   9
TORSDOF 3
ENDMDL
MODEL 2
REMARK VINA RESULT: -6.106078272      2.412      5.679
REMARK  3 active torsions:
REMARK  status: ('A' for Active; 'I' for Inactive)
REMARK    1  A    between atoms: C4_5  and  C5_6 
REMARK    2  A    between atoms: C5_6  and  N2_7 
REMARK    3  A    between atoms: N2_7  and  C6_10 
ROOT
HETATM    1  C5  UNL     1      14.981  11.282  -0.790  1.00  0.00     0.239 C 
ENDROOT
BRANCH   1   2
HETATM    2  C4  UNL     1      15.585  10.072  -0.168  1.00  0.00     0.038 C 
HETATM    3  C3  UNL     1      17.073  10.400   0.044  1.00  0.00     0.025 C 
HETATM    4  C2  UNL     1      17.343  10.877   1.437  1.00  0.00     0.120 C 
HETATM    5  N1  UNL     1      16.262  11.573   2.043  1.00  0.00    -0.201 NA
HETATM    6  C1  UNL     1      16.634  12.141   3.291  1.00  0.00     0.143 C 
HETATM    7  O1  UNL     1      15.089  10.957   2.022  1.00  0.00    -0.303 OA
HETATM    8  C11 UNL     1      15.070   9.809   1.235  1.00  0.00     0.200 C 
ENDBRANCH   1   2
BRANCH   1   9
HETATM    9  N2  UNL     1      13.830  11.086  -1.606  1.00  0.00    -0.070 N 
ATOM     10  H22 UNL     1      12.988  11.017  -1.034  1.00  0.00     0.277 HD
ATOM     11  H21 UNL     1      13.608  11.932  -2.130  1.00  0.00     0.277 HD
BRANCH   9  12
HETATM   12  C6  UNL     1      13.946   9.941  -2.498  1.00  0.00     0.185 C 
HETATM   13  C7  UNL     1      12.583   9.737  -3.123  1.00  0.00     0.033 C 
HETATM   14  C8  UNL     1      12.816   9.504  -4.605  1.00  0.00     0.002 C 
HETATM   15  C9  UNL     1      14.294   9.438  -4.781  1.00  0.00     0.002 C 
HETATM   16  C10 UNL     1      14.792  10.342  -3.682  1.00  0.00     0.033 C 
ENDBRANCH   9  12
ENDBRANCH   1   9
TORSDOF 3
ENDMDL
MODEL 3
REMARK VINA RESULT: -6.072674778      1.935      5.478
REMARK  3 active torsions:
REMARK  status: ('A' for Active; 'I' for Inactive)
REMARK    1  A    between atoms: C4_5  and  C5_6 
REMARK    2  A    between atoms: C5_6  and  N2_7 
REMARK    3  A    between atoms: N2_7  and  C6_10 
ROOT
HETATM    1  C5  UNL     1      13.977   9.345  -0.333  1.00  0.00     0.239 C 
ENDROOT
BRANCH   1   2
HETATM    2  C4  UNL     1      13.307   9.280   0.994  1.00  0.00     0.038 C 
HETATM    3  C3  UNL     1      14.044   8.190   1.790  1.00  0.00     0.025 C 
HETATM    4  C2  UNL     1      15.092   8.769   2.688  1.00  0.00     0.120 C 
HETATM    5  N1  UNL     1      15.688   9.965   2.204  1.00  0.00    -0.201 NA
HETATM    6  C1  UNL     1      16.783  10.373   3.012  1.00  0.00     0.143 C 
HETATM    7  O1  UNL     1      14.851  10.928   1.846  1.00  0.00    -0.303 OA
HETATM    8  C11 UNL     1      13.517  10.535   1.823  1.00  0.00     0.200 C 
ENDBRANCH   1   2
BRANCH   1   9
HETATM    9  N2  UNL     1      14.274  10.639  -0.849  1.00  0.00    -0.070 N 
ATOM     10  H22 UNL     1      13.892  11.366  -0.244  1.00  0.00     0.277 HD
ATOM     11  H21 UNL     1      15.267  10.848  -0.755  1.00  0.00     0.277 HD
BRANCH   9  12
HETATM   12  C6  UNL     1      13.834  10.825  -2.223  1.00  0.00     0.185 C 
HETATM   13  C7  UNL     1      14.893  10.201  -3.107  1.00  0.00     0.033 C 
HETATM   14  C8  UNL     1      14.157   9.387  -4.156  1.00  0.00     0.002 C 
HETATM   15  C9  UNL     1      12.709   9.665  -3.949  1.00  0.00     0.002 C 
HETATM   16  C10 UNL     1      12.639   9.935  -2.467  1.00  0.00     0.033 C 
ENDBRANCH   9  12
ENDBRANCH   1   9
TORSDOF 3
ENDMDL
MODEL 4
REMARK VINA RESULT: -5.978453450      3.829      5.911
REMARK  3 active torsions:
REMARK  status: ('A' for Active; 'I' for Inactive)
REMARK    1  A    between atoms: C4_5  and  C5_6 
REMARK    2  A    between atoms: C5_6  and  N2_7 
REMARK    3  A    between atoms: N2_7  and  C6_10 
ROOT
HETATM    1  C5  UNL     1      17.291  10.952  -0.433  1.00  0.00     0.239 C 
ENDROOT
BRANCH   1   2
HETATM    2  C4  UNL     1      17.844  11.864   0.604  1.00  0.00     0.038 C 
HETATM    3  C3  UNL     1      17.323  11.341   1.953  1.00  0.00     0.025 C 
HETATM    4  C2  UNL     1      18.324  10.459   2.631  1.00  0.00     0.120 C 
HETATM    5  N1  UNL     1      19.164   9.731   1.746  1.00  0.00    -0.201 NA
HETATM    6  C1  UNL     1      19.975   8.793   2.440  1.00  0.00     0.143 C 
HETATM    7  O1  UNL     1      19.782  10.441   0.814  1.00  0.00    -0.303 OA
HETATM    8  C11 UNL     1      19.353  11.762   0.737  1.00  0.00     0.200 C 
ENDBRANCH   1   2
BRANCH   1   9
HETATM    9  N2  UNL     1      16.539   9.831   0.022  1.00  0.00    -0.070 N 
ATOM     10  H22 UNL     1      17.124   8.997   0.067  1.00  0.00     0.277 HD
ATOM     11  H21 UNL     1      16.307   9.927   1.010  1.00  0.00     0.277 HD
BRANCH   9  12
HETATM   12  C6  UNL     1      15.342   9.583  -0.768  1.00  0.00     0.185 C 
HETATM   13  C7  UNL     1      14.264  10.492  -0.220  1.00  0.00     0.033 C 
HETATM   14  C8  UNL     1      13.575  11.120  -1.419  1.00  0.00     0.002 C 
HETATM   15  C9  UNL     1      14.166  10.465  -2.619  1.00  0.00     0.002 C 
HETATM   16  C10 UNL     1      15.563  10.136  -2.155  1.00  0.00     0.033 C 
ENDBRANCH   9  12
ENDBRANCH   1   9
TORSDOF 3
ENDMDL
MODEL 5
REMARK VINA RESULT: -5.970348488      0.614      1.208
REMARK  3 active torsions:
REMARK  status: ('A' for Active; 'I' for Inactive)
REMARK    1  A    between atoms: C4_5  and  C5_6 
REMARK    2  A    between atoms: C5_6  and  N2_7 
REMARK    3  A    between atoms: N2_7  and  C6_10 
ROOT
HETATM    1  C5  UNL     1      14.446   8.868  -0.673  1.00  0.00     0.239 C 
ENDROOT
BRANCH   1   2
HETATM    2  C4  UNL     1      14.686  10.239  -1.199  1.00  0.00     0.038 C 
HETATM    3  C3  UNL     1      15.447  10.061  -2.524  1.00  0.00     0.025 C 
HETATM    4  C2  UNL     1      14.525  10.100  -3.703  1.00  0.00     0.120 C 
HETATM    5  N1  UNL     1      13.216   9.612  -3.445  1.00  0.00    -0.201 NA
HETATM    6  C1  UNL     1      12.443   9.520  -4.634  1.00  0.00     0.143 C 
HETATM    7  O1  UNL     1      12.595  10.139  -2.400  1.00  0.00    -0.303 OA
HETATM    8  C11 UNL     1      13.407  10.946  -1.610  1.00  0.00     0.200 C 
ENDBRANCH   1   2
BRANCH   1   9
HETATM    9  N2  UNL     1      14.790   8.625   0.688  1.00  0.00    -0.070 N 
ATOM     10  H22 UNL     1      14.650   7.644   0.928  1.00  0.00     0.277 HD
ATOM     11  H21 UNL     1      15.798   8.689   0.825  1.00  0.00     0.277 HD
BRANCH   9  12
HETATM   12  C6  UNL     1      14.086   9.492   1.621  1.00  0.00     0.185 C 
HETATM   13  C7  UNL     1      13.299   8.588   2.545  1.00  0.00     0.033 C 
HETATM   14  C8  UNL     1      13.516   9.111   3.953  1.00  0.00     0.002 C 
HETATM   15  C9  UNL     1      14.297  10.371   3.806  1.00  0.00     0.002 C 
HETATM   16  C10 UNL     1      15.098  10.111   2.555  1.00  0.00     0.033 C 
ENDBRANCH   9  12
ENDBRANCH   1   9
TORSDOF 3
ENDMDL
