MODEL 1
REMARK VINA RESULT: -5.896370150      0.000      0.000
REMARK  2 active torsions:
REMARK  status: ('A' for Active; 'I' for Inactive)
REMARK    1  A    between atoms: C2_3  and  O1_4 
REMARK    2  A    between atoms: O1_4  and  C3_5 
ROOT
HETATM    1  N1  UNL     1      14.669  11.978   3.555  1.00  0.00    -0.195 NA
HETATM    2  C1  UNL     1      14.953  10.972   4.015  1.00  0.00     0.085 C 
HETATM    3  C2  UNL     1      15.310   9.705   4.596  1.00  0.00     0.291 C 
ENDROOT
BRANCH   3   4
HETATM    4  O1  UNL     1      14.241   9.123   5.319  1.00  0.00    -0.372 OA
BRANCH   4   5
HETATM    5  C3  UNL     1      14.735   8.771   6.543  1.00  0.00     0.129 C 
HETATM    6  C4  UNL     1      13.855   7.892   7.360  1.00  0.00     0.039 C 
HETATM    7  C5  UNL     1      14.168   8.233   8.824  1.00  0.00     0.021 C 
HETATM    8  C6  UNL     1      12.941   8.948   9.355  1.00  0.00     0.277 C 
HETATM    9  C9  UNL     1      15.332   9.192   8.737  1.00  0.00     0.001 C 
HETATM   10  N2  UNL     1      13.157  10.371   9.132  1.00  0.00     0.089 N 
HETATM   11  C7  UNL     1      14.091  10.801  10.150  1.00  0.00     0.273 C 
HETATM   12  C11 UNL     1      13.621  10.637   7.795  1.00  0.00     0.280 C 
HETATM   13  C8  UNL     1      15.410  10.144   9.881  1.00  0.00     0.036 C 
HETATM   14  C10 UNL     1      14.930   9.971   7.474  1.00  0.00     0.047 C 
ENDBRANCH   4   5
ENDBRANCH   3   4
TORSDOF 2
ENDMDL
MODEL 2
REMARK VINA RESULT: -5.799877952      0.993      1.505
REMARK  2 active torsions:
REMARK  status: ('A' for Active; 'I' for Inactive)
REMARK    1  A    between atoms: C2_3  and  O1_4 
REMARK    2  A    between atoms: O1_4  and  C3_5 
ROOT
HETATM    1  N1  UNL     1      14.913  12.142   3.538  1.00  0.00    -0.195 NA
HETATM    2  C1  UNL     1      15.161  11.041   3.714  1.00  0.00     0.085 C 
HETATM    3  C2  UNL     1      15.472   9.654   3.938  1.00  0.00     0.291 C 
ENDROOT
BRANCH   3   4
HETATM    4  O1  UNL     1      14.701   9.091   4.983  1.00  0.00    -0.372 OA
BRANCH   4   5
HETATM    5  C3  UNL     1      15.052   9.742   6.131  1.00  0.00     0.129 C 
HETATM    6  C4  UNL     1      15.841   8.941   7.107  1.00  0.00     0.039 C 
HETATM    7  C5  UNL     1      15.479   9.497   8.492  1.00  0.00     0.021 C 
HETATM    8  C6  UNL     1      14.663   8.416   9.173  1.00  0.00     0.277 C 
HETATM    9  C9  UNL     1      14.609  10.694   8.191  1.00  0.00     0.001 C 
HETATM   10  N2  UNL     1      13.266   8.688   8.863  1.00  0.00     0.089 N 
HETATM   11  C7  UNL     1      12.874   9.794   9.710  1.00  0.00     0.273 C 
HETATM   12  C11 UNL     1      13.074   8.959   7.462  1.00  0.00     0.280 C 
HETATM   13  C8  UNL     1      13.632  11.010   9.272  1.00  0.00     0.036 C 
HETATM   14  C10 UNL     1      13.841  10.156   6.973  1.00  0.00     0.047 C 
ENDBRANCH   4   5
ENDBRANCH   3   4
TORSDOF 2
ENDMDL
MODEL 3
REMARK VINA RESULT: -5.772919504      1.760      2.156
REMARK  2 active torsions:
REMARK  status: ('A' for Active; 'I' for Inactive)
REMARK    1  A    between atoms: C2_3  and  O1_4 
REMARK    2  A    between atoms: O1_4  and  C3_5 
ROOT
HETATM    1  N1  UNL     1      12.649   8.235   2.052  1.00  0.00    -0.195 NA
HETATM    2  C1  UNL     1      13.188   8.816   2.874  1.00  0.00     0.085 C 
HETATM    3  C2  UNL     1      13.866   9.546   3.913  1.00  0.00     0.291 C 
ENDROOT
BRANCH   3   4
HETATM    4  O1  UNL     1      14.280   8.710   4.977  1.00  0.00    -0.372 OA
BRANCH   4   5
HETATM    5  C3  UNL     1      14.707   9.530   5.983  1.00  0.00     0.129 C 
HETATM    6  C4  UNL     1      15.690   8.929   6.926  1.00  0.00     0.039 C 
HETATM    7  C5  UNL     1      15.453   9.625   8.274  1.00  0.00     0.021 C 
HETATM    8  C6  UNL     1      14.843   8.575   9.181  1.00  0.00     0.277 C 
HETATM    9  C9  UNL     1      14.437  10.697   7.961  1.00  0.00     0.001 C 
HETATM   10  N2  UNL     1      13.398   8.688   9.038  1.00  0.00     0.089 N 
HETATM   11  C7  UNL     1      13.008   9.857   9.799  1.00  0.00     0.273 C 
HETATM   12  C11 UNL     1      13.003   8.761   7.655  1.00  0.00     0.280 C 
HETATM   13  C8  UNL     1      13.579  11.065   9.122  1.00  0.00     0.036 C 
HETATM   14  C10 UNL     1      13.578   9.946   6.931  1.00  0.00     0.047 C 
ENDBRANCH   4   5
ENDBRANCH   3   4
TORSDOF 2
ENDMDL
MODEL 4
REMARK VINA RESULT: -5.598300281      2.841      4.405
REMARK  2 active torsions:
REMARK  status: ('A' for Active; 'I' for Inactive)
REMARK    1  A    between atoms: C2_3  and  O1_4 
REMARK    2  A    between atoms: O1_4  and  C3_5 
ROOT
HETATM    1  N1  UNL     1      20.143   9.303  11.078  1.00  0.00    -0.195 NA
HETATM    2  C1  UNL     1      19.069   9.026  10.806  1.00  0.00     0.085 C 
HETATM    3  C2  UNL     1      17.716   8.678  10.461  1.00  0.00     0.291 C 
ENDROOT
BRANCH   3   4
HETATM    4  O1  UNL     1      17.465   8.799   9.073  1.00  0.00    -0.372 OA
BRANCH   4   5
HETATM    5  C3  UNL     1      16.168   8.426   8.870  1.00  0.00     0.129 C 
HETATM    6  C4  UNL     1      15.656   8.613   7.484  1.00  0.00     0.039 C 
HETATM    7  C5  UNL     1      14.151   8.880   7.628  1.00  0.00     0.021 C 
HETATM    8  C6  UNL     1      13.950  10.336   7.259  1.00  0.00     0.277 C 
HETATM    9  C9  UNL     1      13.880   8.673   9.099  1.00  0.00     0.001 C 
HETATM   10  N2  UNL     1      14.052  11.098   8.496  1.00  0.00     0.089 N 
HETATM   11  C7  UNL     1      12.801  10.899   9.197  1.00  0.00     0.273 C 
HETATM   12  C11 UNL     1      15.199  10.705   9.272  1.00  0.00     0.280 C 
HETATM   13  C8  UNL     1      12.723   9.462   9.611  1.00  0.00     0.036 C 
HETATM   14  C10 UNL     1      15.174   9.260   9.685  1.00  0.00     0.047 C 
ENDBRANCH   4   5
ENDBRANCH   3   4
TORSDOF 2
ENDMDL
MODEL 5
REMARK VINA RESULT: -5.502604183      1.877      2.618
REMARK  2 active torsions:
REMARK  status: ('A' for Active; 'I' for Inactive)
REMARK    1  A    between atoms: C2_3  and  O1_4 
REMARK    2  A    between atoms: O1_4  and  C3_5 
ROOT
HETATM    1  N1  UNL     1      12.267   8.674   2.038  1.00  0.00    -0.195 NA
HETATM    2  C1  UNL     1      13.158   9.050   2.647  1.00  0.00     0.085 C 
HETATM    3  C2  UNL     1      14.279   9.522   3.416  1.00  0.00     0.291 C 
ENDROOT
BRANCH   3   4
HETATM    4  O1  UNL     1      14.546   8.702   4.538  1.00  0.00    -0.372 OA
BRANCH   4   5
HETATM    5  C3  UNL     1      13.790   9.182   5.569  1.00  0.00     0.129 C 
HETATM    6  C4  UNL     1      14.209  10.503   6.113  1.00  0.00     0.039 C 
HETATM    7  C5  UNL     1      13.809  10.490   7.595  1.00  0.00     0.021 C 
HETATM    8  C6  UNL     1      15.108  10.428   8.374  1.00  0.00     0.277 C 
HETATM    9  C9  UNL     1      13.042   9.200   7.757  1.00  0.00     0.001 C 
HETATM   10  N2  UNL     1      15.396   9.018   8.594  1.00  0.00     0.089 N 
HETATM   11  C7  UNL     1      14.510   8.585   9.653  1.00  0.00     0.273 C 
HETATM   12  C11 UNL     1      15.246   8.248   7.386  1.00  0.00     0.280 C 
HETATM   13  C8  UNL     1      13.105   8.636   9.136  1.00  0.00     0.036 C 
HETATM   14  C10 UNL     1      13.855   8.296   6.817  1.00  0.00     0.047 C 
ENDBRANCH   4   5
ENDBRANCH   3   4
TORSDOF 2
ENDMDL
