MODEL 1
REMARK VINA RESULT: -6.242006602      0.000      0.000
REMARK  2 active torsions:
REMARK  status: ('A' for Active; 'I' for Inactive)
REMARK    1  A    between atoms: C2_2  and  N1_5 
REMARK       I    between atoms: N1_5  and  C5_7 
REMARK    2  A    between atoms: C5_7  and  C6_9 
ROOT
HETATM    1  C6  UNL     1       8.252  56.076   0.472  1.00  0.00     0.097 A 
HETATM    2  S1  UNL     1       6.594  56.439   0.679  1.00  0.00    -0.086 SA
HETATM    3  C7  UNL     1       6.572  58.002   0.016  1.00  0.00     0.001 A 
HETATM    4  C8  UNL     1       7.869  58.209  -0.355  1.00  0.00    -0.018 A 
HETATM    5  C9  UNL     1       8.746  57.205  -0.118  1.00  0.00     0.076 A 
HETATM    6  N2  UNL     1      10.166  57.265  -0.453  1.00  0.00    -0.100 NA
HETATM    7  C10 UNL     1       8.159  59.560  -0.996  1.00  0.00     0.052 C 
HETATM    8  C11 UNL     1       7.948  60.652   0.033  1.00  0.00     0.079 C 
HETATM    9  S2  UNL     1       6.147  60.675   0.383  1.00  0.00    -0.164 SA
HETATM   10  C12 UNL     1       5.511  59.066  -0.206  1.00  0.00     0.120 C 
ENDROOT
BRANCH   1  11
HETATM   11  C5  UNL     1       8.975  54.836   0.843  1.00  0.00     0.261 C 
HETATM   12  N1  UNL     1       9.995  54.377  -0.033  1.00  0.00    -0.348 N 
ATOM     13  H1  UNL     1      10.198  54.907  -0.882  1.00  0.00     0.163 HD
HETATM   14  O1  UNL     1       8.640  54.281   1.900  1.00  0.00    -0.267 OA
BRANCH  12  15
HETATM   15  C2  UNL     1      10.751  53.183   0.247  1.00  0.00     0.022 C 
HETATM   16  C1  UNL     1       9.789  52.040   0.479  1.00  0.00     0.037 C 
HETATM   17  C3  UNL     1      11.662  53.359   1.442  1.00  0.00     0.037 C 
HETATM   18  C4  UNL     1      11.648  52.796  -0.927  1.00  0.00     0.037 C 
ENDBRANCH  12  15
ENDBRANCH   1  11
TORSDOF 2
ENDMDL
MODEL 2
REMARK VINA RESULT: -6.222760259      2.286      2.632
REMARK  2 active torsions:
REMARK  status: ('A' for Active; 'I' for Inactive)
REMARK    1  A    between atoms: C2_2  and  N1_5 
REMARK       I    between atoms: N1_5  and  C5_7 
REMARK    2  A    between atoms: C5_7  and  C6_9 
ROOT
HETATM    1  C6  UNL     1       6.817  56.148   1.557  1.00  0.00     0.097 A 
HETATM    2  S1  UNL     1       5.561  57.302   1.666  1.00  0.00    -0.086 SA
HETATM    3  C7  UNL     1       6.159  58.462   0.579  1.00  0.00     0.001 A 
HETATM    4  C8  UNL     1       7.336  57.919   0.151  1.00  0.00    -0.018 A 
HETATM    5  C9  UNL     1       7.681  56.712   0.660  1.00  0.00     0.076 A 
HETATM    6  N2  UNL     1       8.904  55.996   0.309  1.00  0.00    -0.100 NA
HETATM    7  C10 UNL     1       8.114  58.755  -0.857  1.00  0.00     0.052 C 
HETATM    8  C11 UNL     1       8.580  60.031  -0.186  1.00  0.00     0.079 C 
HETATM    9  S2  UNL     1       7.064  61.004   0.159  1.00  0.00    -0.164 SA
HETATM   10  C12 UNL     1       5.683  59.810   0.069  1.00  0.00     0.120 C 
ENDROOT
BRANCH   1  11
HETATM   11  C5  UNL     1       6.939  54.851   2.265  1.00  0.00     0.261 C 
HETATM   12  N1  UNL     1       7.023  53.672   1.476  1.00  0.00    -0.348 N 
ATOM     13  H1  UNL     1       6.997  53.751   0.459  1.00  0.00     0.163 HD
HETATM   14  O1  UNL     1       6.961  54.883   3.504  1.00  0.00    -0.267 OA
BRANCH  12  15
HETATM   15  C2  UNL     1       7.144  52.368   2.077  1.00  0.00     0.022 C 
HETATM   16  C1  UNL     1       5.932  52.116   2.946  1.00  0.00     0.037 C 
HETATM   17  C3  UNL     1       8.414  52.237   2.889  1.00  0.00     0.037 C 
HETATM   18  C4  UNL     1       7.189  51.264   1.023  1.00  0.00     0.037 C 
ENDBRANCH  12  15
ENDBRANCH   1  11
TORSDOF 2
ENDMDL
MODEL 3
REMARK VINA RESULT: -6.164615557      2.224      2.662
REMARK  2 active torsions:
REMARK  status: ('A' for Active; 'I' for Inactive)
REMARK    1  A    between atoms: C2_2  and  N1_5 
REMARK       I    between atoms: N1_5  and  C5_7 
REMARK    2  A    between atoms: C5_7  and  C6_9 
ROOT
HETATM    1  C6  UNL     1       6.878  56.083   1.519  1.00  0.00     0.097 A 
HETATM    2  S1  UNL     1       5.614  57.230   1.610  1.00  0.00    -0.086 SA
HETATM    3  C7  UNL     1       6.222  58.394   0.533  1.00  0.00     0.001 A 
HETATM    4  C8  UNL     1       7.409  57.858   0.123  1.00  0.00    -0.018 A 
HETATM    5  C9  UNL     1       7.752  56.653   0.637  1.00  0.00     0.076 A 
HETATM    6  N2  UNL     1       8.984  55.944   0.303  1.00  0.00    -0.100 NA
HETATM    7  C10 UNL     1       8.197  58.699  -0.873  1.00  0.00     0.052 C 
HETATM    8  C11 UNL     1       8.646  59.977  -0.194  1.00  0.00     0.079 C 
HETATM    9  S2  UNL     1       7.119  60.941   0.128  1.00  0.00    -0.164 SA
HETATM   10  C12 UNL     1       5.746  59.739   0.016  1.00  0.00     0.120 C 
ENDROOT
BRANCH   1  11
HETATM   11  C5  UNL     1       6.996  54.786   2.229  1.00  0.00     0.261 C 
HETATM   12  N1  UNL     1       7.146  53.613   1.441  1.00  0.00    -0.348 N 
ATOM     13  H1  UNL     1       7.167  53.695   0.424  1.00  0.00     0.163 HD
HETATM   14  O1  UNL     1       6.958  54.814   3.467  1.00  0.00    -0.267 OA
BRANCH  12  15
HETATM   15  C2  UNL     1       7.269  52.310   2.044  1.00  0.00     0.022 C 
HETATM   16  C1  UNL     1       7.388  51.274   0.949  1.00  0.00     0.037 C 
HETATM   17  C3  UNL     1       6.096  51.993   2.946  1.00  0.00     0.037 C 
HETATM   18  C4  UNL     1       8.522  52.206   2.911  1.00  0.00     0.037 C 
ENDBRANCH  12  15
ENDBRANCH   1  11
TORSDOF 2
ENDMDL
MODEL 4
REMARK VINA RESULT: -6.055732158      0.473      1.148
REMARK  2 active torsions:
REMARK  status: ('A' for Active; 'I' for Inactive)
REMARK    1  A    between atoms: C2_2  and  N1_5 
REMARK       I    between atoms: N1_5  and  C5_7 
REMARK    2  A    between atoms: C5_7  and  C6_9 
ROOT
HETATM    1  C6  UNL     1       8.108  55.848   0.504  1.00  0.00     0.097 A 
HETATM    2  S1  UNL     1       6.490  56.371   0.682  1.00  0.00    -0.086 SA
HETATM    3  C7  UNL     1       6.625  57.916  -0.012  1.00  0.00     0.001 A 
HETATM    4  C8  UNL     1       7.940  57.990  -0.369  1.00  0.00    -0.018 A 
HETATM    5  C9  UNL     1       8.715  56.912  -0.100  1.00  0.00     0.076 A 
HETATM    6  N2  UNL     1      10.138  56.830  -0.417  1.00  0.00    -0.100 NA
HETATM    7  C10 UNL     1       8.365  59.294  -1.033  1.00  0.00     0.052 C 
HETATM    8  C11 UNL     1       8.247  60.422  -0.028  1.00  0.00     0.079 C 
HETATM    9  S2  UNL     1       6.453  60.624   0.296  1.00  0.00    -0.164 SA
HETATM   10  C12 UNL     1       5.673  59.070  -0.269  1.00  0.00     0.120 C 
ENDROOT
BRANCH   1  11
HETATM   11  C5  UNL     1       8.705  54.553   0.910  1.00  0.00     0.261 C 
HETATM   12  N1  UNL     1       9.622  53.938   0.015  1.00  0.00    -0.348 N 
ATOM     13  H1  UNL     1       9.839  54.398  -0.869  1.00  0.00     0.163 HD
HETATM   14  O1  UNL     1       8.363  54.093   2.009  1.00  0.00    -0.267 OA
BRANCH  12  15
HETATM   15  C2  UNL     1      10.251  52.680   0.326  1.00  0.00     0.022 C 
HETATM   16  C1  UNL     1      11.131  52.861   1.543  1.00  0.00     0.037 C 
HETATM   17  C3  UNL     1      11.061  52.151  -0.838  1.00  0.00     0.037 C 
HETATM   18  C4  UNL     1       9.222  51.602   0.661  1.00  0.00     0.037 C 
ENDBRANCH  12  15
ENDBRANCH   1  11
TORSDOF 2
ENDMDL
MODEL 5
REMARK VINA RESULT: -5.884478820      6.107      8.698
REMARK  2 active torsions:
REMARK  status: ('A' for Active; 'I' for Inactive)
REMARK    1  A    between atoms: C2_2  and  N1_5 
REMARK       I    between atoms: N1_5  and  C5_7 
REMARK    2  A    between atoms: C5_7  and  C6_9 
ROOT
HETATM    1  C6  UNL     1       5.337  51.132   2.036  1.00  0.00     0.097 A 
HETATM    2  S1  UNL     1       5.505  50.272   3.503  1.00  0.00    -0.086 SA
HETATM    3  C7  UNL     1       4.313  49.085   3.263  1.00  0.00     0.001 A 
HETATM    4  C8  UNL     1       3.806  49.389   2.032  1.00  0.00    -0.018 A 
HETATM    5  C9  UNL     1       4.339  50.456   1.391  1.00  0.00     0.076 A 
HETATM    6  N2  UNL     1       3.911  50.914   0.072  1.00  0.00    -0.100 NA
HETATM    7  C10 UNL     1       2.693  48.473   1.539  1.00  0.00     0.052 C 
HETATM    8  C11 UNL     1       1.481  48.643   2.431  1.00  0.00     0.079 C 
HETATM    9  S2  UNL     1       1.957  47.963   4.066  1.00  0.00    -0.164 SA
HETATM   10  C12 UNL     1       3.784  47.909   4.064  1.00  0.00     0.120 C 
ENDROOT
BRANCH   1  11
HETATM   11  C5  UNL     1       6.092  52.322   1.576  1.00  0.00     0.261 C 
HETATM   12  N1  UNL     1       5.487  53.596   1.747  1.00  0.00    -0.348 N 
ATOM     13  H1  UNL     1       4.563  53.654   2.175  1.00  0.00     0.163 HD
HETATM   14  O1  UNL     1       7.207  52.124   1.071  1.00  0.00    -0.267 OA
BRANCH  12  15
HETATM   15  C2  UNL     1       6.146  54.808   1.330  1.00  0.00     0.022 C 
HETATM   16  C1  UNL     1       5.234  55.981   1.609  1.00  0.00     0.037 C 
HETATM   17  C3  UNL     1       6.526  54.769  -0.134  1.00  0.00     0.037 C 
HETATM   18  C4  UNL     1       7.441  55.039   2.106  1.00  0.00     0.037 C 
ENDBRANCH  12  15
ENDBRANCH   1  11
TORSDOF 2
ENDMDL
