MODEL 1
REMARK VINA RESULT: -8.856002297      0.000      0.000
REMARK  2 active torsions:
REMARK  status: ('A' for Active; 'I' for Inactive)
REMARK    1  A    between atoms: C7_8  and  N2_9 
REMARK       I    between atoms: N2_9  and  C8_11 
REMARK       I    between atoms: C8_11  and  N3_13 
REMARK    2  A    between atoms: N3_13  and  C9_15 
ROOT
HETATM    1  N1  UNL     1       9.810  57.769  -1.269  1.00  0.00    -0.191 NA
HETATM    2  C1  UNL     1       8.862  58.305  -0.898  1.00  0.00     0.102 C 
HETATM    3  C2  UNL     1       7.671  58.992  -0.405  1.00  0.00     0.071 A 
HETATM    4  C3  UNL     1       7.713  60.354  -0.260  1.00  0.00     0.025 A 
HETATM    5  C4  UNL     1       6.616  61.033   0.200  1.00  0.00     0.002 A 
HETATM    6  C5  UNL     1       5.474  60.349   0.515  1.00  0.00     0.002 A 
HETATM    7  C6  UNL     1       5.407  58.965   0.376  1.00  0.00     0.031 A 
HETATM    8  C7  UNL     1       6.504  58.273  -0.085  1.00  0.00     0.057 A 
ENDROOT
BRANCH   8   9
HETATM    9  N2  UNL     1       6.569  56.881  -0.271  1.00  0.00    -0.307 N 
HETATM   10  C8  UNL     1       6.624  55.849   0.691  1.00  0.00     0.325 C 
HETATM   11  O1  UNL     1       6.618  56.145   1.898  1.00  0.00    -0.247 OA
HETATM   12  N3  UNL     1       6.684  54.506   0.229  1.00  0.00    -0.309 N 
ATOM     13  H3  UNL     1       6.678  54.353  -0.780  1.00  0.00     0.170 HD
ATOM     14  H2  UNL     1       6.577  56.571  -1.243  1.00  0.00     0.170 HD
BRANCH  12  15
HETATM   15  C9  UNL     1       6.752  53.375   1.054  1.00  0.00     0.039 A 
HETATM   16  C10 UNL     1       7.925  52.906   1.575  1.00  0.00     0.032 A 
HETATM   17  C11 UNL     1       7.886  51.782   2.413  1.00  0.00     0.042 A 
HETATM   18  C12 UNL     1       6.691  51.162   2.705  1.00  0.00     0.105 A 
HETATM   19  C13 UNL     1       5.509  51.636   2.178  1.00  0.00     0.107 A 
HETATM   20  O3  UNL     1       6.375  50.057   3.489  1.00  0.00    -0.323 OA
HETATM   21  C14 UNL     1       5.542  52.733   1.359  1.00  0.00     0.069 A 
HETATM   22  O2  UNL     1       4.445  50.831   2.627  1.00  0.00    -0.323 OA
HETATM   23  C15 UNL     1       4.989  49.797   3.424  1.00  0.00     0.352 A 
ENDBRANCH  12  15
ENDBRANCH   8   9
TORSDOF 2
ENDMDL
MODEL 2
REMARK VINA RESULT: -8.606652345      0.913      2.070
REMARK  2 active torsions:
REMARK  status: ('A' for Active; 'I' for Inactive)
REMARK    1  A    between atoms: C7_8  and  N2_9 
REMARK       I    between atoms: N2_9  and  C8_11 
REMARK       I    between atoms: C8_11  and  N3_13 
REMARK    2  A    between atoms: N3_13  and  C9_15 
ROOT
HETATM    1  N1  UNL     1       3.753  58.001   1.142  1.00  0.00    -0.191 NA
HETATM    2  C1  UNL     1       4.766  58.425   0.796  1.00  0.00     0.102 C 
HETATM    3  C2  UNL     1       6.039  58.974   0.340  1.00  0.00     0.071 A 
HETATM    4  C3  UNL     1       6.271  60.315   0.505  1.00  0.00     0.025 A 
HETATM    5  C4  UNL     1       7.453  60.868   0.089  1.00  0.00     0.002 A 
HETATM    6  C5  UNL     1       8.406  60.079  -0.494  1.00  0.00     0.002 A 
HETATM    7  C6  UNL     1       8.194  58.713  -0.673  1.00  0.00     0.031 A 
HETATM    8  C7  UNL     1       7.010  58.149  -0.258  1.00  0.00     0.057 A 
ENDROOT
BRANCH   8   9
HETATM    9  N2  UNL     1       6.670  56.789  -0.379  1.00  0.00    -0.307 N 
HETATM   10  C8  UNL     1       6.929  55.719   0.504  1.00  0.00     0.325 C 
HETATM   11  O1  UNL     1       7.542  55.940   1.562  1.00  0.00    -0.247 OA
HETATM   12  N3  UNL     1       6.470  54.424   0.138  1.00  0.00    -0.309 N 
ATOM     13  H3  UNL     1       5.968  54.333  -0.746  1.00  0.00     0.170 HD
ATOM     14  H2  UNL     1       6.164  56.541  -1.228  1.00  0.00     0.170 HD
BRANCH  12  15
HETATM   15  C9  UNL     1       6.654  53.262   0.900  1.00  0.00     0.039 A 
HETATM   16  C10 UNL     1       7.885  52.717   1.137  1.00  0.00     0.032 A 
HETATM   17  C11 UNL     1       7.969  51.567   1.934  1.00  0.00     0.042 A 
HETATM   18  C12 UNL     1       6.834  50.995   2.468  1.00  0.00     0.105 A 
HETATM   19  C13 UNL     1       5.593  51.545   2.226  1.00  0.00     0.107 A 
HETATM   20  O3  UNL     1       6.637  49.879   3.273  1.00  0.00    -0.323 OA
HETATM   21  C14 UNL     1       5.507  52.668   1.448  1.00  0.00     0.069 A 
HETATM   22  O2  UNL     1       4.611  50.777   2.879  1.00  0.00    -0.323 OA
HETATM   23  C15 UNL     1       5.258  49.688   3.509  1.00  0.00     0.352 A 
ENDBRANCH  12  15
ENDBRANCH   8   9
TORSDOF 2
ENDMDL
MODEL 3
REMARK VINA RESULT: -8.518292994      1.735      2.630
REMARK  2 active torsions:
REMARK  status: ('A' for Active; 'I' for Inactive)
REMARK    1  A    between atoms: C7_8  and  N2_9 
REMARK       I    between atoms: N2_9  and  C8_11 
REMARK       I    between atoms: C8_11  and  N3_13 
REMARK    2  A    between atoms: N3_13  and  C9_15 
ROOT
HETATM    1  N1  UNL     1       4.187  58.255   1.729  1.00  0.00    -0.191 NA
HETATM    2  C1  UNL     1       5.195  58.399   1.192  1.00  0.00     0.102 C 
HETATM    3  C2  UNL     1       6.462  58.578   0.488  1.00  0.00     0.071 A 
HETATM    4  C3  UNL     1       6.641  59.713  -0.259  1.00  0.00     0.025 A 
HETATM    5  C4  UNL     1       7.816  59.916  -0.934  1.00  0.00     0.002 A 
HETATM    6  C5  UNL     1       8.813  58.983  -0.862  1.00  0.00     0.002 A 
HETATM    7  C6  UNL     1       8.654  57.822  -0.109  1.00  0.00     0.031 A 
HETATM    8  C7  UNL     1       7.479  57.608   0.572  1.00  0.00     0.057 A 
ENDROOT
BRANCH   8   9
HETATM    9  N2  UNL     1       7.191  56.483   1.365  1.00  0.00    -0.307 N 
HETATM   10  C8  UNL     1       6.753  55.199   0.975  1.00  0.00     0.325 C 
HETATM   11  O1  UNL     1       6.576  54.960  -0.231  1.00  0.00    -0.247 OA
HETATM   12  N3  UNL     1       6.533  54.229   1.992  1.00  0.00    -0.309 N 
ATOM     13  H3  UNL     1       6.710  54.509   2.957  1.00  0.00     0.170 HD
ATOM     14  H2  UNL     1       7.316  56.614   2.369  1.00  0.00     0.170 HD
BRANCH  12  15
HETATM   15  C9  UNL     1       6.091  52.918   1.768  1.00  0.00     0.039 A 
HETATM   16  C10 UNL     1       6.937  51.896   1.442  1.00  0.00     0.032 A 
HETATM   17  C11 UNL     1       6.402  50.611   1.264  1.00  0.00     0.042 A 
HETATM   18  C12 UNL     1       5.051  50.384   1.414  1.00  0.00     0.105 A 
HETATM   19  C13 UNL     1       4.199  51.417   1.741  1.00  0.00     0.107 A 
HETATM   20  O3  UNL     1       4.276  49.236   1.297  1.00  0.00    -0.323 OA
HETATM   21  C14 UNL     1       4.718  52.672   1.916  1.00  0.00     0.069 A 
HETATM   22  O2  UNL     1       2.885  50.922   1.832  1.00  0.00    -0.323 OA
HETATM   23  C15 UNL     1       2.915  49.546   1.506  1.00  0.00     0.352 A 
ENDBRANCH  12  15
ENDBRANCH   8   9
TORSDOF 2
ENDMDL
MODEL 4
REMARK VINA RESULT: -8.491205732      1.487      2.670
REMARK  2 active torsions:
REMARK  status: ('A' for Active; 'I' for Inactive)
REMARK    1  A    between atoms: C7_8  and  N2_9 
REMARK       I    between atoms: N2_9  and  C8_11 
REMARK       I    between atoms: C8_11  and  N3_13 
REMARK    2  A    between atoms: N3_13  and  C9_15 
ROOT
HETATM    1  N1  UNL     1       3.724  58.985   1.471  1.00  0.00    -0.191 NA
HETATM    2  C1  UNL     1       4.767  59.159   1.017  1.00  0.00     0.102 C 
HETATM    3  C2  UNL     1       6.079  59.393   0.422  1.00  0.00     0.071 A 
HETATM    4  C3  UNL     1       6.558  60.676   0.374  1.00  0.00     0.025 A 
HETATM    5  C4  UNL     1       7.785  60.935  -0.177  1.00  0.00     0.002 A 
HETATM    6  C5  UNL     1       8.535  59.909  -0.682  1.00  0.00     0.002 A 
HETATM    7  C6  UNL     1       8.070  58.596  -0.645  1.00  0.00     0.031 A 
HETATM    8  C7  UNL     1       6.839  58.326  -0.094  1.00  0.00     0.057 A 
ENDROOT
BRANCH   8   9
HETATM    9  N2  UNL     1       6.254  57.050   0.006  1.00  0.00    -0.307 N 
HETATM   10  C8  UNL     1       6.695  55.915   0.720  1.00  0.00     0.325 C 
HETATM   11  O1  UNL     1       7.747  55.984   1.379  1.00  0.00    -0.247 OA
HETATM   12  N3  UNL     1       5.906  54.734   0.652  1.00  0.00    -0.309 N 
ATOM     13  H3  UNL     1       5.053  54.768   0.093  1.00  0.00     0.170 HD
ATOM     14  H2  UNL     1       5.386  56.928  -0.513  1.00  0.00     0.170 HD
BRANCH  12  15
HETATM   15  C9  UNL     1       6.211  53.527   1.295  1.00  0.00     0.039 A 
HETATM   16  C10 UNL     1       5.625  53.141   2.467  1.00  0.00     0.032 A 
HETATM   17  C11 UNL     1       5.977  51.901   3.019  1.00  0.00     0.042 A 
HETATM   18  C12 UNL     1       6.897  51.088   2.393  1.00  0.00     0.105 A 
HETATM   19  C13 UNL     1       7.489  51.479   1.212  1.00  0.00     0.107 A 
HETATM   20  O3  UNL     1       7.416  49.838   2.716  1.00  0.00    -0.323 OA
HETATM   21  C14 UNL     1       7.147  52.689   0.669  1.00  0.00     0.069 A 
HETATM   22  O2  UNL     1       8.382  50.477   0.787  1.00  0.00    -0.323 OA
HETATM   23  C15 UNL     1       8.378  49.450   1.759  1.00  0.00     0.352 A 
ENDBRANCH  12  15
ENDBRANCH   8   9
TORSDOF 2
ENDMDL
MODEL 5
REMARK VINA RESULT: -8.452182288      1.164      1.388
REMARK  2 active torsions:
REMARK  status: ('A' for Active; 'I' for Inactive)
REMARK    1  A    between atoms: C7_8  and  N2_9 
REMARK       I    between atoms: N2_9  and  C8_11 
REMARK       I    between atoms: C8_11  and  N3_13 
REMARK    2  A    between atoms: N3_13  and  C9_15 
ROOT
HETATM    1  N1  UNL     1      10.301  57.282  -1.123  1.00  0.00    -0.191 NA
HETATM    2  C1  UNL     1       9.308  57.797  -0.853  1.00  0.00     0.102 C 
HETATM    3  C2  UNL     1       8.059  58.461  -0.489  1.00  0.00     0.071 A 
HETATM    4  C3  UNL     1       8.006  59.830  -0.536  1.00  0.00     0.025 A 
HETATM    5  C4  UNL     1       6.853  60.488  -0.202  1.00  0.00     0.002 A 
HETATM    6  C5  UNL     1       5.749  59.777   0.181  1.00  0.00     0.002 A 
HETATM    7  C6  UNL     1       5.778  58.384   0.237  1.00  0.00     0.031 A 
HETATM    8  C7  UNL     1       6.932  57.714  -0.097  1.00  0.00     0.057 A 
ENDROOT
BRANCH   8   9
HETATM    9  N2  UNL     1       7.095  56.317  -0.083  1.00  0.00    -0.307 N 
HETATM   10  C8  UNL     1       6.401  55.341   0.663  1.00  0.00     0.325 C 
HETATM   11  O1  UNL     1       5.501  55.700   1.442  1.00  0.00    -0.247 OA
HETATM   12  N3  UNL     1       6.767  53.978   0.487  1.00  0.00    -0.309 N 
ATOM     13  H3  UNL     1       7.512  53.772  -0.179  1.00  0.00     0.170 HD
ATOM     14  H2  UNL     1       7.820  55.957  -0.704  1.00  0.00     0.170 HD
BRANCH  12  15
HETATM   15  C9  UNL     1       6.181  52.896   1.158  1.00  0.00     0.039 A 
HETATM   16  C10 UNL     1       6.447  52.603   2.466  1.00  0.00     0.032 A 
HETATM   17  C11 UNL     1       5.790  51.514   3.058  1.00  0.00     0.042 A 
HETATM   18  C12 UNL     1       4.896  50.754   2.336  1.00  0.00     0.105 A 
HETATM   19  C13 UNL     1       4.630  51.051   1.016  1.00  0.00     0.107 A 
HETATM   20  O3  UNL     1       4.124  49.646   2.669  1.00  0.00    -0.323 OA
HETATM   21  C14 UNL     1       5.269  52.113   0.435  1.00  0.00     0.069 A 
HETATM   22  O2  UNL     1       3.691  50.131   0.515  1.00  0.00    -0.323 OA
HETATM   23  C15 UNL     1       3.397  49.205   1.543  1.00  0.00     0.352 A 
ENDBRANCH  12  15
ENDBRANCH   8   9
TORSDOF 2
ENDMDL
