MODEL 1
REMARK VINA RESULT: -3.983747104      0.000      0.000
REMARK  1 active torsions:
REMARK  status: ('A' for Active; 'I' for Inactive)
REMARK    1  A    between atoms: N1_2  and  C2_5 
ROOT
HETATM    1  C2  UNL     1      10.525  21.920  21.760  1.00  0.00     0.199 C 
HETATM    2  C3  UNL     1      11.285  21.762  23.076  1.00  0.00     0.025 C 
HETATM    3  C4  UNL     1      12.671  22.166  22.644  1.00  0.00     0.008 C 
HETATM    4  C5  UNL     1      12.304  23.359  21.745  1.00  0.00     0.012 C 
HETATM    5  C6  UNL     1      10.810  23.374  21.975  1.00  0.00    -0.008 C 
HETATM    6  C7  UNL     1      10.014  24.400  21.350  1.00  0.00     0.018 C 
HETATM    7  C8  UNL     1      10.684  23.109  23.450  1.00  0.00    -0.033 C 
HETATM    8  C9  UNL     1       9.277  23.040  23.982  1.00  0.00     0.016 C 
HETATM    9  C10 UNL     1      11.532  23.950  24.358  1.00  0.00     0.016 C 
ENDROOT
BRANCH   1  10
HETATM   10  N1  UNL     1       9.204  21.455  21.716  1.00  0.00    -0.074 N 
HETATM   11  C1  UNL     1       9.064  20.326  20.812  1.00  0.00     0.267 C 
ATOM     12  H12 UNL     1       8.553  22.204  21.480  1.00  0.00     0.277 HD
ATOM     13  H11 UNL     1       8.857  21.230  22.649  1.00  0.00     0.277 HD
ENDBRANCH   1  10
TORSDOF 1
ENDMDL
MODEL 2
REMARK VINA RESULT: -3.746764582      1.149      2.612
REMARK  1 active torsions:
REMARK  status: ('A' for Active; 'I' for Inactive)
REMARK    1  A    between atoms: N1_2  and  C2_5 
ROOT
HETATM    1  C2  UNL     1       9.596  21.516  21.912  1.00  0.00     0.199 C 
HETATM    2  C3  UNL     1       8.475  22.498  22.249  1.00  0.00     0.025 C 
HETATM    3  C4  UNL     1       8.689  22.662  23.732  1.00  0.00     0.008 C 
HETATM    4  C5  UNL     1      10.226  22.729  23.747  1.00  0.00     0.012 C 
HETATM    5  C6  UNL     1      10.476  22.677  22.257  1.00  0.00    -0.008 C 
HETATM    6  C7  UNL     1      11.829  22.770  21.769  1.00  0.00     0.018 C 
HETATM    7  C8  UNL     1       9.403  23.567  21.694  1.00  0.00    -0.033 C 
HETATM    8  C9  UNL     1       9.383  23.695  20.193  1.00  0.00     0.016 C 
HETATM    9  C10 UNL     1       9.257  24.922  22.323  1.00  0.00     0.016 C 
ENDROOT
BRANCH   1  10
HETATM   10  N1  UNL     1       9.612  20.971  20.621  1.00  0.00    -0.074 N 
HETATM   11  C1  UNL     1       8.613  19.928  20.468  1.00  0.00     0.267 C 
ATOM     12  H12 UNL     1      10.542  20.636  20.370  1.00  0.00     0.277 HD
ATOM     13  H11 UNL     1       9.507  21.695  19.910  1.00  0.00     0.277 HD
ENDBRANCH   1  10
TORSDOF 1
ENDMDL
MODEL 3
REMARK VINA RESULT: -3.707438507      1.693      3.358
REMARK  1 active torsions:
REMARK  status: ('A' for Active; 'I' for Inactive)
REMARK    1  A    between atoms: N1_2  and  C2_5 
ROOT
HETATM    1  C2  UNL     1      11.409  24.074  22.999  1.00  0.00     0.199 C 
HETATM    2  C3  UNL     1      11.811  23.375  21.700  1.00  0.00     0.025 C 
HETATM    3  C4  UNL     1      12.645  22.244  22.242  1.00  0.00     0.008 C 
HETATM    4  C5  UNL     1      11.775  21.861  23.451  1.00  0.00     0.012 C 
HETATM    5  C6  UNL     1      10.627  22.817  23.224  1.00  0.00    -0.008 C 
HETATM    6  C7  UNL     1       9.497  22.782  24.119  1.00  0.00     0.018 C 
HETATM    7  C8  UNL     1      10.419  22.763  21.736  1.00  0.00    -0.033 C 
HETATM    8  C9  UNL     1       9.330  23.653  21.197  1.00  0.00     0.016 C 
HETATM    9  C10 UNL     1      10.312  21.397  21.123  1.00  0.00     0.016 C 
ENDROOT
BRANCH   1  10
HETATM   10  N1  UNL     1      10.756  25.308  22.894  1.00  0.00    -0.074 N 
HETATM   11  C1  UNL     1      11.663  26.359  22.465  1.00  0.00     0.267 C 
ATOM     12  H12 UNL     1      10.284  25.555  23.764  1.00  0.00     0.277 HD
ATOM     13  H11 UNL     1       9.940  25.248  22.283  1.00  0.00     0.277 HD
ENDBRANCH   1  10
TORSDOF 1
ENDMDL
MODEL 4
REMARK VINA RESULT: -3.661329366      1.017      2.175
REMARK  1 active torsions:
REMARK  status: ('A' for Active; 'I' for Inactive)
REMARK    1  A    between atoms: N1_2  and  C2_5 
ROOT
HETATM    1  C2  UNL     1      10.320  22.860  21.701  1.00  0.00     0.199 C 
HETATM    2  C3  UNL     1      11.672  23.561  21.827  1.00  0.00     0.025 C 
HETATM    3  C4  UNL     1      11.225  24.988  22.016  1.00  0.00     0.008 C 
HETATM    4  C5  UNL     1      10.041  24.745  22.967  1.00  0.00     0.012 C 
HETATM    5  C6  UNL     1      10.184  23.251  23.140  1.00  0.00    -0.008 C 
HETATM    6  C7  UNL     1       9.284  22.558  24.027  1.00  0.00     0.018 C 
HETATM    7  C8  UNL     1      11.669  23.055  23.261  1.00  0.00    -0.033 C 
HETATM    8  C9  UNL     1      12.128  21.630  23.422  1.00  0.00     0.016 C 
HETATM    9  C10 UNL     1      12.383  23.936  24.244  1.00  0.00     0.016 C 
ENDROOT
BRANCH   1  10
HETATM   10  N1  UNL     1      10.324  21.509  21.329  1.00  0.00    -0.074 N 
HETATM   11  C1  UNL     1       9.136  21.159  20.570  1.00  0.00     0.267 C 
ATOM     12  H12 UNL     1      10.442  20.901  22.138  1.00  0.00     0.277 HD
ATOM     13  H11 UNL     1      11.176  21.265  20.822  1.00  0.00     0.277 HD
ENDBRANCH   1  10
TORSDOF 1
ENDMDL
MODEL 5
REMARK VINA RESULT: -3.599791761      1.179      2.764
REMARK  1 active torsions:
REMARK  status: ('A' for Active; 'I' for Inactive)
REMARK    1  A    between atoms: N1_2  and  C2_5 
ROOT
HETATM    1  C2  UNL     1      10.125  24.199  22.180  1.00  0.00     0.199 C 
HETATM    2  C3  UNL     1      11.541  23.736  21.841  1.00  0.00     0.025 C 
HETATM    3  C4  UNL     1      12.310  24.334  22.990  1.00  0.00     0.008 C 
HETATM    4  C5  UNL     1      11.317  24.033  24.126  1.00  0.00     0.012 C 
HETATM    5  C6  UNL     1      10.286  23.261  23.335  1.00  0.00    -0.008 C 
HETATM    6  C7  UNL     1       9.146  22.707  24.022  1.00  0.00     0.018 C 
HETATM    7  C8  UNL     1      11.118  22.398  22.429  1.00  0.00    -0.033 C 
HETATM    8  C9  UNL     1      10.349  21.514  21.483  1.00  0.00     0.016 C 
HETATM    9  C10 UNL     1      12.222  21.614  23.076  1.00  0.00     0.016 C 
ENDROOT
BRANCH   1  10
HETATM   10  N1  UNL     1       9.126  23.981  21.222  1.00  0.00    -0.074 N 
HETATM   11  C1  UNL     1       9.124  25.020  20.206  1.00  0.00     0.267 C 
ATOM     12  H12 UNL     1       8.209  23.883  21.656  1.00  0.00     0.277 HD
ATOM     13  H11 UNL     1       9.205  23.053  20.805  1.00  0.00     0.277 HD
ENDBRANCH   1  10
TORSDOF 1
ENDMDL
