MODEL 1
REMARK VINA RESULT: -10.491870316      0.000      0.000
REMARK  9 active torsions:
REMARK  status: ('A' for Active; 'I' for Inactive)
REMARK    1  A    between atoms: C2_2  and  O1_3 
REMARK    2  A    between atoms: O1_3  and  C3_4 
REMARK       I    between atoms: C3_4  and  N1_6 
REMARK    3  A    between atoms: N1_6  and  C4_8 
REMARK    4  A    between atoms: C6_10  and  C7_11 
REMARK    5  A    between atoms: C23_32  and  O5_33 
REMARK    6  A    between atoms: O5_33  and  C24_34 
REMARK    7  A    between atoms: C24_34  and  C25_35 
REMARK    8  A    between atoms: C25_35  and  O6_36 
REMARK    9  A    between atoms: C25_35  and  C26_38 
ROOT
HETATM    1  C4  UNL     1      31.635  42.953  17.932  1.00  0.00     0.072 A 
HETATM    2  C5  UNL     1      30.810  41.918  17.616  1.00  0.00     0.042 A 
HETATM    3  C6  UNL     1      29.923  41.927  16.526  1.00  0.00    -0.028 A 
HETATM    4  C21 UNL     1      29.897  43.046  15.745  1.00  0.00     0.031 A 
HETATM    5  C22 UNL     1      30.705  44.128  16.009  1.00  0.00     0.047 A 
HETATM    6 BR1  UNL     1      30.637  45.682  14.884  1.00  0.00    -0.048 Br
HETATM    7  C23 UNL     1      31.557  44.068  17.090  1.00  0.00     0.113 A 
ENDROOT
BRANCH   3   8
HETATM    8  C7  UNL     1      29.061  40.737  16.268  1.00  0.00     0.144 C 
HETATM    9  N2  UNL     1      27.930  41.185  15.528  1.00  0.00    -0.405 N 
HETATM   10  C8  UNL     1      26.679  41.211  16.204  1.00  0.00     0.077 C 
ATOM     11  H2  UNL     1      28.014  41.475  14.553  1.00  0.00     0.154 HD
HETATM   12  C9  UNL     1      25.947  39.909  15.948  1.00  0.00     0.032 C 
HETATM   13  C10 UNL     1      26.781  41.508  17.683  1.00  0.00     0.063 C 
HETATM   14  C11 UNL     1      27.603  40.418  18.267  1.00  0.00    -0.047 A 
HETATM   15  C12 UNL     1      27.281  39.792  19.453  1.00  0.00     0.018 A 
HETATM   16  C16 UNL     1      28.725  40.062  17.535  1.00  0.00    -0.022 A 
HETATM   17  C13 UNL     1      28.064  38.789  19.958  1.00  0.00    -0.018 A 
HETATM   18  C14 UNL     1      29.183  38.430  19.235  1.00  0.00     0.113 A 
HETATM   19  C20 UNL     1      27.779  38.086  21.209  1.00  0.00     0.082 C 
HETATM   20  C15 UNL     1      29.528  39.047  18.036  1.00  0.00     0.050 A 
HETATM   21  O3  UNL     1      29.947  37.401  19.795  1.00  0.00    -0.196 OA
HETATM   22  O4  UNL     1      29.365  36.417  20.439  1.00  0.00    -0.224 OA
HETATM   23  C17 UNL     1      28.348  36.717  21.287  1.00  0.00     0.093 C 
HETATM   24  C18 UNL     1      28.701  36.444  22.752  1.00  0.00     0.049 C 
HETATM   25  C19 UNL     1      27.202  35.740  20.973  1.00  0.00     0.049 C 
ENDBRANCH   3   8
BRANCH   1  26
HETATM   26  N1  UNL     1      32.543  42.977  19.000  1.00  0.00    -0.300 N 
HETATM   27  C3  UNL     1      33.838  42.478  19.065  1.00  0.00     0.365 C 
HETATM   28  O2  UNL     1      34.393  41.903  18.111  1.00  0.00    -0.238 OA
ATOM     29  H1  UNL     1      32.205  43.426  19.851  1.00  0.00     0.171 HD
BRANCH  27  30
HETATM   30  O1  UNL     1      34.636  42.580  20.221  1.00  0.00    -0.304 OA
BRANCH  30  31
HETATM   31  C2  UNL     1      36.047  42.525  20.154  1.00  0.00     0.176 C 
HETATM   32  C1  UNL     1      36.717  43.559  20.995  1.00  0.00     0.034 C 
ENDBRANCH  30  31
ENDBRANCH  27  30
ENDBRANCH   1  26
BRANCH   7  33
HETATM   33  O5  UNL     1      32.353  45.168  17.331  1.00  0.00    -0.345 OA
BRANCH  33  34
HETATM   34  C24 UNL     1      33.680  45.194  16.829  1.00  0.00     0.207 C 
BRANCH  34  35
HETATM   35  C25 UNL     1      34.655  45.834  17.767  1.00  0.00     0.145 C 
BRANCH  35  36
HETATM   36  O6  UNL     1      34.125  46.953  18.408  1.00  0.00    -0.393 OA
ATOM     37  H6  UNL     1      34.693  47.712  18.346  1.00  0.00     0.210 HD
ENDBRANCH  35  36
BRANCH  35  38
HETATM   38  C26 UNL     1      35.972  46.204  17.152  1.00  0.00     0.008 C 
HETATM   39  C27 UNL     1      35.966  46.239  15.660  1.00  0.00     0.012 C 
HETATM   40  C28 UNL     1      37.001  45.213  17.689  1.00  0.00     0.012 C 
ENDBRANCH  35  38
ENDBRANCH  34  35
ENDBRANCH  33  34
ENDBRANCH   7  33
TORSDOF 9
ENDMDL
MODEL 2
REMARK VINA RESULT: -10.352672828      2.601      9.395
REMARK  9 active torsions:
REMARK  status: ('A' for Active; 'I' for Inactive)
REMARK    1  A    between atoms: C2_2  and  O1_3 
REMARK    2  A    between atoms: O1_3  and  C3_4 
REMARK       I    between atoms: C3_4  and  N1_6 
REMARK    3  A    between atoms: N1_6  and  C4_8 
REMARK    4  A    between atoms: C6_10  and  C7_11 
REMARK    5  A    between atoms: C23_32  and  O5_33 
REMARK    6  A    between atoms: O5_33  and  C24_34 
REMARK    7  A    between atoms: C24_34  and  C25_35 
REMARK    8  A    between atoms: C25_35  and  O6_36 
REMARK    9  A    between atoms: C25_35  and  C26_38 
ROOT
HETATM    1  C4  UNL     1      31.267  40.944  17.958  1.00  0.00     0.072 A 
HETATM    2  C5  UNL     1      32.601  41.149  18.131  1.00  0.00     0.042 A 
HETATM    3  C6  UNL     1      33.290  42.276  17.651  1.00  0.00    -0.028 A 
HETATM    4  C21 UNL     1      32.567  43.212  16.971  1.00  0.00     0.031 A 
HETATM    5  C22 UNL     1      31.215  43.066  16.760  1.00  0.00     0.047 A 
HETATM    6 BR1  UNL     1      30.237  44.409  15.798  1.00  0.00    -0.048 Br
HETATM    7  C23 UNL     1      30.588  41.942  17.252  1.00  0.00     0.113 A 
ENDROOT
BRANCH   3   8
HETATM    8  C7  UNL     1      34.756  42.403  17.898  1.00  0.00     0.144 C 
HETATM    9  N2  UNL     1      34.955  42.354  19.308  1.00  0.00    -0.405 N 
HETATM   10  C8  UNL     1      35.337  43.563  19.952  1.00  0.00     0.077 C 
ATOM     11  H2  UNL     1      34.827  41.489  19.833  1.00  0.00     0.154 HD
HETATM   12  C9  UNL     1      36.848  43.619  20.049  1.00  0.00     0.032 C 
HETATM   13  C10 UNL     1      34.777  44.812  19.309  1.00  0.00     0.063 C 
HETATM   14  C11 UNL     1      35.307  44.836  17.922  1.00  0.00    -0.047 A 
HETATM   15  C12 UNL     1      35.796  45.980  17.329  1.00  0.00     0.018 A 
HETATM   16  C16 UNL     1      35.281  43.621  17.255  1.00  0.00    -0.022 A 
HETATM   17  C13 UNL     1      36.279  45.960  16.047  1.00  0.00    -0.018 A 
HETATM   18  C14 UNL     1      36.256  44.755  15.377  1.00  0.00     0.113 A 
HETATM   19  C20 UNL     1      36.811  47.138  15.361  1.00  0.00     0.082 C 
HETATM   20  C15 UNL     1      35.767  43.587  15.956  1.00  0.00     0.050 A 
HETATM   21  O3  UNL     1      36.760  44.791  14.073  1.00  0.00    -0.196 OA
HETATM   22  O4  UNL     1      37.771  45.572  13.773  1.00  0.00    -0.224 OA
HETATM   23  C17 UNL     1      37.783  46.831  14.281  1.00  0.00     0.093 C 
HETATM   24  C18 UNL     1      37.628  47.905  13.199  1.00  0.00     0.049 C 
HETATM   25  C19 UNL     1      39.187  47.064  14.865  1.00  0.00     0.049 C 
ENDBRANCH   3   8
BRANCH   1  26
HETATM   26  N1  UNL     1      30.541  39.842  18.433  1.00  0.00    -0.300 N 
HETATM   27  C3  UNL     1      30.990  38.567  18.756  1.00  0.00     0.365 C 
HETATM   28  O2  UNL     1      32.180  38.220  18.656  1.00  0.00    -0.238 OA
ATOM     29  H1  UNL     1      29.542  39.999  18.559  1.00  0.00     0.171 HD
BRANCH  27  30
HETATM   30  O1  UNL     1      30.130  37.556  19.227  1.00  0.00    -0.304 OA
BRANCH  30  31
HETATM   31  C2  UNL     1      29.573  37.604  20.527  1.00  0.00     0.176 C 
HETATM   32  C1  UNL     1      30.554  37.264  21.599  1.00  0.00     0.034 C 
ENDBRANCH  30  31
ENDBRANCH  27  30
ENDBRANCH   1  26
BRANCH   7  33
HETATM   33  O5  UNL     1      29.234  41.822  17.023  1.00  0.00    -0.345 OA
BRANCH  33  34
HETATM   34  C24 UNL     1      28.778  41.109  15.883  1.00  0.00     0.207 C 
BRANCH  34  35
HETATM   35  C25 UNL     1      27.286  41.063  15.772  1.00  0.00     0.145 C 
BRANCH  35  36
HETATM   36  O6  UNL     1      26.857  40.446  14.598  1.00  0.00    -0.393 OA
ATOM     37  H6  UNL     1      27.091  40.939  13.820  1.00  0.00     0.210 HD
ENDBRANCH  35  36
BRANCH  35  38
HETATM   38  C26 UNL     1      26.603  42.391  15.902  1.00  0.00     0.008 C 
HETATM   39  C27 UNL     1      25.933  42.613  17.217  1.00  0.00     0.012 C 
HETATM   40  C28 UNL     1      25.617  42.494  14.742  1.00  0.00     0.012 C 
ENDBRANCH  35  38
ENDBRANCH  34  35
ENDBRANCH  33  34
ENDBRANCH   7  33
TORSDOF 9
ENDMDL
MODEL 3
REMARK VINA RESULT: -10.351907449      2.782      9.418
REMARK  9 active torsions:
REMARK  status: ('A' for Active; 'I' for Inactive)
REMARK    1  A    between atoms: C2_2  and  O1_3 
REMARK    2  A    between atoms: O1_3  and  C3_4 
REMARK       I    between atoms: C3_4  and  N1_6 
REMARK    3  A    between atoms: N1_6  and  C4_8 
REMARK    4  A    between atoms: C6_10  and  C7_11 
REMARK    5  A    between atoms: C23_32  and  O5_33 
REMARK    6  A    between atoms: O5_33  and  C24_34 
REMARK    7  A    between atoms: C24_34  and  C25_35 
REMARK    8  A    between atoms: C25_35  and  O6_36 
REMARK    9  A    between atoms: C25_35  and  C26_38 
ROOT
HETATM    1  C4  UNL     1      30.406  42.402  16.956  1.00  0.00     0.072 A 
HETATM    2  C5  UNL     1      31.710  42.204  17.291  1.00  0.00     0.042 A 
HETATM    3  C6  UNL     1      32.766  43.020  16.849  1.00  0.00    -0.028 A 
HETATM    4  C21 UNL     1      32.452  44.069  16.035  1.00  0.00     0.031 A 
HETATM    5  C22 UNL     1      31.154  44.325  15.657  1.00  0.00     0.047 A 
HETATM    6 BR1  UNL     1      30.757  45.813  14.510  1.00  0.00    -0.048 Br
HETATM    7  C23 UNL     1      30.156  43.495  16.119  1.00  0.00     0.113 A 
ENDROOT
BRANCH   3   8
HETATM    8  C7  UNL     1      34.161  42.714  17.278  1.00  0.00     0.144 C 
HETATM    9  N2  UNL     1      34.116  42.376  18.661  1.00  0.00    -0.405 N 
HETATM   10  C8  UNL     1      34.666  43.314  19.577  1.00  0.00     0.077 C 
ATOM     11  H2  UNL     1      33.706  41.498  18.980  1.00  0.00     0.154 HD
HETATM   12  C9  UNL     1      36.112  42.954  19.852  1.00  0.00     0.032 C 
HETATM   13  C10 UNL     1      34.526  44.757  19.146  1.00  0.00     0.063 C 
HETATM   14  C11 UNL     1      35.261  44.876  17.861  1.00  0.00    -0.047 A 
HETATM   15  C12 UNL     1      36.095  45.935  17.573  1.00  0.00     0.018 A 
HETATM   16  C16 UNL     1      35.056  43.842  16.961  1.00  0.00    -0.022 A 
HETATM   17  C13 UNL     1      36.758  46.008  16.376  1.00  0.00    -0.018 A 
HETATM   18  C14 UNL     1      36.557  44.983  15.475  1.00  0.00     0.113 A 
HETATM   19  C20 UNL     1      37.655  47.103  16.009  1.00  0.00     0.082 C 
HETATM   20  C15 UNL     1      35.720  43.903  15.744  1.00  0.00     0.050 A 
HETATM   21  O3  UNL     1      37.256  45.106  14.270  1.00  0.00    -0.196 OA
HETATM   22  O4  UNL     1      38.458  45.634  14.251  1.00  0.00    -0.224 OA
HETATM   23  C17 UNL     1      38.686  46.740  15.003  1.00  0.00     0.093 C 
HETATM   24  C18 UNL     1      38.964  47.984  14.154  1.00  0.00     0.049 C 
HETATM   25  C19 UNL     1      39.994  46.494  15.775  1.00  0.00     0.049 C 
ENDBRANCH   3   8
BRANCH   1  26
HETATM   26  N1  UNL     1      29.324  41.622  17.386  1.00  0.00    -0.300 N 
HETATM   27  C3  UNL     1      28.679  40.577  16.735  1.00  0.00     0.365 C 
HETATM   28  O2  UNL     1      29.007  40.177  15.603  1.00  0.00    -0.238 OA
ATOM     29  H1  UNL     1      28.958  41.853  18.309  1.00  0.00     0.171 HD
BRANCH  27  30
HETATM   30  O1  UNL     1      27.595  39.881  17.302  1.00  0.00    -0.304 OA
BRANCH  30  31
HETATM   31  C2  UNL     1      27.500  39.670  18.698  1.00  0.00     0.176 C 
HETATM   32  C1  UNL     1      28.585  38.798  19.236  1.00  0.00     0.034 C 
ENDBRANCH  30  31
ENDBRANCH  27  30
ENDBRANCH   1  26
BRANCH   7  33
HETATM   33  O5  UNL     1      28.865  43.775  15.721  1.00  0.00    -0.345 OA
BRANCH  33  34
HETATM   34  C24 UNL     1      27.956  44.347  16.649  1.00  0.00     0.207 C 
BRANCH  34  35
HETATM   35  C25 UNL     1      26.569  43.799  16.533  1.00  0.00     0.145 C 
BRANCH  35  36
HETATM   36  O6  UNL     1      26.319  42.778  17.449  1.00  0.00    -0.393 OA
ATOM     37  H6  UNL     1      25.909  43.096  18.246  1.00  0.00     0.210 HD
ENDBRANCH  35  36
BRANCH  35  38
HETATM   38  C26 UNL     1      26.192  43.325  15.161  1.00  0.00     0.008 C 
HETATM   39  C27 UNL     1      25.315  44.266  14.403  1.00  0.00     0.012 C 
HETATM   40  C28 UNL     1      25.534  41.958  15.333  1.00  0.00     0.012 C 
ENDBRANCH  35  38
ENDBRANCH  34  35
ENDBRANCH  33  34
ENDBRANCH   7  33
TORSDOF 9
ENDMDL
MODEL 4
REMARK VINA RESULT: -10.189039847      3.739      9.508
REMARK  9 active torsions:
REMARK  status: ('A' for Active; 'I' for Inactive)
REMARK    1  A    between atoms: C2_2  and  O1_3 
REMARK    2  A    between atoms: O1_3  and  C3_4 
REMARK       I    between atoms: C3_4  and  N1_6 
REMARK    3  A    between atoms: N1_6  and  C4_8 
REMARK    4  A    between atoms: C6_10  and  C7_11 
REMARK    5  A    between atoms: C23_32  and  O5_33 
REMARK    6  A    between atoms: O5_33  and  C24_34 
REMARK    7  A    between atoms: C24_34  and  C25_35 
REMARK    8  A    between atoms: C25_35  and  O6_36 
REMARK    9  A    between atoms: C25_35  and  C26_38 
ROOT
HETATM    1  C4  UNL     1      31.299  43.018  16.244  1.00  0.00     0.072 A 
HETATM    2  C5  UNL     1      32.604  43.083  16.621  1.00  0.00     0.042 A 
HETATM    3  C6  UNL     1      33.207  42.186  17.520  1.00  0.00    -0.028 A 
HETATM    4  C21 UNL     1      32.426  41.195  18.038  1.00  0.00     0.031 A 
HETATM    5  C22 UNL     1      31.098  41.072  17.699  1.00  0.00     0.047 A 
HETATM    6 BR1  UNL     1      30.035  39.662  18.452  1.00  0.00    -0.048 Br
HETATM    7  C23 UNL     1      30.556  41.978  16.813  1.00  0.00     0.113 A 
ENDROOT
BRANCH   3   8
HETATM    8  C7  UNL     1      34.649  42.349  17.866  1.00  0.00     0.144 C 
HETATM    9  N2  UNL     1      34.751  42.312  19.286  1.00  0.00    -0.405 N 
HETATM   10  C8  UNL     1      35.061  43.532  19.947  1.00  0.00     0.077 C 
ATOM     11  H2  UNL     1      34.608  41.446  19.807  1.00  0.00     0.154 HD
HETATM   12  C9  UNL     1      36.560  43.624  20.148  1.00  0.00     0.032 C 
HETATM   13  C10 UNL     1      34.518  44.765  19.259  1.00  0.00     0.063 C 
HETATM   14  C11 UNL     1      35.141  44.794  17.912  1.00  0.00    -0.047 A 
HETATM   15  C12 UNL     1      35.644  45.946  17.346  1.00  0.00     0.018 A 
HETATM   16  C16 UNL     1      35.190  43.576  17.253  1.00  0.00    -0.022 A 
HETATM   17  C13 UNL     1      36.215  45.931  16.101  1.00  0.00    -0.018 A 
HETATM   18  C14 UNL     1      36.265  44.723  15.439  1.00  0.00     0.113 A 
HETATM   19  C20 UNL     1      36.766  47.117  15.446  1.00  0.00     0.082 C 
HETATM   20  C15 UNL     1      35.765  43.546  15.990  1.00  0.00     0.050 A 
HETATM   21  O3  UNL     1      36.857  44.763  14.173  1.00  0.00    -0.196 OA
HETATM   22  O4  UNL     1      37.868  45.566  13.938  1.00  0.00    -0.224 OA
HETATM   23  C17 UNL     1      37.816  46.827  14.436  1.00  0.00     0.093 C 
HETATM   24  C18 UNL     1      37.712  47.892  13.340  1.00  0.00     0.049 C 
HETATM   25  C19 UNL     1      39.171  47.096  15.114  1.00  0.00     0.049 C 
ENDBRANCH   3   8
BRANCH   1  26
HETATM   26  N1  UNL     1      30.665  43.883  15.341  1.00  0.00    -0.300 N 
HETATM   27  C3  UNL     1      30.596  45.271  15.354  1.00  0.00     0.365 C 
HETATM   28  O2  UNL     1      31.128  45.969  16.236  1.00  0.00    -0.238 OA
ATOM     29  H1  UNL     1      30.185  43.429  14.564  1.00  0.00     0.171 HD
BRANCH  27  30
HETATM   30  O1  UNL     1      29.915  46.007  14.366  1.00  0.00    -0.304 OA
BRANCH  30  31
HETATM   31  C2  UNL     1      30.486  46.244  13.094  1.00  0.00     0.176 C 
HETATM   32  C1  UNL     1      29.559  46.942  12.154  1.00  0.00     0.034 C 
ENDBRANCH  30  31
ENDBRANCH  27  30
ENDBRANCH   1  26
BRANCH   7  33
HETATM   33  O5  UNL     1      29.222  41.831  16.494  1.00  0.00    -0.345 OA
BRANCH  33  34
HETATM   34  C24 UNL     1      28.247  42.572  17.210  1.00  0.00     0.207 C 
BRANCH  34  35
HETATM   35  C25 UNL     1      27.132  43.073  16.345  1.00  0.00     0.145 C 
BRANCH  35  36
HETATM   36  O6  UNL     1      27.533  44.106  15.500  1.00  0.00    -0.393 OA
ATOM     37  H6  UNL     1      28.440  44.358  15.637  1.00  0.00     0.210 HD
ENDBRANCH  35  36
BRANCH  35  38
HETATM   38  C26 UNL     1      25.902  43.501  17.088  1.00  0.00     0.008 C 
HETATM   39  C27 UNL     1      26.015  44.833  17.751  1.00  0.00     0.012 C 
HETATM   40  C28 UNL     1      25.589  42.396  18.093  1.00  0.00     0.012 C 
ENDBRANCH  35  38
ENDBRANCH  34  35
ENDBRANCH  33  34
ENDBRANCH   7  33
TORSDOF 9
ENDMDL
MODEL 5
REMARK VINA RESULT: -10.139543059      4.053      9.574
REMARK  9 active torsions:
REMARK  status: ('A' for Active; 'I' for Inactive)
REMARK    1  A    between atoms: C2_2  and  O1_3 
REMARK    2  A    between atoms: O1_3  and  C3_4 
REMARK       I    between atoms: C3_4  and  N1_6 
REMARK    3  A    between atoms: N1_6  and  C4_8 
REMARK    4  A    between atoms: C6_10  and  C7_11 
REMARK    5  A    between atoms: C23_32  and  O5_33 
REMARK    6  A    between atoms: O5_33  and  C24_34 
REMARK    7  A    between atoms: C24_34  and  C25_35 
REMARK    8  A    between atoms: C25_35  and  O6_36 
REMARK    9  A    between atoms: C25_35  and  C26_38 
ROOT
HETATM    1  C4  UNL     1      31.016  43.789  15.582  1.00  0.00     0.072 A 
HETATM    2  C5  UNL     1      32.274  43.579  16.057  1.00  0.00     0.042 A 
HETATM    3  C6  UNL     1      32.597  42.605  17.017  1.00  0.00    -0.028 A 
HETATM    4  C21 UNL     1      31.580  41.831  17.494  1.00  0.00     0.031 A 
HETATM    5  C22 UNL     1      30.285  41.991  17.057  1.00  0.00     0.047 A 
HETATM    6 BR1  UNL     1      28.885  40.879  17.755  1.00  0.00    -0.048 Br
HETATM    7  C23 UNL     1      30.022  42.961  16.114  1.00  0.00     0.113 A 
ENDROOT
BRANCH   3   8
HETATM    8  C7  UNL     1      34.011  42.458  17.469  1.00  0.00     0.144 C 
HETATM    9  N2  UNL     1      33.985  42.225  18.874  1.00  0.00    -0.405 N 
HETATM   10  C8  UNL     1      34.443  43.276  19.716  1.00  0.00     0.077 C 
ATOM     11  H2  UNL     1      33.652  41.341  19.260  1.00  0.00     0.154 HD
HETATM   12  C9  UNL     1      35.913  43.068  20.018  1.00  0.00     0.032 C 
HETATM   13  C10 UNL     1      34.180  44.663  19.174  1.00  0.00     0.063 C 
HETATM   14  C11 UNL     1      34.910  44.748  17.884  1.00  0.00    -0.047 A 
HETATM   15  C12 UNL     1      35.650  45.851  17.515  1.00  0.00     0.018 A 
HETATM   16  C16 UNL     1      34.804  43.634  17.066  1.00  0.00    -0.022 A 
HETATM   17  C13 UNL     1      36.313  45.890  16.317  1.00  0.00    -0.018 A 
HETATM   18  C14 UNL     1      36.210  44.785  15.498  1.00  0.00     0.113 A 
HETATM   19  C20 UNL     1      37.112  47.029  15.867  1.00  0.00     0.082 C 
HETATM   20  C15 UNL     1      35.470  43.660  15.849  1.00  0.00     0.050 A 
HETATM   21  O3  UNL     1      36.905  44.876  14.288  1.00  0.00    -0.196 OA
HETATM   22  O4  UNL     1      38.055  45.506  14.228  1.00  0.00    -0.224 OA
HETATM   23  C17 UNL     1      38.179  46.682  14.893  1.00  0.00     0.093 C 
HETATM   24  C18 UNL     1      38.352  47.878  13.951  1.00  0.00     0.049 C 
HETATM   25  C19 UNL     1      39.498  46.613  15.683  1.00  0.00     0.049 C 
ENDBRANCH   3   8
BRANCH   1  26
HETATM   26  N1  UNL     1      30.655  44.739  14.616  1.00  0.00    -0.300 N 
HETATM   27  C3  UNL     1      30.531  46.118  14.742  1.00  0.00     0.365 C 
HETATM   28  O2  UNL     1      30.740  46.724  15.808  1.00  0.00    -0.238 OA
ATOM     29  H1  UNL     1      30.456  44.365  13.688  1.00  0.00     0.171 HD
BRANCH  27  30
HETATM   30  O1  UNL     1      30.157  46.948  13.668  1.00  0.00    -0.304 OA
BRANCH  30  31
HETATM   31  C2  UNL     1      29.663  46.413  12.455  1.00  0.00     0.176 C 
HETATM   32  C1  UNL     1      28.360  47.010  12.038  1.00  0.00     0.034 C 
ENDBRANCH  30  31
ENDBRANCH  27  30
ENDBRANCH   1  26
BRANCH   7  33
HETATM   33  O5  UNL     1      28.715  43.100  15.697  1.00  0.00    -0.345 OA
BRANCH  33  34
HETATM   34  C24 UNL     1      27.829  43.923  16.438  1.00  0.00     0.207 C 
BRANCH  34  35
HETATM   35  C25 UNL     1      26.388  43.568  16.242  1.00  0.00     0.145 C 
BRANCH  35  36
HETATM   36  O6  UNL     1      25.820  42.992  17.376  1.00  0.00    -0.393 OA
ATOM     37  H6  UNL     1      25.201  43.570  17.808  1.00  0.00     0.210 HD
ENDBRANCH  35  36
BRANCH  35  38
HETATM   38  C26 UNL     1      26.111  42.690  15.058  1.00  0.00     0.008 C 
HETATM   39  C27 UNL     1      25.074  43.221  14.126  1.00  0.00     0.012 C 
HETATM   40  C28 UNL     1      25.726  41.320  15.609  1.00  0.00     0.012 C 
ENDBRANCH  35  38
ENDBRANCH  34  35
ENDBRANCH  33  34
ENDBRANCH   7  33
TORSDOF 9
ENDMDL
