MODEL 1
REMARK VINA RESULT: -8.568846050      0.000      0.000
REMARK  10 active torsions:
REMARK  status: ('A' for Active; 'I' for Inactive)
REMARK    1  A    between atoms: C12_13  and  C13_14 
REMARK    2  A    between atoms: C13_14  and  C14_15 
REMARK    3  A    between atoms: C14_15  and  C15_16 
REMARK    4  A    between atoms: C15_16  and  C16_17 
REMARK    5  A    between atoms: C16_17  and  C17_18 
REMARK    6  A    between atoms: C17_18  and  N1_19 
REMARK    7  A    between atoms: C20_22  and  C21_23 
REMARK    8  A    between atoms: C22_25  and  N2_26 
REMARK       I    between atoms: N2_26  and  C23_28 
REMARK    9  A    between atoms: C23_28  and  C24_30 
REMARK   10  A    between atoms: C25_31  and  C26_32 
ROOT
HETATM    1  C1  UNL     1      21.773 -24.992   2.789  1.00  0.00     0.011 C 
HETATM    2  C2  UNL     1      20.969 -25.162   1.531  1.00  0.00    -0.009 C 
HETATM    3  C3  UNL     1      20.038 -24.051   1.242  1.00  0.00     0.008 C 
HETATM    4  C4  UNL     1      18.629 -24.228   1.568  1.00  0.00     0.046 C 
HETATM    5  C5  UNL     1      17.809 -25.364   1.224  1.00  0.00     0.121 C 
HETATM    6  C6  UNL     1      17.273 -25.924   2.561  1.00  0.00     0.046 C 
HETATM    7  C7  UNL     1      18.562 -26.395   3.200  1.00  0.00     0.004 C 
HETATM    8  C8  UNL     1      19.589 -27.089   2.427  1.00  0.00     0.011 C 
HETATM    9  C9  UNL     1      20.394 -26.556   1.364  1.00  0.00    -0.024 C 
HETATM   10  C10 UNL     1      21.735 -27.376   1.446  1.00  0.00     0.089 C 
HETATM   11  C11 UNL     1      22.259 -27.172   0.098  1.00  0.00     0.132 C 
HETATM   12  O1  UNL     1      23.231 -26.705  -0.393  1.00  0.00    -0.298 OA
HETATM   13  C12 UNL     1      21.028 -27.824  -0.644  1.00  0.00     0.062 C 
HETATM   14  C20 UNL     1      20.072 -26.730  -0.114  1.00  0.00     0.037 C 
HETATM   15  C21 UNL     1      18.640 -26.932  -0.386  1.00  0.00     0.151 C 
HETATM   16  O2  UNL     1      18.058 -26.533   0.712  1.00  0.00    -0.365 OA
HETATM   17  C22 UNL     1      17.898 -26.253  -1.507  1.00  0.00     0.121 C 
HETATM   18  C27 UNL     1      17.439 -24.847  -1.114  1.00  0.00     0.109 C 
HETATM   19  C28 UNL     1      16.780 -24.907   0.253  1.00  0.00     0.163 C 
HETATM   20  O6  UNL     1      15.682 -24.635   0.426  1.00  0.00    -0.295 OA
ENDROOT
BRANCH  17  21
HETATM   21  N2  UNL     1      16.704 -26.888  -1.908  1.00  0.00    -0.350 N 
HETATM   22  C23 UNL     1      16.191 -27.440  -3.096  1.00  0.00     0.241 C 
HETATM   23  O3  UNL     1      16.918 -27.410  -4.097  1.00  0.00    -0.269 OA
ATOM     24  H2  UNL     1      16.041 -26.968  -1.137  1.00  0.00     0.163 HD
BRANCH  22  25
HETATM   25  C24 UNL     1      14.883 -28.019  -3.196  1.00  0.00     0.081 C 
HETATM   26  C25 UNL     1      13.705 -27.488  -3.088  1.00  0.00     0.090 C 
BRANCH  26  27
HETATM   27  C26 UNL     1      13.248 -26.168  -2.836  1.00  0.00     0.198 C 
HETATM   28  O4  UNL     1      13.817 -25.305  -2.170  1.00  0.00    -0.645 OA
HETATM   29  O5  UNL     1      12.002 -25.748  -3.386  1.00  0.00    -0.645 OA
ENDBRANCH  26  27
ENDBRANCH  22  25
ENDBRANCH  17  21
BRANCH  13  30
HETATM   30  C13 UNL     1      21.418 -27.762  -2.052  1.00  0.00     0.013 C 
BRANCH  30  31
HETATM   31  C14 UNL     1      20.962 -28.810  -2.961  1.00  0.00     0.001 C 
BRANCH  31  32
HETATM   32  C15 UNL     1      21.561 -30.182  -2.864  1.00  0.00     0.002 C 
BRANCH  32  33
HETATM   33  C16 UNL     1      22.960 -30.332  -2.477  1.00  0.00     0.030 C 
BRANCH  33  34
HETATM   34  C17 UNL     1      23.832 -31.236  -3.268  1.00  0.00     0.271 C 
BRANCH  34  35
HETATM   35  N1  UNL     1      25.221 -30.950  -3.391  1.00  0.00     0.080 N 
HETATM   36  C18 UNL     1      25.513 -31.157  -4.838  1.00  0.00     0.309 C 
HETATM   37  C19 UNL     1      25.657 -29.640  -3.026  1.00  0.00     0.309 C 
ENDBRANCH  34  35
ENDBRANCH  33  34
ENDBRANCH  32  33
ENDBRANCH  31  32
ENDBRANCH  30  31
ENDBRANCH  13  30
TORSDOF 10
ENDMDL
MODEL 2
REMARK VINA RESULT: -8.438966338      1.215      1.923
REMARK  10 active torsions:
REMARK  status: ('A' for Active; 'I' for Inactive)
REMARK    1  A    between atoms: C12_13  and  C13_14 
REMARK    2  A    between atoms: C13_14  and  C14_15 
REMARK    3  A    between atoms: C14_15  and  C15_16 
REMARK    4  A    between atoms: C15_16  and  C16_17 
REMARK    5  A    between atoms: C16_17  and  C17_18 
REMARK    6  A    between atoms: C17_18  and  N1_19 
REMARK    7  A    between atoms: C20_22  and  C21_23 
REMARK    8  A    between atoms: C22_25  and  N2_26 
REMARK       I    between atoms: N2_26  and  C23_28 
REMARK    9  A    between atoms: C23_28  and  C24_30 
REMARK   10  A    between atoms: C25_31  and  C26_32 
ROOT
HETATM    1  C1  UNL     1      21.845 -24.667   2.761  1.00  0.00     0.011 C 
HETATM    2  C2  UNL     1      21.067 -24.991   1.517  1.00  0.00    -0.009 C 
HETATM    3  C3  UNL     1      20.023 -24.002   1.172  1.00  0.00     0.008 C 
HETATM    4  C4  UNL     1      18.640 -24.311   1.512  1.00  0.00     0.046 C 
HETATM    5  C5  UNL     1      17.947 -25.545   1.232  1.00  0.00     0.121 C 
HETATM    6  C6  UNL     1      17.470 -26.086   2.600  1.00  0.00     0.046 C 
HETATM    7  C7  UNL     1      18.801 -26.381   3.259  1.00  0.00     0.004 C 
HETATM    8  C8  UNL     1      19.898 -27.002   2.522  1.00  0.00     0.011 C 
HETATM    9  C9  UNL     1      20.644 -26.446   1.428  1.00  0.00    -0.024 C 
HETATM   10  C10 UNL     1      22.065 -27.111   1.550  1.00  0.00     0.089 C 
HETATM   11  C11 UNL     1      22.567 -26.926   0.191  1.00  0.00     0.132 C 
HETATM   12  O1  UNL     1      23.485 -26.386  -0.327  1.00  0.00    -0.298 OA
HETATM   13  C12 UNL     1      21.415 -27.746  -0.510  1.00  0.00     0.062 C 
HETATM   14  C20 UNL     1      20.346 -26.733  -0.037  1.00  0.00     0.037 C 
HETATM   15  C21 UNL     1      18.944 -27.101  -0.292  1.00  0.00     0.151 C 
HETATM   16  O2  UNL     1      18.321 -26.707   0.784  1.00  0.00    -0.365 OA
HETATM   17  C22 UNL     1      18.137 -26.567  -1.447  1.00  0.00     0.121 C 
HETATM   18  C27 UNL     1      17.529 -25.199  -1.129  1.00  0.00     0.109 C 
HETATM   19  C28 UNL     1      16.877 -25.254   0.242  1.00  0.00     0.163 C 
HETATM   20  O6  UNL     1      15.756 -25.093   0.404  1.00  0.00    -0.295 OA
ENDROOT
BRANCH  17  21
HETATM   21  N2  UNL     1      17.018 -27.347  -1.808  1.00  0.00    -0.350 N 
HETATM   22  C23 UNL     1      16.376 -27.717  -3.003  1.00  0.00     0.241 C 
HETATM   23  O3  UNL     1      16.861 -27.298  -4.062  1.00  0.00    -0.269 OA
ATOM     24  H2  UNL     1      16.556 -27.746  -0.991  1.00  0.00     0.163 HD
BRANCH  22  25
HETATM   25  C24 UNL     1      15.200 -28.537  -3.045  1.00  0.00     0.081 C 
HETATM   26  C25 UNL     1      15.027 -29.759  -3.443  1.00  0.00     0.090 C 
BRANCH  26  27
HETATM   27  C26 UNL     1      15.897 -30.745  -3.977  1.00  0.00     0.198 C 
HETATM   28  O4  UNL     1      16.847 -31.277  -3.407  1.00  0.00    -0.645 OA
HETATM   29  O5  UNL     1      15.695 -31.198  -5.313  1.00  0.00    -0.645 OA
ENDBRANCH  26  27
ENDBRANCH  22  25
ENDBRANCH  17  21
BRANCH  13  30
HETATM   30  C13 UNL     1      21.799 -27.719  -1.921  1.00  0.00     0.013 C 
BRANCH  30  31
HETATM   31  C14 UNL     1      21.145 -28.635  -2.851  1.00  0.00     0.001 C 
BRANCH  31  32
HETATM   32  C15 UNL     1      21.531 -30.084  -2.854  1.00  0.00     0.002 C 
BRANCH  32  33
HETATM   33  C16 UNL     1      22.842 -30.481  -2.352  1.00  0.00     0.030 C 
BRANCH  33  34
HETATM   34  C17 UNL     1      23.751 -31.247  -3.241  1.00  0.00     0.271 C 
BRANCH  34  35
HETATM   35  N1  UNL     1      25.136 -30.923  -3.284  1.00  0.00     0.080 N 
HETATM   36  C18 UNL     1      25.513 -31.105  -4.715  1.00  0.00     0.309 C 
HETATM   37  C19 UNL     1      25.516 -29.606  -2.881  1.00  0.00     0.309 C 
ENDBRANCH  34  35
ENDBRANCH  33  34
ENDBRANCH  32  33
ENDBRANCH  31  32
ENDBRANCH  30  31
ENDBRANCH  13  30
TORSDOF 10
ENDMDL
MODEL 3
REMARK VINA RESULT: -8.433637200      2.709      8.454
REMARK  10 active torsions:
REMARK  status: ('A' for Active; 'I' for Inactive)
REMARK    1  A    between atoms: C12_13  and  C13_14 
REMARK    2  A    between atoms: C13_14  and  C14_15 
REMARK    3  A    between atoms: C14_15  and  C15_16 
REMARK    4  A    between atoms: C15_16  and  C16_17 
REMARK    5  A    between atoms: C16_17  and  C17_18 
REMARK    6  A    between atoms: C17_18  and  N1_19 
REMARK    7  A    between atoms: C20_22  and  C21_23 
REMARK    8  A    between atoms: C22_25  and  N2_26 
REMARK       I    between atoms: N2_26  and  C23_28 
REMARK    9  A    between atoms: C23_28  and  C24_30 
REMARK   10  A    between atoms: C25_31  and  C26_32 
ROOT
HETATM    1  C1  UNL     1      22.140 -25.416   2.645  1.00  0.00     0.011 C 
HETATM    2  C2  UNL     1      22.295 -26.630   1.773  1.00  0.00    -0.009 C 
HETATM    3  C3  UNL     1      23.291 -27.610   2.256  1.00  0.00     0.008 C 
HETATM    4  C4  UNL     1      24.610 -27.616   1.635  1.00  0.00     0.046 C 
HETATM    5  C5  UNL     1      24.887 -27.624   0.220  1.00  0.00     0.121 C 
HETATM    6  C6  UNL     1      25.744 -26.367  -0.053  1.00  0.00     0.046 C 
HETATM    7  C7  UNL     1      24.745 -25.275   0.270  1.00  0.00     0.004 C 
HETATM    8  C8  UNL     1      23.350 -25.367  -0.153  1.00  0.00     0.011 C 
HETATM    9  C9  UNL     1      22.361 -26.308   0.292  1.00  0.00    -0.024 C 
HETATM   10  C10 UNL     1      20.999 -25.529   0.160  1.00  0.00     0.089 C 
HETATM   11  C11 UNL     1      20.054 -26.641   0.120  1.00  0.00     0.132 C 
HETATM   12  O1  UNL     1      19.130 -27.017   0.758  1.00  0.00    -0.298 OA
HETATM   13  C12 UNL     1      20.661 -27.310  -1.175  1.00  0.00     0.062 C 
HETATM   14  C20 UNL     1      22.003 -27.585  -0.457  1.00  0.00     0.037 C 
HETATM   15  C21 UNL     1      23.096 -28.100  -1.298  1.00  0.00     0.151 C 
HETATM   16  O2  UNL     1      24.152 -27.483  -0.843  1.00  0.00    -0.365 OA
HETATM   17  C22 UNL     1      23.477 -29.555  -1.373  1.00  0.00     0.121 C 
HETATM   18  C27 UNL     1      24.413 -29.956  -0.230  1.00  0.00     0.109 C 
HETATM   19  C28 UNL     1      25.522 -28.926  -0.115  1.00  0.00     0.163 C 
HETATM   20  O6  UNL     1      26.626 -29.181  -0.272  1.00  0.00    -0.295 OA
ENDROOT
BRANCH  17  21
HETATM   21  N2  UNL     1      24.194 -29.928  -2.530  1.00  0.00    -0.350 N 
HETATM   22  C23 UNL     1      24.345 -31.092  -3.304  1.00  0.00     0.241 C 
HETATM   23  O3  UNL     1      23.709 -32.095  -2.954  1.00  0.00    -0.269 OA
ATOM     24  H2  UNL     1      24.745 -29.154  -2.899  1.00  0.00     0.163 HD
BRANCH  22  25
HETATM   25  C24 UNL     1      25.194 -31.167  -4.458  1.00  0.00     0.081 C 
HETATM   26  C25 UNL     1      26.391 -30.715  -4.666  1.00  0.00     0.090 C 
BRANCH  26  27
HETATM   27  C26 UNL     1      27.314 -29.990  -3.867  1.00  0.00     0.198 C 
HETATM   28  O4  UNL     1      27.072 -29.008  -3.168  1.00  0.00    -0.645 OA
HETATM   29  O5  UNL     1      28.679 -30.399  -3.839  1.00  0.00    -0.645 OA
ENDBRANCH  26  27
ENDBRANCH  22  25
ENDBRANCH  17  21
BRANCH  13  30
HETATM   30  C13 UNL     1      19.772 -28.446  -1.411  1.00  0.00     0.013 C 
BRANCH  30  31
HETATM   31  C14 UNL     1      18.815 -28.381  -2.512  1.00  0.00     0.001 C 
BRANCH  31  32
HETATM   32  C15 UNL     1      17.373 -28.091  -2.219  1.00  0.00     0.002 C 
BRANCH  32  33
HETATM   33  C16 UNL     1      16.634 -27.173  -3.079  1.00  0.00     0.030 C 
BRANCH  33  34
HETATM   34  C17 UNL     1      15.189 -26.951  -2.821  1.00  0.00     0.271 C 
BRANCH  34  35
HETATM   35  N1  UNL     1      14.742 -25.689  -2.339  1.00  0.00     0.080 N 
HETATM   36  C18 UNL     1      13.299 -25.900  -2.032  1.00  0.00     0.309 C 
HETATM   37  C19 UNL     1      15.380 -25.167  -1.173  1.00  0.00     0.309 C 
ENDBRANCH  34  35
ENDBRANCH  33  34
ENDBRANCH  32  33
ENDBRANCH  31  32
ENDBRANCH  30  31
ENDBRANCH  13  30
TORSDOF 10
ENDMDL
MODEL 4
REMARK VINA RESULT: -8.413514748      2.931      8.145
REMARK  10 active torsions:
REMARK  status: ('A' for Active; 'I' for Inactive)
REMARK    1  A    between atoms: C12_13  and  C13_14 
REMARK    2  A    between atoms: C13_14  and  C14_15 
REMARK    3  A    between atoms: C14_15  and  C15_16 
REMARK    4  A    between atoms: C15_16  and  C16_17 
REMARK    5  A    between atoms: C16_17  and  C17_18 
REMARK    6  A    between atoms: C17_18  and  N1_19 
REMARK    7  A    between atoms: C20_22  and  C21_23 
REMARK    8  A    between atoms: C22_25  and  N2_26 
REMARK       I    between atoms: N2_26  and  C23_28 
REMARK    9  A    between atoms: C23_28  and  C24_30 
REMARK   10  A    between atoms: C25_31  and  C26_32 
ROOT
HETATM    1  C1  UNL     1      22.193 -25.381   2.651  1.00  0.00     0.011 C 
HETATM    2  C2  UNL     1      22.335 -26.600   1.784  1.00  0.00    -0.009 C 
HETATM    3  C3  UNL     1      23.320 -27.589   2.271  1.00  0.00     0.008 C 
HETATM    4  C4  UNL     1      24.639 -27.613   1.651  1.00  0.00     0.046 C 
HETATM    5  C5  UNL     1      24.917 -27.628   0.236  1.00  0.00     0.121 C 
HETATM    6  C6  UNL     1      25.788 -26.382  -0.041  1.00  0.00     0.046 C 
HETATM    7  C7  UNL     1      24.801 -25.278   0.277  1.00  0.00     0.004 C 
HETATM    8  C8  UNL     1      23.405 -25.356  -0.147  1.00  0.00     0.011 C 
HETATM    9  C9  UNL     1      22.405 -26.284   0.301  1.00  0.00    -0.024 C 
HETATM   10  C10 UNL     1      21.053 -25.490   0.165  1.00  0.00     0.089 C 
HETATM   11  C11 UNL     1      20.095 -26.592   0.128  1.00  0.00     0.132 C 
HETATM   12  O1  UNL     1      19.167 -26.955   0.768  1.00  0.00    -0.298 OA
HETATM   13  C12 UNL     1      20.696 -27.272  -1.163  1.00  0.00     0.062 C 
HETATM   14  C20 UNL     1      22.034 -27.560  -0.443  1.00  0.00     0.037 C 
HETATM   15  C21 UNL     1      23.122 -28.090  -1.281  1.00  0.00     0.151 C 
HETATM   16  O2  UNL     1      24.185 -27.483  -0.828  1.00  0.00    -0.365 OA
HETATM   17  C22 UNL     1      23.487 -29.550  -1.351  1.00  0.00     0.121 C 
HETATM   18  C27 UNL     1      24.417 -29.957  -0.206  1.00  0.00     0.109 C 
HETATM   19  C28 UNL     1      25.537 -28.939  -0.093  1.00  0.00     0.163 C 
HETATM   20  O6  UNL     1      26.639 -29.207  -0.250  1.00  0.00    -0.295 OA
ENDROOT
BRANCH  17  21
HETATM   21  N2  UNL     1      24.200 -29.935  -2.506  1.00  0.00    -0.350 N 
HETATM   22  C23 UNL     1      24.352 -31.109  -3.266  1.00  0.00     0.241 C 
HETATM   23  O3  UNL     1      23.723 -32.109  -2.899  1.00  0.00    -0.269 OA
ATOM     24  H2  UNL     1      24.746 -29.163  -2.888  1.00  0.00     0.163 HD
BRANCH  22  25
HETATM   25  C24 UNL     1      25.197 -31.195  -4.422  1.00  0.00     0.081 C 
HETATM   26  C25 UNL     1      26.389 -30.736  -4.643  1.00  0.00     0.090 C 
BRANCH  26  27
HETATM   27  C26 UNL     1      27.309 -29.989  -3.861  1.00  0.00     0.198 C 
HETATM   28  O4  UNL     1      27.063 -28.993  -3.184  1.00  0.00    -0.645 OA
HETATM   29  O5  UNL     1      28.676 -30.392  -3.825  1.00  0.00    -0.645 OA
ENDBRANCH  26  27
ENDBRANCH  22  25
ENDBRANCH  17  21
BRANCH  13  30
HETATM   30  C13 UNL     1      19.794 -28.399  -1.396  1.00  0.00     0.013 C 
BRANCH  30  31
HETATM   31  C14 UNL     1      18.843 -28.330  -2.502  1.00  0.00     0.001 C 
BRANCH  31  32
HETATM   32  C15 UNL     1      17.453 -27.830  -2.248  1.00  0.00     0.002 C 
BRANCH  32  33
HETATM   33  C16 UNL     1      16.395 -28.124  -3.209  1.00  0.00     0.030 C 
BRANCH  33  34
HETATM   34  C17 UNL     1      16.192 -29.528  -3.649  1.00  0.00     0.271 C 
BRANCH  34  35
HETATM   35  N1  UNL     1      15.812 -30.519  -2.701  1.00  0.00     0.080 N 
HETATM   36  C18 UNL     1      14.531 -31.065  -3.231  1.00  0.00     0.309 C 
HETATM   37  C19 UNL     1      16.714 -31.606  -2.490  1.00  0.00     0.309 C 
ENDBRANCH  34  35
ENDBRANCH  33  34
ENDBRANCH  32  33
ENDBRANCH  31  32
ENDBRANCH  30  31
ENDBRANCH  13  30
TORSDOF 10
ENDMDL
MODEL 5
REMARK VINA RESULT: -8.119644431      1.325      1.600
REMARK  10 active torsions:
REMARK  status: ('A' for Active; 'I' for Inactive)
REMARK    1  A    between atoms: C12_13  and  C13_14 
REMARK    2  A    between atoms: C13_14  and  C14_15 
REMARK    3  A    between atoms: C14_15  and  C15_16 
REMARK    4  A    between atoms: C15_16  and  C16_17 
REMARK    5  A    between atoms: C16_17  and  C17_18 
REMARK    6  A    between atoms: C17_18  and  N1_19 
REMARK    7  A    between atoms: C20_22  and  C21_23 
REMARK    8  A    between atoms: C22_25  and  N2_26 
REMARK       I    between atoms: N2_26  and  C23_28 
REMARK    9  A    between atoms: C23_28  and  C24_30 
REMARK   10  A    between atoms: C25_31  and  C26_32 
ROOT
HETATM    1  C1  UNL     1      21.844 -24.498   2.132  1.00  0.00     0.011 C 
HETATM    2  C2  UNL     1      21.094 -25.040   0.948  1.00  0.00    -0.009 C 
HETATM    3  C3  UNL     1      19.974 -24.191   0.490  1.00  0.00     0.008 C 
HETATM    4  C4  UNL     1      18.620 -24.564   0.882  1.00  0.00     0.046 C 
HETATM    5  C5  UNL     1      18.030 -25.876   0.770  1.00  0.00     0.121 C 
HETATM    6  C6  UNL     1      17.599 -26.273   2.200  1.00  0.00     0.046 C 
HETATM    7  C7  UNL     1      18.950 -26.373   2.878  1.00  0.00     0.004 C 
HETATM    8  C8  UNL     1      20.094 -26.993   2.214  1.00  0.00     0.011 C 
HETATM    9  C9  UNL     1      20.791 -26.523   1.051  1.00  0.00    -0.024 C 
HETATM   10  C10 UNL     1      22.262 -27.051   1.241  1.00  0.00     0.089 C 
HETATM   11  C11 UNL     1      22.747 -27.002  -0.135  1.00  0.00     0.132 C 
HETATM   12  O1  UNL     1      23.617 -26.461  -0.728  1.00  0.00    -0.298 OA
HETATM   13  C12 UNL     1      21.665 -27.995  -0.713  1.00  0.00     0.062 C 
HETATM   14  C20 UNL     1      20.517 -27.019  -0.363  1.00  0.00     0.037 C 
HETATM   15  C21 UNL     1      19.150 -27.529  -0.554  1.00  0.00     0.151 C 
HETATM   16  O2  UNL     1      18.497 -27.052   0.470  1.00  0.00    -0.365 OA
HETATM   17  C22 UNL     1      18.302 -27.215  -1.758  1.00  0.00     0.121 C 
HETATM   18  C27 UNL     1      17.585 -25.871  -1.611  1.00  0.00     0.109 C 
HETATM   19  C28 UNL     1      16.940 -25.802  -0.238  1.00  0.00     0.163 C 
HETATM   20  O6  UNL     1      15.810 -25.711  -0.086  1.00  0.00    -0.295 OA
ENDROOT
BRANCH  17  21
HETATM   21  N2  UNL     1      17.250 -28.123  -2.005  1.00  0.00    -0.350 N 
HETATM   22  C23 UNL     1      17.136 -29.464  -2.411  1.00  0.00     0.241 C 
HETATM   23  O3  UNL     1      18.185 -30.087  -2.619  1.00  0.00    -0.269 OA
ATOM     24  H2  UNL     1      16.337 -27.696  -1.848  1.00  0.00     0.163 HD
BRANCH  22  25
HETATM   25  C24 UNL     1      15.878 -30.126  -2.599  1.00  0.00     0.081 C 
HETATM   26  C25 UNL     1      14.828 -29.786  -3.280  1.00  0.00     0.090 C 
BRANCH  26  27
HETATM   27  C26 UNL     1      14.510 -28.663  -4.088  1.00  0.00     0.198 C 
HETATM   28  O4  UNL     1      14.851 -27.496  -3.897  1.00  0.00    -0.645 OA
HETATM   29  O5  UNL     1      13.710 -28.849  -5.252  1.00  0.00    -0.645 OA
ENDBRANCH  26  27
ENDBRANCH  22  25
ENDBRANCH  17  21
BRANCH  13  30
HETATM   30  C13 UNL     1      22.045 -28.120  -2.120  1.00  0.00     0.013 C 
BRANCH  30  31
HETATM   31  C14 UNL     1      21.360 -29.101  -2.956  1.00  0.00     0.001 C 
BRANCH  31  32
HETATM   32  C15 UNL     1      21.737 -30.549  -2.852  1.00  0.00     0.002 C 
BRANCH  32  33
HETATM   33  C16 UNL     1      23.046 -30.917  -2.326  1.00  0.00     0.030 C 
BRANCH  33  34
HETATM   34  C17 UNL     1      24.184 -31.071  -3.268  1.00  0.00     0.271 C 
BRANCH  34  35
HETATM   35  N1  UNL     1      25.245 -30.123  -3.256  1.00  0.00     0.080 N 
HETATM   36  C18 UNL     1      25.394 -29.754  -1.821  1.00  0.00     0.309 C 
HETATM   37  C19 UNL     1      26.516 -30.554  -3.746  1.00  0.00     0.309 C 
ENDBRANCH  34  35
ENDBRANCH  33  34
ENDBRANCH  32  33
ENDBRANCH  31  32
ENDBRANCH  30  31
ENDBRANCH  13  30
TORSDOF 10
ENDMDL
