MODEL 1
REMARK VINA RESULT: -8.533150167      0.000      0.000
REMARK  10 active torsions:
REMARK  status: ('A' for Active; 'I' for Inactive)
REMARK    1  A    between atoms: C2_2  and  C3_6 
REMARK    2  A    between atoms: C7_10  and  C8_11 
REMARK    3  A    between atoms: N2_14  and  C9_15 
REMARK    4  A    between atoms: C9_15  and  O3_16 
REMARK    5  A    between atoms: C9_15  and  C10_18 
REMARK    6  A    between atoms: C10_18  and  C11_19 
REMARK    7  A    between atoms: C10_18  and  N3_26 
REMARK    8  A    between atoms: C11_19  and  C12_20 
REMARK    9  A    between atoms: C18_28  and  C19_29 
REMARK   10  A    between atoms: N5_35  and  C23_37 
ROOT
HETATM    1  C10 UNL     1      15.585 -26.919  -2.561  1.00  0.00     0.167 C 
ENDROOT
BRANCH   1   2
HETATM    2  C9  UNL     1      15.549 -28.053  -3.497  1.00  0.00     0.139 C 
BRANCH   2   3
HETATM    3  N2  UNL     1      14.804 -29.224  -3.520  1.00  0.00    -0.339 N 
HETATM    4  C3  UNL     1      13.394 -29.191  -3.813  1.00  0.00     0.132 C 
HETATM    5  C4  UNL     1      12.736 -30.552  -3.694  1.00  0.00     0.031 C 
HETATM    6  C5  UNL     1      13.092 -31.177  -2.380  1.00  0.00     0.005 C 
HETATM    7  C6  UNL     1      14.557 -31.198  -2.107  1.00  0.00     0.036 C 
HETATM    8  C7  UNL     1      15.381 -30.499  -3.206  1.00  0.00     0.188 C 
BRANCH   4   9
HETATM    9  C2  UNL     1      12.951 -28.591  -5.065  1.00  0.00    -0.001 C 
HETATM   10  C1  UNL     1      11.659 -27.790  -4.969  1.00  0.00     0.065 C 
HETATM   11  N1  UNL     1      13.461 -28.630  -6.216  1.00  0.00    -0.404 N 
ATOM     12  H12 UNL     1      13.151 -28.211  -7.092  1.00  0.00     0.155 HD
ATOM     13  H11 UNL     1      14.326 -29.167  -6.281  1.00  0.00     0.155 HD
ENDBRANCH   4   9
BRANCH   8  14
HETATM   14  C8  UNL     1      15.631 -31.411  -4.328  1.00  0.00     0.196 C 
HETATM   15  O1  UNL     1      15.774 -30.912  -5.470  1.00  0.00    -0.646 OA
HETATM   16  O2  UNL     1      15.709 -32.758  -4.171  1.00  0.00    -0.646 OA
ENDBRANCH   8  14
ENDBRANCH   2   3
BRANCH   2  17
HETATM   17  O3  UNL     1      16.375 -27.982  -4.535  1.00  0.00    -0.348 OA
ATOM     18  H3  UNL     1      16.025 -27.425  -5.220  1.00  0.00     0.219 HD
ENDBRANCH   2  17
ENDBRANCH   1   2
BRANCH   1  19
HETATM   19  C11 UNL     1      15.451 -25.570  -3.201  1.00  0.00     0.039 C 
BRANCH  19  20
HETATM   20  C12 UNL     1      14.196 -24.843  -2.686  1.00  0.00    -0.008 C 
HETATM   21  C13 UNL     1      13.169 -25.953  -2.452  1.00  0.00     0.031 C 
HETATM   22  C14 UNL     1      11.828 -25.387  -2.093  1.00  0.00     0.168 C 
HETATM   23  O4  UNL     1      11.398 -24.414  -2.967  1.00  0.00    -0.391 OA
HETATM   24  C15 UNL     1      12.185 -24.310  -4.091  1.00  0.00     0.168 C 
HETATM   25  C16 UNL     1      13.618 -23.935  -3.750  1.00  0.00     0.031 C 
ENDBRANCH  19  20
ENDBRANCH   1  19
BRANCH   1  26
HETATM   26  N3  UNL     1      16.794 -26.972  -1.769  1.00  0.00    -0.307 N 
HETATM   27  C17 UNL     1      17.841 -27.714  -2.236  1.00  0.00     0.120 A 
HETATM   28  C18 UNL     1      19.049 -27.802  -1.577  1.00  0.00     0.030 A 
HETATM   29  N4  UNL     1      19.168 -27.126  -0.442  1.00  0.00    -0.340 N 
HETATM   30  C22 UNL     1      18.137 -26.367   0.066  1.00  0.00     0.171 A 
ATOM     31  H4  UNL     1      20.049 -27.170   0.070  1.00  0.00     0.167 HD
HETATM   32  N5  UNL     1      18.359 -25.760   1.163  1.00  0.00    -0.367 N 
HETATM   33  C27 UNL     1      16.943 -26.296  -0.611  1.00  0.00     0.292 A 
ATOM     34  H5  UNL     1      19.283 -25.883   1.578  1.00  0.00     0.161 HD
HETATM   35  O5  UNL     1      15.976 -25.631  -0.212  1.00  0.00    -0.264 OA
BRANCH  28  36
HETATM   36  C19 UNL     1      20.138 -28.632  -2.143  1.00  0.00     0.037 A 
HETATM   37  C20 UNL     1      21.407 -28.900  -1.486  1.00  0.00     0.011 A 
HETATM   38  C21 UNL     1      21.364 -27.865  -2.575  1.00  0.00     0.011 A 
ENDBRANCH  28  36
BRANCH  32  39
HETATM   39  C23 UNL     1      17.458 -24.937   1.857  1.00  0.00     0.083 C 
HETATM   40  C24 UNL     1      18.003 -23.905   2.784  1.00  0.00     0.025 C 
HETATM   41  C25 UNL     1      16.917 -24.307   3.793  1.00  0.00     0.004 C 
HETATM   42  C26 UNL     1      16.946 -25.667   3.138  1.00  0.00     0.025 C 
ENDBRANCH  32  39
ENDBRANCH   1  26
TORSDOF 10
ENDMDL
MODEL 2
REMARK VINA RESULT: -8.531348607      1.724      5.540
REMARK  10 active torsions:
REMARK  status: ('A' for Active; 'I' for Inactive)
REMARK    1  A    between atoms: C2_2  and  C3_6 
REMARK    2  A    between atoms: C7_10  and  C8_11 
REMARK    3  A    between atoms: N2_14  and  C9_15 
REMARK    4  A    between atoms: C9_15  and  O3_16 
REMARK    5  A    between atoms: C9_15  and  C10_18 
REMARK    6  A    between atoms: C10_18  and  C11_19 
REMARK    7  A    between atoms: C10_18  and  N3_26 
REMARK    8  A    between atoms: C11_19  and  C12_20 
REMARK    9  A    between atoms: C18_28  and  C19_29 
REMARK   10  A    between atoms: N5_35  and  C23_37 
ROOT
HETATM    1  C10 UNL     1      17.512 -27.946  -2.893  1.00  0.00     0.167 C 
ENDROOT
BRANCH   1   2
HETATM    2  C9  UNL     1      16.513 -28.807  -3.546  1.00  0.00     0.139 C 
BRANCH   2   3
HETATM    3  N2  UNL     1      15.889 -29.982  -3.151  1.00  0.00    -0.339 N 
HETATM    4  C3  UNL     1      14.497 -29.986  -2.779  1.00  0.00     0.132 C 
HETATM    5  C4  UNL     1      14.023 -31.338  -2.286  1.00  0.00     0.031 C 
HETATM    6  C5  UNL     1      14.957 -31.852  -1.233  1.00  0.00     0.005 C 
HETATM    7  C6  UNL     1      16.388 -31.838  -1.648  1.00  0.00     0.036 C 
HETATM    8  C7  UNL     1      16.601 -31.223  -3.045  1.00  0.00     0.188 C 
BRANCH   4   9
HETATM    9  C2  UNL     1      13.513 -29.492  -3.736  1.00  0.00    -0.001 C 
HETATM   10  C1  UNL     1      12.997 -30.536  -4.718  1.00  0.00     0.065 C 
HETATM   11  N1  UNL     1      13.025 -28.342  -3.886  1.00  0.00    -0.404 N 
ATOM     12  H12 UNL     1      12.337 -27.997  -4.555  1.00  0.00     0.155 HD
ATOM     13  H11 UNL     1      13.370 -27.642  -3.228  1.00  0.00     0.155 HD
ENDBRANCH   4   9
BRANCH   8  14
HETATM   14  C8  UNL     1      16.362 -32.220  -4.095  1.00  0.00     0.196 C 
HETATM   15  O1  UNL     1      16.563 -33.426  -3.814  1.00  0.00    -0.646 OA
HETATM   16  O2  UNL     1      15.937 -31.883  -5.340  1.00  0.00    -0.646 OA
ENDBRANCH   8  14
ENDBRANCH   2   3
BRANCH   2  17
HETATM   17  O3  UNL     1      16.101 -28.418  -4.748  1.00  0.00    -0.348 OA
ATOM     18  H3  UNL     1      16.781 -28.534  -5.402  1.00  0.00     0.219 HD
ENDBRANCH   2  17
ENDBRANCH   1   2
BRANCH   1  19
HETATM   19  C11 UNL     1      18.512 -28.674  -2.046  1.00  0.00     0.039 C 
BRANCH  19  20
HETATM   20  C12 UNL     1      19.926 -28.544  -2.639  1.00  0.00    -0.008 C 
HETATM   21  C13 UNL     1      20.492 -29.966  -2.618  1.00  0.00     0.031 C 
HETATM   22  C14 UNL     1      21.935 -29.982  -3.023  1.00  0.00     0.168 C 
HETATM   23  O4  UNL     1      22.704 -29.074  -2.332  1.00  0.00    -0.391 OA
HETATM   24  C15 UNL     1      22.037 -28.490  -1.280  1.00  0.00     0.168 C 
HETATM   25  C16 UNL     1      20.816 -27.710  -1.742  1.00  0.00     0.031 C 
ENDBRANCH  19  20
ENDBRANCH   1  19
BRANCH   1  26
HETATM   26  N3  UNL     1      16.847 -26.929  -2.109  1.00  0.00    -0.307 N 
HETATM   27  C17 UNL     1      17.403 -26.564  -0.916  1.00  0.00     0.120 A 
HETATM   28  C18 UNL     1      16.870 -25.579  -0.112  1.00  0.00     0.030 A 
HETATM   29  N4  UNL     1      15.767 -24.979  -0.542  1.00  0.00    -0.340 N 
HETATM   30  C22 UNL     1      15.173 -25.317  -1.738  1.00  0.00     0.171 A 
ATOM     31  H4  UNL     1      15.347 -24.246   0.030  1.00  0.00     0.167 HD
HETATM   32  N5  UNL     1      14.117 -24.678  -2.053  1.00  0.00    -0.367 N 
HETATM   33  C27 UNL     1      15.725 -26.302  -2.521  1.00  0.00     0.292 A 
ATOM     34  H5  UNL     1      13.797 -23.967  -1.396  1.00  0.00     0.161 HD
HETATM   35  O5  UNL     1      15.243 -26.654  -3.608  1.00  0.00    -0.264 OA
BRANCH  28  36
HETATM   36  C19 UNL     1      17.526 -25.242   1.173  1.00  0.00     0.037 A 
HETATM   37  C20 UNL     1      17.967 -26.211   2.162  1.00  0.00     0.011 A 
HETATM   38  C21 UNL     1      16.679 -25.473   2.400  1.00  0.00     0.011 A 
ENDBRANCH  28  36
BRANCH  32  39
HETATM   39  C23 UNL     1      13.352 -24.857  -3.216  1.00  0.00     0.083 C 
HETATM   40  C24 UNL     1      12.901 -23.650  -3.965  1.00  0.00     0.025 C 
HETATM   41  C25 UNL     1      11.526 -24.316  -4.118  1.00  0.00     0.004 C 
HETATM   42  C26 UNL     1      11.850 -25.056  -2.842  1.00  0.00     0.025 C 
ENDBRANCH  32  39
ENDBRANCH   1  26
TORSDOF 10
ENDMDL
MODEL 3
REMARK VINA RESULT: -8.152880081      2.328      8.605
REMARK  10 active torsions:
REMARK  status: ('A' for Active; 'I' for Inactive)
REMARK    1  A    between atoms: C2_2  and  C3_6 
REMARK    2  A    between atoms: C7_10  and  C8_11 
REMARK    3  A    between atoms: N2_14  and  C9_15 
REMARK    4  A    between atoms: C9_15  and  O3_16 
REMARK    5  A    between atoms: C9_15  and  C10_18 
REMARK    6  A    between atoms: C10_18  and  C11_19 
REMARK    7  A    between atoms: C10_18  and  N3_26 
REMARK    8  A    between atoms: C11_19  and  C12_20 
REMARK    9  A    between atoms: C18_28  and  C19_29 
REMARK   10  A    between atoms: N5_35  and  C23_37 
ROOT
HETATM    1  C10 UNL     1      18.563 -27.462  -0.915  1.00  0.00     0.167 C 
ENDROOT
BRANCH   1   2
HETATM    2  C9  UNL     1      18.591 -26.232  -0.109  1.00  0.00     0.139 C 
BRANCH   2   3
HETATM    3  N2  UNL     1      18.651 -26.012   1.260  1.00  0.00    -0.339 N 
HETATM    4  C3  UNL     1      19.889 -25.627   1.888  1.00  0.00     0.132 C 
HETATM    5  C4  UNL     1      19.779 -25.529   3.397  1.00  0.00     0.031 C 
HETATM    6  C5  UNL     1      19.157 -26.777   3.944  1.00  0.00     0.005 C 
HETATM    7  C6  UNL     1      17.878 -27.148   3.277  1.00  0.00     0.036 C 
HETATM    8  C7  UNL     1      17.514 -26.205   2.113  1.00  0.00     0.188 C 
BRANCH   4   9
HETATM    9  C2  UNL     1      20.574 -24.430   1.414  1.00  0.00    -0.001 C 
HETATM   10  C1  UNL     1      22.070 -24.599   1.183  1.00  0.00     0.065 C 
HETATM   11  N1  UNL     1      20.131 -23.277   1.169  1.00  0.00    -0.404 N 
ATOM     12  H12 UNL     1      20.610 -22.440   0.838  1.00  0.00     0.155 HD
ATOM     13  H11 UNL     1      19.129 -23.164   1.324  1.00  0.00     0.155 HD
ENDBRANCH   4   9
BRANCH   8  14
HETATM   14  C8  UNL     1      16.843 -24.999   2.611  1.00  0.00     0.196 C 
HETATM   15  O1  UNL     1      15.914 -25.146   3.442  1.00  0.00    -0.646 OA
HETATM   16  O2  UNL     1      17.190 -23.749   2.207  1.00  0.00    -0.646 OA
ENDBRANCH   8  14
ENDBRANCH   2   3
BRANCH   2  17
HETATM   17  O3  UNL     1      18.552 -25.088  -0.784  1.00  0.00    -0.348 OA
ATOM     18  H3  UNL     1      18.222 -24.379  -0.245  1.00  0.00     0.219 HD
ENDBRANCH   2  17
ENDBRANCH   1   2
BRANCH   1  19
HETATM   19  C11 UNL     1      19.715 -27.621  -1.862  1.00  0.00     0.039 C 
BRANCH  19  20
HETATM   20  C12 UNL     1      20.882 -28.359  -1.183  1.00  0.00    -0.008 C 
HETATM   21  C13 UNL     1      22.008 -27.326  -1.105  1.00  0.00     0.031 C 
HETATM   22  C14 UNL     1      23.279 -27.943  -0.605  1.00  0.00     0.168 C 
HETATM   23  O4  UNL     1      23.630 -29.089  -1.282  1.00  0.00    -0.391 OA
HETATM   24  C15 UNL     1      22.859 -29.314  -2.400  1.00  0.00     0.168 C 
HETATM   25  C16 UNL     1      21.390 -29.489  -2.053  1.00  0.00     0.031 C 
ENDBRANCH  19  20
ENDBRANCH   1  19
BRANCH   1  26
HETATM   26  N3  UNL     1      17.313 -27.549  -1.637  1.00  0.00    -0.307 N 
HETATM   27  C17 UNL     1      16.428 -26.515  -1.525  1.00  0.00     0.120 A 
HETATM   28  C18 UNL     1      15.226 -26.482  -2.200  1.00  0.00     0.030 A 
HETATM   29  N4  UNL     1      14.945 -27.515  -2.984  1.00  0.00    -0.340 N 
HETATM   30  C22 UNL     1      15.809 -28.579  -3.125  1.00  0.00     0.171 A 
ATOM     31  H4  UNL     1      14.064 -27.521  -3.498  1.00  0.00     0.167 HD
HETATM   32  N5  UNL     1      15.439 -29.517  -3.902  1.00  0.00    -0.367 N 
HETATM   33  C27 UNL     1      17.000 -28.587  -2.441  1.00  0.00     0.292 A 
ATOM     34  H5  UNL     1      14.534 -29.406  -4.359  1.00  0.00     0.161 HD
HETATM   35  O5  UNL     1      17.823 -29.511  -2.523  1.00  0.00    -0.264 OA
BRANCH  28  36
HETATM   36  C19 UNL     1      14.314 -25.328  -2.024  1.00  0.00     0.037 A 
HETATM   37  C20 UNL     1      12.910 -25.313  -2.398  1.00  0.00     0.011 A 
HETATM   38  C21 UNL     1      13.904 -24.640  -3.303  1.00  0.00     0.011 A 
ENDBRANCH  28  36
BRANCH  32  39
HETATM   39  C23 UNL     1      16.155 -30.689  -4.192  1.00  0.00     0.083 C 
HETATM   40  C24 UNL     1      15.733 -31.511  -5.362  1.00  0.00     0.025 C 
HETATM   41  C25 UNL     1      15.922 -32.762  -4.491  1.00  0.00     0.004 C 
HETATM   42  C26 UNL     1      15.632 -31.866  -3.310  1.00  0.00     0.025 C 
ENDBRANCH  32  39
ENDBRANCH   1  26
TORSDOF 10
ENDMDL
MODEL 4
REMARK VINA RESULT: -7.941816731      2.762      8.856
REMARK  10 active torsions:
REMARK  status: ('A' for Active; 'I' for Inactive)
REMARK    1  A    between atoms: C2_2  and  C3_6 
REMARK    2  A    between atoms: C7_10  and  C8_11 
REMARK    3  A    between atoms: N2_14  and  C9_15 
REMARK    4  A    between atoms: C9_15  and  O3_16 
REMARK    5  A    between atoms: C9_15  and  C10_18 
REMARK    6  A    between atoms: C10_18  and  C11_19 
REMARK    7  A    between atoms: C10_18  and  N3_26 
REMARK    8  A    between atoms: C11_19  and  C12_20 
REMARK    9  A    between atoms: C18_28  and  C19_29 
REMARK   10  A    between atoms: N5_35  and  C23_37 
ROOT
HETATM    1  C10 UNL     1      19.401 -27.889  -0.894  1.00  0.00     0.167 C 
ENDROOT
BRANCH   1   2
HETATM    2  C9  UNL     1      19.484 -26.762   0.048  1.00  0.00     0.139 C 
BRANCH   2   3
HETATM    3  N2  UNL     1      19.498 -26.700   1.434  1.00  0.00    -0.339 N 
HETATM    4  C3  UNL     1      20.703 -26.989   2.170  1.00  0.00     0.132 C 
HETATM    5  C4  UNL     1      20.496 -26.965   3.671  1.00  0.00     0.031 C 
HETATM    6  C5  UNL     1      19.316 -27.812   4.037  1.00  0.00     0.005 C 
HETATM    7  C6  UNL     1      18.086 -27.488   3.261  1.00  0.00     0.036 C 
HETATM    8  C7  UNL     1      18.319 -26.400   2.194  1.00  0.00     0.188 C 
BRANCH   4   9
HETATM    9  C2  UNL     1      21.907 -26.221   1.875  1.00  0.00    -0.001 C 
HETATM   10  C1  UNL     1      23.202 -27.020   1.924  1.00  0.00     0.065 C 
HETATM   11  N1  UNL     1      22.051 -25.003   1.589  1.00  0.00    -0.404 N 
ATOM     12  H12 UNL     1      22.893 -24.467   1.383  1.00  0.00     0.155 HD
ATOM     13  H11 UNL     1      21.183 -24.468   1.556  1.00  0.00     0.155 HD
ENDBRANCH   4   9
BRANCH   8  14
HETATM   14  C8  UNL     1      18.233 -25.061   2.790  1.00  0.00     0.196 C 
HETATM   15  O1  UNL     1      18.896 -24.139   2.258  1.00  0.00    -0.646 OA
HETATM   16  O2  UNL     1      17.471 -24.796   3.882  1.00  0.00    -0.646 OA
ENDBRANCH   8  14
ENDBRANCH   2   3
BRANCH   2  17
HETATM   17  O3  UNL     1      19.562 -25.551  -0.494  1.00  0.00    -0.348 OA
ATOM     18  H3  UNL     1      18.947 -25.451  -1.211  1.00  0.00     0.219 HD
ENDBRANCH   2  17
ENDBRANCH   1   2
BRANCH   1  19
HETATM   19  C11 UNL     1      20.476 -27.919  -1.937  1.00  0.00     0.039 C 
BRANCH  19  20
HETATM   20  C12 UNL     1      21.818 -28.359  -1.325  1.00  0.00    -0.008 C 
HETATM   21  C13 UNL     1      22.863 -27.450  -1.977  1.00  0.00     0.031 C 
HETATM   22  C14 UNL     1      24.253 -27.862  -1.599  1.00  0.00     0.168 C 
HETATM   23  O4  UNL     1      24.495 -29.203  -1.791  1.00  0.00    -0.391 OA
HETATM   24  C15 UNL     1      23.486 -29.842  -2.476  1.00  0.00     0.168 C 
HETATM   25  C16 UNL     1      22.162 -29.776  -1.732  1.00  0.00     0.031 C 
ENDBRANCH  19  20
ENDBRANCH   1  19
BRANCH   1  26
HETATM   26  N3  UNL     1      18.099 -27.909  -1.524  1.00  0.00    -0.307 N 
HETATM   27  C17 UNL     1      17.298 -26.810  -1.389  1.00  0.00     0.120 A 
HETATM   28  C18 UNL     1      16.057 -26.712  -1.980  1.00  0.00     0.030 A 
HETATM   29  N4  UNL     1      15.649 -27.747  -2.703  1.00  0.00    -0.340 N 
HETATM   30  C22 UNL     1      16.423 -28.875  -2.864  1.00  0.00     0.171 A 
ATOM     31  H4  UNL     1      14.734 -27.706  -3.154  1.00  0.00     0.167 HD
HETATM   32  N5  UNL     1      15.934 -29.809  -3.578  1.00  0.00    -0.367 N 
HETATM   33  C27 UNL     1      17.657 -28.947  -2.264  1.00  0.00     0.292 A 
ATOM     34  H5  UNL     1      15.008 -29.647  -3.975  1.00  0.00     0.161 HD
HETATM   35  O5  UNL     1      18.405 -29.930  -2.369  1.00  0.00    -0.264 OA
BRANCH  28  36
HETATM   36  C19 UNL     1      15.242 -25.490  -1.784  1.00  0.00     0.037 A 
HETATM   37  C20 UNL     1      13.811 -25.397  -2.022  1.00  0.00     0.011 A 
HETATM   38  C21 UNL     1      14.751 -24.843  -3.056  1.00  0.00     0.011 A 
ENDBRANCH  28  36
BRANCH  32  39
HETATM   39  C23 UNL     1      16.543 -31.038  -3.873  1.00  0.00     0.083 C 
HETATM   40  C24 UNL     1      15.954 -31.886  -4.948  1.00  0.00     0.025 C 
HETATM   41  C25 UNL     1      16.155 -33.103  -4.033  1.00  0.00     0.004 C 
HETATM   42  C26 UNL     1      16.043 -32.134  -2.880  1.00  0.00     0.025 C 
ENDBRANCH  32  39
ENDBRANCH   1  26
TORSDOF 10
ENDMDL
MODEL 5
REMARK VINA RESULT: -7.786051621      3.339      8.672
REMARK  10 active torsions:
REMARK  status: ('A' for Active; 'I' for Inactive)
REMARK    1  A    between atoms: C2_2  and  C3_6 
REMARK    2  A    between atoms: C7_10  and  C8_11 
REMARK    3  A    between atoms: N2_14  and  C9_15 
REMARK    4  A    between atoms: C9_15  and  O3_16 
REMARK    5  A    between atoms: C9_15  and  C10_18 
REMARK    6  A    between atoms: C10_18  and  C11_19 
REMARK    7  A    between atoms: C10_18  and  N3_26 
REMARK    8  A    between atoms: C11_19  and  C12_20 
REMARK    9  A    between atoms: C18_28  and  C19_29 
REMARK   10  A    between atoms: N5_35  and  C23_37 
ROOT
HETATM    1  C10 UNL     1      18.398 -25.992   1.621  1.00  0.00     0.167 C 
ENDROOT
BRANCH   1   2
HETATM    2  C9  UNL     1      19.383 -24.900   1.626  1.00  0.00     0.139 C 
BRANCH   2   3
HETATM    3  N2  UNL     1      20.412 -24.572   2.498  1.00  0.00    -0.339 N 
HETATM    4  C3  UNL     1      21.666 -25.280   2.453  1.00  0.00     0.132 C 
HETATM    5  C4  UNL     1      22.626 -24.847   3.543  1.00  0.00     0.031 C 
HETATM    6  C5  UNL     1      21.934 -24.875   4.871  1.00  0.00     0.005 C 
HETATM    7  C6  UNL     1      20.642 -24.133   4.887  1.00  0.00     0.036 C 
HETATM    8  C7  UNL     1      20.262 -23.563   3.506  1.00  0.00     0.188 C 
BRANCH   4   9
HETATM    9  C2  UNL     1      22.407 -25.317   1.198  1.00  0.00    -0.001 C 
HETATM   10  C1  UNL     1      23.095 -26.643   0.900  1.00  0.00     0.065 C 
HETATM   11  N1  UNL     1      22.575 -24.429   0.321  1.00  0.00    -0.404 N 
ATOM     12  H12 UNL     1      23.094 -24.455  -0.557  1.00  0.00     0.155 HD
ATOM     13  H11 UNL     1      22.114 -23.541   0.520  1.00  0.00     0.155 HD
ENDBRANCH   4   9
BRANCH   8  14
HETATM   14  C8  UNL     1      20.936 -22.280   3.270  1.00  0.00     0.196 C 
HETATM   15  O1  UNL     1      21.218 -21.975   2.087  1.00  0.00    -0.646 OA
HETATM   16  O2  UNL     1      21.258 -21.429   4.278  1.00  0.00    -0.646 OA
ENDBRANCH   8  14
ENDBRANCH   2   3
BRANCH   2  17
HETATM   17  O3  UNL     1      19.308 -24.039   0.617  1.00  0.00    -0.348 OA
ATOM     18  H3  UNL     1      19.545 -24.448  -0.208  1.00  0.00     0.219 HD
ENDBRANCH   2  17
ENDBRANCH   1   2
BRANCH   1  19
HETATM   19  C11 UNL     1      18.731 -27.145   2.519  1.00  0.00     0.039 C 
BRANCH  19  20
HETATM   20  C12 UNL     1      17.672 -27.299   3.625  1.00  0.00    -0.008 C 
HETATM   21  C13 UNL     1      17.079 -25.898   3.799  1.00  0.00     0.031 C 
HETATM   22  C14 UNL     1      16.133 -25.848   4.960  1.00  0.00     0.168 C 
HETATM   23  O4  UNL     1      16.666 -26.368   6.118  1.00  0.00    -0.391 OA
HETATM   24  C15 UNL     1      18.013 -26.634   6.022  1.00  0.00     0.168 C 
HETATM   25  C16 UNL     1      18.314 -27.665   4.946  1.00  0.00     0.031 C 
ENDBRANCH  19  20
ENDBRANCH   1  19
BRANCH   1  26
HETATM   26  N3  UNL     1      18.191 -26.462   0.268  1.00  0.00    -0.307 N 
HETATM   27  C17 UNL     1      19.171 -27.217  -0.311  1.00  0.00     0.120 A 
HETATM   28  C18 UNL     1      19.058 -27.743  -1.580  1.00  0.00     0.030 A 
HETATM   29  N4  UNL     1      17.937 -27.488  -2.242  1.00  0.00    -0.340 N 
HETATM   30  C22 UNL     1      16.924 -26.731  -1.695  1.00  0.00     0.171 A 
ATOM     31  H4  UNL     1      17.821 -27.864  -3.183  1.00  0.00     0.167 HD
HETATM   32  N5  UNL     1      15.892 -26.547  -2.419  1.00  0.00    -0.367 N 
HETATM   33  C27 UNL     1      17.062 -26.218  -0.429  1.00  0.00     0.292 A 
ATOM     34  H5  UNL     1      15.897 -26.976  -3.344  1.00  0.00     0.161 HD
HETATM   35  O5  UNL     1      16.190 -25.531   0.123  1.00  0.00    -0.264 OA
BRANCH  28  36
HETATM   36  C19 UNL     1      20.166 -28.548  -2.146  1.00  0.00     0.037 A 
HETATM   37  C20 UNL     1      21.391 -28.888  -1.441  1.00  0.00     0.011 A 
HETATM   38  C21 UNL     1      21.425 -27.773  -2.449  1.00  0.00     0.011 A 
ENDBRANCH  28  36
BRANCH  32  39
HETATM   39  C23 UNL     1      14.748 -25.813  -2.067  1.00  0.00     0.083 C 
HETATM   40  C24 UNL     1      13.409 -26.410  -2.334  1.00  0.00     0.025 C 
HETATM   41  C25 UNL     1      12.952 -25.037  -2.848  1.00  0.00     0.004 C 
HETATM   42  C26 UNL     1      14.402 -24.792  -3.195  1.00  0.00     0.025 C 
ENDBRANCH  32  39
ENDBRANCH   1  26
TORSDOF 10
ENDMDL
