MODEL 1
REMARK VINA RESULT: -5.898591230      0.000      0.000
REMARK  3 active torsions:
REMARK  status: ('A' for Active; 'I' for Inactive)
REMARK    1  A    between atoms: C1_1  and  C6_13 
REMARK    2  A    between atoms: N1_2  and  N2_4 
REMARK    3  A    between atoms: N2_4  and  C2_6 
ROOT
HETATM    1  N2  UNL     1      30.260   7.202  38.592  1.00  0.00    -0.330 N 
ATOM      2  H2  UNL     1      31.259   7.377  38.703  1.00  0.00     0.180 HD
ENDROOT
BRANCH   1   3
HETATM    3  N1  UNL     1      29.648   7.449  37.374  1.00  0.00    -0.313 N 
HETATM    4  C1  UNL     1      29.794   8.546  36.747  1.00  0.00     0.143 C 
ATOM      5  H1  UNL     1      29.058   6.725  36.965  1.00  0.00     0.185 HD
BRANCH   4   6
HETATM    6  C6  UNL     1      30.633   9.590  37.317  1.00  0.00     0.091 A 
HETATM    7  C7  UNL     1      31.713  10.224  36.736  1.00  0.00     0.040 A 
HETATM    8  C8  UNL     1      32.203  11.138  37.633  1.00  0.00     0.027 A 
HETATM    9  C9  UNL     1      31.406  11.038  38.747  1.00  0.00     0.142 A 
HETATM   10  O1  UNL     1      30.513  10.134  38.522  1.00  0.00    -0.321 OA
ENDBRANCH   4   6
ENDBRANCH   1   3
BRANCH   1  11
HETATM   11  C2  UNL     1      29.500   6.702  39.696  1.00  0.00     0.126 C 
HETATM   12  C3  UNL     1      28.409   7.714  40.071  1.00  0.00     0.056 C 
HETATM   13  C4  UNL     1      27.459   6.820  40.830  1.00  0.00     0.234 C 
HETATM   14  N3  UNL     1      27.440   5.592  40.090  1.00  0.00    -0.073 N 
HETATM   15  C5  UNL     1      28.643   5.511  39.321  1.00  0.00     0.258 C 
ATOM     16  H32 UNL     1      27.300   4.777  40.687  1.00  0.00     0.277 HD
ATOM     17  H31 UNL     1      26.600   5.492  39.519  1.00  0.00     0.277 HD
ENDBRANCH   1  11
TORSDOF 3
ENDMDL
MODEL 2
REMARK VINA RESULT: -5.890756125      1.008      1.216
REMARK  3 active torsions:
REMARK  status: ('A' for Active; 'I' for Inactive)
REMARK    1  A    between atoms: C1_1  and  C6_13 
REMARK    2  A    between atoms: N1_2  and  N2_4 
REMARK    3  A    between atoms: N2_4  and  C2_6 
ROOT
HETATM    1  N2  UNL     1      29.478   8.183  38.514  1.00  0.00    -0.330 N 
ATOM      2  H2  UNL     1      30.106   8.739  39.094  1.00  0.00     0.180 HD
ENDROOT
BRANCH   1   3
HETATM    3  N1  UNL     1      29.330   8.487  37.171  1.00  0.00    -0.313 N 
HETATM    4  C1  UNL     1      29.980   9.425  36.607  1.00  0.00     0.143 C 
ATOM      5  H1  UNL     1      28.677   7.938  36.612  1.00  0.00     0.185 HD
BRANCH   4   6
HETATM    6  C6  UNL     1      30.918  10.217  37.391  1.00  0.00     0.091 A 
HETATM    7  C7  UNL     1      32.202  10.592  37.053  1.00  0.00     0.040 A 
HETATM    8  C8  UNL     1      32.716  11.330  38.088  1.00  0.00     0.027 A 
HETATM    9  C9  UNL     1      31.726  11.387  39.038  1.00  0.00     0.142 A 
HETATM   10  O1  UNL     1      30.706  10.732  38.596  1.00  0.00    -0.321 OA
ENDBRANCH   4   6
ENDBRANCH   1   3
BRANCH   1  11
HETATM   11  C2  UNL     1      28.753   7.095  39.094  1.00  0.00     0.126 C 
HETATM   12  C3  UNL     1      29.539   6.527  40.283  1.00  0.00     0.056 C 
HETATM   13  C4  UNL     1      28.434   5.813  41.023  1.00  0.00     0.234 C 
HETATM   14  N3  UNL     1      27.303   6.690  40.928  1.00  0.00    -0.073 N 
HETATM   15  C5  UNL     1      27.490   7.547  39.798  1.00  0.00     0.258 C 
ATOM     16  H32 UNL     1      26.417   6.185  40.895  1.00  0.00     0.277 HD
ATOM     17  H31 UNL     1      27.136   7.208  41.791  1.00  0.00     0.277 HD
ENDBRANCH   1  11
TORSDOF 3
ENDMDL
MODEL 3
REMARK VINA RESULT: -5.694873850      1.548      2.152
REMARK  3 active torsions:
REMARK  status: ('A' for Active; 'I' for Inactive)
REMARK    1  A    between atoms: C1_1  and  C6_13 
REMARK    2  A    between atoms: N1_2  and  N2_4 
REMARK    3  A    between atoms: N2_4  and  C2_6 
ROOT
HETATM    1  N2  UNL     1      29.442   8.285  39.094  1.00  0.00    -0.330 N 
ATOM      2  H2  UNL     1      29.346   9.052  39.761  1.00  0.00     0.180 HD
ENDROOT
BRANCH   1   3
HETATM    3  N1  UNL     1      29.044   8.464  37.779  1.00  0.00    -0.313 N 
HETATM    4  C1  UNL     1      29.610   9.298  37.002  1.00  0.00     0.143 C 
ATOM      5  H1  UNL     1      28.270   7.906  37.420  1.00  0.00     0.185 HD
BRANCH   4   6
HETATM    6  C6  UNL     1      30.718  10.102  37.499  1.00  0.00     0.091 A 
HETATM    7  C7  UNL     1      31.918  10.372  36.874  1.00  0.00     0.040 A 
HETATM    8  C8  UNL     1      32.661  11.169  37.707  1.00  0.00     0.027 A 
HETATM    9  C9  UNL     1      31.891  11.365  38.827  1.00  0.00     0.142 A 
HETATM   10  O1  UNL     1      30.779  10.733  38.665  1.00  0.00    -0.321 OA
ENDBRANCH   4   6
ENDBRANCH   1   3
BRANCH   1  11
HETATM   11  C2  UNL     1      29.983   7.033  39.523  1.00  0.00     0.126 C 
HETATM   12  C3  UNL     1      29.507   5.917  38.584  1.00  0.00     0.056 C 
HETATM   13  C4  UNL     1      30.550   4.862  38.867  1.00  0.00     0.234 C 
HETATM   14  N3  UNL     1      31.783   5.585  38.979  1.00  0.00    -0.073 N 
HETATM   15  C5  UNL     1      31.480   6.944  39.309  1.00  0.00     0.258 C 
ATOM     16  H32 UNL     1      32.430   5.156  39.639  1.00  0.00     0.277 HD
ATOM     17  H31 UNL     1      32.362   5.504  38.143  1.00  0.00     0.277 HD
ENDBRANCH   1  11
TORSDOF 3
ENDMDL
MODEL 4
REMARK VINA RESULT: -5.559613868      1.463      1.999
REMARK  3 active torsions:
REMARK  status: ('A' for Active; 'I' for Inactive)
REMARK    1  A    between atoms: C1_1  and  C6_13 
REMARK    2  A    between atoms: N1_2  and  N2_4 
REMARK    3  A    between atoms: N2_4  and  C2_6 
ROOT
HETATM    1  N2  UNL     1      29.478   8.254  38.462  1.00  0.00    -0.330 N 
ATOM      2  H2  UNL     1      29.140   8.919  39.158  1.00  0.00     0.180 HD
ENDROOT
BRANCH   1   3
HETATM    3  N1  UNL     1      29.350   8.545  37.113  1.00  0.00    -0.313 N 
HETATM    4  C1  UNL     1      30.022   9.463  36.545  1.00  0.00     0.143 C 
ATOM      5  H1  UNL     1      28.692   8.002  36.555  1.00  0.00     0.185 HD
BRANCH   4   6
HETATM    6  C6  UNL     1      30.967  10.247  37.329  1.00  0.00     0.091 A 
HETATM    7  C7  UNL     1      32.262  10.593  37.000  1.00  0.00     0.040 A 
HETATM    8  C8  UNL     1      32.779  11.334  38.031  1.00  0.00     0.027 A 
HETATM    9  C9  UNL     1      31.781  11.422  38.971  1.00  0.00     0.142 A 
HETATM   10  O1  UNL     1      30.754  10.781  38.526  1.00  0.00    -0.321 OA
ENDBRANCH   4   6
ENDBRANCH   1   3
BRANCH   1  11
HETATM   11  C2  UNL     1      30.080   7.027  38.884  1.00  0.00     0.126 C 
HETATM   12  C3  UNL     1      31.549   7.274  39.252  1.00  0.00     0.056 C 
HETATM   13  C4  UNL     1      31.817   6.069  40.120  1.00  0.00     0.234 C 
HETATM   14  N3  UNL     1      30.628   5.908  40.903  1.00  0.00    -0.073 N 
HETATM   15  C5  UNL     1      29.547   6.546  40.218  1.00  0.00     0.258 C 
ATOM     16  H32 UNL     1      30.431   4.932  41.123  1.00  0.00     0.277 HD
ATOM     17  H31 UNL     1      30.740   6.246  41.860  1.00  0.00     0.277 HD
ENDBRANCH   1  11
TORSDOF 3
ENDMDL
MODEL 5
REMARK VINA RESULT: -5.466855095      0.883      1.212
REMARK  3 active torsions:
REMARK  status: ('A' for Active; 'I' for Inactive)
REMARK    1  A    between atoms: C1_1  and  C6_13 
REMARK    2  A    between atoms: N1_2  and  N2_4 
REMARK    3  A    between atoms: N2_4  and  C2_6 
ROOT
HETATM    1  N2  UNL     1      30.438   7.190  37.961  1.00  0.00    -0.330 N 
ATOM      2  H2  UNL     1      31.411   7.493  38.010  1.00  0.00     0.180 HD
ENDROOT
BRANCH   1   3
HETATM    3  N1  UNL     1      29.597   7.729  37.001  1.00  0.00    -0.313 N 
HETATM    4  C1  UNL     1      29.642   8.955  36.664  1.00  0.00     0.143 C 
ATOM      5  H1  UNL     1      28.916   7.120  36.548  1.00  0.00     0.185 HD
BRANCH   4   6
HETATM    6  C6  UNL     1      30.611   9.837  37.301  1.00  0.00     0.091 A 
HETATM    7  C7  UNL     1      31.768  10.359  36.760  1.00  0.00     0.040 A 
HETATM    8  C8  UNL     1      32.371  11.137  37.715  1.00  0.00     0.027 A 
HETATM    9  C9  UNL     1      31.561  11.069  38.823  1.00  0.00     0.142 A 
HETATM   10  O1  UNL     1      30.557  10.309  38.540  1.00  0.00    -0.321 OA
ENDBRANCH   4   6
ENDBRANCH   1   3
BRANCH   1  11
HETATM   11  C2  UNL     1      29.952   6.211  38.883  1.00  0.00     0.126 C 
HETATM   12  C3  UNL     1      30.730   6.313  40.201  1.00  0.00     0.056 C 
HETATM   13  C4  UNL     1      29.767   5.625  41.138  1.00  0.00     0.234 C 
HETATM   14  N3  UNL     1      28.470   6.080  40.732  1.00  0.00    -0.073 N 
HETATM   15  C5  UNL     1      28.552   6.520  39.373  1.00  0.00     0.258 C 
ATOM     16  H32 UNL     1      27.745   5.377  40.874  1.00  0.00     0.277 HD
ATOM     17  H31 UNL     1      28.093   6.796  41.354  1.00  0.00     0.277 HD
ENDBRANCH   1  11
TORSDOF 3
ENDMDL
