MODEL 1
REMARK VINA RESULT: -8.265434333      0.000      0.000
REMARK  4 active torsions:
REMARK  status: ('A' for Active; 'I' for Inactive)
REMARK    1  A    between atoms: C4_4  and  C5_5 
REMARK    2  A    between atoms: C5_5  and  C6_6 
REMARK    3  A    between atoms: C5_5  and  N4_24 
REMARK    4  A    between atoms: C6_6  and  N1_7 
ROOT
HETATM    1  N1  UNL     1       9.755  35.443  76.639  1.00  0.00    -0.290 NA
HETATM    2  C7  UNL     1       8.370  35.243  77.122  1.00  0.00     0.097 C 
HETATM    3  C8  UNL     1       7.861  36.329  77.994  1.00  0.00     0.047 C 
HETATM    4  C9  UNL     1       8.557  36.265  79.366  1.00  0.00     0.048 C 
HETATM    5  C10 UNL     1       9.808  35.467  79.131  1.00  0.00     0.047 C 
HETATM    6  C11 UNL     1      10.500  35.806  77.849  1.00  0.00     0.097 C 
HETATM    7  C12 UNL     1       8.913  37.620  79.859  1.00  0.00     0.151 C 
HETATM    8  N2  UNL     1       8.351  38.006  81.124  1.00  0.00    -0.386 N 
ATOM      9  H2  UNL     1       8.819  38.732  81.666  1.00  0.00     0.159 HD
HETATM   10  C13 UNL     1       7.184  37.423  81.642  1.00  0.00     0.054 A 
HETATM   11  C14 UNL     1       6.389  38.063  82.595  1.00  0.00     0.031 A 
HETATM   12  C15 UNL     1       5.244  37.495  83.110  1.00  0.00     0.002 A 
HETATM   13  C16 UNL     1       4.891  36.236  82.647  1.00  0.00     0.002 A 
HETATM   14  C17 UNL     1       5.668  35.587  81.701  1.00  0.00     0.031 A 
HETATM   15  C18 UNL     1       6.809  36.171  81.197  1.00  0.00     0.055 A 
HETATM   16  N3  UNL     1       7.638  35.563  80.241  1.00  0.00    -0.377 N 
ATOM     17  H3  UNL     1       7.591  34.548  80.156  1.00  0.00     0.160 HD
ENDROOT
BRANCH   1  18
HETATM   18  C6  UNL     1       9.732  36.443  75.666  1.00  0.00     0.090 C 
BRANCH  18  19
HETATM   19  C5  UNL     1       9.808  36.203  74.220  1.00  0.00     0.059 C 
BRANCH  19  20
HETATM   20  C4  UNL     1       9.517  34.947  73.586  1.00  0.00    -0.008 A 
HETATM   21  C3  UNL     1      10.532  34.131  73.025  1.00  0.00     0.014 A 
HETATM   22  C2  UNL     1      10.314  32.953  72.401  1.00  0.00     0.001 A 
HETATM   23  C1  UNL     1       9.066  32.445  72.262  1.00  0.00     0.000 A 
HETATM   24  C25 UNL     1       8.023  33.180  72.783  1.00  0.00     0.001 A 
HETATM   25  C24 UNL     1       8.269  34.373  73.410  1.00  0.00     0.014 A 
ENDBRANCH  19  20
BRANCH  19  26
HETATM   26  N4  UNL     1       9.418  37.417  73.455  1.00  0.00    -0.331 N 
HETATM   27  C19 UNL     1       8.226  37.983  73.514  1.00  0.00     0.096 A 
HETATM   28  C20 UNL     1       7.949  39.130  72.778  1.00  0.00     0.018 A 
HETATM   29  C21 UNL     1       8.890  39.720  71.964  1.00  0.00     0.003 A 
HETATM   30  C22 UNL     1      10.135  39.128  71.902  1.00  0.00     0.018 A 
HETATM   31  C23 UNL     1      10.357  38.004  72.642  1.00  0.00     0.096 A 
ENDBRANCH  19  26
ENDBRANCH  18  19
ENDBRANCH   1  18
TORSDOF 4
ENDMDL
MODEL 2
REMARK VINA RESULT: -8.041879497      1.577      2.549
REMARK  4 active torsions:
REMARK  status: ('A' for Active; 'I' for Inactive)
REMARK    1  A    between atoms: C4_4  and  C5_5 
REMARK    2  A    between atoms: C5_5  and  C6_6 
REMARK    3  A    between atoms: C5_5  and  N4_24 
REMARK    4  A    between atoms: C6_6  and  N1_7 
ROOT
HETATM    1  N1  UNL     1       5.988  35.508  75.632  1.00  0.00    -0.290 NA
HETATM    2  C7  UNL     1       5.697  36.474  76.714  1.00  0.00     0.097 C 
HETATM    3  C8  UNL     1       6.885  36.899  77.495  1.00  0.00     0.047 C 
HETATM    4  C9  UNL     1       7.360  35.741  78.390  1.00  0.00     0.048 C 
HETATM    5  C10 UNL     1       6.767  34.504  77.776  1.00  0.00     0.047 C 
HETATM    6  C11 UNL     1       6.824  34.494  76.282  1.00  0.00     0.097 C 
HETATM    7  C12 UNL     1       8.842  35.633  78.398  1.00  0.00     0.151 C 
HETATM    8  N2  UNL     1       9.483  35.747  79.679  1.00  0.00    -0.386 N 
ATOM      9  H2  UNL     1      10.409  35.340  79.802  1.00  0.00     0.159 HD
HETATM   10  C13 UNL     1       8.882  36.399  80.769  1.00  0.00     0.054 A 
HETATM   11  C14 UNL     1       9.625  36.911  81.834  1.00  0.00     0.031 A 
HETATM   12  C15 UNL     1       9.042  37.548  82.908  1.00  0.00     0.002 A 
HETATM   13  C16 UNL     1       7.660  37.670  82.906  1.00  0.00     0.002 A 
HETATM   14  C17 UNL     1       6.908  37.167  81.857  1.00  0.00     0.031 A 
HETATM   15  C18 UNL     1       7.509  36.534  80.792  1.00  0.00     0.055 A 
HETATM   16  N3  UNL     1       6.802  36.001  79.702  1.00  0.00    -0.377 N 
ATOM     17  H3  UNL     1       5.816  35.779  79.846  1.00  0.00     0.160 HD
ENDROOT
BRANCH   1  18
HETATM   18  C6  UNL     1       6.629  36.196  74.601  1.00  0.00     0.090 C 
BRANCH  18  19
HETATM   19  C5  UNL     1       7.861  35.751  73.939  1.00  0.00     0.059 C 
BRANCH  19  20
HETATM   20  C4  UNL     1       8.006  34.502  73.243  1.00  0.00    -0.008 A 
HETATM   21  C3  UNL     1       7.006  34.005  72.370  1.00  0.00     0.014 A 
HETATM   22  C2  UNL     1       7.081  32.831  71.705  1.00  0.00     0.001 A 
HETATM   23  C1  UNL     1       8.156  32.014  71.828  1.00  0.00     0.000 A 
HETATM   24  C25 UNL     1       9.173  32.429  72.660  1.00  0.00     0.001 A 
HETATM   25  C24 UNL     1       9.073  33.623  73.325  1.00  0.00     0.014 A 
ENDBRANCH  19  20
BRANCH  19  26
HETATM   26  N4  UNL     1       8.603  36.902  73.360  1.00  0.00    -0.331 N 
HETATM   27  C19 UNL     1       9.920  37.003  73.338  1.00  0.00     0.096 A 
HETATM   28  C20 UNL     1      10.537  38.107  72.759  1.00  0.00     0.018 A 
HETATM   29  C21 UNL     1       9.814  39.132  72.191  1.00  0.00     0.003 A 
HETATM   30  C22 UNL     1       8.438  39.026  72.215  1.00  0.00     0.018 A 
HETATM   31  C23 UNL     1       7.882  37.924  72.794  1.00  0.00     0.096 A 
ENDBRANCH  19  26
ENDBRANCH  18  19
ENDBRANCH   1  18
TORSDOF 4
ENDMDL
MODEL 3
REMARK VINA RESULT: -8.012818591      3.688      7.784
REMARK  4 active torsions:
REMARK  status: ('A' for Active; 'I' for Inactive)
REMARK    1  A    between atoms: C4_4  and  C5_5 
REMARK    2  A    between atoms: C5_5  and  C6_6 
REMARK    3  A    between atoms: C5_5  and  N4_24 
REMARK    4  A    between atoms: C6_6  and  N1_7 
ROOT
HETATM    1  N1  UNL     1       7.006  34.935  73.217  1.00  0.00    -0.290 NA
HETATM    2  C7  UNL     1       5.633  34.420  73.419  1.00  0.00     0.097 C 
HETATM    3  C8  UNL     1       5.563  33.111  74.114  1.00  0.00     0.047 C 
HETATM    4  C9  UNL     1       6.054  31.996  73.173  1.00  0.00     0.048 C 
HETATM    5  C10 UNL     1       6.864  32.700  72.122  1.00  0.00     0.047 C 
HETATM    6  C11 UNL     1       7.734  33.787  72.668  1.00  0.00     0.097 C 
HETATM    7  C12 UNL     1       6.910  31.017  73.891  1.00  0.00     0.151 C 
HETATM    8  N2  UNL     1       6.466  29.651  73.878  1.00  0.00    -0.386 N 
ATOM      9  H2  UNL     1       7.152  28.911  74.026  1.00  0.00     0.159 HD
HETATM   10  C13 UNL     1       5.123  29.294  73.668  1.00  0.00     0.054 A 
HETATM   11  C14 UNL     1       4.602  28.070  74.091  1.00  0.00     0.031 A 
HETATM   12  C15 UNL     1       3.287  27.713  73.885  1.00  0.00     0.002 A 
HETATM   13  C16 UNL     1       2.471  28.624  73.230  1.00  0.00     0.002 A 
HETATM   14  C17 UNL     1       2.973  29.844  72.805  1.00  0.00     0.031 A 
HETATM   15  C18 UNL     1       4.291  30.183  73.019  1.00  0.00     0.055 A 
HETATM   16  N3  UNL     1       4.858  31.401  72.610  1.00  0.00    -0.377 N 
ATOM     17  H3  UNL     1       4.392  31.906  71.857  1.00  0.00     0.160 HD
ENDROOT
BRANCH   1  18
HETATM   18  C6  UNL     1       7.486  35.375  74.450  1.00  0.00     0.090 C 
BRANCH  18  19
HETATM   19  C5  UNL     1       8.612  36.299  74.626  1.00  0.00     0.059 C 
BRANCH  19  20
HETATM   20  C4  UNL     1       8.942  37.365  73.720  1.00  0.00    -0.008 A 
HETATM   21  C3  UNL     1      10.238  37.507  73.163  1.00  0.00     0.014 A 
HETATM   22  C2  UNL     1      10.608  38.498  72.322  1.00  0.00     0.001 A 
HETATM   23  C1  UNL     1       9.738  39.462  71.936  1.00  0.00     0.000 A 
HETATM   24  C25 UNL     1       8.455  39.392  72.435  1.00  0.00     0.001 A 
HETATM   25  C24 UNL     1       8.103  38.378  73.288  1.00  0.00     0.014 A 
ENDBRANCH  19  20
BRANCH  19  26
HETATM   26  N4  UNL     1       8.853  36.581  76.067  1.00  0.00    -0.331 N 
HETATM   27  C19 UNL     1      10.047  36.769  76.599  1.00  0.00     0.096 A 
HETATM   28  C20 UNL     1      10.184  37.047  77.955  1.00  0.00     0.018 A 
HETATM   29  C21 UNL     1       9.096  37.136  78.795  1.00  0.00     0.003 A 
HETATM   30  C22 UNL     1       7.848  36.939  78.238  1.00  0.00     0.018 A 
HETATM   31  C23 UNL     1       7.768  36.669  76.904  1.00  0.00     0.096 A 
ENDBRANCH  19  26
ENDBRANCH  18  19
ENDBRANCH   1  18
TORSDOF 4
ENDMDL
MODEL 4
REMARK VINA RESULT: -8.009755733      3.768      7.889
REMARK  4 active torsions:
REMARK  status: ('A' for Active; 'I' for Inactive)
REMARK    1  A    between atoms: C4_4  and  C5_5 
REMARK    2  A    between atoms: C5_5  and  C6_6 
REMARK    3  A    between atoms: C5_5  and  N4_24 
REMARK    4  A    between atoms: C6_6  and  N1_7 
ROOT
HETATM    1  N1  UNL     1       7.009  34.742  73.040  1.00  0.00    -0.290 NA
HETATM    2  C7  UNL     1       5.639  34.265  73.336  1.00  0.00     0.097 C 
HETATM    3  C8  UNL     1       5.581  32.968  74.054  1.00  0.00     0.047 C 
HETATM    4  C9  UNL     1       5.984  31.828  73.100  1.00  0.00     0.048 C 
HETATM    5  C10 UNL     1       6.743  32.497  71.990  1.00  0.00     0.047 C 
HETATM    6  C11 UNL     1       7.673  33.568  72.464  1.00  0.00     0.097 C 
HETATM    7  C12 UNL     1       6.859  30.837  73.778  1.00  0.00     0.151 C 
HETATM    8  N2  UNL     1       6.381  29.482  73.812  1.00  0.00    -0.386 N 
ATOM      9  H2  UNL     1       7.057  28.727  73.928  1.00  0.00     0.159 HD
HETATM   10  C13 UNL     1       5.020  29.158  73.693  1.00  0.00     0.054 A 
HETATM   11  C14 UNL     1       4.496  27.953  74.165  1.00  0.00     0.031 A 
HETATM   12  C15 UNL     1       3.162  27.627  74.048  1.00  0.00     0.002 A 
HETATM   13  C16 UNL     1       2.329  28.550  73.432  1.00  0.00     0.002 A 
HETATM   14  C17 UNL     1       2.834  29.751  72.958  1.00  0.00     0.031 A 
HETATM   15  C18 UNL     1       4.170  30.059  73.084  1.00  0.00     0.055 A 
HETATM   16  N3  UNL     1       4.740  31.256  72.622  1.00  0.00    -0.377 N 
ATOM     17  H3  UNL     1       4.240  31.763  71.892  1.00  0.00     0.160 HD
ENDROOT
BRANCH   1  18
HETATM   18  C6  UNL     1       7.577  35.185  74.235  1.00  0.00     0.090 C 
BRANCH  18  19
HETATM   19  C5  UNL     1       8.797  35.997  74.329  1.00  0.00     0.059 C 
BRANCH  19  20
HETATM   20  C4  UNL     1       9.046  37.186  73.561  1.00  0.00    -0.008 A 
HETATM   21  C3  UNL     1       8.030  38.139  73.295  1.00  0.00     0.014 A 
HETATM   22  C2  UNL     1       8.203  39.262  72.566  1.00  0.00     0.001 A 
HETATM   23  C1  UNL     1       9.402  39.573  72.015  1.00  0.00     0.000 A 
HETATM   24  C25 UNL     1      10.442  38.695  72.229  1.00  0.00     0.001 A 
HETATM   25  C24 UNL     1      10.242  37.560  72.973  1.00  0.00     0.014 A 
ENDBRANCH  19  20
BRANCH  19  26
HETATM   26  N4  UNL     1       9.330  36.003  75.717  1.00  0.00    -0.331 N 
HETATM   27  C19 UNL     1      10.040  36.987  76.237  1.00  0.00     0.096 A 
HETATM   28  C20 UNL     1      10.485  36.922  77.553  1.00  0.00     0.018 A 
HETATM   29  C21 UNL     1      10.212  35.842  78.364  1.00  0.00     0.003 A 
HETATM   30  C22 UNL     1       9.471  34.813  77.819  1.00  0.00     0.018 A 
HETATM   31  C23 UNL     1       9.058  34.925  76.524  1.00  0.00     0.096 A 
ENDBRANCH  19  26
ENDBRANCH  18  19
ENDBRANCH   1  18
TORSDOF 4
ENDMDL
MODEL 5
REMARK VINA RESULT: -7.962381003      3.169      7.888
REMARK  4 active torsions:
REMARK  status: ('A' for Active; 'I' for Inactive)
REMARK    1  A    between atoms: C4_4  and  C5_5 
REMARK    2  A    between atoms: C5_5  and  C6_6 
REMARK    3  A    between atoms: C5_5  and  N4_24 
REMARK    4  A    between atoms: C6_6  and  N1_7 
ROOT
HETATM    1  N1  UNL     1       6.124  35.071  74.058  1.00  0.00    -0.290 NA
HETATM    2  C7  UNL     1       6.159  33.690  74.590  1.00  0.00     0.097 C 
HETATM    3  C8  UNL     1       7.475  33.016  74.466  1.00  0.00     0.047 C 
HETATM    4  C9  UNL     1       7.741  32.663  72.991  1.00  0.00     0.048 C 
HETATM    5  C10 UNL     1       6.826  33.559  72.205  1.00  0.00     0.047 C 
HETATM    6  C11 UNL     1       6.752  34.954  72.738  1.00  0.00     0.097 C 
HETATM    7  C12 UNL     1       9.151  32.935  72.613  1.00  0.00     0.151 C 
HETATM    8  N2  UNL     1       9.907  31.815  72.123  1.00  0.00    -0.386 N 
ATOM      9  H2  UNL     1      10.720  31.993  71.534  1.00  0.00     0.159 HD
HETATM   10  C13 UNL     1       9.569  30.485  72.424  1.00  0.00     0.054 A 
HETATM   11  C14 UNL     1      10.499  29.446  72.357  1.00  0.00     0.031 A 
HETATM   12  C15 UNL     1      10.174  28.139  72.647  1.00  0.00     0.002 A 
HETATM   13  C16 UNL     1       8.863  27.873  73.018  1.00  0.00     0.002 A 
HETATM   14  C17 UNL     1       7.928  28.894  73.089  1.00  0.00     0.031 A 
HETATM   15  C18 UNL     1       8.272  30.194  72.795  1.00  0.00     0.055 A 
HETATM   16  N3  UNL     1       7.371  31.269  72.846  1.00  0.00    -0.377 N 
ATOM     17  H3  UNL     1       6.377  31.052  72.776  1.00  0.00     0.160 HD
ENDROOT
BRANCH   1  18
HETATM   18  C6  UNL     1       6.818  35.892  74.946  1.00  0.00     0.090 C 
BRANCH  18  19
HETATM   19  C5  UNL     1       8.226  36.279  74.799  1.00  0.00     0.059 C 
BRANCH  19  20
HETATM   20  C4  UNL     1       8.707  37.271  73.878  1.00  0.00    -0.008 A 
HETATM   21  C3  UNL     1      10.030  37.248  73.367  1.00  0.00     0.014 A 
HETATM   22  C2  UNL     1      10.541  38.163  72.514  1.00  0.00     0.001 A 
HETATM   23  C1  UNL     1       9.801  39.207  72.069  1.00  0.00     0.000 A 
HETATM   24  C25 UNL     1       8.502  39.299  72.520  1.00  0.00     0.001 A 
HETATM   25  C24 UNL     1       8.006  38.359  73.386  1.00  0.00     0.014 A 
ENDBRANCH  19  20
BRANCH  19  26
HETATM   26  N4  UNL     1       8.938  36.211  76.103  1.00  0.00    -0.331 N 
HETATM   27  C19 UNL     1       9.459  37.255  76.721  1.00  0.00     0.096 A 
HETATM   28  C20 UNL     1      10.094  37.108  77.950  1.00  0.00     0.018 A 
HETATM   29  C21 UNL     1      10.209  35.883  78.570  1.00  0.00     0.003 A 
HETATM   30  C22 UNL     1       9.666  34.792  77.922  1.00  0.00     0.018 A 
HETATM   31  C23 UNL     1       9.054  34.990  76.720  1.00  0.00     0.096 A 
ENDBRANCH  19  26
ENDBRANCH  18  19
ENDBRANCH   1  18
TORSDOF 4
ENDMDL
