MODEL 1
REMARK VINA RESULT: -5.503997907      0.000      0.000
REMARK  1 active torsions:
REMARK  status: ('A' for Active; 'I' for Inactive)
REMARK    1  A    between atoms: O1_1  and  C1_3 
ROOT
HETATM    1  C1  UNL     1      30.238   8.871  38.379  1.00  0.00     0.197 C 
HETATM    2  O2  UNL     1      29.118   8.472  37.715  1.00  0.00    -0.352 OA
HETATM    3  C2  UNL     1      28.615   7.975  38.918  1.00  0.00     0.185 C 
HETATM    4  C3  UNL     1      29.952   7.984  39.583  1.00  0.00     0.114 C 
HETATM    5  C4  UNL     1      30.678   6.672  39.454  1.00  0.00     0.119 A 
HETATM    6  C5  UNL     1      30.580   6.200  38.076  1.00  0.00     0.209 C 
HETATM    7  O3  UNL     1      31.357   7.078  37.281  1.00  0.00    -0.377 OA
HETATM    8  C6  UNL     1      31.567   8.301  37.862  1.00  0.00     0.186 C 
HETATM    9  C7  UNL     1      32.421   8.208  39.143  1.00  0.00     0.072 C 
HETATM   10  C8  UNL     1      32.208   6.838  39.633  1.00  0.00     0.162 A 
HETATM   11  O4  UNL     1      31.377   6.304  40.501  1.00  0.00    -0.366 OA
ENDROOT
BRANCH   1  12
HETATM   12  O1  UNL     1      30.323  10.193  38.767  1.00  0.00    -0.363 OA
ATOM     13  H1  UNL     1      30.856  10.401  39.526  1.00  0.00     0.213 HD
ENDBRANCH   1  12
TORSDOF 1
ENDMDL
MODEL 2
REMARK VINA RESULT: -5.443614511      1.453      3.273
REMARK  1 active torsions:
REMARK  status: ('A' for Active; 'I' for Inactive)
REMARK    1  A    between atoms: O1_1  and  C1_3 
ROOT
HETATM    1  C1  UNL     1      31.513   7.838  38.731  1.00  0.00     0.197 C 
HETATM    2  O2  UNL     1      30.885   6.702  39.145  1.00  0.00    -0.352 OA
HETATM    3  C2  UNL     1      30.769   6.313  37.810  1.00  0.00     0.185 C 
HETATM    4  C3  UNL     1      31.035   7.689  37.293  1.00  0.00     0.114 C 
HETATM    5  C4  UNL     1      29.776   8.484  37.073  1.00  0.00     0.119 A 
HETATM    6  C5  UNL     1      28.895   8.322  38.225  1.00  0.00     0.209 C 
HETATM    7  O3  UNL     1      29.510   8.988  39.314  1.00  0.00    -0.377 OA
HETATM    8  C6  UNL     1      30.860   9.161  39.156  1.00  0.00     0.186 C 
HETATM    9  C7  UNL     1      31.202  10.104  37.984  1.00  0.00     0.072 C 
HETATM   10  C8  UNL     1      30.045  10.009  37.082  1.00  0.00     0.162 A 
HETATM   11  O4  UNL     1      29.778   9.273  36.025  1.00  0.00    -0.366 OA
ENDROOT
BRANCH   1  12
HETATM   12  O1  UNL     1      32.892   7.868  38.777  1.00  0.00    -0.363 OA
ATOM     13  H1  UNL     1      33.355   8.227  38.028  1.00  0.00     0.213 HD
ENDBRANCH   1  12
TORSDOF 1
ENDMDL
MODEL 3
REMARK VINA RESULT: -5.276767601      1.227      2.950
REMARK  1 active torsions:
REMARK  status: ('A' for Active; 'I' for Inactive)
REMARK    1  A    between atoms: O1_1  and  C1_3 
ROOT
HETATM    1  C1  UNL     1      29.849   6.511  38.633  1.00  0.00     0.197 C 
HETATM    2  O2  UNL     1      30.866   5.773  39.159  1.00  0.00    -0.352 OA
HETATM    3  C2  UNL     1      30.773   6.530  40.327  1.00  0.00     0.185 C 
HETATM    4  C3  UNL     1      29.995   7.619  39.665  1.00  0.00     0.114 C 
HETATM    5  C4  UNL     1      30.871   8.722  39.132  1.00  0.00     0.119 A 
HETATM    6  C5  UNL     1      32.006   8.137  38.425  1.00  0.00     0.209 C 
HETATM    7  O3  UNL     1      31.496   7.534  37.249  1.00  0.00    -0.377 OA
HETATM    8  C6  UNL     1      30.158   7.244  37.320  1.00  0.00     0.186 C 
HETATM    9  C7  UNL     1      29.284   8.511  37.421  1.00  0.00     0.072 C 
HETATM   10  C8  UNL     1      30.168   9.526  38.010  1.00  0.00     0.162 A 
HETATM   11  O4  UNL     1      30.385   9.935  39.241  1.00  0.00    -0.366 OA
ENDROOT
BRANCH   1  12
HETATM   12  O1  UNL     1      28.575   5.980  38.677  1.00  0.00    -0.363 OA
ATOM     13  H1  UNL     1      27.941   6.392  39.252  1.00  0.00     0.213 HD
ENDBRANCH   1  12
TORSDOF 1
ENDMDL
MODEL 4
REMARK VINA RESULT: -5.274270344      1.200      3.306
REMARK  1 active torsions:
REMARK  status: ('A' for Active; 'I' for Inactive)
REMARK    1  A    between atoms: O1_1  and  C1_3 
ROOT
HETATM    1  C1  UNL     1      30.959   5.679  38.980  1.00  0.00     0.197 C 
HETATM    2  O2  UNL     1      32.319   5.656  39.061  1.00  0.00    -0.352 OA
HETATM    3  C2  UNL     1      32.234   6.412  40.231  1.00  0.00     0.185 C 
HETATM    4  C3  UNL     1      30.828   6.836  39.961  1.00  0.00     0.114 C 
HETATM    5  C4  UNL     1      30.744   8.144  39.222  1.00  0.00     0.119 A 
HETATM    6  C5  UNL     1      31.702   8.139  38.121  1.00  0.00     0.209 C 
HETATM    7  O3  UNL     1      31.233   7.201  37.169  1.00  0.00    -0.377 OA
HETATM    8  C6  UNL     1      30.371   6.274  37.693  1.00  0.00     0.186 C 
HETATM    9  C7  UNL     1      29.050   6.905  38.180  1.00  0.00     0.072 C 
HETATM   10  C8  UNL     1      29.395   8.303  38.479  1.00  0.00     0.162 A 
HETATM   11  O4  UNL     1      29.757   8.933  39.575  1.00  0.00    -0.366 OA
ENDROOT
BRANCH   1  12
HETATM   12  O1  UNL     1      30.265   4.579  39.442  1.00  0.00    -0.363 OA
ATOM     13  H1  UNL     1      29.334   4.531  39.262  1.00  0.00     0.213 HD
ENDBRANCH   1  12
TORSDOF 1
ENDMDL
MODEL 5
REMARK VINA RESULT: -5.253121847      7.224      8.492
REMARK  1 active torsions:
REMARK  status: ('A' for Active; 'I' for Inactive)
REMARK    1  A    between atoms: O1_1  and  C1_3 
ROOT
HETATM    1  C1  UNL     1      26.691   1.133  42.265  1.00  0.00     0.197 C 
HETATM    2  O2  UNL     1      25.966   2.270  42.457  1.00  0.00    -0.352 OA
HETATM    3  C2  UNL     1      26.933   2.973  41.736  1.00  0.00     0.185 C 
HETATM    4  C3  UNL     1      27.951   1.891  41.874  1.00  0.00     0.114 C 
HETATM    5  C4  UNL     1      28.844   2.078  43.072  1.00  0.00     0.119 A 
HETATM    6  C5  UNL     1      28.030   2.432  44.230  1.00  0.00     0.209 C 
HETATM    7  O3  UNL     1      27.273   1.284  44.570  1.00  0.00    -0.377 OA
HETATM    8  C6  UNL     1      27.134   0.395  43.536  1.00  0.00     0.186 C 
HETATM    9  C7  UNL     1      28.477  -0.236  43.115  1.00  0.00     0.072 C 
HETATM   10  C8  UNL     1      29.492   0.746  43.524  1.00  0.00     0.162 A 
HETATM   11  O4  UNL     1      30.099   1.735  42.904  1.00  0.00    -0.366 OA
ENDROOT
BRANCH   1  12
HETATM   12  O1  UNL     1      26.306   0.286  41.246  1.00  0.00    -0.363 OA
ATOM     13  H1  UNL     1      26.362   0.608  40.354  1.00  0.00     0.213 HD
ENDBRANCH   1  12
TORSDOF 1
ENDMDL
