MODEL 1
REMARK VINA RESULT: -5.700936716      0.000      0.000
REMARK  4 active torsions:
REMARK  status: ('A' for Active; 'I' for Inactive)
REMARK    1  A    between atoms: N1_1  and  C1_5 
REMARK    2  A    between atoms: C1_5  and  C2_6 
REMARK    3  A    between atoms: N2_7  and  C3_9 
REMARK    4  A    between atoms: C5_11  and  C6_12 
ROOT
HETATM    1  C3  UNL     1     -41.770   5.574  -1.887  1.00  0.00     0.120 A 
HETATM    2  C4  UNL     1     -42.546   5.189  -0.765  1.00  0.00     0.063 A 
HETATM    3  C5  UNL     1     -42.611   3.877  -0.385  1.00  0.00    -0.005 A 
HETATM    4  C12 UNL     1     -41.937   2.879  -1.062  1.00  0.00     0.119 A 
HETATM    5  N3  UNL     1     -41.216   3.280  -2.115  1.00  0.00    -0.309 N 
ATOM      6  H3  UNL     1     -40.700   2.579  -2.646  1.00  0.00     0.186 HD
HETATM    7  N4  UNL     1     -41.140   4.564  -2.504  1.00  0.00    -0.286 N 
ATOM      8  H4  UNL     1     -40.567   4.783  -3.319  1.00  0.00     0.188 HD
ENDROOT
BRANCH   1   9
HETATM    9  N2  UNL     1     -41.716   6.771  -2.225  1.00  0.00    -0.353 N 
HETATM   10  C2  UNL     1     -42.372   7.941  -2.413  1.00  0.00     0.089 C 
ATOM     11  H2  UNL     1     -40.742   6.951  -2.471  1.00  0.00     0.166 HD
BRANCH  10  12
HETATM   12  C1  UNL     1     -43.615   8.227  -1.610  1.00  0.00     0.274 C 
BRANCH  12  13
HETATM   13  N1  UNL     1     -43.419   9.164  -0.549  1.00  0.00    -0.075 N 
ATOM     14  H13 UNL     1     -42.564   8.950  -0.035  1.00  0.00     0.274 HD
ATOM     15  H12 UNL     1     -43.172  10.081  -0.921  1.00  0.00     0.274 HD
ATOM     16  H11 UNL     1     -44.211   9.239   0.091  1.00  0.00     0.274 HD
ENDBRANCH  12  13
ENDBRANCH  10  12
ENDBRANCH   1   9
BRANCH   3  17
HETATM   17  C6  UNL     1     -43.410   3.500   0.766  1.00  0.00    -0.025 A 
HETATM   18  C7  UNL     1     -43.588   4.329   1.843  1.00  0.00     0.012 A 
HETATM   19  C8  UNL     1     -44.350   3.956   2.929  1.00  0.00     0.001 A 
HETATM   20  C9  UNL     1     -44.962   2.729   2.969  1.00  0.00     0.000 A 
HETATM   21  C10 UNL     1     -44.799   1.877   1.897  1.00  0.00     0.001 A 
HETATM   22  C11 UNL     1     -44.023   2.268   0.801  1.00  0.00     0.012 A 
ENDBRANCH   3  17
TORSDOF 4
ENDMDL
MODEL 2
REMARK VINA RESULT: -5.685680356      1.957      3.801
REMARK  4 active torsions:
REMARK  status: ('A' for Active; 'I' for Inactive)
REMARK    1  A    between atoms: N1_1  and  C1_5 
REMARK    2  A    between atoms: C1_5  and  C2_6 
REMARK    3  A    between atoms: N2_7  and  C3_9 
REMARK    4  A    between atoms: C5_11  and  C6_12 
ROOT
HETATM    1  C3  UNL     1     -41.879   6.825  -2.709  1.00  0.00     0.120 A 
HETATM    2  C4  UNL     1     -42.405   6.020  -1.668  1.00  0.00     0.063 A 
HETATM    3  C5  UNL     1     -43.279   6.548  -0.759  1.00  0.00    -0.005 A 
HETATM    4  C12 UNL     1     -43.687   7.867  -0.807  1.00  0.00     0.119 A 
HETATM    5  N3  UNL     1     -43.170   8.595  -1.804  1.00  0.00    -0.309 N 
ATOM      6  H3  UNL     1     -43.442   9.575  -1.882  1.00  0.00     0.186 HD
HETATM    7  N4  UNL     1     -42.310   8.095  -2.706  1.00  0.00    -0.286 N 
ATOM      8  H4  UNL     1     -41.963   8.720  -3.434  1.00  0.00     0.188 HD
ENDROOT
BRANCH   1   9
HETATM    9  N2  UNL     1     -41.085   6.335  -3.533  1.00  0.00    -0.353 N 
HETATM   10  C2  UNL     1     -40.825   5.359  -4.435  1.00  0.00     0.089 C 
ATOM     11  H2  UNL     1     -40.262   6.939  -3.526  1.00  0.00     0.166 HD
BRANCH  10  12
HETATM   12  C1  UNL     1     -41.970   4.683  -5.144  1.00  0.00     0.274 C 
BRANCH  12  13
HETATM   13  N1  UNL     1     -41.644   4.201  -6.448  1.00  0.00    -0.075 N 
ATOM     14  H13 UNL     1     -41.184   3.292  -6.390  1.00  0.00     0.274 HD
ATOM     15  H12 UNL     1     -42.489   3.934  -6.953  1.00  0.00     0.274 HD
ATOM     16  H11 UNL     1     -41.086   4.850  -7.004  1.00  0.00     0.274 HD
ENDBRANCH  12  13
ENDBRANCH  10  12
ENDBRANCH   1   9
BRANCH   3  17
HETATM   17  C6  UNL     1     -43.808   5.711   0.303  1.00  0.00    -0.025 A 
HETATM   18  C7  UNL     1     -43.295   4.472   0.588  1.00  0.00     0.012 A 
HETATM   19  C8  UNL     1     -43.807   3.688   1.599  1.00  0.00     0.001 A 
HETATM   20  C9  UNL     1     -44.860   4.126   2.361  1.00  0.00     0.000 A 
HETATM   21  C10 UNL     1     -45.394   5.369   2.094  1.00  0.00     0.001 A 
HETATM   22  C11 UNL     1     -44.864   6.155   1.065  1.00  0.00     0.012 A 
ENDBRANCH   3  17
TORSDOF 4
ENDMDL
MODEL 3
REMARK VINA RESULT: -5.685292124      0.036      1.179
REMARK  4 active torsions:
REMARK  status: ('A' for Active; 'I' for Inactive)
REMARK    1  A    between atoms: N1_1  and  C1_5 
REMARK    2  A    between atoms: C1_5  and  C2_6 
REMARK    3  A    between atoms: N2_7  and  C3_9 
REMARK    4  A    between atoms: C5_11  and  C6_12 
ROOT
HETATM    1  C3  UNL     1     -41.770   5.556  -1.880  1.00  0.00     0.120 A 
HETATM    2  C4  UNL     1     -42.546   5.161  -0.761  1.00  0.00     0.063 A 
HETATM    3  C5  UNL     1     -42.618   3.846  -0.397  1.00  0.00    -0.005 A 
HETATM    4  C12 UNL     1     -41.951   2.852  -1.087  1.00  0.00     0.119 A 
HETATM    5  N3  UNL     1     -41.229   3.262  -2.136  1.00  0.00    -0.309 N 
ATOM      6  H3  UNL     1     -40.718   2.565  -2.677  1.00  0.00     0.186 HD
HETATM    7  N4  UNL     1     -41.146   4.549  -2.510  1.00  0.00    -0.286 N 
ATOM      8  H4  UNL     1     -40.574   4.775  -3.324  1.00  0.00     0.188 HD
ENDROOT
BRANCH   1   9
HETATM    9  N2  UNL     1     -41.710   6.756  -2.204  1.00  0.00    -0.353 N 
HETATM   10  C2  UNL     1     -42.361   7.930  -2.383  1.00  0.00     0.089 C 
ATOM     11  H2  UNL     1     -40.733   6.936  -2.438  1.00  0.00     0.166 HD
BRANCH  10  12
HETATM   12  C1  UNL     1     -43.610   8.211  -1.588  1.00  0.00     0.274 C 
BRANCH  12  13
HETATM   13  N1  UNL     1     -43.434   9.178  -0.550  1.00  0.00    -0.075 N 
ATOM     14  H13 UNL     1     -43.744   8.801   0.346  1.00  0.00     0.274 HD
ATOM     15  H12 UNL     1     -42.443   9.311  -0.349  1.00  0.00     0.274 HD
ATOM     16  H11 UNL     1     -43.885  10.074  -0.737  1.00  0.00     0.274 HD
ENDBRANCH  12  13
ENDBRANCH  10  12
ENDBRANCH   1   9
BRANCH   3  17
HETATM   17  C6  UNL     1     -43.417   3.459   0.751  1.00  0.00    -0.025 A 
HETATM   18  C7  UNL     1     -44.072   2.256   0.820  1.00  0.00     0.012 A 
HETATM   19  C8  UNL     1     -44.828   1.901   1.916  1.00  0.00     0.001 A 
HETATM   20  C9  UNL     1     -44.953   2.751   2.986  1.00  0.00     0.000 A 
HETATM   21  C10 UNL     1     -44.304   3.967   2.940  1.00  0.00     0.001 A 
HETATM   22  C11 UNL     1     -43.540   4.314   1.822  1.00  0.00     0.012 A 
ENDBRANCH   3  17
TORSDOF 4
ENDMDL
MODEL 4
REMARK VINA RESULT: -5.662970770      1.986      3.805
REMARK  4 active torsions:
REMARK  status: ('A' for Active; 'I' for Inactive)
REMARK    1  A    between atoms: N1_1  and  C1_5 
REMARK    2  A    between atoms: C1_5  and  C2_6 
REMARK    3  A    between atoms: N2_7  and  C3_9 
REMARK    4  A    between atoms: C5_11  and  C6_12 
ROOT
HETATM    1  C3  UNL     1     -42.503   6.066  -3.581  1.00  0.00     0.120 A 
HETATM    2  C4  UNL     1     -43.005   5.518  -2.374  1.00  0.00     0.063 A 
HETATM    3  C5  UNL     1     -43.124   6.297  -1.257  1.00  0.00    -0.005 A 
HETATM    4  C12 UNL     1     -42.769   7.631  -1.247  1.00  0.00     0.119 A 
HETATM    5  N3  UNL     1     -42.301   8.114  -2.404  1.00  0.00    -0.309 N 
ATOM      6  H3  UNL     1     -42.027   9.095  -2.446  1.00  0.00     0.186 HD
HETATM    7  N4  UNL     1     -42.176   7.365  -3.512  1.00  0.00    -0.286 N 
ATOM      8  H4  UNL     1     -41.809   7.812  -4.352  1.00  0.00     0.188 HD
ENDROOT
BRANCH   1   9
HETATM    9  N2  UNL     1     -42.400   5.350  -4.594  1.00  0.00    -0.353 N 
HETATM   10  C2  UNL     1     -41.679   4.431  -5.280  1.00  0.00     0.089 C 
ATOM     11  H2  UNL     1     -43.227   5.541  -5.160  1.00  0.00     0.166 HD
BRANCH  10  12
HETATM   12  C1  UNL     1     -40.772   3.492  -4.528  1.00  0.00     0.274 C 
BRANCH  12  13
HETATM   13  N1  UNL     1     -41.459   2.449  -3.834  1.00  0.00    -0.075 N 
ATOM     14  H13 UNL     1     -41.896   1.806  -4.495  1.00  0.00     0.274 HD
ATOM     15  H12 UNL     1     -40.795   1.815  -3.390  1.00  0.00     0.274 HD
ATOM     16  H11 UNL     1     -42.144   2.783  -3.155  1.00  0.00     0.274 HD
ENDBRANCH  12  13
ENDBRANCH  10  12
ENDBRANCH   1   9
BRANCH   3  17
HETATM   17  C6  UNL     1     -43.638   5.720  -0.028  1.00  0.00    -0.025 A 
HETATM   18  C7  UNL     1     -44.617   6.326   0.717  1.00  0.00     0.012 A 
HETATM   19  C8  UNL     1     -45.095   5.767   1.882  1.00  0.00     0.001 A 
HETATM   20  C9  UNL     1     -44.601   4.571   2.340  1.00  0.00     0.000 A 
HETATM   21  C10 UNL     1     -43.616   3.942   1.608  1.00  0.00     0.001 A 
HETATM   22  C11 UNL     1     -43.141   4.520   0.428  1.00  0.00     0.012 A 
ENDBRANCH   3  17
TORSDOF 4
ENDMDL
MODEL 5
REMARK VINA RESULT: -5.514421515      2.468      3.611
REMARK  4 active torsions:
REMARK  status: ('A' for Active; 'I' for Inactive)
REMARK    1  A    between atoms: N1_1  and  C1_5 
REMARK    2  A    between atoms: C1_5  and  C2_6 
REMARK    3  A    between atoms: N2_7  and  C3_9 
REMARK    4  A    between atoms: C5_11  and  C6_12 
ROOT
HETATM    1  C3  UNL     1     -42.656   7.774  -1.422  1.00  0.00     0.120 A 
HETATM    2  C4  UNL     1     -42.433   6.423  -1.055  1.00  0.00     0.063 A 
HETATM    3  C5  UNL     1     -41.910   5.538  -1.955  1.00  0.00    -0.005 A 
HETATM    4  C12 UNL     1     -41.580   5.906  -3.245  1.00  0.00     0.119 A 
HETATM    5  N3  UNL     1     -41.804   7.189  -3.555  1.00  0.00    -0.309 N 
ATOM      6  H3  UNL     1     -41.575   7.509  -4.496  1.00  0.00     0.186 HD
HETATM    7  N4  UNL     1     -42.317   8.073  -2.684  1.00  0.00    -0.286 N 
ATOM      8  H4  UNL     1     -42.457   9.032  -3.003  1.00  0.00     0.188 HD
ENDROOT
BRANCH   1   9
HETATM    9  N2  UNL     1     -43.131   8.574  -0.594  1.00  0.00    -0.353 N 
HETATM   10  C2  UNL     1     -44.064   9.514  -0.313  1.00  0.00     0.089 C 
ATOM     11  H2  UNL     1     -42.564   8.477   0.248  1.00  0.00     0.166 HD
BRANCH  10  12
HETATM   12  C1  UNL     1     -45.386   9.484  -1.036  1.00  0.00     0.274 C 
BRANCH  12  13
HETATM   13  N1  UNL     1     -46.107  10.716  -0.982  1.00  0.00    -0.075 N 
ATOM     14  H13 UNL     1     -46.482  10.871  -0.046  1.00  0.00     0.274 HD
ATOM     15  H12 UNL     1     -45.468  11.508  -1.046  1.00  0.00     0.274 HD
ATOM     16  H11 UNL     1     -46.846  10.795  -1.681  1.00  0.00     0.274 HD
ENDBRANCH  12  13
ENDBRANCH  10  12
ENDBRANCH   1   9
BRANCH   3  17
HETATM   17  C6  UNL     1     -41.689   4.158  -1.564  1.00  0.00    -0.025 A 
HETATM   18  C7  UNL     1     -40.523   3.492  -1.841  1.00  0.00     0.012 A 
HETATM   19  C8  UNL     1     -40.327   2.182  -1.464  1.00  0.00     0.001 A 
HETATM   20  C9  UNL     1     -41.303   1.492  -0.790  1.00  0.00     0.000 A 
HETATM   21  C10 UNL     1     -42.486   2.140  -0.500  1.00  0.00     0.001 A 
HETATM   22  C11 UNL     1     -42.671   3.470  -0.889  1.00  0.00     0.012 A 
ENDBRANCH   3  17
TORSDOF 4
ENDMDL
