MODEL 1
REMARK VINA RESULT: -5.814810827      0.000      0.000
REMARK  5 active torsions:
REMARK  status: ('A' for Active; 'I' for Inactive)
REMARK       I    between atoms: N1_2  and  C2_4 
REMARK    1  A    between atoms: C2_4  and  C3_6 
REMARK    2  A    between atoms: C3_6  and  N2_7 
REMARK    3  A    between atoms: C3_6  and  C6_12 
REMARK       I    between atoms: N2_7  and  C4_9 
REMARK       I    between atoms: C6_12  and  N3_14 
REMARK    4  A    between atoms: N3_14  and  C7_16 
REMARK    5  A    between atoms: N4_23  and  O5_25 
ROOT
HETATM    1  C6  UNL     1      13.738 -16.572  -9.085  1.00  0.00     0.250 C 
HETATM    2  O3  UNL     1      14.245 -15.687  -9.858  1.00  0.00    -0.271 OA
HETATM    3  N3  UNL     1      13.563 -16.237  -7.741  1.00  0.00    -0.347 N 
ATOM      4  H3  UNL     1      13.159 -16.915  -7.095  1.00  0.00     0.163 HD
ENDROOT
BRANCH   1   5
HETATM    5  C3  UNL     1      13.385 -17.864  -9.714  1.00  0.00     0.269 C 
BRANCH   5   6
HETATM    6  C2  UNL     1      14.568 -18.734  -9.754  1.00  0.00     0.249 C 
HETATM    7  N1  UNL     1      14.775 -19.800 -10.632  1.00  0.00    -0.363 N 
HETATM    8  C1  UNL     1      16.018 -20.565 -10.536  1.00  0.00     0.149 C 
ATOM      9  H1  UNL     1      14.071 -20.041 -11.329  1.00  0.00     0.162 HD
HETATM   10  O1  UNL     1      15.491 -18.487  -8.896  1.00  0.00    -0.271 OA
ENDBRANCH   5   6
BRANCH   5  11
HETATM   11  N2  UNL     1      12.369 -18.517  -8.866  1.00  0.00    -0.340 N 
HETATM   12  C4  UNL     1      11.021 -18.686  -9.271  1.00  0.00     0.214 C 
HETATM   13  C5  UNL     1       9.972 -19.326  -8.464  1.00  0.00     0.117 C 
HETATM   14  O2  UNL     1      10.690 -18.249 -10.424  1.00  0.00    -0.274 OA
ATOM     15  H2  UNL     1      12.649 -18.861  -7.948  1.00  0.00     0.163 HD
ENDBRANCH   5  11
ENDBRANCH   1   5
BRANCH   3  16
HETATM   16  C7  UNL     1      13.961 -14.911  -7.258  1.00  0.00     0.164 C 
HETATM   17  C8  UNL     1      12.702 -14.012  -7.273  1.00  0.00     0.071 C 
HETATM   18  C9  UNL     1      12.948 -13.031  -6.161  1.00  0.00     0.064 C 
HETATM   19  C10 UNL     1      13.590 -11.779  -6.736  1.00  0.00     0.046 C 
HETATM   20  C11 UNL     1      11.661 -12.640  -5.461  1.00  0.00     0.046 C 
HETATM   21  O4  UNL     1      13.765 -13.710  -5.259  1.00  0.00    -0.326 OA
HETATM   22  C12 UNL     1      14.255 -14.864  -5.819  1.00  0.00     0.162 C 
HETATM   23  N4  UNL     1      14.895 -15.766  -5.109  1.00  0.00    -0.249 N 
ATOM     24  H4  UNL     1      15.244 -16.608  -5.567  1.00  0.00     0.196 HD
BRANCH  23  25
HETATM   25  O5  UNL     1      15.102 -15.598  -3.773  1.00  0.00    -0.288 OA
ATOM     26  H5  UNL     1      14.375 -15.552  -3.164  1.00  0.00     0.244 HD
ENDBRANCH  23  25
ENDBRANCH   3  16
TORSDOF 5
ENDMDL
MODEL 2
REMARK VINA RESULT: -5.512275901      1.907      2.580
REMARK  5 active torsions:
REMARK  status: ('A' for Active; 'I' for Inactive)
REMARK       I    between atoms: N1_2  and  C2_4 
REMARK    1  A    between atoms: C2_4  and  C3_6 
REMARK    2  A    between atoms: C3_6  and  N2_7 
REMARK    3  A    between atoms: C3_6  and  C6_12 
REMARK       I    between atoms: N2_7  and  C4_9 
REMARK       I    between atoms: C6_12  and  N3_14 
REMARK    4  A    between atoms: N3_14  and  C7_16 
REMARK    5  A    between atoms: N4_23  and  O5_25 
ROOT
HETATM    1  C6  UNL     1      13.350 -15.454  -8.053  1.00  0.00     0.250 C 
HETATM    2  O3  UNL     1      14.317 -15.733  -7.264  1.00  0.00    -0.271 OA
HETATM    3  N3  UNL     1      12.732 -14.209  -7.909  1.00  0.00    -0.347 N 
ATOM      4  H3  UNL     1      11.959 -13.950  -8.522  1.00  0.00     0.163 HD
ENDROOT
BRANCH   1   5
HETATM    5  C3  UNL     1      12.994 -16.493  -9.044  1.00  0.00     0.269 C 
BRANCH   5   6
HETATM    6  C2  UNL     1      14.216 -17.042  -9.645  1.00  0.00     0.249 C 
HETATM    7  N1  UNL     1      14.794 -18.278  -9.349  1.00  0.00    -0.363 N 
HETATM    8  C1  UNL     1      16.017 -18.674 -10.047  1.00  0.00     0.149 C 
ATOM      9  H1  UNL     1      14.371 -18.896  -8.656  1.00  0.00     0.162 HD
HETATM   10  O1  UNL     1      14.803 -16.311 -10.522  1.00  0.00    -0.271 OA
ENDBRANCH   5   6
BRANCH   5  11
HETATM   11  N2  UNL     1      12.308 -17.586  -8.327  1.00  0.00    -0.340 N 
HETATM   12  C4  UNL     1      11.286 -18.372  -8.915  1.00  0.00     0.214 C 
HETATM   13  C5  UNL     1      10.573 -19.468  -8.244  1.00  0.00     0.117 C 
HETATM   14  O2  UNL     1      10.958 -18.109 -10.121  1.00  0.00    -0.274 OA
ATOM     15  H2  UNL     1      12.582 -17.784  -7.364  1.00  0.00     0.163 HD
ENDBRANCH   5  11
ENDBRANCH   1   5
BRANCH   3  16
HETATM   16  C7  UNL     1      13.195 -13.277  -6.877  1.00  0.00     0.164 C 
HETATM   17  C8  UNL     1      13.643 -11.979  -7.589  1.00  0.00     0.071 C 
HETATM   18  C9  UNL     1      13.386 -10.904  -6.570  1.00  0.00     0.064 C 
HETATM   19  C10 UNL     1      14.659 -10.657  -5.777  1.00  0.00     0.046 C 
HETATM   20  C11 UNL     1      12.960  -9.602  -7.221  1.00  0.00     0.046 C 
HETATM   21  O4  UNL     1      12.334 -11.388  -5.796  1.00  0.00    -0.326 OA
HETATM   22  C12 UNL     1      12.116 -12.720  -6.050  1.00  0.00     0.162 C 
HETATM   23  N4  UNL     1      11.063 -13.354  -5.585  1.00  0.00    -0.249 N 
ATOM     24  H4  UNL     1      10.941 -14.344  -5.797  1.00  0.00     0.196 HD
BRANCH  23  25
HETATM   25  O5  UNL     1      10.131 -12.715  -4.824  1.00  0.00    -0.288 OA
ATOM     26  H5  UNL     1       9.752 -13.129  -4.058  1.00  0.00     0.244 HD
ENDBRANCH  23  25
ENDBRANCH   3  16
TORSDOF 5
ENDMDL
MODEL 3
REMARK VINA RESULT: -5.495025494      1.575      2.867
REMARK  5 active torsions:
REMARK  status: ('A' for Active; 'I' for Inactive)
REMARK       I    between atoms: N1_2  and  C2_4 
REMARK    1  A    between atoms: C2_4  and  C3_6 
REMARK    2  A    between atoms: C3_6  and  N2_7 
REMARK    3  A    between atoms: C3_6  and  C6_12 
REMARK       I    between atoms: N2_7  and  C4_9 
REMARK       I    between atoms: C6_12  and  N3_14 
REMARK    4  A    between atoms: N3_14  and  C7_16 
REMARK    5  A    between atoms: N4_23  and  O5_25 
ROOT
HETATM    1  C6  UNL     1      13.993 -16.461  -9.186  1.00  0.00     0.250 C 
HETATM    2  O3  UNL     1      14.609 -15.568  -9.864  1.00  0.00    -0.271 OA
HETATM    3  N3  UNL     1      13.617 -16.141  -7.880  1.00  0.00    -0.347 N 
ATOM      4  H3  UNL     1      13.121 -16.827  -7.309  1.00  0.00     0.163 HD
ENDROOT
BRANCH   1   5
HETATM    5  C3  UNL     1      13.741 -17.746  -9.875  1.00  0.00     0.269 C 
BRANCH   5   6
HETATM    6  C2  UNL     1      12.424 -18.266  -9.485  1.00  0.00     0.249 C 
HETATM    7  N1  UNL     1      11.332 -18.457 -10.334  1.00  0.00    -0.363 N 
HETATM    8  C1  UNL     1      10.088 -18.990  -9.779  1.00  0.00     0.149 C 
ATOM      9  H1  UNL     1      11.400 -18.228 -11.326  1.00  0.00     0.162 HD
HETATM   10  O1  UNL     1      12.269 -18.568  -8.247  1.00  0.00    -0.271 OA
ENDBRANCH   5   6
BRANCH   5  11
HETATM   11  N2  UNL     1      13.717 -17.484 -11.327  1.00  0.00    -0.340 N 
HETATM   12  C4  UNL     1      14.522 -18.194 -12.252  1.00  0.00     0.214 C 
HETATM   13  C5  UNL     1      14.535 -17.970 -13.705  1.00  0.00     0.117 C 
HETATM   14  O2  UNL     1      15.297 -19.098 -11.791  1.00  0.00    -0.274 OA
ATOM     15  H2  UNL     1      13.092 -16.759 -11.681  1.00  0.00     0.163 HD
ENDBRANCH   5  11
ENDBRANCH   1   5
BRANCH   3  16
HETATM   16  C7  UNL     1      13.935 -14.821  -7.329  1.00  0.00     0.164 C 
HETATM   17  C8  UNL     1      12.644 -13.971  -7.377  1.00  0.00     0.071 C 
HETATM   18  C9  UNL     1      12.793 -13.025  -6.218  1.00  0.00     0.064 C 
HETATM   19  C10 UNL     1      13.412 -11.728  -6.712  1.00  0.00     0.046 C 
HETATM   20  C11 UNL     1      11.456 -12.711  -5.575  1.00  0.00     0.046 C 
HETATM   21  O4  UNL     1      13.587 -13.707  -5.299  1.00  0.00    -0.326 OA
HETATM   22  C12 UNL     1      14.153 -14.818  -5.875  1.00  0.00     0.162 C 
HETATM   23  N4  UNL     1      14.790 -15.722  -5.165  1.00  0.00    -0.249 N 
ATOM     24  H4  UNL     1      15.196 -16.532  -5.634  1.00  0.00     0.196 HD
BRANCH  23  25
HETATM   25  O5  UNL     1      14.921 -15.598  -3.815  1.00  0.00    -0.288 OA
ATOM     26  H5  UNL     1      15.524 -16.145  -3.326  1.00  0.00     0.244 HD
ENDBRANCH  23  25
ENDBRANCH   3  16
TORSDOF 5
ENDMDL
MODEL 4
REMARK VINA RESULT: -5.363719955      2.136      6.442
REMARK  5 active torsions:
REMARK  status: ('A' for Active; 'I' for Inactive)
REMARK       I    between atoms: N1_2  and  C2_4 
REMARK    1  A    between atoms: C2_4  and  C3_6 
REMARK    2  A    between atoms: C3_6  and  N2_7 
REMARK    3  A    between atoms: C3_6  and  C6_12 
REMARK       I    between atoms: N2_7  and  C4_9 
REMARK       I    between atoms: C6_12  and  N3_14 
REMARK    4  A    between atoms: N3_14  and  C7_16 
REMARK    5  A    between atoms: N4_23  and  O5_25 
ROOT
HETATM    1  C6  UNL     1      14.006 -14.910  -8.828  1.00  0.00     0.250 C 
HETATM    2  O3  UNL     1      14.215 -14.637 -10.060  1.00  0.00    -0.271 OA
HETATM    3  N3  UNL     1      13.689 -16.230  -8.499  1.00  0.00    -0.347 N 
ATOM      4  H3  UNL     1      13.520 -16.487  -7.526  1.00  0.00     0.163 HD
ENDROOT
BRANCH   1   5
HETATM    5  C3  UNL     1      14.132 -13.783  -7.878  1.00  0.00     0.269 C 
BRANCH   5   6
HETATM    6  C2  UNL     1      14.829 -12.665  -8.527  1.00  0.00     0.249 C 
HETATM    7  N1  UNL     1      14.323 -11.863  -9.552  1.00  0.00    -0.363 N 
HETATM    8  C1  UNL     1      15.155 -10.785 -10.085  1.00  0.00     0.149 C 
ATOM      9  H1  UNL     1      13.387 -12.028  -9.924  1.00  0.00     0.162 HD
HETATM   10  O1  UNL     1      16.016 -12.409  -8.109  1.00  0.00    -0.271 OA
ENDBRANCH   5   6
BRANCH   5  11
HETATM   11  N2  UNL     1      12.770 -13.330  -7.531  1.00  0.00    -0.340 N 
HETATM   12  C4  UNL     1      12.315 -13.211  -6.195  1.00  0.00     0.214 C 
HETATM   13  C5  UNL     1      10.971 -12.768  -5.798  1.00  0.00     0.117 C 
HETATM   14  O2  UNL     1      13.133 -13.512  -5.262  1.00  0.00    -0.274 OA
ATOM     15  H2  UNL     1      12.129 -13.093  -8.288  1.00  0.00     0.163 HD
ENDBRANCH   5  11
ENDBRANCH   1   5
BRANCH   3  16
HETATM   16  C7  UNL     1      13.600 -17.246  -9.552  1.00  0.00     0.164 C 
HETATM   17  C8  UNL     1      14.963 -17.974  -9.615  1.00  0.00     0.071 C 
HETATM   18  C9  UNL     1      14.611 -19.356 -10.089  1.00  0.00     0.064 C 
HETATM   19  C10 UNL     1      14.751 -19.413 -11.601  1.00  0.00     0.046 C 
HETATM   20  C11 UNL     1      15.516 -20.409  -9.478  1.00  0.00     0.046 C 
HETATM   21  O4  UNL     1      13.308 -19.567  -9.643  1.00  0.00    -0.326 OA
HETATM   22  C12 UNL     1      12.748 -18.391  -9.205  1.00  0.00     0.162 C 
HETATM   23  N4  UNL     1      11.599 -18.363  -8.567  1.00  0.00    -0.249 N 
ATOM     24  H4  UNL     1      11.219 -17.467  -8.261  1.00  0.00     0.196 HD
BRANCH  23  25
HETATM   25  O5  UNL     1      10.905 -19.506  -8.307  1.00  0.00    -0.288 OA
ATOM     26  H5  UNL     1      10.027 -19.478  -7.949  1.00  0.00     0.244 HD
ENDBRANCH  23  25
ENDBRANCH   3  16
TORSDOF 5
ENDMDL
MODEL 5
REMARK VINA RESULT: -5.245839137      1.360      3.303
REMARK  5 active torsions:
REMARK  status: ('A' for Active; 'I' for Inactive)
REMARK       I    between atoms: N1_2  and  C2_4 
REMARK    1  A    between atoms: C2_4  and  C3_6 
REMARK    2  A    between atoms: C3_6  and  N2_7 
REMARK    3  A    between atoms: C3_6  and  C6_12 
REMARK       I    between atoms: N2_7  and  C4_9 
REMARK       I    between atoms: C6_12  and  N3_14 
REMARK    4  A    between atoms: N3_14  and  C7_16 
REMARK    5  A    between atoms: N4_23  and  O5_25 
ROOT
HETATM    1  C6  UNL     1      13.289 -17.211  -9.105  1.00  0.00     0.250 C 
HETATM    2  O3  UNL     1      13.920 -16.770 -10.127  1.00  0.00    -0.271 OA
HETATM    3  N3  UNL     1      13.000 -16.307  -8.079  1.00  0.00    -0.347 N 
ATOM      4  H3  UNL     1      12.495 -16.621  -7.250  1.00  0.00     0.163 HD
ENDROOT
BRANCH   1   5
HETATM    5  C3  UNL     1      12.927 -18.645  -9.128  1.00  0.00     0.269 C 
BRANCH   5   6
HETATM    6  C2  UNL     1      11.493 -18.790  -9.408  1.00  0.00     0.249 C 
HETATM    7  N1  UNL     1      10.522 -19.244  -8.512  1.00  0.00    -0.363 N 
HETATM    8  C1  UNL     1       9.131 -19.324  -8.956  1.00  0.00     0.149 C 
ATOM      9  H1  UNL     1      10.780 -19.516  -7.563  1.00  0.00     0.162 HD
HETATM   10  O1  UNL     1      11.103 -18.470 -10.588  1.00  0.00    -0.271 OA
ENDBRANCH   5   6
BRANCH   5  11
HETATM   11  N2  UNL     1      13.673 -19.282 -10.232  1.00  0.00    -0.340 N 
HETATM   12  C4  UNL     1      14.903 -19.959 -10.042  1.00  0.00     0.214 C 
HETATM   13  C5  UNL     1      15.683 -20.606 -11.106  1.00  0.00     0.117 C 
HETATM   14  O2  UNL     1      15.371 -20.012  -8.855  1.00  0.00    -0.274 OA
ATOM     15  H2  UNL     1      13.285 -19.231 -11.174  1.00  0.00     0.163 HD
ENDBRANCH   5  11
ENDBRANCH   1   5
BRANCH   3  16
HETATM   16  C7  UNL     1      13.423 -14.909  -8.195  1.00  0.00     0.164 C 
HETATM   17  C8  UNL     1      12.192 -14.085  -8.640  1.00  0.00     0.071 C 
HETATM   18  C9  UNL     1      12.436 -12.726  -8.045  1.00  0.00     0.064 C 
HETATM   19  C10 UNL     1      13.129 -11.850  -9.076  1.00  0.00     0.046 C 
HETATM   20  C11 UNL     1      11.141 -12.054  -7.628  1.00  0.00     0.046 C 
HETATM   21  O4  UNL     1      13.207 -12.965  -6.909  1.00  0.00    -0.326 OA
HETATM   22  C12 UNL     1      13.679 -14.254  -6.904  1.00  0.00     0.162 C 
HETATM   23  N4  UNL     1      14.272 -14.775  -5.853  1.00  0.00    -0.249 N 
ATOM     24  H4  UNL     1      14.609 -15.737  -5.894  1.00  0.00     0.196 HD
BRANCH  23  25
HETATM   25  O5  UNL     1      14.447 -14.054  -4.711  1.00  0.00    -0.288 OA
ATOM     26  H5  UNL     1      14.201 -14.406  -3.864  1.00  0.00     0.244 HD
ENDBRANCH  23  25
ENDBRANCH   3  16
TORSDOF 5
ENDMDL
