MODEL 1
REMARK VINA RESULT: -5.736713494      0.000      0.000
REMARK  6 active torsions:
REMARK  status: ('A' for Active; 'I' for Inactive)
REMARK    1  A    between atoms: N1_2  and  C4_5 
REMARK    2  A    between atoms: C4_5  and  C5_6 
REMARK    3  A    between atoms: C5_6  and  C6_7 
REMARK    4  A    between atoms: C6_7  and  N2_8 
REMARK    5  A    between atoms: N2_8  and  C7_10 
REMARK    6  A    between atoms: C10_15  and  N4_16 
ROOT
HETATM    1  C7  UNL     1       3.828  23.885  16.928  1.00  0.00     0.118 A 
HETATM    2  C8  UNL     1       4.582  24.842  16.316  1.00  0.00     0.066 A 
HETATM    3  C9  UNL     1       4.546  24.982  14.946  1.00  0.00     0.110 A 
HETATM    4  N3  UNL     1       3.764  24.172  14.212  1.00  0.00    -0.202 N 
ATOM      5  H3  UNL     1       3.733  24.270  13.198  1.00  0.00     0.183 HD
HETATM    6  C10 UNL     1       3.021  23.228  14.823  1.00  0.00     0.677 A 
HETATM    7  N5  UNL     1       3.054  23.089  16.144  1.00  0.00    -0.177 N 
ATOM      8  H5  UNL     1       2.482  22.366  16.582  1.00  0.00     0.185 HD
ENDROOT
BRANCH   1   9
HETATM    9  N2  UNL     1       3.821  23.707  18.194  1.00  0.00    -0.376 N 
ATOM     10  H2  UNL     1       4.709  23.775  18.690  1.00  0.00     0.161 HD
BRANCH   9  11
HETATM   11  C6  UNL     1       2.639  23.416  18.965  1.00  0.00     0.123 C 
BRANCH  11  12
HETATM   12  C5  UNL     1       2.700  22.026  19.601  1.00  0.00     0.047 C 
BRANCH  12  13
HETATM   13  C4  UNL     1       3.093  22.201  21.020  1.00  0.00     0.237 C 
BRANCH  13  14
HETATM   14  N1  UNL     1       4.116  21.337  21.503  1.00  0.00    -0.079 N 
HETATM   15  C1  UNL     1       3.939  21.216  22.954  1.00  0.00     0.271 C 
HETATM   16  C2  UNL     1       3.937  20.005  20.963  1.00  0.00     0.271 C 
HETATM   17  C3  UNL     1       5.453  21.751  21.265  1.00  0.00     0.271 C 
ENDBRANCH  13  14
ENDBRANCH  12  13
ENDBRANCH  11  12
ENDBRANCH   9  11
ENDBRANCH   1   9
BRANCH   6  18
HETATM   18  N4  UNL     1       2.288  22.479  14.056  1.00  0.00    -0.234 N 
ATOM     19  H42 UNL     1       2.519  21.507  13.851  1.00  0.00     0.174 HD
ATOM     20  H41 UNL     1       1.455  22.911  13.658  1.00  0.00     0.174 HD
ENDBRANCH   6  18
TORSDOF 6
ENDMDL
MODEL 2
REMARK VINA RESULT: -5.731385717      0.059      1.038
REMARK  6 active torsions:
REMARK  status: ('A' for Active; 'I' for Inactive)
REMARK    1  A    between atoms: N1_2  and  C4_5 
REMARK    2  A    between atoms: C4_5  and  C5_6 
REMARK    3  A    between atoms: C5_6  and  C6_7 
REMARK    4  A    between atoms: C6_7  and  N2_8 
REMARK    5  A    between atoms: N2_8  and  C7_10 
REMARK    6  A    between atoms: C10_15  and  N4_16 
ROOT
HETATM    1  C7  UNL     1       3.826  23.902  16.916  1.00  0.00     0.118 A 
HETATM    2  C8  UNL     1       4.579  24.855  16.298  1.00  0.00     0.066 A 
HETATM    3  C9  UNL     1       4.542  24.987  14.927  1.00  0.00     0.110 A 
HETATM    4  N3  UNL     1       3.760  24.172  14.200  1.00  0.00    -0.202 N 
ATOM      5  H3  UNL     1       3.728  24.264  13.184  1.00  0.00     0.183 HD
HETATM    6  C10 UNL     1       3.017  23.232  14.817  1.00  0.00     0.677 A 
HETATM    7  N5  UNL     1       3.051  23.101  16.138  1.00  0.00    -0.177 N 
ATOM      8  H5  UNL     1       2.480  22.381  16.581  1.00  0.00     0.185 HD
ENDROOT
BRANCH   1   9
HETATM    9  N2  UNL     1       3.819  23.732  18.184  1.00  0.00    -0.376 N 
ATOM     10  H2  UNL     1       4.698  23.859  18.686  1.00  0.00     0.161 HD
BRANCH   9  11
HETATM   11  C6  UNL     1       2.653  23.371  18.948  1.00  0.00     0.123 C 
BRANCH  11  12
HETATM   12  C5  UNL     1       2.807  22.003  19.615  1.00  0.00     0.047 C 
BRANCH  12  13
HETATM   13  C4  UNL     1       3.159  22.236  21.036  1.00  0.00     0.237 C 
BRANCH  13  14
HETATM   14  N1  UNL     1       4.101  21.335  21.608  1.00  0.00    -0.079 N 
HETATM   15  C1  UNL     1       3.892  20.026  20.981  1.00  0.00     0.271 C 
HETATM   16  C2  UNL     1       5.448  21.738  21.259  1.00  0.00     0.271 C 
HETATM   17  C3  UNL     1       4.028  21.157  23.014  1.00  0.00     0.271 C 
ENDBRANCH  13  14
ENDBRANCH  12  13
ENDBRANCH  11  12
ENDBRANCH   9  11
ENDBRANCH   1   9
BRANCH   6  18
HETATM   18  N4  UNL     1       2.284  22.478  14.055  1.00  0.00    -0.234 N 
ATOM     19  H42 UNL     1       1.930  22.787  13.149  1.00  0.00     0.174 HD
ATOM     20  H41 UNL     1       2.070  21.545  14.406  1.00  0.00     0.174 HD
ENDBRANCH   6  18
TORSDOF 6
ENDMDL
MODEL 3
REMARK VINA RESULT: -5.718731034      0.068      1.047
REMARK  6 active torsions:
REMARK  status: ('A' for Active; 'I' for Inactive)
REMARK    1  A    between atoms: N1_2  and  C4_5 
REMARK    2  A    between atoms: C4_5  and  C5_6 
REMARK    3  A    between atoms: C5_6  and  C6_7 
REMARK    4  A    between atoms: C6_7  and  N2_8 
REMARK    5  A    between atoms: N2_8  and  C7_10 
REMARK    6  A    between atoms: C10_15  and  N4_16 
ROOT
HETATM    1  C7  UNL     1       3.838  23.910  16.898  1.00  0.00     0.118 A 
HETATM    2  C8  UNL     1       4.588  24.865  16.279  1.00  0.00     0.066 A 
HETATM    3  C9  UNL     1       4.548  24.997  14.908  1.00  0.00     0.110 A 
HETATM    4  N3  UNL     1       3.766  24.181  14.181  1.00  0.00    -0.202 N 
ATOM      5  H3  UNL     1       3.732  24.274  13.166  1.00  0.00     0.183 HD
HETATM    6  C10 UNL     1       3.027  23.240  14.799  1.00  0.00     0.677 A 
HETATM    7  N5  UNL     1       3.063  23.108  16.121  1.00  0.00    -0.177 N 
ATOM      8  H5  UNL     1       2.494  22.386  16.564  1.00  0.00     0.185 HD
ENDROOT
BRANCH   1   9
HETATM    9  N2  UNL     1       3.834  23.739  18.165  1.00  0.00    -0.376 N 
ATOM     10  H2  UNL     1       4.718  23.846  18.663  1.00  0.00     0.161 HD
BRANCH   9  11
HETATM   11  C6  UNL     1       2.663  23.404  18.935  1.00  0.00     0.123 C 
BRANCH  11  12
HETATM   12  C5  UNL     1       2.770  22.014  19.564  1.00  0.00     0.047 C 
BRANCH  12  13
HETATM   13  C4  UNL     1       3.147  22.194  20.986  1.00  0.00     0.237 C 
BRANCH  13  14
HETATM   14  N1  UNL     1       4.033  21.223  21.532  1.00  0.00    -0.079 N 
HETATM   15  C1  UNL     1       5.401  21.685  21.277  1.00  0.00     0.271 C 
HETATM   16  C2  UNL     1       3.887  21.172  22.973  1.00  0.00     0.271 C 
HETATM   17  C3  UNL     1       3.919  19.906  21.015  1.00  0.00     0.271 C 
ENDBRANCH  13  14
ENDBRANCH  12  13
ENDBRANCH  11  12
ENDBRANCH   9  11
ENDBRANCH   1   9
BRANCH   6  18
HETATM   18  N4  UNL     1       2.293  22.485  14.038  1.00  0.00    -0.234 N 
ATOM     19  H42 UNL     1       1.359  22.173  14.306  1.00  0.00     0.174 HD
ATOM     20  H41 UNL     1       2.697  22.210  13.143  1.00  0.00     0.174 HD
ENDBRANCH   6  18
TORSDOF 6
ENDMDL
MODEL 4
REMARK VINA RESULT: -5.582384688      1.303      1.758
REMARK  6 active torsions:
REMARK  status: ('A' for Active; 'I' for Inactive)
REMARK    1  A    between atoms: N1_2  and  C4_5 
REMARK    2  A    between atoms: C4_5  and  C5_6 
REMARK    3  A    between atoms: C5_6  and  C6_7 
REMARK    4  A    between atoms: C6_7  and  N2_8 
REMARK    5  A    between atoms: N2_8  and  C7_10 
REMARK    6  A    between atoms: C10_15  and  N4_16 
ROOT
HETATM    1  C7  UNL     1       3.851  23.946  16.914  1.00  0.00     0.118 A 
HETATM    2  C8  UNL     1       4.594  24.892  16.273  1.00  0.00     0.066 A 
HETATM    3  C9  UNL     1       4.546  24.998  14.900  1.00  0.00     0.110 A 
HETATM    4  N3  UNL     1       3.764  24.165  14.193  1.00  0.00    -0.202 N 
ATOM      5  H3  UNL     1       3.725  24.238  13.177  1.00  0.00     0.183 HD
HETATM    6  C10 UNL     1       3.032  23.232  14.833  1.00  0.00     0.677 A 
HETATM    7  N5  UNL     1       3.076  23.126  16.157  1.00  0.00    -0.177 N 
ATOM      8  H5  UNL     1       2.512  22.410  16.616  1.00  0.00     0.185 HD
ENDROOT
BRANCH   1   9
HETATM    9  N2  UNL     1       3.855  23.799  18.185  1.00  0.00    -0.376 N 
ATOM     10  H2  UNL     1       4.729  23.969  18.682  1.00  0.00     0.161 HD
BRANCH   9  11
HETATM   11  C6  UNL     1       2.705  23.409  18.959  1.00  0.00     0.123 C 
BRANCH  11  12
HETATM   12  C5  UNL     1       3.021  22.252  19.909  1.00  0.00     0.047 C 
BRANCH  12  13
HETATM   13  C4  UNL     1       2.340  21.044  19.385  1.00  0.00     0.237 C 
BRANCH  13  14
HETATM   14  N1  UNL     1       2.070  20.013  20.329  1.00  0.00    -0.079 N 
HETATM   15  C1  UNL     1       0.617  19.965  20.521  1.00  0.00     0.271 C 
HETATM   16  C2  UNL     1       2.446  18.726  19.780  1.00  0.00     0.271 C 
HETATM   17  C3  UNL     1       2.670  20.157  21.607  1.00  0.00     0.271 C 
ENDBRANCH  13  14
ENDBRANCH  12  13
ENDBRANCH  11  12
ENDBRANCH   9  11
ENDBRANCH   1   9
BRANCH   6  18
HETATM   18  N4  UNL     1       2.298  22.460  14.090  1.00  0.00    -0.234 N 
ATOM     19  H42 UNL     1       2.379  22.432  13.074  1.00  0.00     0.174 HD
ATOM     20  H41 UNL     1       1.621  21.870  14.574  1.00  0.00     0.174 HD
ENDBRANCH   6  18
TORSDOF 6
ENDMDL
MODEL 5
REMARK VINA RESULT: -5.484243276      2.079      2.664
REMARK  6 active torsions:
REMARK  status: ('A' for Active; 'I' for Inactive)
REMARK    1  A    between atoms: N1_2  and  C4_5 
REMARK    2  A    between atoms: C4_5  and  C5_6 
REMARK    3  A    between atoms: C5_6  and  C6_7 
REMARK    4  A    between atoms: C6_7  and  N2_8 
REMARK    5  A    between atoms: N2_8  and  C7_10 
REMARK    6  A    between atoms: C10_15  and  N4_16 
ROOT
HETATM    1  C7  UNL     1       2.618  24.025  17.738  1.00  0.00     0.118 A 
HETATM    2  C8  UNL     1       3.188  23.276  16.752  1.00  0.00     0.066 A 
HETATM    3  C9  UNL     1       3.028  23.631  15.431  1.00  0.00     0.110 A 
HETATM    4  N3  UNL     1       2.307  24.720  15.115  1.00  0.00    -0.202 N 
ATOM      5  H3  UNL     1       2.184  24.988  14.139  1.00  0.00     0.183 HD
HETATM    6  C10 UNL     1       1.746  25.456  16.094  1.00  0.00     0.677 A 
HETATM    7  N5  UNL     1       1.897  25.117  17.370  1.00  0.00    -0.177 N 
ATOM      8  H5  UNL     1       1.461  25.691  18.091  1.00  0.00     0.185 HD
ENDROOT
BRANCH   1   9
HETATM    9  N2  UNL     1       2.731  23.746  18.981  1.00  0.00    -0.376 N 
ATOM     10  H2  UNL     1       1.908  23.864  19.573  1.00  0.00     0.161 HD
BRANCH   9  11
HETATM   11  C6  UNL     1       3.943  23.274  19.599  1.00  0.00     0.123 C 
BRANCH  11  12
HETATM   12  C5  UNL     1       3.696  22.051  20.483  1.00  0.00     0.047 C 
BRANCH  12  13
HETATM   13  C4  UNL     1       2.249  21.734  20.414  1.00  0.00     0.237 C 
BRANCH  13  14
HETATM   14  N1  UNL     1       1.911  20.413  20.006  1.00  0.00    -0.079 N 
HETATM   15  C1  UNL     1       0.657  20.055  20.675  1.00  0.00     0.271 C 
HETATM   16  C2  UNL     1       1.631  20.388  18.585  1.00  0.00     0.271 C 
HETATM   17  C3  UNL     1       2.862  19.401  20.301  1.00  0.00     0.271 C 
ENDBRANCH  13  14
ENDBRANCH  12  13
ENDBRANCH  11  12
ENDBRANCH   9  11
ENDBRANCH   1   9
BRANCH   6  18
HETATM   18  N4  UNL     1       1.062  26.495  15.720  1.00  0.00    -0.234 N 
ATOM     19  H42 UNL     1       0.257  26.431  15.097  1.00  0.00     0.174 HD
ATOM     20  H41 UNL     1       1.370  27.398  16.081  1.00  0.00     0.174 HD
ENDBRANCH   6  18
TORSDOF 6
ENDMDL
