MODEL 1
REMARK VINA RESULT: -7.307686245      0.000      0.000
REMARK  13 active torsions:
REMARK  status: ('A' for Active; 'I' for Inactive)
REMARK    1  A    between atoms: N1_1  and  S1_4 
REMARK    2  A    between atoms: C2_10  and  O3_11 
REMARK    3  A    between atoms: C3_13  and  O4_14 
REMARK    4  A    between atoms: O4_14  and  C4_15 
REMARK    5  A    between atoms: C5_16  and  N3_17 
REMARK    6  A    between atoms: C6_21  and  O5_22 
REMARK    7  A    between atoms: O5_22  and  S2_23 
REMARK    8  A    between atoms: C7_27  and  O9_28 
REMARK    9  A    between atoms: O9_28  and  S3_29 
REMARK   10  A    between atoms: C8_32  and  O12_33 
REMARK   11  A    between atoms: O12_33  and  S4_34 
REMARK   12  A    between atoms: C9_38  and  O16_39 
REMARK   13  A    between atoms: O16_39  and  S5_40 
ROOT
HETATM    1  C4  UNL     1       2.961  20.803  12.081  1.00  0.00     0.190 C 
HETATM    2  C5  UNL     1       3.368  21.578  10.853  1.00  0.00     0.247 C 
HETATM    3  C6  UNL     1       2.812  22.944  10.720  1.00  0.00     0.211 C 
HETATM    4  C7  UNL     1       1.413  23.124  11.245  1.00  0.00     0.209 C 
HETATM    5  C8  UNL     1       1.440  22.658  12.687  1.00  0.00     0.211 C 
HETATM    6  C9  UNL     1       1.562  21.141  12.558  1.00  0.00     0.209 C 
ENDROOT
BRANCH   1   7
HETATM    7  O4  UNL     1       3.015  19.517  11.800  1.00  0.00    -0.353 OA
BRANCH   7   8
HETATM    8  C3  UNL     1       3.817  18.615  12.342  1.00  0.00     0.269 C 
HETATM    9  C2  UNL     1       3.326  17.668  13.364  1.00  0.00     0.260 C 
HETATM   10  C1  UNL     1       4.271  16.497  13.407  1.00  0.00     0.264 C 
HETATM   11  N2  UNL     1       5.666  16.782  13.443  1.00  0.00    -0.253 N 
HETATM   12  O2  UNL     1       3.886  15.314  13.412  1.00  0.00    -0.269 OA
HETATM   13  S1  UNL     1       6.113  18.426  13.633  1.00  0.00     0.197 S 
ATOM     14  H2  UNL     1       6.365  16.044  13.360  1.00  0.00     0.181 HD
HETATM   15  O1  UNL     1       6.262  18.668  15.128  1.00  0.00    -0.206 OA
HETATM   16  N4  UNL     1       4.877  19.402  12.972  1.00  0.00    -0.289 N 
ATOM     17  H4  UNL     1       4.878  20.421  13.012  1.00  0.00     0.175 HD
BRANCH   9  18
HETATM   18  O3  UNL     1       2.080  17.160  13.212  1.00  0.00    -0.382 OA
ATOM     19  H3  UNL     1       1.472  17.870  13.381  1.00  0.00     0.210 HD
ENDBRANCH   9  18
BRANCH  13  20
HETATM   20  N1  UNL     1       7.459  18.776  12.986  1.00  0.00    -0.328 N 
ATOM     21  H12 UNL     1       8.178  19.372  13.394  1.00  0.00     0.168 HD
ATOM     22  H11 UNL     1       7.489  18.300  12.085  1.00  0.00     0.168 HD
ENDBRANCH  13  20
ENDBRANCH   7   8
ENDBRANCH   1   7
BRANCH   2  23
HETATM   23  N3  UNL     1       3.046  20.835   9.636  1.00  0.00    -0.070 N 
ATOM     24  H33 UNL     1       3.622  19.999   9.541  1.00  0.00     0.274 HD
ATOM     25  H32 UNL     1       2.132  20.387   9.700  1.00  0.00     0.274 HD
ATOM     26  H31 UNL     1       3.114  21.435   8.814  1.00  0.00     0.274 HD
ENDBRANCH   2  23
BRANCH   6  27
HETATM   27  O16 UNL     1       0.565  20.619  11.764  1.00  0.00    -0.246 OA
BRANCH  27  28
HETATM   28  S5  UNL     1      -0.420  19.534  12.585  1.00  0.00     0.252 S 
HETATM   29  O17 UNL     1      -1.842  20.012  12.657  1.00  0.00    -0.572 OA
HETATM   30  O18 UNL     1      -0.425  18.177  11.936  1.00  0.00    -0.572 OA
HETATM   31  O19 UNL     1       0.236  19.345  14.127  1.00  0.00    -0.572 OA
ENDBRANCH  27  28
ENDBRANCH   6  27
BRANCH   3  32
HETATM   32  O5  UNL     1       3.618  23.871  11.375  1.00  0.00    -0.247 OA
BRANCH  32  33
HETATM   33  S2  UNL     1       4.616  24.650  10.304  1.00  0.00     0.252 S 
HETATM   34  O6  UNL     1       6.057  24.248  10.572  1.00  0.00    -0.572 OA
HETATM   35  O7  UNL     1       4.322  24.337   8.880  1.00  0.00    -0.572 OA
HETATM   36  O8  UNL     1       4.425  26.305  10.515  1.00  0.00    -0.572 OA
ENDBRANCH  32  33
ENDBRANCH   3  32
BRANCH   5  37
HETATM   37  O12 UNL     1       0.333  23.039  13.398  1.00  0.00    -0.246 OA
BRANCH  37  38
HETATM   38  S4  UNL     1       0.833  23.475  14.946  1.00  0.00     0.252 S 
HETATM   39  O13 UNL     1       0.461  24.908  15.196  1.00  0.00    -0.572 OA
HETATM   40  O14 UNL     1       0.153  22.648  16.001  1.00  0.00    -0.572 OA
HETATM   41  O15 UNL     1       2.499  23.340  15.085  1.00  0.00    -0.572 OA
ENDBRANCH  37  38
ENDBRANCH   5  37
BRANCH   4  42
HETATM   42  O9  UNL     1       1.051  24.444  11.108  1.00  0.00    -0.252 OA
BRANCH  42  43
HETATM   43  S3  UNL     1       0.340  24.814   9.627  1.00  0.00     0.401 S 
HETATM   44  O10 UNL     1       1.373  25.510   8.752  1.00  0.00    -0.179 OA
HETATM   45  O11 UNL     1      -0.359  23.475   8.867  1.00  0.00    -0.179 OA
ENDBRANCH  42  43
ENDBRANCH   4  42
TORSDOF 13
ENDMDL
MODEL 2
REMARK VINA RESULT: -7.165746904      2.525      5.554
REMARK  13 active torsions:
REMARK  status: ('A' for Active; 'I' for Inactive)
REMARK    1  A    between atoms: N1_1  and  S1_4 
REMARK    2  A    between atoms: C2_10  and  O3_11 
REMARK    3  A    between atoms: C3_13  and  O4_14 
REMARK    4  A    between atoms: O4_14  and  C4_15 
REMARK    5  A    between atoms: C5_16  and  N3_17 
REMARK    6  A    between atoms: C6_21  and  O5_22 
REMARK    7  A    between atoms: O5_22  and  S2_23 
REMARK    8  A    between atoms: C7_27  and  O9_28 
REMARK    9  A    between atoms: O9_28  and  S3_29 
REMARK   10  A    between atoms: C8_32  and  O12_33 
REMARK   11  A    between atoms: O12_33  and  S4_34 
REMARK   12  A    between atoms: C9_38  and  O16_39 
REMARK   13  A    between atoms: O16_39  and  S5_40 
ROOT
HETATM    1  C4  UNL     1       2.809  18.212  12.354  1.00  0.00     0.190 C 
HETATM    2  C5  UNL     1       1.517  18.750  12.916  1.00  0.00     0.247 C 
HETATM    3  C6  UNL     1       1.403  20.223  13.015  1.00  0.00     0.211 C 
HETATM    4  C7  UNL     1       2.680  20.947  13.346  1.00  0.00     0.209 C 
HETATM    5  C8  UNL     1       3.690  20.524  12.298  1.00  0.00     0.211 C 
HETATM    6  C9  UNL     1       4.007  19.081  12.686  1.00  0.00     0.209 C 
ENDROOT
BRANCH   1   7
HETATM    7  O4  UNL     1       3.008  17.006  12.847  1.00  0.00    -0.353 OA
BRANCH   7   8
HETATM    8  C3  UNL     1       2.896  15.854  12.206  1.00  0.00     0.269 C 
HETATM    9  C2  UNL     1       2.110  14.738  12.767  1.00  0.00     0.260 C 
HETATM   10  C1  UNL     1       1.755  13.804  11.641  1.00  0.00     0.264 C 
HETATM   11  N2  UNL     1       2.796  13.440  10.740  1.00  0.00    -0.253 N 
HETATM   12  O2  UNL     1       0.609  13.349  11.471  1.00  0.00    -0.269 OA
HETATM   13  S1  UNL     1       4.383  13.945  11.149  1.00  0.00     0.197 S 
ATOM     14  H2  UNL     1       2.607  12.904   9.892  1.00  0.00     0.181 HD
HETATM   15  O1  UNL     1       5.005  12.816  11.958  1.00  0.00    -0.206 OA
HETATM   16  N4  UNL     1       4.272  15.376  12.074  1.00  0.00    -0.289 N 
ATOM     17  H4  UNL     1       5.077  15.845  12.489  1.00  0.00     0.175 HD
BRANCH   9  18
HETATM   18  O3  UNL     1       0.954  15.034  13.408  1.00  0.00    -0.382 OA
ATOM     19  H3  UNL     1       0.516  14.209  13.578  1.00  0.00     0.210 HD
ENDBRANCH   9  18
BRANCH  13  20
HETATM   20  N1  UNL     1       5.287  14.176   9.932  1.00  0.00    -0.328 N 
ATOM     21  H12 UNL     1       6.306  14.151   9.934  1.00  0.00     0.168 HD
ATOM     22  H11 UNL     1       4.676  14.355   9.136  1.00  0.00     0.168 HD
ENDBRANCH  13  20
ENDBRANCH   7   8
ENDBRANCH   1   7
BRANCH   2  23
HETATM   23  N3  UNL     1       1.244  18.183  14.235  1.00  0.00    -0.070 N 
ATOM     24  H33 UNL     1       0.958  17.205  14.173  1.00  0.00     0.274 HD
ATOM     25  H32 UNL     1       2.101  18.059  14.775  1.00  0.00     0.274 HD
ATOM     26  H31 UNL     1       0.559  18.745  14.739  1.00  0.00     0.274 HD
ENDBRANCH   2  23
BRANCH   6  27
HETATM   27  O16 UNL     1       4.411  18.987  13.999  1.00  0.00    -0.246 OA
BRANCH  27  28
HETATM   28  S5  UNL     1       5.957  18.351  14.161  1.00  0.00     0.252 S 
HETATM   29  O17 UNL     1       6.416  18.349  15.591  1.00  0.00    -0.572 OA
HETATM   30  O18 UNL     1       6.040  16.939  13.651  1.00  0.00    -0.572 OA
HETATM   31  O19 UNL     1       6.976  19.288  13.197  1.00  0.00    -0.572 OA
ENDBRANCH  27  28
ENDBRANCH   6  27
BRANCH   3  32
HETATM   32  O5  UNL     1       0.922  20.763  11.825  1.00  0.00    -0.247 OA
BRANCH  32  33
HETATM   33  S2  UNL     1      -0.662  21.228  11.982  1.00  0.00     0.252 S 
HETATM   34  O6  UNL     1      -1.566  20.121  11.468  1.00  0.00    -0.572 OA
HETATM   35  O7  UNL     1      -1.061  21.519  13.384  1.00  0.00    -0.572 OA
HETATM   36  O8  UNL     1      -0.889  22.629  11.084  1.00  0.00    -0.572 OA
ENDBRANCH  32  33
ENDBRANCH   3  32
BRANCH   5  37
HETATM   37  O12 UNL     1       4.805  21.318  12.270  1.00  0.00    -0.246 OA
BRANCH  37  38
HETATM   38  S4  UNL     1       4.849  22.102  10.780  1.00  0.00     0.252 S 
HETATM   39  O13 UNL     1       4.433  23.532  10.966  1.00  0.00    -0.572 OA
HETATM   40  O14 UNL     1       6.237  22.113  10.202  1.00  0.00    -0.572 OA
HETATM   41  O15 UNL     1       3.778  21.384   9.707  1.00  0.00    -0.572 OA
ENDBRANCH  37  38
ENDBRANCH   5  37
BRANCH   4  42
HETATM   42  O9  UNL     1       2.438  22.301  13.351  1.00  0.00    -0.252 OA
BRANCH  42  43
HETATM   43  S3  UNL     1       1.947  22.910  14.842  1.00  0.00     0.401 S 
HETATM   44  O10 UNL     1       3.046  22.646  15.861  1.00  0.00    -0.179 OA
HETATM   45  O11 UNL     1       1.491  24.537  14.783  1.00  0.00    -0.179 OA
ENDBRANCH  42  43
ENDBRANCH   4  42
TORSDOF 13
ENDMDL
MODEL 3
REMARK VINA RESULT: -7.068189398      1.448      2.266
REMARK  13 active torsions:
REMARK  status: ('A' for Active; 'I' for Inactive)
REMARK    1  A    between atoms: N1_1  and  S1_4 
REMARK    2  A    between atoms: C2_10  and  O3_11 
REMARK    3  A    between atoms: C3_13  and  O4_14 
REMARK    4  A    between atoms: O4_14  and  C4_15 
REMARK    5  A    between atoms: C5_16  and  N3_17 
REMARK    6  A    between atoms: C6_21  and  O5_22 
REMARK    7  A    between atoms: O5_22  and  S2_23 
REMARK    8  A    between atoms: C7_27  and  O9_28 
REMARK    9  A    between atoms: O9_28  and  S3_29 
REMARK   10  A    between atoms: C8_32  and  O12_33 
REMARK   11  A    between atoms: O12_33  and  S4_34 
REMARK   12  A    between atoms: C9_38  and  O16_39 
REMARK   13  A    between atoms: O16_39  and  S5_40 
ROOT
HETATM    1  C4  UNL     1       4.091  20.748  12.411  1.00  0.00     0.190 C 
HETATM    2  C5  UNL     1       4.321  21.469  11.107  1.00  0.00     0.247 C 
HETATM    3  C6  UNL     1       3.491  22.670  10.861  1.00  0.00     0.211 C 
HETATM    4  C7  UNL     1       2.088  22.606  11.401  1.00  0.00     0.209 C 
HETATM    5  C8  UNL     1       2.218  22.297  12.879  1.00  0.00     0.211 C 
HETATM    6  C9  UNL     1       2.654  20.832  12.889  1.00  0.00     0.209 C 
ENDROOT
BRANCH   1   7
HETATM    7  O4  UNL     1       4.411  19.480  12.250  1.00  0.00    -0.353 OA
BRANCH   7   8
HETATM    8  C3  UNL     1       4.553  18.567  13.196  1.00  0.00     0.269 C 
HETATM    9  C2  UNL     1       5.851  18.349  13.864  1.00  0.00     0.260 C 
HETATM   10  C1  UNL     1       5.591  17.656  15.175  1.00  0.00     0.264 C 
HETATM   11  N2  UNL     1       4.705  16.541  15.162  1.00  0.00    -0.253 N 
HETATM   12  O2  UNL     1       6.111  18.014  16.248  1.00  0.00    -0.269 OA
HETATM   13  S1  UNL     1       4.186  15.986  13.624  1.00  0.00     0.197 S 
ATOM     14  H2  UNL     1       4.395  16.093  16.024  1.00  0.00     0.181 HD
HETATM   15  O1  UNL     1       5.173  14.912  13.191  1.00  0.00    -0.206 OA
HETATM   16  N4  UNL     1       4.201  17.307  12.541  1.00  0.00    -0.289 N 
ATOM     17  H4  UNL     1       3.987  17.225  11.547  1.00  0.00     0.175 HD
BRANCH   9  18
HETATM   18  O3  UNL     1       6.612  19.435  14.141  1.00  0.00    -0.382 OA
ATOM     19  H3  UNL     1       6.823  19.841  13.309  1.00  0.00     0.210 HD
ENDBRANCH   9  18
BRANCH  13  20
HETATM   20  N1  UNL     1       2.797  15.338  13.642  1.00  0.00    -0.328 N 
ATOM     21  H12 UNL     1       2.175  15.240  12.840  1.00  0.00     0.168 HD
ATOM     22  H11 UNL     1       2.624  15.030  14.599  1.00  0.00     0.168 HD
ENDBRANCH  13  20
ENDBRANCH   7   8
ENDBRANCH   1   7
BRANCH   2  23
HETATM   23  N3  UNL     1       4.156  20.562   9.972  1.00  0.00    -0.070 N 
ATOM     24  H33 UNL     1       3.187  20.256   9.873  1.00  0.00     0.274 HD
ATOM     25  H32 UNL     1       4.255  21.051   9.083  1.00  0.00     0.274 HD
ATOM     26  H31 UNL     1       4.796  19.771  10.041  1.00  0.00     0.274 HD
ENDBRANCH   2  23
BRANCH   6  27
HETATM   27  O16 UNL     1       1.785  20.041  12.172  1.00  0.00    -0.246 OA
BRANCH  27  28
HETATM   28  S5  UNL     1       0.871  19.026  13.149  1.00  0.00     0.252 S 
HETATM   29  O17 UNL     1      -0.595  19.345  13.074  1.00  0.00    -0.572 OA
HETATM   30  O18 UNL     1       1.045  17.579  12.775  1.00  0.00    -0.572 OA
HETATM   31  O19 UNL     1       1.453  19.205  14.722  1.00  0.00    -0.572 OA
ENDBRANCH  27  28
ENDBRANCH   6  27
BRANCH   3  32
HETATM   32  O5  UNL     1       4.089  23.803  11.407  1.00  0.00    -0.247 OA
BRANCH  32  33
HETATM   33  S2  UNL     1       4.697  24.785  10.216  1.00  0.00     0.252 S 
HETATM   34  O6  UNL     1       4.489  26.239  10.605  1.00  0.00    -0.572 OA
HETATM   35  O7  UNL     1       6.151  24.591   9.969  1.00  0.00    -0.572 OA
HETATM   36  O8  UNL     1       3.884  24.443   8.787  1.00  0.00    -0.572 OA
ENDBRANCH  32  33
ENDBRANCH   3  32
BRANCH   5  37
HETATM   37  O12 UNL     1       1.060  22.506  13.579  1.00  0.00    -0.246 OA
BRANCH  37  38
HETATM   38  S4  UNL     1       1.421  23.478  14.906  1.00  0.00     0.252 S 
HETATM   39  O13 UNL     1       1.504  24.908  14.456  1.00  0.00    -0.572 OA
HETATM   40  O14 UNL     1       0.347  23.404  15.955  1.00  0.00    -0.572 OA
HETATM   41  O15 UNL     1       2.904  23.052  15.560  1.00  0.00    -0.572 OA
ENDBRANCH  37  38
ENDBRANCH   5  37
BRANCH   4  42
HETATM   42  O9  UNL     1       1.457  23.802  11.151  1.00  0.00    -0.252 OA
BRANCH  42  43
HETATM   43  S3  UNL     1      -0.064  23.646  10.446  1.00  0.00     0.401 S 
HETATM   44  O10 UNL     1       0.095  23.682   8.933  1.00  0.00    -0.179 OA
HETATM   45  O11 UNL     1      -0.911  22.282  10.977  1.00  0.00    -0.179 OA
ENDBRANCH  42  43
ENDBRANCH   4  42
TORSDOF 13
ENDMDL
MODEL 4
REMARK VINA RESULT: -7.032373948      1.446      2.507
REMARK  13 active torsions:
REMARK  status: ('A' for Active; 'I' for Inactive)
REMARK    1  A    between atoms: N1_1  and  S1_4 
REMARK    2  A    between atoms: C2_10  and  O3_11 
REMARK    3  A    between atoms: C3_13  and  O4_14 
REMARK    4  A    between atoms: O4_14  and  C4_15 
REMARK    5  A    between atoms: C5_16  and  N3_17 
REMARK    6  A    between atoms: C6_21  and  O5_22 
REMARK    7  A    between atoms: O5_22  and  S2_23 
REMARK    8  A    between atoms: C7_27  and  O9_28 
REMARK    9  A    between atoms: O9_28  and  S3_29 
REMARK   10  A    between atoms: C8_32  and  O12_33 
REMARK   11  A    between atoms: O12_33  and  S4_34 
REMARK   12  A    between atoms: C9_38  and  O16_39 
REMARK   13  A    between atoms: O16_39  and  S5_40 
ROOT
HETATM    1  C4  UNL     1       4.119  20.869  12.354  1.00  0.00     0.190 C 
HETATM    2  C5  UNL     1       4.352  21.614  11.064  1.00  0.00     0.247 C 
HETATM    3  C6  UNL     1       3.491  22.794  10.819  1.00  0.00     0.211 C 
HETATM    4  C7  UNL     1       2.080  22.679  11.331  1.00  0.00     0.209 C 
HETATM    5  C8  UNL     1       2.192  22.354  12.807  1.00  0.00     0.211 C 
HETATM    6  C9  UNL     1       2.672  20.903  12.806  1.00  0.00     0.209 C 
ENDROOT
BRANCH   1   7
HETATM    7  O4  UNL     1       4.481  19.614  12.182  1.00  0.00    -0.353 OA
BRANCH   7   8
HETATM    8  C3  UNL     1       4.576  18.677  13.111  1.00  0.00     0.269 C 
HETATM    9  C2  UNL     1       5.882  18.289  13.679  1.00  0.00     0.260 C 
HETATM   10  C1  UNL     1       5.634  17.615  15.002  1.00  0.00     0.264 C 
HETATM   11  N2  UNL     1       4.617  16.620  15.050  1.00  0.00    -0.253 N 
HETATM   12  O2  UNL     1       6.273  17.891  16.035  1.00  0.00    -0.269 OA
HETATM   13  S1  UNL     1       3.920  16.157  13.553  1.00  0.00     0.197 S 
ATOM     14  H2  UNL     1       4.317  16.203  15.931  1.00  0.00     0.181 HD
HETATM   15  O1  UNL     1       4.729  14.973  13.042  1.00  0.00    -0.206 OA
HETATM   16  N4  UNL     1       4.021  17.480  12.478  1.00  0.00    -0.289 N 
ATOM     17  H4  UNL     1       3.726  17.440  11.503  1.00  0.00     0.175 HD
BRANCH   9  18
HETATM   18  O3  UNL     1       6.793  19.267  13.903  1.00  0.00    -0.382 OA
ATOM     19  H3  UNL     1       7.543  18.854  14.314  1.00  0.00     0.210 HD
ENDBRANCH   9  18
BRANCH  13  20
HETATM   20  N1  UNL     1       2.465  15.687  13.672  1.00  0.00    -0.328 N 
ATOM     21  H12 UNL     1       2.082  15.121  14.428  1.00  0.00     0.168 HD
ATOM     22  H11 UNL     1       1.968  16.049  12.858  1.00  0.00     0.168 HD
ENDBRANCH  13  20
ENDBRANCH   7   8
ENDBRANCH   1   7
BRANCH   2  23
HETATM   23  N3  UNL     1       4.235  20.719   9.915  1.00  0.00    -0.070 N 
ATOM     24  H33 UNL     1       4.613  19.794  10.119  1.00  0.00     0.274 HD
ATOM     25  H32 UNL     1       3.266  20.455   9.741  1.00  0.00     0.274 HD
ATOM     26  H31 UNL     1       4.668  21.129   9.088  1.00  0.00     0.274 HD
ENDBRANCH   2  23
BRANCH   6  27
HETATM   27  O16 UNL     1       1.841  20.096  12.062  1.00  0.00    -0.246 OA
BRANCH  27  28
HETATM   28  S5  UNL     1       0.934  19.046  13.008  1.00  0.00     0.252 S 
HETATM   29  O17 UNL     1       1.570  18.807  14.347  1.00  0.00    -0.572 OA
HETATM   30  O18 UNL     1      -0.457  19.563  13.246  1.00  0.00    -0.572 OA
HETATM   31  O19 UNL     1       0.787  17.607  12.140  1.00  0.00    -0.572 OA
ENDBRANCH  27  28
ENDBRANCH   6  27
BRANCH   3  32
HETATM   32  O5  UNL     1       4.043  23.937  11.391  1.00  0.00    -0.247 OA
BRANCH  32  33
HETATM   33  S2  UNL     1       4.755  24.892  10.238  1.00  0.00     0.252 S 
HETATM   34  O6  UNL     1       4.448  26.351  10.531  1.00  0.00    -0.572 OA
HETATM   35  O7  UNL     1       6.234  24.750  10.177  1.00  0.00    -0.572 OA
HETATM   36  O8  UNL     1       4.136  24.457   8.738  1.00  0.00    -0.572 OA
ENDBRANCH  32  33
ENDBRANCH   3  32
BRANCH   5  37
HETATM   37  O12 UNL     1       1.015  22.518  13.487  1.00  0.00    -0.246 OA
BRANCH  37  38
HETATM   38  S4  UNL     1       1.294  23.583  14.762  1.00  0.00     0.252 S 
HETATM   39  O13 UNL     1       2.601  23.236  15.413  1.00  0.00    -0.572 OA
HETATM   40  O14 UNL     1       1.398  25.004  14.283  1.00  0.00    -0.572 OA
HETATM   41  O15 UNL     1       0.086  23.446  15.917  1.00  0.00    -0.572 OA
ENDBRANCH  37  38
ENDBRANCH   5  37
BRANCH   4  42
HETATM   42  O9  UNL     1       1.418  23.860  11.085  1.00  0.00    -0.252 OA
BRANCH  42  43
HETATM   43  S3  UNL     1      -0.098  23.666  10.377  1.00  0.00     0.401 S 
HETATM   44  O10 UNL     1       0.069  23.661   8.864  1.00  0.00    -0.179 OA
HETATM   45  O11 UNL     1      -0.931  22.309  10.943  1.00  0.00    -0.179 OA
ENDBRANCH  42  43
ENDBRANCH   4  42
TORSDOF 13
ENDMDL
MODEL 5
REMARK VINA RESULT: -6.946611673      2.059      3.093
REMARK  13 active torsions:
REMARK  status: ('A' for Active; 'I' for Inactive)
REMARK    1  A    between atoms: N1_1  and  S1_4 
REMARK    2  A    between atoms: C2_10  and  O3_11 
REMARK    3  A    between atoms: C3_13  and  O4_14 
REMARK    4  A    between atoms: O4_14  and  C4_15 
REMARK    5  A    between atoms: C5_16  and  N3_17 
REMARK    6  A    between atoms: C6_21  and  O5_22 
REMARK    7  A    between atoms: O5_22  and  S2_23 
REMARK    8  A    between atoms: C7_27  and  O9_28 
REMARK    9  A    between atoms: O9_28  and  S3_29 
REMARK   10  A    between atoms: C8_32  and  O12_33 
REMARK   11  A    between atoms: O12_33  and  S4_34 
REMARK   12  A    between atoms: C9_38  and  O16_39 
REMARK   13  A    between atoms: O16_39  and  S5_40 
ROOT
HETATM    1  C4  UNL     1       4.095  19.298  12.714  1.00  0.00     0.190 C 
HETATM    2  C5  UNL     1       4.225  20.024  11.399  1.00  0.00     0.247 C 
HETATM    3  C6  UNL     1       3.545  21.336  11.299  1.00  0.00     0.211 C 
HETATM    4  C7  UNL     1       2.243  21.445  12.047  1.00  0.00     0.209 C 
HETATM    5  C8  UNL     1       2.549  21.071  13.484  1.00  0.00     0.211 C 
HETATM    6  C9  UNL     1       2.772  19.562  13.408  1.00  0.00     0.209 C 
ENDROOT
BRANCH   1   7
HETATM    7  O4  UNL     1       4.206  18.004  12.490  1.00  0.00    -0.353 OA
BRANCH   7   8
HETATM    8  C3  UNL     1       4.390  17.052  13.389  1.00  0.00     0.269 C 
HETATM    9  C2  UNL     1       5.708  16.409  13.567  1.00  0.00     0.260 C 
HETATM   10  C1  UNL     1       5.737  15.775  14.932  1.00  0.00     0.264 C 
HETATM   11  N2  UNL     1       4.609  14.996  15.317  1.00  0.00    -0.253 N 
HETATM   12  O2  UNL     1       6.691  15.905  15.721  1.00  0.00    -0.269 OA
HETATM   13  S1  UNL     1       3.427  14.701  14.110  1.00  0.00     0.197 S 
ATOM     14  H2  UNL     1       4.508  14.631  16.264  1.00  0.00     0.181 HD
HETATM   15  O1  UNL     1       3.809  13.391  13.435  1.00  0.00    -0.206 OA
HETATM   16  N4  UNL     1       3.457  15.996  12.997  1.00  0.00    -0.289 N 
ATOM     17  H4  UNL     1       2.886  16.030  12.153  1.00  0.00     0.175 HD
BRANCH   9  18
HETATM   18  O3  UNL     1       6.812  17.188  13.474  1.00  0.00    -0.382 OA
ATOM     19  H3  UNL     1       6.514  18.089  13.500  1.00  0.00     0.210 HD
ENDBRANCH   9  18
BRANCH  13  20
HETATM   20  N1  UNL     1       2.010  14.521  14.667  1.00  0.00    -0.328 N 
ATOM     21  H12 UNL     1       1.661  13.694  15.152  1.00  0.00     0.168 HD
ATOM     22  H11 UNL     1       1.497  15.378  14.461  1.00  0.00     0.168 HD
ENDBRANCH  13  20
ENDBRANCH   7   8
ENDBRANCH   1   7
BRANCH   2  23
HETATM   23  N3  UNL     1       3.766  19.187  10.293  1.00  0.00    -0.070 N 
ATOM     24  H33 UNL     1       3.656  18.214  10.577  1.00  0.00     0.274 HD
ATOM     25  H32 UNL     1       2.796  19.387  10.048  1.00  0.00     0.274 HD
ATOM     26  H31 UNL     1       4.384  19.277   9.487  1.00  0.00     0.274 HD
ENDBRANCH   2  23
BRANCH   6  27
HETATM   27  O16 UNL     1       1.703  18.921  12.823  1.00  0.00    -0.246 OA
BRANCH  27  28
HETATM   28  S5  UNL     1       0.815  18.004  13.915  1.00  0.00     0.252 S 
HETATM   29  O17 UNL     1       1.602  17.693  15.156  1.00  0.00    -0.572 OA
HETATM   30  O18 UNL     1      -0.449  18.701  14.336  1.00  0.00    -0.572 OA
HETATM   31  O19 UNL     1       0.360  16.591  13.114  1.00  0.00    -0.572 OA
ENDBRANCH  27  28
ENDBRANCH   6  27
BRANCH   3  32
HETATM   32  O5  UNL     1       4.370  22.357  11.760  1.00  0.00    -0.247 OA
BRANCH  32  33
HETATM   33  S2  UNL     1       5.067  23.174  10.496  1.00  0.00     0.252 S 
HETATM   34  O6  UNL     1       4.061  23.306   9.365  1.00  0.00    -0.572 OA
HETATM   35  O7  UNL     1       5.525  24.543  10.852  1.00  0.00    -0.572 OA
HETATM   36  O8  UNL     1       6.408  22.303   9.983  1.00  0.00    -0.572 OA
ENDBRANCH  32  33
ENDBRANCH   3  32
BRANCH   5  37
HETATM   37  O12 UNL     1       1.550  21.413  14.355  1.00  0.00    -0.246 OA
BRANCH  37  38
HETATM   38  S4  UNL     1       2.227  22.342  15.586  1.00  0.00     0.252 S 
HETATM   39  O13 UNL     1       2.325  23.768  15.125  1.00  0.00    -0.572 OA
HETATM   40  O14 UNL     1       1.372  22.332  16.822  1.00  0.00    -0.572 OA
HETATM   41  O15 UNL     1       3.774  21.805  15.944  1.00  0.00    -0.572 OA
ENDBRANCH  37  38
ENDBRANCH   5  37
BRANCH   4  42
HETATM   42  O9  UNL     1       1.756  22.724  11.911  1.00  0.00    -0.252 OA
BRANCH  42  43
HETATM   43  S3  UNL     1       0.117  22.802  11.534  1.00  0.00     0.401 S 
HETATM   44  O10 UNL     1      -0.034  23.406  10.145  1.00  0.00    -0.179 OA
HETATM   45  O11 UNL     1      -0.675  21.316  11.685  1.00  0.00    -0.179 OA
ENDBRANCH  42  43
ENDBRANCH   4  42
TORSDOF 13
ENDMDL
