MODEL 1
REMARK VINA RESULT: -6.036966533      0.000      0.000
REMARK  4 active torsions:
REMARK  status: ('A' for Active; 'I' for Inactive)
REMARK    1  A    between atoms: N1_2  and  C2_4 
REMARK    2  A    between atoms: C2_4  and  O1_5 
REMARK    3  A    between atoms: C2_4  and  C3_7 
REMARK    4  A    between atoms: C4_8  and  N2_9 
REMARK       I    between atoms: N2_9  and  C5_11 
ROOT
HETATM    1  C3  UNL     1      30.902  10.600  24.541  1.00  0.00     0.057 A 
HETATM    2  C4  UNL     1      30.941  11.720  23.723  1.00  0.00     0.092 A 
HETATM    3  S1  UNL     1      32.509  11.676  23.044  1.00  0.00    -0.074 SA
HETATM    4  C7  UNL     1      33.087  10.263  23.792  1.00  0.00     0.003 A 
HETATM    5  C8  UNL     1      32.088   9.830  24.549  1.00  0.00    -0.009 A 
HETATM    6  C9  UNL     1      32.382   8.506  25.243  1.00  0.00     0.030 C 
HETATM    7  C10 UNL     1      32.815   8.670  26.653  1.00  0.00     0.032 C 
HETATM    8  C11 UNL     1      31.394   7.432  24.972  1.00  0.00     0.032 C 
HETATM    9  S2  UNL     1      33.901   7.929  24.361  1.00  0.00    -0.150 SA
HETATM   10  C12 UNL     1      34.377   9.522  23.774  1.00  0.00     0.121 C 
ENDROOT
BRANCH   1  11
HETATM   11  C2  UNL     1      29.627  10.331  25.243  1.00  0.00     0.149 C 
BRANCH  11  12
HETATM   12  N1  UNL     1      29.257  10.531  26.571  1.00  0.00    -0.375 N 
HETATM   13  C1  UNL     1      29.759   9.552  27.569  1.00  0.00     0.148 C 
ATOM     14  H1  UNL     1      28.666  11.315  26.846  1.00  0.00     0.161 HD
ENDBRANCH  11  12
BRANCH  11  15
HETATM   15  O1  UNL     1      28.675   9.828  24.494  1.00  0.00    -0.346 OA
ATOM     16  H1  UNL     1      28.863   8.958  24.160  1.00  0.00     0.219 HD
ENDBRANCH  11  15
ENDBRANCH   1  11
BRANCH   2  17
HETATM   17  N2  UNL     1      29.969  12.762  23.478  1.00  0.00    -0.321 N 
HETATM   18  C5  UNL     1      28.981  12.492  22.469  1.00  0.00     0.218 C 
HETATM   19  C6  UNL     1      27.936  13.459  22.116  1.00  0.00     0.117 C 
HETATM   20  O2  UNL     1      28.998  11.402  21.862  1.00  0.00    -0.274 OA
ATOM     21  H2  UNL     1      29.985  13.643  23.993  1.00  0.00     0.169 HD
ENDBRANCH   2  17
TORSDOF 4
ENDMDL
MODEL 2
REMARK VINA RESULT: -6.025481957      2.999      5.113
REMARK  4 active torsions:
REMARK  status: ('A' for Active; 'I' for Inactive)
REMARK    1  A    between atoms: N1_2  and  C2_4 
REMARK    2  A    between atoms: C2_4  and  O1_5 
REMARK    3  A    between atoms: C2_4  and  C3_7 
REMARK    4  A    between atoms: C4_8  and  N2_9 
REMARK       I    between atoms: N2_9  and  C5_11 
ROOT
HETATM    1  C3  UNL     1      32.128   8.107  24.801  1.00  0.00     0.057 A 
HETATM    2  C4  UNL     1      33.361   7.581  24.445  1.00  0.00     0.092 A 
HETATM    3  S1  UNL     1      34.185   8.905  23.746  1.00  0.00    -0.074 SA
HETATM    4  C7  UNL     1      32.977  10.090  23.910  1.00  0.00     0.003 A 
HETATM    5  C8  UNL     1      31.958   9.477  24.497  1.00  0.00    -0.009 A 
HETATM    6  C9  UNL     1      30.793  10.406  24.815  1.00  0.00     0.030 C 
HETATM    7  C10 UNL     1      29.703  10.338  23.811  1.00  0.00     0.032 C 
HETATM    8  C11 UNL     1      30.384  10.419  26.242  1.00  0.00     0.032 C 
HETATM    9  S2  UNL     1      31.544  12.077  24.565  1.00  0.00    -0.150 SA
HETATM   10  C12 UNL     1      32.860  11.524  23.530  1.00  0.00     0.121 C 
ENDROOT
BRANCH   1  11
HETATM   11  C2  UNL     1      31.188   7.196  25.492  1.00  0.00     0.149 C 
BRANCH  11  12
HETATM   12  N1  UNL     1      30.844   7.088  26.837  1.00  0.00    -0.375 N 
HETATM   13  C1  UNL     1      31.894   7.420  27.833  1.00  0.00     0.148 C 
ATOM     14  H1  UNL     1      29.912   6.794  27.126  1.00  0.00     0.161 HD
ENDBRANCH  11  12
BRANCH  11  15
HETATM   15  O1  UNL     1      30.558   6.349  24.711  1.00  0.00    -0.346 OA
ATOM     16  H1  UNL     1      30.182   6.747  23.934  1.00  0.00     0.219 HD
ENDBRANCH  11  15
ENDBRANCH   1  11
BRANCH   2  17
HETATM   17  N2  UNL     1      33.897   6.241  24.546  1.00  0.00    -0.321 N 
HETATM   18  C5  UNL     1      33.540   5.328  23.494  1.00  0.00     0.218 C 
HETATM   19  C6  UNL     1      34.012   3.939  23.468  1.00  0.00     0.117 C 
HETATM   20  O2  UNL     1      32.805   5.714  22.563  1.00  0.00    -0.274 OA
ATOM     21  H2  UNL     1      34.496   5.959  25.322  1.00  0.00     0.169 HD
ENDBRANCH   2  17
TORSDOF 4
ENDMDL
MODEL 3
REMARK VINA RESULT: -5.639533759      2.680      3.772
REMARK  4 active torsions:
REMARK  status: ('A' for Active; 'I' for Inactive)
REMARK    1  A    between atoms: N1_2  and  C2_4 
REMARK    2  A    between atoms: C2_4  and  O1_5 
REMARK    3  A    between atoms: C2_4  and  C3_7 
REMARK    4  A    between atoms: C4_8  and  N2_9 
REMARK       I    between atoms: N2_9  and  C5_11 
ROOT
HETATM    1  C3  UNL     1      31.876   9.389  24.777  1.00  0.00     0.057 A 
HETATM    2  C4  UNL     1      31.335  10.602  24.376  1.00  0.00     0.092 A 
HETATM    3  S1  UNL     1      30.236  10.993  25.625  1.00  0.00    -0.074 SA
HETATM    4  C7  UNL     1      30.470   9.637  26.624  1.00  0.00     0.003 A 
HETATM    5  C8  UNL     1      31.383   8.898  26.007  1.00  0.00    -0.009 A 
HETATM    6  C9  UNL     1      31.799   7.664  26.798  1.00  0.00     0.030 C 
HETATM    7  C10 UNL     1      31.113   6.426  26.353  1.00  0.00     0.032 C 
HETATM    8  C11 UNL     1      33.257   7.559  27.059  1.00  0.00     0.032 C 
HETATM    9  S2  UNL     1      31.085   8.008  28.469  1.00  0.00    -0.150 SA
HETATM   10  C12 UNL     1      29.881   9.168  27.907  1.00  0.00     0.121 C 
ENDROOT
BRANCH   1  11
HETATM   11  C2  UNL     1      32.922   8.805  23.907  1.00  0.00     0.149 C 
BRANCH  11  12
HETATM   12  N1  UNL     1      33.101   7.503  23.444  1.00  0.00    -0.375 N 
HETATM   13  C1  UNL     1      34.492   6.985  23.405  1.00  0.00     0.148 C 
ATOM     14  H1  UNL     1      32.312   6.932  23.146  1.00  0.00     0.161 HD
ENDBRANCH  11  12
BRANCH  11  15
HETATM   15  O1  UNL     1      33.833   9.651  23.487  1.00  0.00    -0.346 OA
ATOM     16  H1  UNL     1      34.229   9.412  22.657  1.00  0.00     0.219 HD
ENDBRANCH  11  15
ENDBRANCH   1  11
BRANCH   2  17
HETATM   17  N2  UNL     1      31.541  11.397  23.186  1.00  0.00    -0.321 N 
HETATM   18  C5  UNL     1      30.390  11.608  22.350  1.00  0.00     0.218 C 
HETATM   19  C6  UNL     1      30.454  12.394  21.113  1.00  0.00     0.117 C 
HETATM   20  O2  UNL     1      29.292  11.113  22.672  1.00  0.00    -0.274 OA
ATOM     21  H2  UNL     1      32.454  11.788  22.952  1.00  0.00     0.169 HD
ENDBRANCH   2  17
TORSDOF 4
ENDMDL
MODEL 4
REMARK VINA RESULT: -5.482272371      3.306      5.897
REMARK  4 active torsions:
REMARK  status: ('A' for Active; 'I' for Inactive)
REMARK    1  A    between atoms: N1_2  and  C2_4 
REMARK    2  A    between atoms: C2_4  and  O1_5 
REMARK    3  A    between atoms: C2_4  and  C3_7 
REMARK    4  A    between atoms: C4_8  and  N2_9 
REMARK       I    between atoms: N2_9  and  C5_11 
ROOT
HETATM    1  C3  UNL     1      33.044  10.007  24.153  1.00  0.00     0.057 A 
HETATM    2  C4  UNL     1      32.965   8.784  24.803  1.00  0.00     0.092 A 
HETATM    3  S1  UNL     1      31.302   8.615  25.159  1.00  0.00    -0.074 SA
HETATM    4  C7  UNL     1      30.735  10.072  24.490  1.00  0.00     0.003 A 
HETATM    5  C8  UNL     1      31.808  10.676  23.999  1.00  0.00    -0.009 A 
HETATM    6  C9  UNL     1      31.491  11.975  23.269  1.00  0.00     0.030 C 
HETATM    7  C10 UNL     1      31.719  13.182  24.101  1.00  0.00     0.032 C 
HETATM    8  C11 UNL     1      31.979  12.033  21.867  1.00  0.00     0.032 C 
HETATM    9  S2  UNL     1      29.654  11.885  23.085  1.00  0.00    -0.150 SA
HETATM   10  C12 UNL     1      29.405  10.731  24.394  1.00  0.00     0.121 C 
ENDROOT
BRANCH   1  11
HETATM   11  C2  UNL     1      34.379  10.418  23.664  1.00  0.00     0.149 C 
BRANCH  11  12
HETATM   12  N1  UNL     1      35.158  11.532  23.967  1.00  0.00    -0.375 N 
HETATM   13  C1  UNL     1      36.610  11.446  23.664  1.00  0.00     0.148 C 
ATOM     14  H1  UNL     1      34.750  12.370  24.380  1.00  0.00     0.161 HD
ENDBRANCH  11  12
BRANCH  11  15
HETATM   15  O1  UNL     1      34.936   9.595  22.807  1.00  0.00    -0.346 OA
ATOM     16  H1  UNL     1      34.939   8.687  23.089  1.00  0.00     0.219 HD
ENDBRANCH  11  15
ENDBRANCH   1  11
BRANCH   2  17
HETATM   17  N2  UNL     1      33.987   7.834  25.186  1.00  0.00    -0.321 N 
HETATM   18  C5  UNL     1      34.282   6.795  24.236  1.00  0.00     0.218 C 
HETATM   19  C6  UNL     1      35.295   5.765  24.493  1.00  0.00     0.117 C 
HETATM   20  O2  UNL     1      33.667   6.753  23.153  1.00  0.00    -0.274 OA
ATOM     21  H2  UNL     1      34.471   7.898  26.081  1.00  0.00     0.169 HD
ENDBRANCH   2  17
TORSDOF 4
ENDMDL
MODEL 5
REMARK VINA RESULT: -5.451924043      2.123      4.660
REMARK  4 active torsions:
REMARK  status: ('A' for Active; 'I' for Inactive)
REMARK    1  A    between atoms: N1_2  and  C2_4 
REMARK    2  A    between atoms: C2_4  and  O1_5 
REMARK    3  A    between atoms: C2_4  and  C3_7 
REMARK    4  A    between atoms: C4_8  and  N2_9 
REMARK       I    between atoms: N2_9  and  C5_11 
ROOT
HETATM    1  C3  UNL     1      31.455   9.776  24.783  1.00  0.00     0.057 A 
HETATM    2  C4  UNL     1      31.810   8.511  25.228  1.00  0.00     0.092 A 
HETATM    3  S1  UNL     1      33.474   8.398  24.857  1.00  0.00    -0.074 SA
HETATM    4  C7  UNL     1      33.697   9.931  24.154  1.00  0.00     0.003 A 
HETATM    5  C8  UNL     1      32.510  10.520  24.208  1.00  0.00    -0.009 A 
HETATM    6  C9  UNL     1      32.523  11.956  23.700  1.00  0.00     0.030 C 
HETATM    7  C10 UNL     1      32.047  12.084  22.300  1.00  0.00     0.032 C 
HETATM    8  C11 UNL     1      32.014  12.960  24.669  1.00  0.00     0.032 C 
HETATM    9  S2  UNL     1      34.332  12.324  23.605  1.00  0.00    -0.150 SA
HETATM   10  C12 UNL     1      34.849  10.640  23.533  1.00  0.00     0.121 C 
ENDROOT
BRANCH   1  11
HETATM   11  C2  UNL     1      30.055  10.196  25.016  1.00  0.00     0.149 C 
BRANCH  11  12
HETATM   12  N1  UNL     1      28.970  10.279  24.146  1.00  0.00    -0.375 N 
HETATM   13  C1  UNL     1      28.871  11.497  23.302  1.00  0.00     0.148 C 
ATOM     14  H1  UNL     1      28.275   9.536  24.091  1.00  0.00     0.161 HD
ENDBRANCH  11  12
BRANCH  11  15
HETATM   15  O1  UNL     1      29.775  10.542  26.251  1.00  0.00    -0.346 OA
ATOM     16  H1  UNL     1      30.281  11.280  26.570  1.00  0.00     0.219 HD
ENDBRANCH  11  15
ENDBRANCH   1  11
BRANCH   2  17
HETATM   17  N2  UNL     1      31.028   7.449  25.822  1.00  0.00    -0.321 N 
HETATM   18  C5  UNL     1      30.933   7.450  27.257  1.00  0.00     0.218 C 
HETATM   19  C6  UNL     1      30.173   6.433  27.992  1.00  0.00     0.117 C 
HETATM   20  O2  UNL     1      31.509   8.339  27.914  1.00  0.00    -0.274 OA
ATOM     21  H2  UNL     1      30.570   6.737  25.253  1.00  0.00     0.169 HD
ENDBRANCH   2  17
TORSDOF 4
ENDMDL
