MODEL 1
REMARK VINA RESULT: -6.758670620      0.000      0.000
REMARK  3 active torsions:
REMARK  status: ('A' for Active; 'I' for Inactive)
REMARK    1  A    between atoms: C8_9  and  N2_10 
REMARK    2  A    between atoms: C11_15  and  N3_16 
REMARK    3  A    between atoms: N3_16  and  C12_18 
ROOT
HETATM    1  C1  UNL     1     -22.525 -25.629 -15.009  1.00  0.00     0.016 C 
HETATM    2  C2  UNL     1     -21.358 -26.200 -15.824  1.00  0.00    -0.033 C 
HETATM    3  C3  UNL     1     -20.180 -26.357 -14.865  1.00  0.00     0.016 C 
HETATM    4  C4  UNL     1     -21.068 -25.219 -16.913  1.00  0.00     0.031 C 
HETATM    5  C5  UNL     1     -20.183 -25.836 -17.971  1.00  0.00     0.144 C 
HETATM    6  N1  UNL     1     -20.813 -27.096 -18.355  1.00  0.00    -0.314 N 
HETATM    7  C6  UNL     1     -21.278 -27.330 -19.675  1.00  0.00     0.034 C 
HETATM    8  C7  UNL     1     -21.390 -28.564 -20.140  1.00  0.00     0.011 C 
HETATM    9  C8  UNL     1     -21.884 -28.573 -21.511  1.00  0.00     0.013 C 
HETATM   10  C9  UNL     1     -22.507 -27.217 -21.700  1.00  0.00     0.063 C 
HETATM   11  C10 UNL     1     -21.705 -26.362 -20.738  1.00  0.00     0.065 C 
HETATM   12  C11 UNL     1     -21.013 -29.669 -19.230  1.00  0.00     0.133 C 
HETATM   13  C13 UNL     1     -21.434 -29.319 -17.820  1.00  0.00     0.143 C 
HETATM   14  N4  UNL     1     -20.940 -28.059 -17.374  1.00  0.00    -0.226 NA
HETATM   15  C14 UNL     1     -21.767 -27.555 -16.305  1.00  0.00     0.122 C 
ENDROOT
BRANCH  12  16
HETATM   16  N3  UNL     1     -21.712 -30.891 -19.585  1.00  0.00    -0.380 N 
ATOM     17  H3  UNL     1     -22.631 -30.882 -20.026  1.00  0.00     0.160 HD
BRANCH  16  18
HETATM   18  C12 UNL     1     -21.095 -31.987 -19.304  1.00  0.00     0.166 C 
HETATM   19  S1  UNL     1     -20.271 -33.046 -18.400  1.00  0.00    -0.075 SA
ENDBRANCH  16  18
ENDBRANCH  12  16
BRANCH   9  20
HETATM   20  N2  UNL     1     -21.818 -29.522 -22.399  1.00  0.00    -0.402 N 
ATOM     21  H22 UNL     1     -20.967 -29.915 -22.802  1.00  0.00     0.156 HD
ATOM     22  H21 UNL     1     -22.577 -30.035 -22.847  1.00  0.00     0.156 HD
ENDBRANCH   9  20
TORSDOF 3
ENDMDL
MODEL 2
REMARK VINA RESULT: -6.484683800      2.787      6.105
REMARK  3 active torsions:
REMARK  status: ('A' for Active; 'I' for Inactive)
REMARK    1  A    between atoms: C8_9  and  N2_10 
REMARK    2  A    between atoms: C11_15  and  N3_16 
REMARK    3  A    between atoms: N3_16  and  C12_18 
ROOT
HETATM    1  C1  UNL     1     -23.666 -30.933 -22.380  1.00  0.00     0.016 C 
HETATM    2  C2  UNL     1     -22.313 -30.376 -21.924  1.00  0.00    -0.033 C 
HETATM    3  C3  UNL     1     -21.383 -30.416 -23.135  1.00  0.00     0.016 C 
HETATM    4  C4  UNL     1     -21.831 -31.258 -20.817  1.00  0.00     0.031 C 
HETATM    5  C5  UNL     1     -20.691 -30.607 -20.069  1.00  0.00     0.144 C 
HETATM    6  N1  UNL     1     -21.145 -29.267 -19.708  1.00  0.00    -0.314 N 
HETATM    7  C6  UNL     1     -21.276 -28.858 -18.354  1.00  0.00     0.034 C 
HETATM    8  C7  UNL     1     -21.209 -27.577 -18.029  1.00  0.00     0.011 C 
HETATM    9  C8  UNL     1     -21.369 -27.384 -16.593  1.00  0.00     0.013 C 
HETATM   10  C9  UNL     1     -22.004 -28.658 -16.107  1.00  0.00     0.063 C 
HETATM   11  C10 UNL     1     -21.496 -29.671 -17.114  1.00  0.00     0.065 C 
HETATM   12  C11 UNL     1     -20.994 -26.608 -19.127  1.00  0.00     0.133 C 
HETATM   13  C13 UNL     1     -21.750 -27.069 -20.353  1.00  0.00     0.143 C 
HETATM   14  N4  UNL     1     -21.443 -28.405 -20.743  1.00  0.00    -0.226 NA
HETATM   15  C14 UNL     1     -22.523 -28.949 -21.530  1.00  0.00     0.122 C 
ENDROOT
BRANCH  12  16
HETATM   16  N3  UNL     1     -21.523 -25.304 -18.775  1.00  0.00    -0.380 N 
ATOM     17  H3  UNL     1     -22.517 -25.146 -18.610  1.00  0.00     0.160 HD
BRANCH  16  18
HETATM   18  C12 UNL     1     -20.654 -24.356 -18.684  1.00  0.00     0.166 C 
HETATM   19  S1  UNL     1     -19.720 -23.252 -17.956  1.00  0.00    -0.075 SA
ENDBRANCH  16  18
ENDBRANCH  12  16
BRANCH   9  20
HETATM   20  N2  UNL     1     -21.046 -26.356 -15.864  1.00  0.00    -0.402 N 
ATOM     21  H22 UNL     1     -20.107 -26.109 -15.550  1.00  0.00     0.156 HD
ATOM     22  H21 UNL     1     -21.648 -25.628 -15.480  1.00  0.00     0.156 HD
ENDBRANCH   9  20
TORSDOF 3
ENDMDL
MODEL 3
REMARK VINA RESULT: -6.417848221      1.791      3.400
REMARK  3 active torsions:
REMARK  status: ('A' for Active; 'I' for Inactive)
REMARK    1  A    between atoms: C8_9  and  N2_10 
REMARK    2  A    between atoms: C11_15  and  N3_16 
REMARK    3  A    between atoms: N3_16  and  C12_18 
ROOT
HETATM    1  C1  UNL     1     -19.302 -24.873 -16.399  1.00  0.00     0.016 C 
HETATM    2  C2  UNL     1     -20.506 -25.805 -16.580  1.00  0.00    -0.033 C 
HETATM    3  C3  UNL     1     -21.751 -25.001 -16.210  1.00  0.00     0.016 C 
HETATM    4  C4  UNL     1     -20.297 -26.968 -15.666  1.00  0.00     0.031 C 
HETATM    5  C5  UNL     1     -21.233 -28.101 -16.014  1.00  0.00     0.144 C 
HETATM    6  N1  UNL     1     -21.080 -28.340 -17.446  1.00  0.00    -0.314 N 
HETATM    7  C6  UNL     1     -20.601 -29.576 -17.954  1.00  0.00     0.034 C 
HETATM    8  C7  UNL     1     -20.908 -29.963 -19.182  1.00  0.00     0.011 C 
HETATM    9  C8  UNL     1     -20.314 -31.256 -19.495  1.00  0.00     0.013 C 
HETATM   10  C9  UNL     1     -19.216 -31.427 -18.481  1.00  0.00     0.063 C 
HETATM   11  C10 UNL     1     -19.738 -30.619 -17.309  1.00  0.00     0.065 C 
HETATM   12  C11 UNL     1     -21.761 -29.059 -19.985  1.00  0.00     0.133 C 
HETATM   13  C13 UNL     1     -21.389 -27.625 -19.684  1.00  0.00     0.143 C 
HETATM   14  N4  UNL     1     -21.422 -27.306 -18.294  1.00  0.00    -0.226 NA
HETATM   15  C14 UNL     1     -20.582 -26.164 -18.029  1.00  0.00     0.122 C 
ENDROOT
BRANCH  12  16
HETATM   16  N3  UNL     1     -21.534 -29.261 -21.404  1.00  0.00    -0.380 N 
ATOM     17  H3  UNL     1     -20.633 -29.068 -21.843  1.00  0.00     0.160 HD
BRANCH  16  18
HETATM   18  C12 UNL     1     -22.543 -29.700 -22.073  1.00  0.00     0.166 C 
HETATM   19  S1  UNL     1     -23.870 -30.579 -22.369  1.00  0.00    -0.075 SA
ENDBRANCH  16  18
ENDBRANCH  12  16
BRANCH   9  20
HETATM   20  N2  UNL     1     -20.635 -32.099 -20.432  1.00  0.00    -0.402 N 
ATOM     21  H22 UNL     1     -21.580 -32.327 -20.743  1.00  0.00     0.156 HD
ATOM     22  H21 UNL     1     -20.026 -32.673 -21.015  1.00  0.00     0.156 HD
ENDBRANCH   9  20
TORSDOF 3
ENDMDL
MODEL 4
REMARK VINA RESULT: -6.373957906      3.599      5.186
REMARK  3 active torsions:
REMARK  status: ('A' for Active; 'I' for Inactive)
REMARK    1  A    between atoms: C8_9  and  N2_10 
REMARK    2  A    between atoms: C11_15  and  N3_16 
REMARK    3  A    between atoms: N3_16  and  C12_18 
ROOT
HETATM    1  C1  UNL     1     -17.145 -28.454 -16.005  1.00  0.00     0.016 C 
HETATM    2  C2  UNL     1     -18.603 -28.050 -15.757  1.00  0.00    -0.033 C 
HETATM    3  C3  UNL     1     -18.874 -28.252 -14.267  1.00  0.00     0.016 C 
HETATM    4  C4  UNL     1     -19.451 -28.940 -16.607  1.00  0.00     0.031 C 
HETATM    5  C5  UNL     1     -20.861 -28.404 -16.706  1.00  0.00     0.144 C 
HETATM    6  N1  UNL     1     -20.745 -27.005 -17.108  1.00  0.00    -0.314 N 
HETATM    7  C6  UNL     1     -21.280 -26.531 -18.335  1.00  0.00     0.034 C 
HETATM    8  C7  UNL     1     -21.604 -25.256 -18.478  1.00  0.00     0.011 C 
HETATM    9  C8  UNL     1     -22.131 -24.989 -19.811  1.00  0.00     0.013 C 
HETATM   10  C9  UNL     1     -21.673 -26.154 -20.642  1.00  0.00     0.063 C 
HETATM   11  C10 UNL     1     -21.573 -27.261 -19.611  1.00  0.00     0.065 C 
HETATM   12  C11 UNL     1     -21.385 -24.365 -17.317  1.00  0.00     0.133 C 
HETATM   13  C13 UNL     1     -20.117 -24.777 -16.604  1.00  0.00     0.143 C 
HETATM   14  N4  UNL     1     -20.089 -26.155 -16.241  1.00  0.00    -0.226 NA
HETATM   15  C14 UNL     1     -18.725 -26.594 -16.072  1.00  0.00     0.122 C 
ENDROOT
BRANCH  12  16
HETATM   16  N3  UNL     1     -21.196 -22.992 -17.748  1.00  0.00    -0.380 N 
ATOM     17  H3  UNL     1     -21.979 -22.388 -17.996  1.00  0.00     0.160 HD
BRANCH  16  18
HETATM   18  C12 UNL     1     -19.974 -22.587 -17.798  1.00  0.00     0.166 C 
HETATM   19  S1  UNL     1     -18.650 -21.911 -18.441  1.00  0.00    -0.075 SA
ENDBRANCH  16  18
ENDBRANCH  12  16
BRANCH   9  20
HETATM   20  N2  UNL     1     -22.842 -23.980 -20.222  1.00  0.00    -0.402 N 
ATOM     21  H22 UNL     1     -23.047 -23.130 -19.697  1.00  0.00     0.156 HD
ATOM     22  H21 UNL     1     -23.315 -23.851 -21.117  1.00  0.00     0.156 HD
ENDBRANCH   9  20
TORSDOF 3
ENDMDL
MODEL 5
REMARK VINA RESULT: -6.297191756      2.240      3.880
REMARK  3 active torsions:
REMARK  status: ('A' for Active; 'I' for Inactive)
REMARK    1  A    between atoms: C8_9  and  N2_10 
REMARK    2  A    between atoms: C11_15  and  N3_16 
REMARK    3  A    between atoms: N3_16  and  C12_18 
ROOT
HETATM    1  C1  UNL     1     -19.698 -23.758 -18.242  1.00  0.00     0.016 C 
HETATM    2  C2  UNL     1     -20.480 -24.780 -17.408  1.00  0.00    -0.033 C 
HETATM    3  C3  UNL     1     -21.774 -24.099 -16.968  1.00  0.00     0.016 C 
HETATM    4  C4  UNL     1     -19.615 -25.145 -16.245  1.00  0.00     0.031 C 
HETATM    5  C5  UNL     1     -20.133 -26.388 -15.559  1.00  0.00     0.144 C 
HETATM    6  N1  UNL     1     -20.311 -27.393 -16.603  1.00  0.00    -0.314 N 
HETATM    7  C6  UNL     1     -19.578 -28.609 -16.607  1.00  0.00     0.034 C 
HETATM    8  C7  UNL     1     -20.054 -29.679 -17.223  1.00  0.00     0.011 C 
HETATM    9  C8  UNL     1     -19.144 -30.811 -17.101  1.00  0.00     0.013 C 
HETATM   10  C9  UNL     1     -17.823 -30.199 -16.726  1.00  0.00     0.063 C 
HETATM   11  C10 UNL     1     -18.252 -28.943 -15.992  1.00  0.00     0.065 C 
HETATM   12  C11 UNL     1     -21.366 -29.548 -17.896  1.00  0.00     0.133 C 
HETATM   13  C13 UNL     1     -21.472 -28.173 -18.515  1.00  0.00     0.143 C 
HETATM   14  N4  UNL     1     -21.228 -27.112 -17.595  1.00  0.00    -0.226 NA
HETATM   15  C14 UNL     1     -20.823 -25.924 -18.307  1.00  0.00     0.122 C 
ENDROOT
BRANCH  12  16
HETATM   16  N3  UNL     1     -21.488 -30.506 -18.979  1.00  0.00    -0.380 N 
ATOM     17  H3  UNL     1     -21.412 -31.511 -18.827  1.00  0.00     0.160 HD
BRANCH  16  18
HETATM   18  C12 UNL     1     -21.697 -30.003 -20.147  1.00  0.00     0.166 C 
HETATM   19  S1  UNL     1     -22.162 -29.973 -21.697  1.00  0.00    -0.075 SA
ENDBRANCH  16  18
ENDBRANCH  12  16
BRANCH   9  20
HETATM   20  N2  UNL     1     -19.386 -32.078 -17.271  1.00  0.00    -0.402 N 
ATOM     21  H22 UNL     1     -19.433 -32.788 -16.540  1.00  0.00     0.156 HD
ATOM     22  H21 UNL     1     -19.568 -32.586 -18.137  1.00  0.00     0.156 HD
ENDBRANCH   9  20
TORSDOF 3
ENDMDL
