MODEL 1
REMARK VINA RESULT: -4.214191528      0.000      0.000
REMARK  1 active torsions:
REMARK  status: ('A' for Active; 'I' for Inactive)
REMARK    1  A    between atoms: N2_4  and  C2_6 
ROOT
HETATM    1  C2  UNL     1      33.438  40.510  22.590  1.00  0.00     0.285 C 
HETATM    2  C3  UNL     1      32.686  39.263  22.925  1.00  0.00     0.056 C 
HETATM    3  C4  UNL     1      33.589  38.504  23.871  1.00  0.00     0.031 C 
HETATM    4  C5  UNL     1      34.906  39.234  23.716  1.00  0.00     0.235 C 
HETATM    5  N3  UNL     1      34.460  40.613  23.645  1.00  0.00    -0.054 N 
ATOM      6  H31 UNL     1      34.147  41.023  24.525  1.00  0.00     0.279 HD
ATOM      7  H32 UNL     1      35.191  41.306  23.484  1.00  0.00     0.279 HD
ENDROOT
BRANCH   1   8
HETATM    8  N2  UNL     1      32.655  41.696  22.597  1.00  0.00    -0.345 N 
HETATM    9  C1  UNL     1      33.151  42.866  22.394  1.00  0.00     0.162 C 
HETATM   10  N1  UNL     1      34.512  43.122  22.141  1.00  0.00    -0.074 NA
HETATM   11  S1  UNL     1      31.981  44.241  22.446  1.00  0.00    -0.017 SA
ATOM     12  H2  UNL     1      31.653  41.616  22.772  1.00  0.00     0.163 HD
ENDBRANCH   1   8
TORSDOF 1
ENDMDL
MODEL 2
REMARK VINA RESULT: -3.991894049      8.214      9.298
REMARK  1 active torsions:
REMARK  status: ('A' for Active; 'I' for Inactive)
REMARK    1  A    between atoms: N2_4  and  C2_6 
ROOT
HETATM    1  C2  UNL     1      28.935  35.806  18.309  1.00  0.00     0.285 C 
HETATM    2  C3  UNL     1      29.888  35.864  17.161  1.00  0.00     0.056 C 
HETATM    3  C4  UNL     1      30.171  37.337  16.963  1.00  0.00     0.031 C 
HETATM    4  C5  UNL     1      29.092  37.989  17.800  1.00  0.00     0.235 C 
HETATM    5  N3  UNL     1      29.068  37.119  18.961  1.00  0.00    -0.054 N 
ATOM      6  H31 UNL     1      29.855  37.216  19.603  1.00  0.00     0.279 HD
ATOM      7  H32 UNL     1      28.360  37.337  19.662  1.00  0.00     0.279 HD
ENDROOT
BRANCH   1   8
HETATM    8  N2  UNL     1      29.218  34.793  19.265  1.00  0.00    -0.345 N 
HETATM    9  C1  UNL     1      28.321  33.996  19.731  1.00  0.00     0.162 C 
HETATM   10  N1  UNL     1      26.962  34.022  19.361  1.00  0.00    -0.074 NA
HETATM   11  S1  UNL     1      28.893  32.780  20.938  1.00  0.00    -0.017 SA
ATOM     12  H2  UNL     1      30.178  34.692  19.597  1.00  0.00     0.163 HD
ENDBRANCH   1   8
TORSDOF 1
ENDMDL
MODEL 3
REMARK VINA RESULT: -3.885098535      8.580      9.603
REMARK  1 active torsions:
REMARK  status: ('A' for Active; 'I' for Inactive)
REMARK    1  A    between atoms: N2_4  and  C2_6 
ROOT
HETATM    1  C2  UNL     1      28.878  34.584  18.664  1.00  0.00     0.285 C 
HETATM    2  C3  UNL     1      29.636  34.570  17.377  1.00  0.00     0.056 C 
HETATM    3  C4  UNL     1      30.052  36.007  17.153  1.00  0.00     0.031 C 
HETATM    4  C5  UNL     1      29.202  36.750  18.162  1.00  0.00     0.235 C 
HETATM    5  N3  UNL     1      29.264  35.854  19.301  1.00  0.00    -0.054 N 
ATOM      6  H31 UNL     1      30.149  35.843  19.808  1.00  0.00     0.279 HD
ATOM      7  H32 UNL     1      28.707  36.129  20.110  1.00  0.00     0.279 HD
ENDROOT
BRANCH   1   8
HETATM    8  N2  UNL     1      29.191  33.517  19.550  1.00  0.00    -0.345 N 
HETATM    9  C1  UNL     1      28.576  33.325  20.663  1.00  0.00     0.162 C 
HETATM   10  N1  UNL     1      27.526  34.132  21.144  1.00  0.00    -0.074 NA
HETATM   11  S1  UNL     1      29.130  31.910  21.640  1.00  0.00    -0.017 SA
ATOM     12  H2  UNL     1      29.939  32.873  19.290  1.00  0.00     0.163 HD
ENDBRANCH   1   8
TORSDOF 1
ENDMDL
MODEL 4
REMARK VINA RESULT: -3.447124012      8.866      9.862
REMARK  1 active torsions:
REMARK  status: ('A' for Active; 'I' for Inactive)
REMARK    1  A    between atoms: N2_4  and  C2_6 
ROOT
HETATM    1  C2  UNL     1      29.560  35.361  17.269  1.00  0.00     0.285 C 
HETATM    2  C3  UNL     1      30.108  36.497  16.468  1.00  0.00     0.056 C 
HETATM    3  C4  UNL     1      29.845  37.727  17.308  1.00  0.00     0.031 C 
HETATM    4  C5  UNL     1      28.875  37.209  18.348  1.00  0.00     0.235 C 
HETATM    5  N3  UNL     1      29.435  35.900  18.632  1.00  0.00    -0.054 N 
ATOM      6  H31 UNL     1      30.290  35.897  19.189  1.00  0.00     0.279 HD
ATOM      7  H32 UNL     1      28.905  35.326  19.288  1.00  0.00     0.279 HD
ENDROOT
BRANCH   1   8
HETATM    8  N2  UNL     1      30.391  34.208  17.310  1.00  0.00    -0.345 N 
HETATM    9  C1  UNL     1      29.998  33.074  17.774  1.00  0.00     0.162 C 
HETATM   10  N1  UNL     1      28.711  32.828  18.293  1.00  0.00    -0.074 NA
HETATM   11  S1  UNL     1      31.212  31.738  17.734  1.00  0.00    -0.017 SA
ATOM     12  H2  UNL     1      31.344  34.283  16.954  1.00  0.00     0.163 HD
ENDBRANCH   1   8
TORSDOF 1
ENDMDL
MODEL 5
REMARK VINA RESULT: -3.395593093      2.497      4.027
REMARK  1 active torsions:
REMARK  status: ('A' for Active; 'I' for Inactive)
REMARK    1  A    between atoms: N2_4  and  C2_6 
ROOT
HETATM    1  C2  UNL     1      33.470  41.740  22.991  1.00  0.00     0.285 C 
HETATM    2  C3  UNL     1      32.446  42.703  22.486  1.00  0.00     0.056 C 
HETATM    3  C4  UNL     1      33.214  43.663  21.606  1.00  0.00     0.031 C 
HETATM    4  C5  UNL     1      34.652  43.353  21.965  1.00  0.00     0.235 C 
HETATM    5  N3  UNL     1      34.611  41.906  22.076  1.00  0.00    -0.054 N 
ATOM      6  H31 UNL     1      34.548  41.397  21.194  1.00  0.00     0.279 HD
ATOM      7  H32 UNL     1      35.480  41.461  22.369  1.00  0.00     0.279 HD
ENDROOT
BRANCH   1   8
HETATM    8  N2  UNL     1      33.065  40.378  22.970  1.00  0.00    -0.345 N 
HETATM    9  C1  UNL     1      33.744  39.434  23.522  1.00  0.00     0.162 C 
HETATM   10  N1  UNL     1      34.959  39.624  24.210  1.00  0.00    -0.074 NA
HETATM   11  S1  UNL     1      33.051  37.772  23.380  1.00  0.00    -0.017 SA
ATOM     12  H2  UNL     1      32.194  40.136  22.496  1.00  0.00     0.163 HD
ENDBRANCH   1   8
TORSDOF 1
ENDMDL
