MODEL 1
REMARK VINA RESULT: -7.388545637      0.000      0.000
REMARK  4 active torsions:
REMARK  status: ('A' for Active; 'I' for Inactive)
REMARK    1  A    between atoms: O1_2  and  C2_3 
REMARK    2  A    between atoms: N1_12  and  N2_13 
REMARK    3  A    between atoms: N2_13  and  C8_15 
REMARK    4  A    between atoms: C18_26  and  O4_27 
ROOT
HETATM    1  C2  UNL     1       5.917  -3.904 -30.669  1.00  0.00     0.121 A 
HETATM    2  C3  UNL     1       7.180  -4.461 -30.664  1.00  0.00     0.049 A 
HETATM    3 BR1  UNL     1       7.571  -5.793 -31.977  1.00  0.00    -0.048 Br
HETATM    4  C4  UNL     1       8.137  -4.079 -29.750  1.00  0.00     0.056 A 
HETATM    5  C5  UNL     1       7.820  -3.109 -28.812  1.00  0.00     0.098 A 
HETATM    6  C6  UNL     1       6.569  -2.533 -28.788  1.00  0.00     0.143 A 
HETATM    7  O2  UNL     1       6.551  -1.658 -27.806  1.00  0.00    -0.278 OA
HETATM    8  C7  UNL     1       7.702  -1.624 -27.187  1.00  0.00     0.242 A 
HETATM    9  S1  UNL     1       8.116  -0.670 -25.898  1.00  0.00    -0.031 SA
HETATM   10  N1  UNL     1       8.489  -2.518 -27.805  1.00  0.00    -0.221 N 
HETATM   11  C18 UNL     1       5.635  -2.945 -29.725  1.00  0.00     0.139 A 
ENDROOT
BRANCH  10  12
HETATM   12  N2  UNL     1       9.802  -2.796 -27.459  1.00  0.00    -0.296 N 
ATOM     13  H2  UNL     1      10.284  -2.142 -26.842  1.00  0.00     0.187 HD
BRANCH  12  14
HETATM   14  C8  UNL     1      10.448  -3.828 -27.868  1.00  0.00     0.041 C 
HETATM   15  C9  UNL     1      10.182  -5.217 -27.417  1.00  0.00     0.095 C 
HETATM   16  C10 UNL     1      11.087  -6.064 -28.299  1.00  0.00     0.067 C 
HETATM   17  C11 UNL     1      10.251  -7.200 -28.877  1.00  0.00     0.038 C 
HETATM   18  C14 UNL     1      12.158  -6.767 -27.515  1.00  0.00     0.038 C 
HETATM   19  O3  UNL     1      11.567  -5.244 -29.295  1.00  0.00    -0.364 OA
HETATM   20  C12 UNL     1      11.052  -8.453 -28.716  1.00  0.00     0.003 C 
HETATM   21  C13 UNL     1      12.464  -7.971 -28.394  1.00  0.00     0.003 C 
HETATM   22  C15 UNL     1      11.564  -3.938 -28.836  1.00  0.00     0.094 C 
HETATM   23  C16 UNL     1      11.402  -2.955 -29.986  1.00  0.00     0.052 C 
HETATM   24  C17 UNL     1      12.902  -3.652 -28.203  1.00  0.00     0.052 C 
ENDBRANCH  12  14
ENDBRANCH  10  12
BRANCH  11  25
HETATM   25  O4  UNL     1       4.378  -2.362 -29.696  1.00  0.00    -0.351 OA
HETATM   26  C19 UNL     1       4.253  -1.110 -30.385  1.00  0.00     0.210 C 
ENDBRANCH  11  25
BRANCH   1  27
HETATM   27  O1  UNL     1       4.949  -4.299 -31.603  1.00  0.00    -0.352 OA
HETATM   28  C1  UNL     1       4.006  -5.298 -31.245  1.00  0.00     0.210 C 
ENDBRANCH   1  27
TORSDOF 4
ENDMDL
MODEL 2
REMARK VINA RESULT: -7.179077912      2.940      4.789
REMARK  4 active torsions:
REMARK  status: ('A' for Active; 'I' for Inactive)
REMARK    1  A    between atoms: O1_2  and  C2_3 
REMARK    2  A    between atoms: N1_12  and  N2_13 
REMARK    3  A    between atoms: N2_13  and  C8_15 
REMARK    4  A    between atoms: C18_26  and  O4_27 
ROOT
HETATM    1  C2  UNL     1       5.286  -3.220 -31.605  1.00  0.00     0.121 A 
HETATM    2  C3  UNL     1       5.404  -2.447 -30.468  1.00  0.00     0.049 A 
HETATM    3 BR1  UNL     1       4.154  -1.023 -30.225  1.00  0.00    -0.048 Br
HETATM    4  C4  UNL     1       6.384  -2.683 -29.529  1.00  0.00     0.056 A 
HETATM    5  C5  UNL     1       7.275  -3.725 -29.736  1.00  0.00     0.098 A 
HETATM    6  C6  UNL     1       7.186  -4.516 -30.861  1.00  0.00     0.143 A 
HETATM    7  O2  UNL     1       8.145  -5.413 -30.795  1.00  0.00    -0.278 OA
HETATM    8  C7  UNL     1       8.854  -5.262 -29.707  1.00  0.00     0.242 A 
HETATM    9  S1  UNL     1      10.153  -6.170 -29.226  1.00  0.00    -0.031 SA
HETATM   10  N1  UNL     1       8.320  -4.221 -29.049  1.00  0.00    -0.221 N 
HETATM   11  C18 UNL     1       6.184  -4.246 -31.780  1.00  0.00     0.139 A 
ENDROOT
BRANCH  10  12
HETATM   12  N2  UNL     1       8.776  -3.726 -27.839  1.00  0.00    -0.296 N 
ATOM     13  H2  UNL     1       8.420  -4.149 -26.982  1.00  0.00     0.187 HD
BRANCH  12  14
HETATM   14  C8  UNL     1       9.622  -2.764 -27.731  1.00  0.00     0.041 C 
HETATM   15  C9  UNL     1       9.254  -1.343 -27.514  1.00  0.00     0.095 C 
HETATM   16  C10 UNL     1      10.591  -0.650 -27.299  1.00  0.00     0.067 C 
HETATM   17  C11 UNL     1      10.478   0.213 -26.048  1.00  0.00     0.038 C 
HETATM   18  C14 UNL     1      10.910   0.334 -28.388  1.00  0.00     0.038 C 
HETATM   19  O3  UNL     1      11.538  -1.636 -27.138  1.00  0.00    -0.364 OA
HETATM   20  C12 UNL     1      11.072   1.544 -26.385  1.00  0.00     0.003 C 
HETATM   21  C13 UNL     1      11.841   1.307 -27.682  1.00  0.00     0.003 C 
HETATM   22  C15 UNL     1      11.103  -2.781 -27.784  1.00  0.00     0.094 C 
HETATM   23  C16 UNL     1      11.669  -4.030 -27.124  1.00  0.00     0.052 C 
HETATM   24  C17 UNL     1      11.626  -2.759 -29.198  1.00  0.00     0.052 C 
ENDBRANCH  12  14
ENDBRANCH  10  12
BRANCH  11  25
HETATM   25  O4  UNL     1       6.101  -5.045 -32.909  1.00  0.00    -0.351 OA
HETATM   26  C19 UNL     1       5.539  -6.350 -32.712  1.00  0.00     0.210 C 
ENDBRANCH  11  25
BRANCH   1  27
HETATM   27  O1  UNL     1       4.284  -2.973 -32.555  1.00  0.00    -0.352 OA
HETATM   28  C1  UNL     1       3.040  -3.646 -32.441  1.00  0.00     0.210 C 
ENDBRANCH   1  27
TORSDOF 4
ENDMDL
MODEL 3
REMARK VINA RESULT: -7.178193911      3.168      4.838
REMARK  4 active torsions:
REMARK  status: ('A' for Active; 'I' for Inactive)
REMARK    1  A    between atoms: O1_2  and  C2_3 
REMARK    2  A    between atoms: N1_12  and  N2_13 
REMARK    3  A    between atoms: N2_13  and  C8_15 
REMARK    4  A    between atoms: C18_26  and  O4_27 
ROOT
HETATM    1  C2  UNL     1       7.808   0.196 -24.545  1.00  0.00     0.121 A 
HETATM    2  C3  UNL     1       9.036   0.143 -25.173  1.00  0.00     0.049 A 
HETATM    3 BR1  UNL     1      10.492   1.077 -24.360  1.00  0.00    -0.048 Br
HETATM    4  C4  UNL     1       9.222  -0.555 -26.346  1.00  0.00     0.056 A 
HETATM    5  C5  UNL     1       8.144  -1.221 -26.908  1.00  0.00     0.098 A 
HETATM    6  C6  UNL     1       6.905  -1.189 -26.308  1.00  0.00     0.143 A 
HETATM    7  O2  UNL     1       6.083  -1.899 -27.052  1.00  0.00    -0.278 OA
HETATM    8  C7  UNL     1       6.700  -2.390 -28.094  1.00  0.00     0.242 A 
HETATM    9  S1  UNL     1       6.050  -3.339 -29.286  1.00  0.00    -0.031 SA
HETATM   10  N1  UNL     1       7.974  -1.976 -28.009  1.00  0.00    -0.221 N 
HETATM   11  C18 UNL     1       6.760  -0.476 -25.129  1.00  0.00     0.139 A 
ENDROOT
BRANCH  10  12
HETATM   12  N2  UNL     1       8.971  -2.277 -28.922  1.00  0.00    -0.296 N 
ATOM     13  H2  UNL     1       9.033  -1.712 -29.769  1.00  0.00     0.187 HD
BRANCH  12  14
HETATM   14  C8  UNL     1       9.824  -3.226 -28.766  1.00  0.00     0.041 C 
HETATM   15  C9  UNL     1       9.492  -4.574 -28.241  1.00  0.00     0.095 C 
HETATM   16  C10 UNL     1      10.788  -5.355 -28.401  1.00  0.00     0.067 C 
HETATM   17  C11 UNL     1      10.457  -6.679 -29.080  1.00  0.00     0.038 C 
HETATM   18  C14 UNL     1      11.380  -5.763 -27.083  1.00  0.00     0.038 C 
HETATM   19  O3  UNL     1      11.627  -4.593 -29.183  1.00  0.00    -0.364 OA
HETATM   20  C12 UNL     1      11.177  -7.747 -28.319  1.00  0.00     0.003 C 
HETATM   21  C13 UNL     1      12.190  -6.994 -27.460  1.00  0.00     0.003 C 
HETATM   22  C15 UNL     1      11.280  -3.260 -29.041  1.00  0.00     0.094 C 
HETATM   23  C16 UNL     1      11.628  -2.468 -30.292  1.00  0.00     0.052 C 
HETATM   24  C17 UNL     1      12.090  -2.674 -27.913  1.00  0.00     0.052 C 
ENDBRANCH  12  14
ENDBRANCH  10  12
BRANCH  11  25
HETATM   25  O4  UNL     1       5.510  -0.447 -24.532  1.00  0.00    -0.351 OA
HETATM   26  C19 UNL     1       4.594   0.530 -25.044  1.00  0.00     0.210 C 
ENDBRANCH  11  25
BRANCH   1  27
HETATM   27  O1  UNL     1       7.628   0.910 -23.352  1.00  0.00    -0.352 OA
HETATM   28  C1  UNL     1       7.313   2.293 -23.412  1.00  0.00     0.210 C 
ENDBRANCH   1  27
TORSDOF 4
ENDMDL
MODEL 4
REMARK VINA RESULT: -7.169866803      3.262      5.546
REMARK  4 active torsions:
REMARK  status: ('A' for Active; 'I' for Inactive)
REMARK    1  A    between atoms: O1_2  and  C2_3 
REMARK    2  A    between atoms: N1_12  and  N2_13 
REMARK    3  A    between atoms: N2_13  and  C8_15 
REMARK    4  A    between atoms: C18_26  and  O4_27 
ROOT
HETATM    1  C2  UNL     1       5.421  -3.117 -30.454  1.00  0.00     0.121 A 
HETATM    2  C3  UNL     1       5.685  -2.030 -29.646  1.00  0.00     0.049 A 
HETATM    3 BR1  UNL     1       4.378  -0.638 -29.573  1.00  0.00    -0.048 Br
HETATM    4  C4  UNL     1       6.845  -1.937 -28.909  1.00  0.00     0.056 A 
HETATM    5  C5  UNL     1       7.772  -2.966 -28.985  1.00  0.00     0.098 A 
HETATM    6  C6  UNL     1       7.541  -4.065 -29.782  1.00  0.00     0.143 A 
HETATM    7  O2  UNL     1       8.575  -4.870 -29.660  1.00  0.00    -0.278 OA
HETATM    8  C7  UNL     1       9.463  -4.372 -28.841  1.00  0.00     0.242 A 
HETATM    9  S1  UNL     1      10.909  -5.049 -28.401  1.00  0.00    -0.031 SA
HETATM   10  N1  UNL     1       8.971  -3.196 -28.420  1.00  0.00    -0.221 N 
HETATM   11  C18 UNL     1       6.361  -4.120 -30.505  1.00  0.00     0.139 A 
ENDROOT
BRANCH  10  12
HETATM   12  N2  UNL     1       9.604  -2.339 -27.534  1.00  0.00    -0.296 N 
ATOM     13  H2  UNL     1      10.047  -2.744 -26.709  1.00  0.00     0.187 HD
BRANCH  12  14
HETATM   14  C8  UNL     1       9.668  -1.065 -27.690  1.00  0.00     0.041 C 
HETATM   15  C9  UNL     1      10.137  -0.393 -28.928  1.00  0.00     0.095 C 
HETATM   16  C10 UNL     1       9.871   1.081 -28.663  1.00  0.00     0.067 C 
HETATM   17  C11 UNL     1       9.141   1.652 -29.873  1.00  0.00     0.038 C 
HETATM   18  C14 UNL     1      11.135   1.889 -28.590  1.00  0.00     0.038 C 
HETATM   19  O3  UNL     1       9.090   1.156 -27.531  1.00  0.00    -0.364 OA
HETATM   20  C12 UNL     1       9.808   2.948 -30.209  1.00  0.00     0.003 C 
HETATM   21  C13 UNL     1      10.654   3.278 -28.983  1.00  0.00     0.003 C 
HETATM   22  C15 UNL     1       9.320   0.032 -26.756  1.00  0.00     0.094 C 
HETATM   23  C16 UNL     1       8.097  -0.315 -25.921  1.00  0.00     0.052 C 
HETATM   24  C17 UNL     1      10.436   0.338 -25.791  1.00  0.00     0.052 C 
ENDBRANCH  12  14
ENDBRANCH  10  12
BRANCH  11  25
HETATM   25  O4  UNL     1       6.136  -5.229 -31.306  1.00  0.00    -0.351 OA
HETATM   26  C19 UNL     1       6.796  -5.226 -32.579  1.00  0.00     0.210 C 
ENDBRANCH  11  25
BRANCH   1  27
HETATM   27  O1  UNL     1       4.237  -3.203 -31.199  1.00  0.00    -0.352 OA
HETATM   28  C1  UNL     1       4.199  -2.649 -32.506  1.00  0.00     0.210 C 
ENDBRANCH   1  27
TORSDOF 4
ENDMDL
MODEL 5
REMARK VINA RESULT: -7.161436509      3.059      5.559
REMARK  4 active torsions:
REMARK  status: ('A' for Active; 'I' for Inactive)
REMARK    1  A    between atoms: O1_2  and  C2_3 
REMARK    2  A    between atoms: N1_12  and  N2_13 
REMARK    3  A    between atoms: N2_13  and  C8_15 
REMARK    4  A    between atoms: C18_26  and  O4_27 
ROOT
HETATM    1  C2  UNL     1       5.059  -3.544 -31.675  1.00  0.00     0.121 A 
HETATM    2  C3  UNL     1       4.955  -2.561 -30.711  1.00  0.00     0.049 A 
HETATM    3 BR1  UNL     1       3.455  -1.381 -30.802  1.00  0.00    -0.048 Br
HETATM    4  C4  UNL     1       5.892  -2.424 -29.710  1.00  0.00     0.056 A 
HETATM    5  C5  UNL     1       6.967  -3.298 -29.674  1.00  0.00     0.098 A 
HETATM    6  C6  UNL     1       7.103  -4.289 -30.620  1.00  0.00     0.143 A 
HETATM    7  O2  UNL     1       8.201  -4.959 -30.343  1.00  0.00    -0.278 OA
HETATM    8  C7  UNL     1       8.791  -4.472 -29.283  1.00  0.00     0.242 A 
HETATM    9  S1  UNL     1      10.194  -5.009 -28.585  1.00  0.00    -0.031 SA
HETATM   10  N1  UNL     1       8.033  -3.447 -28.865  1.00  0.00    -0.221 N 
HETATM   11  C18 UNL     1       6.138  -4.394 -31.609  1.00  0.00     0.139 A 
ENDROOT
BRANCH  10  12
HETATM   12  N2  UNL     1       8.305  -2.653 -27.763  1.00  0.00    -0.296 N 
ATOM     13  H2  UNL     1       8.289  -3.090 -26.842  1.00  0.00     0.187 HD
BRANCH  12  14
HETATM   14  C8  UNL     1       8.576  -1.398 -27.832  1.00  0.00     0.041 C 
HETATM   15  C9  UNL     1       9.433  -0.781 -28.875  1.00  0.00     0.095 C 
HETATM   16  C10 UNL     1       9.308   0.712 -28.610  1.00  0.00     0.067 C 
HETATM   17  C11 UNL     1       8.997   1.399 -29.935  1.00  0.00     0.038 C 
HETATM   18  C14 UNL     1      10.606   1.330 -28.178  1.00  0.00     0.038 C 
HETATM   19  O3  UNL     1       8.278   0.880 -27.711  1.00  0.00    -0.364 OA
HETATM   20  C12 UNL     1       9.895   2.592 -30.025  1.00  0.00     0.003 C 
HETATM   21  C13 UNL     1      10.433   2.779 -28.608  1.00  0.00     0.003 C 
HETATM   22  C15 UNL     1       8.148  -0.277 -26.962  1.00  0.00     0.094 C 
HETATM   23  C16 UNL     1       6.715  -0.460 -26.484  1.00  0.00     0.052 C 
HETATM   24  C17 UNL     1       9.007  -0.147 -25.731  1.00  0.00     0.052 C 
ENDBRANCH  12  14
ENDBRANCH  10  12
BRANCH  11  25
HETATM   25  O4  UNL     1       6.281  -5.394 -32.558  1.00  0.00    -0.351 OA
HETATM   26  C19 UNL     1       5.577  -6.615 -32.292  1.00  0.00     0.210 C 
ENDBRANCH  11  25
BRANCH   1  27
HETATM   27  O1  UNL     1       4.101  -3.676 -32.689  1.00  0.00    -0.352 OA
HETATM   28  C1  UNL     1       4.337  -3.067 -33.950  1.00  0.00     0.210 C 
ENDBRANCH   1  27
TORSDOF 4
ENDMDL
