MODEL 1
REMARK VINA RESULT: -7.030825256      0.000      0.000
REMARK  6 active torsions:
REMARK  status: ('A' for Active; 'I' for Inactive)
REMARK       I    between atoms: C1_2  and  N1_3 
REMARK       I    between atoms: C1_2  and  N4_18 
REMARK    1  A    between atoms: N1_3  and  C2_5 
REMARK    2  A    between atoms: C2_5  and  C3_6 
REMARK    3  A    between atoms: C3_6  and  N2_7 
REMARK    4  A    between atoms: N3_13  and  C9_15 
REMARK    5  A    between atoms: C9_15  and  C10_16 
REMARK    6  A    between atoms: C13_21  and  C14_22 
REMARK       I    between atoms: C14_22  and  N5_24 
ROOT
HETATM    1  O1  UNL     1      24.395  35.878  40.277  1.00  0.00    -0.247 OA
HETATM    2  C1  UNL     1      24.134  35.851  41.498  1.00  0.00     0.323 C 
HETATM    3  N1  UNL     1      25.179  35.647  42.422  1.00  0.00    -0.297 N 
ATOM      4  H1  UNL     1      24.916  35.634  43.408  1.00  0.00     0.172 HD
HETATM    5  N4  UNL     1      22.789  36.026  41.914  1.00  0.00    -0.334 N 
HETATM    6  C11 UNL     1      21.774  36.219  40.920  1.00  0.00     0.128 C 
HETATM    7  C12 UNL     1      20.408  36.505  41.431  1.00  0.00     0.034 C 
HETATM    8  C13 UNL     1      20.146  35.718  42.705  1.00  0.00     0.081 C 
HETATM    9  C19 UNL     1      21.101  36.276  43.728  1.00  0.00     0.034 C 
HETATM   10  C20 UNL     1      22.498  36.006  43.312  1.00  0.00     0.128 C 
ENDROOT
BRANCH   3  11
HETATM   11  C2  UNL     1      26.541  35.461  42.138  1.00  0.00     0.109 C 
HETATM   12  N3  UNL     1      27.343  36.475  42.324  1.00  0.00    -0.377 N 
ATOM     13  H3  UNL     1      28.331  36.331  42.114  1.00  0.00     0.160 HD
BRANCH  11  14
HETATM   14  C3  UNL     1      27.161  34.232  41.675  1.00  0.00     0.348 C 
BRANCH  14  15
HETATM   15  N2  UNL     1      28.313  34.406  40.803  1.00  0.00     0.095 N 
HETATM   16  C4  UNL     1      27.925  34.770  39.470  1.00  0.00     0.273 C 
HETATM   17  C5  UNL     1      28.675  33.989  38.448  1.00  0.00     0.030 C 
HETATM   18  C6  UNL     1      28.213  32.537  38.638  1.00  0.00     0.003 C 
HETATM   19  C7  UNL     1      28.768  32.118  39.971  1.00  0.00     0.030 C 
HETATM   20  C8  UNL     1      29.132  33.230  40.878  1.00  0.00     0.273 C 
ENDBRANCH  14  15
ENDBRANCH  11  14
BRANCH  12  21
HETATM   21  C9  UNL     1      26.960  37.761  42.792  1.00  0.00     0.132 C 
BRANCH  21  22
HETATM   22  C10 UNL     1      27.052  37.914  44.291  1.00  0.00     0.104 C 
HETATM   23 BR1  UNL     1      25.303  38.271  45.007  1.00  0.00    -0.095 Br
ENDBRANCH  21  22
ENDBRANCH  12  21
ENDBRANCH   3  11
BRANCH   8  24
HETATM   24  C14 UNL     1      18.754  35.769  43.113  1.00  0.00     0.224 C 
HETATM   25  O2  UNL     1      18.075  36.791  42.755  1.00  0.00    -0.273 OA
HETATM   26  N5  UNL     1      18.086  34.786  43.867  1.00  0.00    -0.352 N 
HETATM   27  C15 UNL     1      18.634  33.563  44.418  1.00  0.00     0.126 C 
HETATM   28  C18 UNL     1      16.680  34.764  44.258  1.00  0.00     0.126 C 
HETATM   29  C16 UNL     1      17.556  32.573  43.963  1.00  0.00     0.021 C 
HETATM   30  C17 UNL     1      16.298  33.311  44.356  1.00  0.00     0.021 C 
ENDBRANCH   8  24
TORSDOF 6
ENDMDL
MODEL 2
REMARK VINA RESULT: -6.854881260      3.720      9.150
REMARK  6 active torsions:
REMARK  status: ('A' for Active; 'I' for Inactive)
REMARK       I    between atoms: C1_2  and  N1_3 
REMARK       I    between atoms: C1_2  and  N4_18 
REMARK    1  A    between atoms: N1_3  and  C2_5 
REMARK    2  A    between atoms: C2_5  and  C3_6 
REMARK    3  A    between atoms: C3_6  and  N2_7 
REMARK    4  A    between atoms: N3_13  and  C9_15 
REMARK    5  A    between atoms: C9_15  and  C10_16 
REMARK    6  A    between atoms: C13_21  and  C14_22 
REMARK       I    between atoms: C14_22  and  N5_24 
ROOT
HETATM    1  O1  UNL     1      22.144  31.981  45.352  1.00  0.00    -0.247 OA
HETATM    2  C1  UNL     1      22.322  33.203  45.539  1.00  0.00     0.323 C 
HETATM    3  N1  UNL     1      21.337  33.947  46.222  1.00  0.00    -0.297 N 
ATOM      4  H1  UNL     1      21.528  34.940  46.351  1.00  0.00     0.172 HD
HETATM    5  N4  UNL     1      23.514  33.803  45.057  1.00  0.00    -0.334 N 
HETATM    6  C11 UNL     1      24.468  32.990  44.363  1.00  0.00     0.128 C 
HETATM    7  C12 UNL     1      25.740  33.659  43.983  1.00  0.00     0.034 C 
HETATM    8  C13 UNL     1      25.479  35.104  43.591  1.00  0.00     0.081 C 
HETATM    9  C19 UNL     1      25.006  35.785  44.849  1.00  0.00     0.034 C 
HETATM   10  C20 UNL     1      23.717  35.198  45.285  1.00  0.00     0.128 C 
ENDROOT
BRANCH   3  11
HETATM   11  C2  UNL     1      20.123  33.473  46.743  1.00  0.00     0.109 C 
HETATM   12  N3  UNL     1      20.149  32.899  47.916  1.00  0.00    -0.377 N 
ATOM     13  H3  UNL     1      19.263  32.557  48.286  1.00  0.00     0.160 HD
BRANCH  11  14
HETATM   14  C3  UNL     1      18.819  33.577  46.112  1.00  0.00     0.348 C 
BRANCH  14  15
HETATM   15  N2  UNL     1      18.832  33.613  44.657  1.00  0.00     0.095 N 
HETATM   16  C4  UNL     1      18.404  34.886  44.150  1.00  0.00     0.273 C 
HETATM   17  C5  UNL     1      17.440  34.732  43.024  1.00  0.00     0.030 C 
HETATM   18  C6  UNL     1      16.195  34.088  43.651  1.00  0.00     0.003 C 
HETATM   19  C7  UNL     1      16.618  32.696  44.029  1.00  0.00     0.030 C 
HETATM   20  C8  UNL     1      18.079  32.497  44.159  1.00  0.00     0.273 C 
ENDBRANCH  14  15
ENDBRANCH  11  14
BRANCH  12  21
HETATM   21  C9  UNL     1      21.306  32.711  48.721  1.00  0.00     0.132 C 
BRANCH  21  22
HETATM   22  C10 UNL     1      21.054  31.893  49.965  1.00  0.00     0.104 C 
HETATM   23 BR1  UNL     1      19.396  32.443  50.769  1.00  0.00    -0.095 Br
ENDBRANCH  21  22
ENDBRANCH  12  21
ENDBRANCH   3  11
BRANCH   8  24
HETATM   24  C14 UNL     1      26.638  35.733  42.983  1.00  0.00     0.224 C 
HETATM   25  O2  UNL     1      27.780  35.208  43.216  1.00  0.00    -0.273 OA
HETATM   26  N5  UNL     1      26.611  36.870  42.155  1.00  0.00    -0.352 N 
HETATM   27  C15 UNL     1      25.460  37.663  41.771  1.00  0.00     0.126 C 
HETATM   28  C18 UNL     1      27.736  37.509  41.480  1.00  0.00     0.126 C 
HETATM   29  C16 UNL     1      25.709  37.757  40.261  1.00  0.00     0.021 C 
HETATM   30  C17 UNL     1      27.173  38.130  40.229  1.00  0.00     0.021 C 
ENDBRANCH   8  24
TORSDOF 6
ENDMDL
MODEL 3
REMARK VINA RESULT: -6.799558348      5.916      8.445
REMARK  6 active torsions:
REMARK  status: ('A' for Active; 'I' for Inactive)
REMARK       I    between atoms: C1_2  and  N1_3 
REMARK       I    between atoms: C1_2  and  N4_18 
REMARK    1  A    between atoms: N1_3  and  C2_5 
REMARK    2  A    between atoms: C2_5  and  C3_6 
REMARK    3  A    between atoms: C3_6  and  N2_7 
REMARK    4  A    between atoms: N3_13  and  C9_15 
REMARK    5  A    between atoms: C9_15  and  C10_16 
REMARK    6  A    between atoms: C13_21  and  C14_22 
REMARK       I    between atoms: C14_22  and  N5_24 
ROOT
HETATM    1  O1  UNL     1      21.805  33.472  45.313  1.00  0.00    -0.247 OA
HETATM    2  C1  UNL     1      22.362  32.830  44.398  1.00  0.00     0.323 C 
HETATM    3  N1  UNL     1      22.031  33.115  43.057  1.00  0.00    -0.297 N 
ATOM      4  H1  UNL     1      22.513  32.565  42.346  1.00  0.00     0.172 HD
HETATM    5  N4  UNL     1      23.310  31.833  44.741  1.00  0.00    -0.334 N 
HETATM    6  C11 UNL     1      23.591  31.589  46.125  1.00  0.00     0.128 C 
HETATM    7  C12 UNL     1      24.673  30.610  46.408  1.00  0.00     0.034 C 
HETATM    8  C13 UNL     1      24.649  29.488  45.383  1.00  0.00     0.081 C 
HETATM    9  C19 UNL     1      25.001  30.134  44.068  1.00  0.00     0.034 C 
HETATM   10  C20 UNL     1      23.952  31.111  43.690  1.00  0.00     0.128 C 
ENDROOT
BRANCH   3  11
HETATM   11  C2  UNL     1      21.114  34.070  42.591  1.00  0.00     0.109 C 
HETATM   12  N3  UNL     1      19.855  33.726  42.538  1.00  0.00    -0.377 N 
ATOM     13  H3  UNL     1      19.196  34.426  42.198  1.00  0.00     0.160 HD
BRANCH  11  14
HETATM   14  C3  UNL     1      21.424  35.428  42.178  1.00  0.00     0.348 C 
BRANCH  14  15
HETATM   15  N2  UNL     1      22.740  35.911  42.564  1.00  0.00     0.095 N 
HETATM   16  C4  UNL     1      22.659  37.094  43.374  1.00  0.00     0.273 C 
HETATM   17  C5  UNL     1      23.638  38.128  42.934  1.00  0.00     0.030 C 
HETATM   18  C6  UNL     1      23.174  38.545  41.531  1.00  0.00     0.003 C 
HETATM   19  C7  UNL     1      23.418  37.344  40.661  1.00  0.00     0.030 C 
HETATM   20  C8  UNL     1      23.544  36.059  41.384  1.00  0.00     0.273 C 
ENDBRANCH  14  15
ENDBRANCH  11  14
BRANCH  12  21
HETATM   21  C9  UNL     1      19.324  32.462  42.914  1.00  0.00     0.132 C 
BRANCH  21  22
HETATM   22  C10 UNL     1      18.318  32.535  44.037  1.00  0.00     0.104 C 
HETATM   23 BR1  UNL     1      16.933  33.785  43.576  1.00  0.00    -0.095 Br
ENDBRANCH  21  22
ENDBRANCH  12  21
ENDBRANCH   3  11
BRANCH   8  24
HETATM   24  C14 UNL     1      25.519  28.384  45.746  1.00  0.00     0.224 C 
HETATM   25  O2  UNL     1      26.532  28.166  44.998  1.00  0.00    -0.273 OA
HETATM   26  N5  UNL     1      25.345  27.536  46.855  1.00  0.00    -0.352 N 
HETATM   27  C15 UNL     1      24.269  27.552  47.826  1.00  0.00     0.126 C 
HETATM   28  C18 UNL     1      26.215  26.449  47.292  1.00  0.00     0.126 C 
HETATM   29  C16 UNL     1      25.092  27.479  49.118  1.00  0.00     0.021 C 
HETATM   30  C17 UNL     1      26.057  26.365  48.787  1.00  0.00     0.021 C 
ENDBRANCH   8  24
TORSDOF 6
ENDMDL
MODEL 4
REMARK VINA RESULT: -6.777363344      5.451      8.545
REMARK  6 active torsions:
REMARK  status: ('A' for Active; 'I' for Inactive)
REMARK       I    between atoms: C1_2  and  N1_3 
REMARK       I    between atoms: C1_2  and  N4_18 
REMARK    1  A    between atoms: N1_3  and  C2_5 
REMARK    2  A    between atoms: C2_5  and  C3_6 
REMARK    3  A    between atoms: C3_6  and  N2_7 
REMARK    4  A    between atoms: N3_13  and  C9_15 
REMARK    5  A    between atoms: C9_15  and  C10_16 
REMARK    6  A    between atoms: C13_21  and  C14_22 
REMARK       I    between atoms: C14_22  and  N5_24 
ROOT
HETATM    1  O1  UNL     1      22.035  33.765  45.200  1.00  0.00    -0.247 OA
HETATM    2  C1  UNL     1      22.451  32.965  44.335  1.00  0.00     0.323 C 
HETATM    3  N1  UNL     1      22.085  33.155  42.987  1.00  0.00    -0.297 N 
ATOM      4  H1  UNL     1      22.449  32.477  42.318  1.00  0.00     0.172 HD
HETATM    5  N4  UNL     1      23.280  31.888  44.742  1.00  0.00    -0.334 N 
HETATM    6  C11 UNL     1      23.605  31.749  46.131  1.00  0.00     0.128 C 
HETATM    7  C12 UNL     1      24.565  30.666  46.470  1.00  0.00     0.034 C 
HETATM    8  C13 UNL     1      24.337  29.460  45.573  1.00  0.00     0.081 C 
HETATM    9  C19 UNL     1      24.695  29.917  44.183  1.00  0.00     0.034 C 
HETATM   10  C20 UNL     1      23.762  30.984  43.748  1.00  0.00     0.128 C 
ENDROOT
BRANCH   3  11
HETATM   11  C2  UNL     1      21.274  34.174  42.461  1.00  0.00     0.109 C 
HETATM   12  N3  UNL     1      19.986  33.964  42.422  1.00  0.00    -0.377 N 
ATOM     13  H3  UNL     1      19.405  34.708  42.038  1.00  0.00     0.160 HD
BRANCH  11  14
HETATM   14  C3  UNL     1      21.727  35.464  41.972  1.00  0.00     0.348 C 
BRANCH  14  15
HETATM   15  N2  UNL     1      22.995  35.927  42.514  1.00  0.00     0.095 N 
HETATM   16  C4  UNL     1      22.821  37.037  43.408  1.00  0.00     0.273 C 
HETATM   17  C5  UNL     1      23.817  38.113  43.146  1.00  0.00     0.030 C 
HETATM   18  C6  UNL     1      23.474  38.642  41.746  1.00  0.00     0.003 C 
HETATM   19  C7  UNL     1      23.816  37.521  40.805  1.00  0.00     0.030 C 
HETATM   20  C8  UNL     1      23.898  36.181  41.428  1.00  0.00     0.273 C 
ENDBRANCH  14  15
ENDBRANCH  11  14
BRANCH  12  21
HETATM   21  C9  UNL     1      19.323  32.788  42.868  1.00  0.00     0.132 C 
BRANCH  21  22
HETATM   22  C10 UNL     1      18.593  32.961  44.177  1.00  0.00     0.104 C 
HETATM   23 BR1  UNL     1      16.711  32.677  43.904  1.00  0.00    -0.095 Br
ENDBRANCH  21  22
ENDBRANCH  12  21
ENDBRANCH   3  11
BRANCH   8  24
HETATM   24  C14 UNL     1      25.076  28.291  46.015  1.00  0.00     0.224 C 
HETATM   25  O2  UNL     1      24.403  27.323  46.506  1.00  0.00    -0.273 OA
HETATM   26  N5  UNL     1      26.473  28.132  45.944  1.00  0.00    -0.352 N 
HETATM   27  C15 UNL     1      27.453  29.086  45.466  1.00  0.00     0.126 C 
HETATM   28  C18 UNL     1      27.257  26.962  46.325  1.00  0.00     0.126 C 
HETATM   29  C16 UNL     1      28.270  28.172  44.546  1.00  0.00     0.021 C 
HETATM   30  C17 UNL     1      28.471  26.967  45.435  1.00  0.00     0.021 C 
ENDBRANCH   8  24
TORSDOF 6
ENDMDL
MODEL 5
REMARK VINA RESULT: -6.772063188      3.445      4.101
REMARK  6 active torsions:
REMARK  status: ('A' for Active; 'I' for Inactive)
REMARK       I    between atoms: C1_2  and  N1_3 
REMARK       I    between atoms: C1_2  and  N4_18 
REMARK    1  A    between atoms: N1_3  and  C2_5 
REMARK    2  A    between atoms: C2_5  and  C3_6 
REMARK    3  A    between atoms: C3_6  and  N2_7 
REMARK    4  A    between atoms: N3_13  and  C9_15 
REMARK    5  A    between atoms: C9_15  and  C10_16 
REMARK    6  A    between atoms: C13_21  and  C14_22 
REMARK       I    between atoms: C14_22  and  N5_24 
ROOT
HETATM    1  O1  UNL     1      22.351  34.124  41.748  1.00  0.00    -0.247 OA
HETATM    2  C1  UNL     1      22.835  34.268  42.890  1.00  0.00     0.323 C 
HETATM    3  N1  UNL     1      24.139  33.799  43.151  1.00  0.00    -0.297 N 
ATOM      4  H1  UNL     1      24.490  33.940  44.098  1.00  0.00     0.172 HD
HETATM    5  N4  UNL     1      22.052  34.901  43.890  1.00  0.00    -0.334 N 
HETATM    6  C11 UNL     1      20.730  35.345  43.558  1.00  0.00     0.128 C 
HETATM    7  C12 UNL     1      20.010  36.096  44.620  1.00  0.00     0.034 C 
HETATM    8  C13 UNL     1      20.347  35.527  45.989  1.00  0.00     0.081 C 
HETATM    9  C19 UNL     1      21.812  35.812  46.195  1.00  0.00     0.034 C 
HETATM   10  C20 UNL     1      22.615  35.073  45.191  1.00  0.00     0.128 C 
ENDROOT
BRANCH   3  11
HETATM   11  C2  UNL     1      25.008  33.159  42.253  1.00  0.00     0.109 C 
HETATM   12  N3  UNL     1      25.755  33.912  41.492  1.00  0.00    -0.377 N 
ATOM     13  H3  UNL     1      26.383  33.440  40.842  1.00  0.00     0.160 HD
BRANCH  11  14
HETATM   14  C3  UNL     1      25.179  31.725  42.098  1.00  0.00     0.348 C 
BRANCH  14  15
HETATM   15  N2  UNL     1      26.178  31.120  42.965  1.00  0.00     0.095 N 
HETATM   16  C4  UNL     1      27.081  30.277  42.234  1.00  0.00     0.273 C 
HETATM   17  C5  UNL     1      27.311  28.981  42.933  1.00  0.00     0.030 C 
HETATM   18  C6  UNL     1      25.951  28.268  42.905  1.00  0.00     0.003 C 
HETATM   19  C7  UNL     1      25.062  29.076  43.808  1.00  0.00     0.030 C 
HETATM   20  C8  UNL     1      25.512  30.464  44.054  1.00  0.00     0.273 C 
ENDBRANCH  14  15
ENDBRANCH  11  14
BRANCH  12  21
HETATM   21  C9  UNL     1      25.770  35.334  41.491  1.00  0.00     0.132 C 
BRANCH  21  22
HETATM   22  C10 UNL     1      26.460  35.934  40.290  1.00  0.00     0.104 C 
HETATM   23 BR1  UNL     1      27.169  37.659  40.753  1.00  0.00    -0.095 Br
ENDBRANCH  21  22
ENDBRANCH  12  21
ENDBRANCH   3  11
BRANCH   8  24
HETATM   24  C14 UNL     1      19.493  36.058  47.036  1.00  0.00     0.224 C 
HETATM   25  O2  UNL     1      19.983  36.970  47.785  1.00  0.00    -0.273 OA
HETATM   26  N5  UNL     1      18.170  35.654  47.296  1.00  0.00    -0.352 N 
HETATM   27  C15 UNL     1      17.406  34.625  46.620  1.00  0.00     0.126 C 
HETATM   28  C18 UNL     1      17.256  36.189  48.299  1.00  0.00     0.126 C 
HETATM   29  C16 UNL     1      16.103  35.394  46.377  1.00  0.00     0.021 C 
HETATM   30  C17 UNL     1      15.871  36.013  47.736  1.00  0.00     0.021 C 
ENDBRANCH   8  24
TORSDOF 6
ENDMDL
