MODEL 1
REMARK VINA RESULT: -5.753362366      0.000      0.000
REMARK  6 active torsions:
REMARK  status: ('A' for Active; 'I' for Inactive)
REMARK    1  A    between atoms: N1_1  and  C1_5 
REMARK    2  A    between atoms: C1_5  and  C2_6 
REMARK    3  A    between atoms: C2_6  and  N2_7 
REMARK    4  A    between atoms: C2_6  and  C3_11 
REMARK    5  A    between atoms: C3_11  and  N3_12 
REMARK    6  A    between atoms: N3_12  and  C4_14 
ROOT
HETATM    1  C2  UNL     1      72.662  41.254  76.419  1.00  0.00     0.226 C 
ENDROOT
BRANCH   1   2
HETATM    2  C1  UNL     1      72.542  42.754  76.529  1.00  0.00     0.264 C 
BRANCH   2   3
HETATM    3  N1  UNL     1      73.345  43.272  77.634  1.00  0.00    -0.077 N 
ATOM      4  H13 UNL     1      72.792  43.370  78.486  1.00  0.00     0.274 HD
ATOM      5  H12 UNL     1      74.019  42.580  77.963  1.00  0.00     0.274 HD
ATOM      6  H11 UNL     1      73.802  44.148  77.381  1.00  0.00     0.274 HD
ENDBRANCH   2   3
ENDBRANCH   1   2
BRANCH   1   7
HETATM    7  N2  UNL     1      73.441  40.825  75.299  1.00  0.00    -0.072 N 
ATOM      8  H23 UNL     1      73.296  39.831  75.119  1.00  0.00     0.274 HD
ATOM      9  H22 UNL     1      73.068  41.210  74.431  1.00  0.00     0.274 HD
ATOM     10  H21 UNL     1      74.435  41.035  75.390  1.00  0.00     0.274 HD
ENDBRANCH   1   7
BRANCH   1  11
HETATM   11  C3  UNL     1      73.226  40.739  77.723  1.00  0.00     0.155 C 
BRANCH  11  12
HETATM   12  N3  UNL     1      74.155  39.685  77.442  1.00  0.00    -0.374 N 
ATOM     13  H3  UNL     1      74.085  39.184  76.557  1.00  0.00     0.161 HD
BRANCH  12  14
HETATM   14  C4  UNL     1      75.085  39.351  78.289  1.00  0.00     0.100 A 
HETATM   15  C5  UNL     1      75.809  38.197  78.161  1.00  0.00     0.048 A 
HETATM   16  C6  UNL     1      76.780  37.887  79.077  1.00  0.00     0.005 A 
HETATM   17  C7  UNL     1      77.053  38.722  80.144  1.00  0.00     0.017 A 
HETATM   18  C8  UNL     1      76.310  39.876  80.246  1.00  0.00     0.089 A 
HETATM   19  N4  UNL     1      75.362  40.156  79.333  1.00  0.00    -0.353 N 
ATOM     20  H4  UNL     1      74.826  41.018  79.437  1.00  0.00     0.166 HD
ENDBRANCH  12  14
ENDBRANCH  11  12
ENDBRANCH   1  11
TORSDOF 6
ENDMDL
MODEL 2
REMARK VINA RESULT: -5.659076147      1.565      5.268
REMARK  6 active torsions:
REMARK  status: ('A' for Active; 'I' for Inactive)
REMARK    1  A    between atoms: N1_1  and  C1_5 
REMARK    2  A    between atoms: C1_5  and  C2_6 
REMARK    3  A    between atoms: C2_6  and  N2_7 
REMARK    4  A    between atoms: C2_6  and  C3_11 
REMARK    5  A    between atoms: C3_11  and  N3_12 
REMARK    6  A    between atoms: N3_12  and  C4_14 
ROOT
HETATM    1  C2  UNL     1      74.704  39.421  78.680  1.00  0.00     0.226 C 
ENDROOT
BRANCH   1   2
HETATM    2  C1  UNL     1      75.087  38.624  77.458  1.00  0.00     0.264 C 
BRANCH   2   3
HETATM    3  N1  UNL     1      74.292  37.403  77.348  1.00  0.00    -0.077 N 
ATOM      4  H13 UNL     1      74.641  36.794  76.608  1.00  0.00     0.274 HD
ATOM      5  H12 UNL     1      74.443  36.786  78.145  1.00  0.00     0.274 HD
ATOM      6  H11 UNL     1      73.302  37.615  77.222  1.00  0.00     0.274 HD
ENDBRANCH   2   3
ENDBRANCH   1   2
BRANCH   1   7
HETATM    7  N2  UNL     1      75.658  40.428  79.026  1.00  0.00    -0.072 N 
ATOM      8  H23 UNL     1      76.066  40.238  79.941  1.00  0.00     0.274 HD
ATOM      9  H22 UNL     1      76.494  40.348  78.447  1.00  0.00     0.274 HD
ATOM     10  H21 UNL     1      75.281  41.376  78.988  1.00  0.00     0.274 HD
ENDBRANCH   1   7
BRANCH   1  11
HETATM   11  C3  UNL     1      73.333  40.009  78.437  1.00  0.00     0.155 C 
BRANCH  11  12
HETATM   12  N3  UNL     1      73.329  40.667  77.164  1.00  0.00    -0.374 N 
ATOM     13  H3  UNL     1      73.706  40.181  76.352  1.00  0.00     0.161 HD
BRANCH  12  14
HETATM   14  C4  UNL     1      72.857  41.871  77.020  1.00  0.00     0.100 A 
HETATM   15  C5  UNL     1      71.853  42.161  76.136  1.00  0.00     0.048 A 
HETATM   16  C6  UNL     1      71.388  43.444  76.018  1.00  0.00     0.005 A 
HETATM   17  C7  UNL     1      71.911  44.471  76.781  1.00  0.00     0.017 A 
HETATM   18  C8  UNL     1      72.918  44.149  77.662  1.00  0.00     0.089 A 
HETATM   19  N4  UNL     1      73.358  42.881  77.757  1.00  0.00    -0.353 N 
ATOM     20  H4  UNL     1      74.107  42.675  78.418  1.00  0.00     0.166 HD
ENDBRANCH  12  14
ENDBRANCH  11  12
ENDBRANCH   1  11
TORSDOF 6
ENDMDL
MODEL 3
REMARK VINA RESULT: -5.643415942      1.036      1.496
REMARK  6 active torsions:
REMARK  status: ('A' for Active; 'I' for Inactive)
REMARK    1  A    between atoms: N1_1  and  C1_5 
REMARK    2  A    between atoms: C1_5  and  C2_6 
REMARK    3  A    between atoms: C2_6  and  N2_7 
REMARK    4  A    between atoms: C2_6  and  C3_11 
REMARK    5  A    between atoms: C3_11  and  N3_12 
REMARK    6  A    between atoms: N3_12  and  C4_14 
ROOT
HETATM    1  C2  UNL     1      72.937  42.383  76.815  1.00  0.00     0.226 C 
ENDROOT
BRANCH   1   2
HETATM    2  C1  UNL     1      71.626  42.718  76.149  1.00  0.00     0.264 C 
BRANCH   2   3
HETATM    3  N1  UNL     1      71.637  44.073  75.605  1.00  0.00    -0.077 N 
ATOM      4  H13 UNL     1      72.587  44.393  75.412  1.00  0.00     0.274 HD
ATOM      5  H12 UNL     1      71.267  44.098  74.655  1.00  0.00     0.274 HD
ATOM      6  H11 UNL     1      71.141  44.722  76.216  1.00  0.00     0.274 HD
ENDBRANCH   2   3
ENDBRANCH   1   2
BRANCH   1   7
HETATM    7  N2  UNL     1      73.413  43.412  77.687  1.00  0.00    -0.072 N 
ATOM      8  H23 UNL     1      72.642  43.823  78.214  1.00  0.00     0.274 HD
ATOM      9  H22 UNL     1      73.951  43.013  78.456  1.00  0.00     0.274 HD
ATOM     10  H21 UNL     1      73.949  44.136  77.208  1.00  0.00     0.274 HD
ENDBRANCH   1   7
BRANCH   1  11
HETATM   11  C3  UNL     1      72.764  41.070  77.542  1.00  0.00     0.155 C 
BRANCH  11  12
HETATM   12  N3  UNL     1      73.747  40.142  77.066  1.00  0.00    -0.374 N 
ATOM     13  H3  UNL     1      73.765  39.904  76.075  1.00  0.00     0.161 HD
BRANCH  12  14
HETATM   14  C4  UNL     1      74.616  39.597  77.866  1.00  0.00     0.100 A 
HETATM   15  C5  UNL     1      75.319  38.473  77.525  1.00  0.00     0.048 A 
HETATM   16  C6  UNL     1      76.224  37.935  78.401  1.00  0.00     0.005 A 
HETATM   17  C7  UNL     1      76.452  38.505  79.640  1.00  0.00     0.017 A 
HETATM   18  C8  UNL     1      75.732  39.634  79.954  1.00  0.00     0.089 A 
HETATM   19  N4  UNL     1      74.848  40.142  79.076  1.00  0.00    -0.353 N 
ATOM     20  H4  UNL     1      74.328  40.979  79.339  1.00  0.00     0.166 HD
ENDBRANCH  12  14
ENDBRANCH  11  12
ENDBRANCH   1  11
TORSDOF 6
ENDMDL
MODEL 4
REMARK VINA RESULT: -5.546959101      0.898      1.203
REMARK  6 active torsions:
REMARK  status: ('A' for Active; 'I' for Inactive)
REMARK    1  A    between atoms: N1_1  and  C1_5 
REMARK    2  A    between atoms: C1_5  and  C2_6 
REMARK    3  A    between atoms: C2_6  and  N2_7 
REMARK    4  A    between atoms: C2_6  and  C3_11 
REMARK    5  A    between atoms: C3_11  and  N3_12 
REMARK    6  A    between atoms: N3_12  and  C4_14 
ROOT
HETATM    1  C2  UNL     1      72.767  41.081  76.501  1.00  0.00     0.226 C 
ENDROOT
BRANCH   1   2
HETATM    2  C1  UNL     1      72.587  42.578  76.461  1.00  0.00     0.264 C 
BRANCH   2   3
HETATM    3  N1  UNL     1      73.288  43.228  77.566  1.00  0.00    -0.077 N 
ATOM      4  H13 UNL     1      72.689  43.319  78.387  1.00  0.00     0.274 HD
ATOM      5  H12 UNL     1      74.006  42.621  77.962  1.00  0.00     0.274 HD
ATOM      6  H11 UNL     1      73.673  44.128  77.282  1.00  0.00     0.274 HD
ENDBRANCH   2   3
ENDBRANCH   1   2
BRANCH   1   7
HETATM    7  N2  UNL     1      73.646  40.585  75.489  1.00  0.00    -0.072 N 
ATOM      8  H23 UNL     1      73.842  41.307  74.796  1.00  0.00     0.274 HD
ATOM      9  H22 UNL     1      74.586  40.447  75.861  1.00  0.00     0.274 HD
ATOM     10  H21 UNL     1      73.309  39.734  75.038  1.00  0.00     0.274 HD
ENDBRANCH   1   7
BRANCH   1  11
HETATM   11  C3  UNL     1      73.244  40.710  77.887  1.00  0.00     0.155 C 
BRANCH  11  12
HETATM   12  N3  UNL     1      74.192  39.642  77.781  1.00  0.00    -0.374 N 
ATOM     13  H3  UNL     1      74.113  38.982  77.008  1.00  0.00     0.161 HD
BRANCH  12  14
HETATM   14  C4  UNL     1      75.152  39.492  78.647  1.00  0.00     0.100 A 
HETATM   15  C5  UNL     1      74.910  39.299  79.980  1.00  0.00     0.048 A 
HETATM   16  C6  UNL     1      75.953  39.146  80.855  1.00  0.00     0.005 A 
HETATM   17  C7  UNL     1      77.265  39.180  80.421  1.00  0.00     0.017 A 
HETATM   18  C8  UNL     1      77.477  39.374  79.076  1.00  0.00     0.089 A 
HETATM   19  N4  UNL     1      76.435  39.523  78.238  1.00  0.00    -0.353 N 
ATOM     20  H4  UNL     1      76.625  39.667  77.246  1.00  0.00     0.166 HD
ENDBRANCH  12  14
ENDBRANCH  11  12
ENDBRANCH   1  11
TORSDOF 6
ENDMDL
MODEL 5
REMARK VINA RESULT: -5.511037734      1.302      5.145
REMARK  6 active torsions:
REMARK  status: ('A' for Active; 'I' for Inactive)
REMARK    1  A    between atoms: N1_1  and  C1_5 
REMARK    2  A    between atoms: C1_5  and  C2_6 
REMARK    3  A    between atoms: C2_6  and  N2_7 
REMARK    4  A    between atoms: C2_6  and  C3_11 
REMARK    5  A    between atoms: C3_11  and  N3_12 
REMARK    6  A    between atoms: N3_12  and  C4_14 
ROOT
HETATM    1  C2  UNL     1      74.752  39.006  77.616  1.00  0.00     0.226 C 
ENDROOT
BRANCH   1   2
HETATM    2  C1  UNL     1      75.907  39.181  78.570  1.00  0.00     0.264 C 
BRANCH   2   3
HETATM    3  N1  UNL     1      75.790  40.426  79.325  1.00  0.00    -0.077 N 
ATOM      4  H13 UNL     1      75.249  41.125  78.813  1.00  0.00     0.274 HD
ATOM      5  H12 UNL     1      75.179  40.317  80.134  1.00  0.00     0.274 HD
ATOM      6  H11 UNL     1      76.706  40.785  79.593  1.00  0.00     0.274 HD
ENDBRANCH   2   3
ENDBRANCH   1   2
BRANCH   1   7
HETATM    7  N2  UNL     1      74.239  37.672  77.579  1.00  0.00    -0.072 N 
ATOM      8  H23 UNL     1      73.632  37.497  78.380  1.00  0.00     0.274 HD
ATOM      9  H22 UNL     1      73.560  37.567  76.825  1.00  0.00     0.274 HD
ATOM     10  H21 UNL     1      74.965  36.958  77.513  1.00  0.00     0.274 HD
ENDBRANCH   1   7
BRANCH   1  11
HETATM   11  C3  UNL     1      73.684  40.006  77.996  1.00  0.00     0.155 C 
BRANCH  11  12
HETATM   12  N3  UNL     1      73.228  40.670  76.811  1.00  0.00    -0.374 N 
ATOM     13  H3  UNL     1      73.262  40.176  75.920  1.00  0.00     0.161 HD
BRANCH  12  14
HETATM   14  C4  UNL     1      72.770  41.888  76.845  1.00  0.00     0.100 A 
HETATM   15  C5  UNL     1      71.737  42.302  76.047  1.00  0.00     0.048 A 
HETATM   16  C6  UNL     1      71.288  43.594  76.117  1.00  0.00     0.005 A 
HETATM   17  C7  UNL     1      71.858  44.507  76.985  1.00  0.00     0.017 A 
HETATM   18  C8  UNL     1      72.894  44.061  77.774  1.00  0.00     0.089 A 
HETATM   19  N4  UNL     1      73.316  42.787  77.685  1.00  0.00    -0.353 N 
ATOM     20  H4  UNL     1      74.087  42.487  78.283  1.00  0.00     0.166 HD
ENDBRANCH  12  14
ENDBRANCH  11  12
ENDBRANCH   1  11
TORSDOF 6
ENDMDL
