MODEL 1
REMARK VINA RESULT: -6.499929498      0.000      0.000
REMARK  3 active torsions:
REMARK  status: ('A' for Active; 'I' for Inactive)
REMARK       I    between atoms: C2_2  and  N1_4 
REMARK    1  A    between atoms: N1_4  and  C3_6 
REMARK    2  A    between atoms: C3_6  and  C4_7 
REMARK       I    between atoms: C4_7  and  N2_9 
REMARK       I    between atoms: N3_19  and  C13_20 
REMARK       I    between atoms: C13_20  and  N4_22 
REMARK    3  A    between atoms: N4_22  and  C14_24 
ROOT
HETATM    1  C3  UNL     1     -40.656 -69.930  -2.711  1.00  0.00     0.136 C 
HETATM    2  C7  UNL     1     -41.815 -68.953  -2.289  1.00  0.00     0.065 C 
HETATM    3  C8  UNL     1     -42.154 -69.313  -0.826  1.00  0.00     0.108 C 
HETATM    4 CL1  UNL     1     -43.023 -70.797  -0.620  1.00  0.00    -0.123 Cl
HETATM    5  C9  UNL     1     -40.929 -69.258   0.021  1.00  0.00     0.108 C 
HETATM    6  C10 UNL     1     -40.364 -67.842  -0.281  1.00  0.00     0.029 C 
HETATM    7  C11 UNL     1     -39.556 -68.065  -1.507  1.00  0.00     0.030 C 
HETATM    8  C12 UNL     1     -39.602 -69.631  -1.785  1.00  0.00     0.127 C 
HETATM    9  N3  UNL     1     -39.785 -70.009  -0.412  1.00  0.00    -0.320 N 
HETATM   10  C13 UNL     1     -38.924 -70.820   0.328  1.00  0.00     0.319 C 
HETATM   11  O3  UNL     1     -39.167 -70.949   1.587  1.00  0.00    -0.247 OA
HETATM   12  N4  UNL     1     -37.781 -71.520  -0.130  1.00  0.00    -0.339 N 
ATOM     13  H4  UNL     1     -37.549 -71.488  -1.122  1.00  0.00     0.164 HD
ENDROOT
BRANCH   1  14
HETATM   14  N1  UNL     1     -41.370 -71.146  -2.859  1.00  0.00    -0.342 N 
HETATM   15  C2  UNL     1     -40.741 -72.409  -2.754  1.00  0.00     0.214 C 
HETATM   16  C1  UNL     1     -41.540 -73.701  -2.907  1.00  0.00     0.117 C 
HETATM   17  O1  UNL     1     -39.536 -72.658  -2.530  1.00  0.00    -0.274 OA
ATOM     18  H1  UNL     1     -42.372 -71.110  -3.047  1.00  0.00     0.163 HD
ENDBRANCH   1  14
BRANCH   1  19
HETATM   19  C4  UNL     1     -40.159 -69.480  -4.080  1.00  0.00     0.249 C 
HETATM   20  O2  UNL     1     -40.966 -68.929  -4.830  1.00  0.00    -0.270 OA
HETATM   21  N2  UNL     1     -38.840 -69.683  -4.496  1.00  0.00    -0.359 N 
HETATM   22  C5  UNL     1     -37.802 -70.455  -3.875  1.00  0.00     0.152 C 
HETATM   23  C6  UNL     1     -38.393 -69.066  -5.760  1.00  0.00     0.152 C 
ENDBRANCH   1  19
BRANCH  12  24
HETATM   24  C14 UNL     1     -36.921 -72.288   0.773  1.00  0.00     0.078 C 
HETATM   25  C15 UNL     1     -35.944 -71.338   1.450  1.00  0.00     0.032 C 
HETATM   26  C16 UNL     1     -36.098 -73.309   0.018  1.00  0.00     0.032 C 
ENDBRANCH  12  24
TORSDOF 3
ENDMDL
MODEL 2
REMARK VINA RESULT: -6.248054463      2.207      5.817
REMARK  3 active torsions:
REMARK  status: ('A' for Active; 'I' for Inactive)
REMARK       I    between atoms: C2_2  and  N1_4 
REMARK    1  A    between atoms: N1_4  and  C3_6 
REMARK    2  A    between atoms: C3_6  and  C4_7 
REMARK       I    between atoms: C4_7  and  N2_9 
REMARK       I    between atoms: N3_19  and  C13_20 
REMARK       I    between atoms: C13_20  and  N4_22 
REMARK    3  A    between atoms: N4_22  and  C14_24 
ROOT
HETATM    1  C3  UNL     1     -39.509 -70.672  -2.150  1.00  0.00     0.136 C 
HETATM    2  C7  UNL     1     -39.410 -72.237  -2.280  1.00  0.00     0.065 C 
HETATM    3  C8  UNL     1     -40.599 -72.659  -3.172  1.00  0.00     0.108 C 
HETATM    4 CL1  UNL     1     -42.149 -72.593  -2.402  1.00  0.00    -0.123 Cl
HETATM    5  C9  UNL     1     -40.578 -71.906  -4.457  1.00  0.00     0.108 C 
HETATM    6  C10 UNL     1     -39.135 -72.157  -4.979  1.00  0.00     0.029 C 
HETATM    7  C11 UNL     1     -38.350 -71.095  -4.299  1.00  0.00     0.030 C 
HETATM    8  C12 UNL     1     -39.406 -70.209  -3.505  1.00  0.00     0.127 C 
HETATM    9  N3  UNL     1     -40.504 -70.474  -4.391  1.00  0.00    -0.320 N 
HETATM   10  C13 UNL     1     -41.213 -69.515  -5.114  1.00  0.00     0.319 C 
HETATM   11  O3  UNL     1     -42.081 -69.938  -5.968  1.00  0.00    -0.247 OA
HETATM   12  N4  UNL     1     -41.088 -68.107  -5.045  1.00  0.00    -0.339 N 
ATOM     13  H4  UNL     1     -40.442 -67.702  -4.367  1.00  0.00     0.164 HD
ENDROOT
BRANCH   1  14
HETATM   14  N1  UNL     1     -40.609 -70.544  -1.265  1.00  0.00    -0.342 N 
HETATM   15  C2  UNL     1     -41.348 -69.344  -1.146  1.00  0.00     0.214 C 
HETATM   16  C1  UNL     1     -42.534 -69.241  -0.191  1.00  0.00     0.117 C 
HETATM   17  O1  UNL     1     -41.176 -68.264  -1.755  1.00  0.00    -0.274 OA
ATOM     18  H1  UNL     1     -40.877 -71.345  -0.693  1.00  0.00     0.163 HD
ENDBRANCH   1  14
BRANCH   1  19
HETATM   19  C4  UNL     1     -38.246 -70.194  -1.442  1.00  0.00     0.249 C 
HETATM   20  O2  UNL     1     -37.707 -69.168  -1.859  1.00  0.00    -0.270 OA
HETATM   21  N2  UNL     1     -37.695 -70.886  -0.359  1.00  0.00    -0.359 N 
HETATM   22  C5  UNL     1     -38.040 -72.177   0.162  1.00  0.00     0.152 C 
HETATM   23  C6  UNL     1     -36.576 -70.268   0.380  1.00  0.00     0.152 C 
ENDBRANCH   1  19
BRANCH  12  24
HETATM   24  C14 UNL     1     -41.853 -67.210  -5.914  1.00  0.00     0.078 C 
HETATM   25  C15 UNL     1     -40.883 -66.368  -6.731  1.00  0.00     0.032 C 
HETATM   26  C16 UNL     1     -42.704 -66.252  -5.109  1.00  0.00     0.032 C 
ENDBRANCH  12  24
TORSDOF 3
ENDMDL
MODEL 3
REMARK VINA RESULT: -6.233538922      2.754      5.392
REMARK  3 active torsions:
REMARK  status: ('A' for Active; 'I' for Inactive)
REMARK       I    between atoms: C2_2  and  N1_4 
REMARK    1  A    between atoms: N1_4  and  C3_6 
REMARK    2  A    between atoms: C3_6  and  C4_7 
REMARK       I    between atoms: C4_7  and  N2_9 
REMARK       I    between atoms: N3_19  and  C13_20 
REMARK       I    between atoms: C13_20  and  N4_22 
REMARK    3  A    between atoms: N4_22  and  C14_24 
ROOT
HETATM    1  C3  UNL     1     -37.384 -69.610  -0.584  1.00  0.00     0.136 C 
HETATM    2  C7  UNL     1     -35.991 -68.969  -0.938  1.00  0.00     0.065 C 
HETATM    3  C8  UNL     1     -35.229 -70.042  -1.746  1.00  0.00     0.108 C 
HETATM    4 CL1  UNL     1     -34.633 -71.374  -0.812  1.00  0.00    -0.123 Cl
HETATM    5  C9  UNL     1     -36.042 -70.493  -2.910  1.00  0.00     0.108 C 
HETATM    6  C10 UNL     1     -36.406 -69.156  -3.615  1.00  0.00     0.029 C 
HETATM    7  C11 UNL     1     -37.622 -68.718  -2.883  1.00  0.00     0.030 C 
HETATM    8  C12 UNL     1     -37.967 -69.891  -1.864  1.00  0.00     0.127 C 
HETATM    9  N3  UNL     1     -37.384 -70.937  -2.655  1.00  0.00    -0.320 N 
HETATM   10  C13 UNL     1     -38.061 -72.048  -3.158  1.00  0.00     0.319 C 
HETATM   11  O3  UNL     1     -37.417 -72.821  -3.962  1.00  0.00    -0.247 OA
HETATM   12  N4  UNL     1     -39.400 -72.436  -2.908  1.00  0.00    -0.339 N 
ATOM     13  H4  UNL     1     -39.958 -71.887  -2.255  1.00  0.00     0.164 HD
ENDROOT
BRANCH   1  14
HETATM   14  N1  UNL     1     -37.006 -70.532   0.425  1.00  0.00    -0.342 N 
HETATM   15  C2  UNL     1     -37.776 -71.679   0.726  1.00  0.00     0.214 C 
HETATM   16  C1  UNL     1     -37.337 -72.660   1.810  1.00  0.00     0.117 C 
HETATM   17  O1  UNL     1     -38.845 -72.056   0.196  1.00  0.00    -0.274 OA
ATOM     18  H1  UNL     1     -36.149 -70.363   0.952  1.00  0.00     0.163 HD
ENDBRANCH   1  14
BRANCH   1  19
HETATM   19  C4  UNL     1     -38.240 -68.516   0.043  1.00  0.00     0.249 C 
HETATM   20  O2  UNL     1     -37.663 -67.613   0.651  1.00  0.00    -0.270 OA
HETATM   21  N2  UNL     1     -39.636 -68.521  -0.047  1.00  0.00    -0.359 N 
HETATM   22  C5  UNL     1     -40.509 -69.550  -0.532  1.00  0.00     0.152 C 
HETATM   23  C6  UNL     1     -40.380 -67.340   0.433  1.00  0.00     0.152 C 
ENDBRANCH   1  19
BRANCH  12  24
HETATM   24  C14 UNL     1     -40.011 -73.598  -3.557  1.00  0.00     0.078 C 
HETATM   25  C15 UNL     1     -40.590 -73.167  -4.897  1.00  0.00     0.032 C 
HETATM   26  C16 UNL     1     -41.155 -74.152  -2.736  1.00  0.00     0.032 C 
ENDBRANCH  12  24
TORSDOF 3
ENDMDL
MODEL 4
REMARK VINA RESULT: -6.189084403      2.259      5.739
REMARK  3 active torsions:
REMARK  status: ('A' for Active; 'I' for Inactive)
REMARK       I    between atoms: C2_2  and  N1_4 
REMARK    1  A    between atoms: N1_4  and  C3_6 
REMARK    2  A    between atoms: C3_6  and  C4_7 
REMARK       I    between atoms: C4_7  and  N2_9 
REMARK       I    between atoms: N3_19  and  C13_20 
REMARK       I    between atoms: C13_20  and  N4_22 
REMARK    3  A    between atoms: N4_22  and  C14_24 
ROOT
HETATM    1  C3  UNL     1     -39.599 -71.093  -2.198  1.00  0.00     0.136 C 
HETATM    2  C7  UNL     1     -39.279 -72.607  -2.479  1.00  0.00     0.065 C 
HETATM    3  C8  UNL     1     -40.297 -73.060  -3.548  1.00  0.00     0.108 C 
HETATM    4 CL1  UNL     1     -41.916 -73.275  -2.970  1.00  0.00    -0.123 Cl
HETATM    5  C9  UNL     1     -40.240 -72.161  -4.735  1.00  0.00     0.108 C 
HETATM    6  C10 UNL     1     -38.729 -72.171  -5.101  1.00  0.00     0.029 C 
HETATM    7  C11 UNL     1     -38.171 -71.112  -4.223  1.00  0.00     0.030 C 
HETATM    8  C12 UNL     1     -39.415 -70.462  -3.473  1.00  0.00     0.127 C 
HETATM    9  N3  UNL     1     -40.366 -70.749  -4.509  1.00  0.00    -0.320 N 
HETATM   10  C13 UNL     1     -41.115 -69.803  -5.208  1.00  0.00     0.319 C 
HETATM   11  O3  UNL     1     -41.822 -70.222  -6.200  1.00  0.00    -0.247 OA
HETATM   12  N4  UNL     1     -41.188 -68.408  -4.976  1.00  0.00    -0.339 N 
ATOM     13  H4  UNL     1     -40.678 -68.013  -4.186  1.00  0.00     0.164 HD
ENDROOT
BRANCH   1  14
HETATM   14  N1  UNL     1     -40.794 -71.206  -1.444  1.00  0.00    -0.342 N 
HETATM   15  C2  UNL     1     -41.739 -70.157  -1.364  1.00  0.00     0.214 C 
HETATM   16  C1  UNL     1     -43.023 -70.314  -0.553  1.00  0.00     0.117 C 
HETATM   17  O1  UNL     1     -41.693 -69.030  -1.904  1.00  0.00    -0.274 OA
ATOM     18  H1  UNL     1     -40.980 -72.074  -0.941  1.00  0.00     0.163 HD
ENDBRANCH   1  14
BRANCH   1  19
HETATM   19  C4  UNL     1     -38.494 -70.555  -1.295  1.00  0.00     0.249 C 
HETATM   20  O2  UNL     1     -37.942 -71.348  -0.530  1.00  0.00    -0.270 OA
HETATM   21  N2  UNL     1     -38.111 -69.211  -1.308  1.00  0.00    -0.359 N 
HETATM   22  C5  UNL     1     -38.732 -68.098  -1.966  1.00  0.00     0.152 C 
HETATM   23  C6  UNL     1     -36.921 -68.806  -0.535  1.00  0.00     0.152 C 
ENDBRANCH   1  19
BRANCH  12  24
HETATM   24  C14 UNL     1     -41.969 -67.513  -5.833  1.00  0.00     0.078 C 
HETATM   25  C15 UNL     1     -41.014 -66.656  -6.652  1.00  0.00     0.032 C 
HETATM   26  C16 UNL     1     -42.821 -66.568  -5.013  1.00  0.00     0.032 C 
ENDBRANCH  12  24
TORSDOF 3
ENDMDL
MODEL 5
REMARK VINA RESULT: -6.103657517      2.399      4.107
REMARK  3 active torsions:
REMARK  status: ('A' for Active; 'I' for Inactive)
REMARK       I    between atoms: C2_2  and  N1_4 
REMARK    1  A    between atoms: N1_4  and  C3_6 
REMARK    2  A    between atoms: C3_6  and  C4_7 
REMARK       I    between atoms: C4_7  and  N2_9 
REMARK       I    between atoms: N3_19  and  C13_20 
REMARK       I    between atoms: C13_20  and  N4_22 
REMARK    3  A    between atoms: N4_22  and  C14_24 
ROOT
HETATM    1  C3  UNL     1     -38.241 -68.615  -1.517  1.00  0.00     0.136 C 
HETATM    2  C7  UNL     1     -38.161 -68.318   0.026  1.00  0.00     0.065 C 
HETATM    3  C8  UNL     1     -39.123 -69.323   0.697  1.00  0.00     0.108 C 
HETATM    4 CL1  UNL     1     -40.807 -68.973   0.487  1.00  0.00    -0.123 Cl
HETATM    5  C9  UNL     1     -38.785 -70.717   0.293  1.00  0.00     0.108 C 
HETATM    6  C10 UNL     1     -37.269 -70.812   0.622  1.00  0.00     0.029 C 
HETATM    7  C11 UNL     1     -36.632 -70.261  -0.601  1.00  0.00     0.030 C 
HETATM    8  C12 UNL     1     -37.817 -69.981  -1.626  1.00  0.00     0.127 C 
HETATM    9  N3  UNL     1     -38.687 -71.000  -1.111  1.00  0.00    -0.320 N 
HETATM   10  C13 UNL     1     -39.183 -72.085  -1.833  1.00  0.00     0.319 C 
HETATM   11  O3  UNL     1     -39.843 -72.979  -1.182  1.00  0.00    -0.247 OA
HETATM   12  N4  UNL     1     -39.037 -72.347  -3.217  1.00  0.00    -0.339 N 
ATOM     13  H4  UNL     1     -38.553 -71.664  -3.800  1.00  0.00     0.164 HD
ENDROOT
BRANCH   1  14
HETATM   14  N1  UNL     1     -39.512 -68.068  -1.830  1.00  0.00    -0.342 N 
HETATM   15  C2  UNL     1     -40.271 -68.507  -2.939  1.00  0.00     0.214 C 
HETATM   16  C1  UNL     1     -41.641 -67.906  -3.243  1.00  0.00     0.117 C 
HETATM   17  O1  UNL     1     -39.980 -69.390  -3.777  1.00  0.00    -0.274 OA
ATOM     18  H1  UNL     1     -39.892 -67.332  -1.234  1.00  0.00     0.163 HD
ENDBRANCH   1  14
BRANCH   1  19
HETATM   19  C4  UNL     1     -37.163 -67.779  -2.197  1.00  0.00     0.249 C 
HETATM   20  O2  UNL     1     -36.818 -66.732  -1.648  1.00  0.00    -0.270 OA
HETATM   21  N2  UNL     1     -36.577 -68.163  -3.407  1.00  0.00    -0.359 N 
HETATM   22  C5  UNL     1     -36.951 -69.222  -4.299  1.00  0.00     0.152 C 
HETATM   23  C6  UNL     1     -35.422 -67.394  -3.910  1.00  0.00     0.152 C 
ENDBRANCH   1  19
BRANCH  12  24
HETATM   24  C14 UNL     1     -39.556 -73.567  -3.841  1.00  0.00     0.078 C 
HETATM   25  C15 UNL     1     -38.865 -73.767  -5.182  1.00  0.00     0.032 C 
HETATM   26  C16 UNL     1     -41.039 -73.458  -4.118  1.00  0.00     0.032 C 
ENDBRANCH  12  24
TORSDOF 3
ENDMDL
