MODEL 1
REMARK VINA RESULT: -3.864232316      0.000      0.000
REMARK  1 active torsions:
REMARK  status: ('A' for Active; 'I' for Inactive)
REMARK    1  A    between atoms: C1_2  and  C2_3 
ROOT
HETATM    1  C2  UNL     1      14.058   3.557 -13.132  1.00  0.00     0.001 A 
HETATM    2  C3  UNL     1      13.342   4.636 -13.583  1.00  0.00     0.029 A 
HETATM    3  C4  UNL     1      13.813   5.323 -14.681  1.00  0.00     0.088 A 
HETATM    4  N1  UNL     1      14.937   5.004 -15.344  1.00  0.00    -0.375 N 
ATOM      5  H1  UNL     1      15.245   5.545 -16.152  1.00  0.00     0.164 HD
HETATM    6  C5  UNL     1      15.642   3.949 -14.908  1.00  0.00     0.088 A 
HETATM    7  C6  UNL     1      15.207   3.234 -13.814  1.00  0.00     0.029 A 
ENDROOT
BRANCH   1   8
HETATM    8  C1  UNL     1      13.649   2.762 -11.982  1.00  0.00     0.196 C 
HETATM    9  S1  UNL     1      12.575   1.378 -12.400  1.00  0.00    -0.038 SA
HETATM   10  O1  UNL     1      14.771   2.367 -11.262  1.00  0.00    -0.354 OA
HETATM   11  C7  UNL     1      14.356   1.841 -10.054  1.00  0.00     0.181 C 
HETATM   12  C8  UNL     1      13.685   2.990  -9.283  1.00  0.00     0.104 C 
HETATM   13  S2  UNL     1      12.831   3.800 -10.700  1.00  0.00    -0.112 SA
ENDBRANCH   1   8
TORSDOF 1
ENDMDL
MODEL 2
REMARK VINA RESULT: -3.862148122      0.186      1.352
REMARK  1 active torsions:
REMARK  status: ('A' for Active; 'I' for Inactive)
REMARK    1  A    between atoms: C1_2  and  C2_3 
ROOT
HETATM    1  C2  UNL     1      14.255   3.406 -13.127  1.00  0.00     0.001 A 
HETATM    2  C3  UNL     1      15.446   3.132 -13.751  1.00  0.00     0.029 A 
HETATM    3  C4  UNL     1      15.809   3.900 -14.836  1.00  0.00     0.088 A 
HETATM    4  N1  UNL     1      15.068   4.907 -15.328  1.00  0.00    -0.375 N 
ATOM      5  H1  UNL     1      15.380   5.446 -16.136  1.00  0.00     0.164 HD
HETATM    6  C5  UNL     1      13.903   5.179 -14.722  1.00  0.00     0.088 A 
HETATM    7  C6  UNL     1      13.501   4.438 -13.634  1.00  0.00     0.029 A 
ENDROOT
BRANCH   1   8
HETATM    8  C1  UNL     1      13.778   2.657 -11.972  1.00  0.00     0.196 C 
HETATM    9  S1  UNL     1      12.750   1.242 -12.398  1.00  0.00    -0.038 SA
HETATM   10  O1  UNL     1      14.854   2.308 -11.163  1.00  0.00    -0.354 OA
HETATM   11  C7  UNL     1      14.364   1.830  -9.963  1.00  0.00     0.181 C 
HETATM   12  C8  UNL     1      13.632   3.003  -9.289  1.00  0.00     0.104 C 
HETATM   13  S2  UNL     1      12.866   3.739 -10.796  1.00  0.00    -0.112 SA
ENDBRANCH   1   8
TORSDOF 1
ENDMDL
MODEL 3
REMARK VINA RESULT: -3.799013136      2.590      4.409
REMARK  1 active torsions:
REMARK  status: ('A' for Active; 'I' for Inactive)
REMARK    1  A    between atoms: C1_2  and  C2_3 
ROOT
HETATM    1  C2  UNL     1      13.610   3.305 -11.861  1.00  0.00     0.001 A 
HETATM    2  C3  UNL     1      12.631   3.911 -11.115  1.00  0.00     0.029 A 
HETATM    3  C4  UNL     1      12.459   3.512  -9.809  1.00  0.00     0.088 A 
HETATM    4  N1  UNL     1      13.192   2.558  -9.210  1.00  0.00    -0.375 N 
ATOM      5  H1  UNL     1      13.025   2.296  -8.238  1.00  0.00     0.164 HD
HETATM    6  C5  UNL     1      14.150   1.961  -9.933  1.00  0.00     0.088 A 
HETATM    7  C6  UNL     1      14.357   2.330 -11.243  1.00  0.00     0.029 A 
ENDROOT
BRANCH   1   8
HETATM    8  C1  UNL     1      13.875   3.653 -13.250  1.00  0.00     0.196 C 
HETATM    9  S1  UNL     1      13.127   5.207 -13.766  1.00  0.00    -0.038 SA
HETATM   10  O1  UNL     1      15.245   3.616 -13.488  1.00  0.00    -0.354 OA
HETATM   11  C7  UNL     1      15.456   3.696 -14.851  1.00  0.00     0.181 C 
HETATM   12  C8  UNL     1      14.840   2.428 -15.466  1.00  0.00     0.104 C 
HETATM   13  S2  UNL     1      13.345   2.313 -14.395  1.00  0.00    -0.112 SA
ENDBRANCH   1   8
TORSDOF 1
ENDMDL
MODEL 4
REMARK VINA RESULT: -3.779005476      3.935      5.020
REMARK  1 active torsions:
REMARK  status: ('A' for Active; 'I' for Inactive)
REMARK    1  A    between atoms: C1_2  and  C2_3 
ROOT
HETATM    1  C2  UNL     1      11.966   1.245 -10.342  1.00  0.00     0.001 A 
HETATM    2  C3  UNL     1      13.270   0.836 -10.470  1.00  0.00     0.029 A 
HETATM    3  C4  UNL     1      14.267   1.779 -10.357  1.00  0.00     0.088 A 
HETATM    4  N1  UNL     1      14.047   3.085 -10.130  1.00  0.00    -0.375 N 
ATOM      5  H1  UNL     1      14.821   3.745 -10.056  1.00  0.00     0.164 HD
HETATM    6  C5  UNL     1      12.776   3.491 -10.004  1.00  0.00     0.088 A 
HETATM    7  C6  UNL     1      11.747   2.582 -10.109  1.00  0.00     0.029 A 
ENDROOT
BRANCH   1   8
HETATM    8  C1  UNL     1      10.838   0.330 -10.443  1.00  0.00     0.196 C 
HETATM    9  S1  UNL     1      10.675  -0.449 -12.058  1.00  0.00    -0.038 SA
HETATM   10  O1  UNL     1      10.891  -0.596  -9.408  1.00  0.00    -0.354 OA
HETATM   11  C7  UNL     1       9.694  -1.283  -9.370  1.00  0.00     0.181 C 
HETATM   12  C8  UNL     1       8.608  -0.253  -9.020  1.00  0.00     0.104 C 
HETATM   13  S2  UNL     1       9.254   1.162 -10.008  1.00  0.00    -0.112 SA
ENDBRANCH   1   8
TORSDOF 1
ENDMDL
MODEL 5
REMARK VINA RESULT: -3.729656204      3.940      4.848
REMARK  1 active torsions:
REMARK  status: ('A' for Active; 'I' for Inactive)
REMARK    1  A    between atoms: C1_2  and  C2_3 
ROOT
HETATM    1  C2  UNL     1      11.897   1.320 -10.327  1.00  0.00     0.001 A 
HETATM    2  C3  UNL     1      11.696   2.661 -10.119  1.00  0.00     0.029 A 
HETATM    3  C4  UNL     1      12.797   3.484 -10.033  1.00  0.00     0.088 A 
HETATM    4  N1  UNL     1      14.067   3.058 -10.140  1.00  0.00    -0.375 N 
ATOM      5  H1  UNL     1      14.849   3.708 -10.068  1.00  0.00     0.164 HD
HETATM    6  C5  UNL     1      14.270   1.748 -10.344  1.00  0.00     0.088 A 
HETATM    7  C6  UNL     1      13.198   0.889 -10.437  1.00  0.00     0.029 A 
ENDROOT
BRANCH   1   8
HETATM    8  C1  UNL     1      10.804   0.365 -10.435  1.00  0.00     0.196 C 
HETATM    9  S1  UNL     1      10.655  -0.390 -12.063  1.00  0.00    -0.038 SA
HETATM   10  O1  UNL     1      10.905  -0.579  -9.419  1.00  0.00    -0.354 OA
HETATM   11  C7  UNL     1       9.735  -1.313  -9.382  1.00  0.00     0.181 C 
HETATM   12  C8  UNL     1       8.613  -0.333  -9.001  1.00  0.00     0.104 C 
HETATM   13  S2  UNL     1       9.194   1.125  -9.968  1.00  0.00    -0.112 SA
ENDBRANCH   1   8
TORSDOF 1
ENDMDL
