MODEL 1
REMARK VINA RESULT: -5.531367570      0.000      0.000
REMARK  5 active torsions:
REMARK  status: ('A' for Active; 'I' for Inactive)
REMARK    1  A    between atoms: N3_9  and  C3_10 
REMARK    2  A    between atoms: C3_10  and  C4_11 
REMARK    3  A    between atoms: C4_11  and  N4_12 
REMARK    4  A    between atoms: C4_11  and  C5_16 
REMARK    5  A    between atoms: C5_16  and  N5_17 
REMARK       I    between atoms: C6_19  and  N7_21 
ROOT
HETATM    1  N5  UNL     1      30.397  33.559  42.756  1.00  0.00    -0.362 N 
ATOM      2  H5  UNL     1      30.943  33.258  43.563  1.00  0.00     0.162 HD
HETATM    3  C6  UNL     1      29.232  33.055  42.653  1.00  0.00     0.188 C 
HETATM    4  N6  UNL     1      28.796  32.140  43.643  1.00  0.00    -0.064 NA
HETATM    5  N7  UNL     1      28.364  33.375  41.599  1.00  0.00    -0.326 N 
ATOM      6  H7  UNL     1      27.624  34.040  41.824  1.00  0.00     0.168 HD
HETATM    7  C7  UNL     1      28.374  32.950  40.404  1.00  0.00     0.106 C 
HETATM    8  C8  UNL     1      27.387  33.427  39.536  1.00  0.00     0.080 C 
HETATM    9  C9  UNL     1      27.370  33.459  38.148  1.00  0.00     0.119 C 
HETATM   10  N8  UNL     1      26.423  34.309  37.529  1.00  0.00    -0.083 NA
HETATM   11  N9  UNL     1      28.190  32.738  37.363  1.00  0.00    -0.341 N 
ATOM     12  H9  UNL     1      27.841  32.594  36.416  1.00  0.00     0.167 HD
HETATM   13  C10 UNL     1      29.386  32.171  37.598  1.00  0.00     0.184 C 
HETATM   14  N10 UNL     1      29.928  31.967  38.828  1.00  0.00    -0.318 N 
ATOM     15  H10 UNL     1      30.917  31.718  38.832  1.00  0.00     0.169 HD
HETATM   16  C11 UNL     1      29.352  32.046  40.041  1.00  0.00     0.273 C 
HETATM   17  O1  UNL     1      29.713  31.240  40.945  1.00  0.00    -0.266 OA
ENDROOT
BRANCH   1  18
HETATM   18  C5  UNL     1      31.035  34.491  41.884  1.00  0.00     0.156 C 
BRANCH  18  19
HETATM   19  C4  UNL     1      31.077  35.892  42.415  1.00  0.00     0.221 C 
BRANCH  19  20
HETATM   20  C3  UNL     1      31.795  36.021  43.714  1.00  0.00     0.185 C 
BRANCH  20  21
HETATM   21  N3  UNL     1      33.248  36.225  43.520  1.00  0.00    -0.269 N 
HETATM   22  C1  UNL     1      34.116  35.458  44.188  1.00  0.00     0.160 A 
HETATM   23  N1  UNL     1      33.871  34.497  45.042  1.00  0.00    -0.378 N 
HETATM   24  S1  UNL     1      35.613  36.070  43.631  1.00  0.00    -0.046 SA
ATOM     25  H12 UNL     1      34.533  33.912  45.552  1.00  0.00     0.158 HD
ATOM     26  H11 UNL     1      32.978  34.132  45.374  1.00  0.00     0.158 HD
HETATM   27  C2  UNL     1      35.004  37.271  42.576  1.00  0.00     0.160 A 
HETATM   28  N2  UNL     1      33.699  37.110  42.734  1.00  0.00    -0.301 N 
ATOM     29  H2  UNL     1      33.050  37.703  42.216  1.00  0.00     0.186 HD
ENDBRANCH  20  21
ENDBRANCH  19  20
BRANCH  19  30
HETATM   30  N4  UNL     1      29.768  36.475  42.528  1.00  0.00    -0.072 N 
ATOM     31  H43 UNL     1      29.234  36.392  41.663  1.00  0.00     0.274 HD
ATOM     32  H42 UNL     1      29.154  35.927  43.131  1.00  0.00     0.274 HD
ATOM     33  H41 UNL     1      29.850  37.443  42.840  1.00  0.00     0.274 HD
ENDBRANCH  19  30
ENDBRANCH  18  19
ENDBRANCH   1  18
TORSDOF 5
ENDMDL
MODEL 2
REMARK VINA RESULT: -5.524483951      1.959      2.528
REMARK  5 active torsions:
REMARK  status: ('A' for Active; 'I' for Inactive)
REMARK    1  A    between atoms: N3_9  and  C3_10 
REMARK    2  A    between atoms: C3_10  and  C4_11 
REMARK    3  A    between atoms: C4_11  and  N4_12 
REMARK    4  A    between atoms: C4_11  and  C5_16 
REMARK    5  A    between atoms: C5_16  and  N5_17 
REMARK       I    between atoms: C6_19  and  N7_21 
ROOT
HETATM    1  N5  UNL     1      30.238  33.493  42.867  1.00  0.00    -0.362 N 
ATOM      2  H5  UNL     1      30.786  33.178  43.667  1.00  0.00     0.162 HD
HETATM    3  C6  UNL     1      29.119  32.910  42.694  1.00  0.00     0.188 C 
HETATM    4  N6  UNL     1      28.734  31.894  43.604  1.00  0.00    -0.064 NA
HETATM    5  N7  UNL     1      28.254  33.237  41.640  1.00  0.00    -0.326 N 
ATOM      6  H7  UNL     1      27.458  33.824  41.888  1.00  0.00     0.168 HD
HETATM    7  C7  UNL     1      28.328  32.901  40.419  1.00  0.00     0.106 C 
HETATM    8  C8  UNL     1      27.326  33.362  39.557  1.00  0.00     0.080 C 
HETATM    9  C9  UNL     1      27.341  33.493  38.174  1.00  0.00     0.119 C 
HETATM   10  N8  UNL     1      26.345  34.309  37.589  1.00  0.00    -0.083 NA
HETATM   11  N9  UNL     1      28.235  32.896  37.366  1.00  0.00    -0.341 N 
ATOM     12  H9  UNL     1      27.921  32.794  36.401  1.00  0.00     0.167 HD
HETATM   13  C10 UNL     1      29.466  32.408  37.597  1.00  0.00     0.184 C 
HETATM   14  N10 UNL     1      29.992  32.158  38.825  1.00  0.00    -0.318 N 
ATOM     15  H10 UNL     1      30.998  31.987  38.840  1.00  0.00     0.169 HD
HETATM   16  C11 UNL     1      29.382  32.104  40.023  1.00  0.00     0.273 C 
HETATM   17  O1  UNL     1      29.784  31.266  40.878  1.00  0.00    -0.266 OA
ENDROOT
BRANCH   1  18
HETATM   18  C5  UNL     1      30.820  34.533  42.082  1.00  0.00     0.156 C 
BRANCH  18  19
HETATM   19  C4  UNL     1      31.877  35.318  42.798  1.00  0.00     0.221 C 
BRANCH  19  20
HETATM   20  C3  UNL     1      32.886  35.934  41.892  1.00  0.00     0.185 C 
BRANCH  20  21
HETATM   21  N3  UNL     1      32.441  37.252  41.390  1.00  0.00    -0.269 N 
HETATM   22  C1  UNL     1      32.587  37.546  40.093  1.00  0.00     0.160 A 
HETATM   23  N1  UNL     1      33.094  36.809  39.138  1.00  0.00    -0.378 N 
HETATM   24  S1  UNL     1      31.939  39.128  40.026  1.00  0.00    -0.046 SA
ATOM     25  H12 UNL     1      33.205  37.033  38.149  1.00  0.00     0.158 HD
ATOM     26  H11 UNL     1      33.480  35.865  39.179  1.00  0.00     0.158 HD
HETATM   27  C2  UNL     1      31.529  39.290  41.679  1.00  0.00     0.160 A 
HETATM   28  N2  UNL     1      31.921  38.118  42.154  1.00  0.00    -0.301 N 
ATOM     29  H2  UNL     1      31.803  37.909  43.146  1.00  0.00     0.186 HD
ENDBRANCH  20  21
ENDBRANCH  19  20
BRANCH  19  30
HETATM   30  N4  UNL     1      32.545  34.543  43.809  1.00  0.00    -0.072 N 
ATOM     31  H43 UNL     1      32.854  33.637  43.456  1.00  0.00     0.274 HD
ATOM     32  H42 UNL     1      33.459  34.928  44.047  1.00  0.00     0.274 HD
ATOM     33  H41 UNL     1      31.940  34.453  44.626  1.00  0.00     0.274 HD
ENDBRANCH  19  30
ENDBRANCH  18  19
ENDBRANCH   1  18
TORSDOF 5
ENDMDL
MODEL 3
REMARK VINA RESULT: -5.493266765      3.096      7.610
REMARK  5 active torsions:
REMARK  status: ('A' for Active; 'I' for Inactive)
REMARK    1  A    between atoms: N3_9  and  C3_10 
REMARK    2  A    between atoms: C3_10  and  C4_11 
REMARK    3  A    between atoms: C4_11  and  N4_12 
REMARK    4  A    between atoms: C4_11  and  C5_16 
REMARK    5  A    between atoms: C5_16  and  N5_17 
REMARK       I    between atoms: C6_19  and  N7_21 
ROOT
HETATM    1  N5  UNL     1      30.245  36.009  42.568  1.00  0.00    -0.362 N 
ATOM      2  H5  UNL     1      29.655  36.214  41.762  1.00  0.00     0.162 HD
HETATM    3  C6  UNL     1      30.797  37.013  43.123  1.00  0.00     0.188 C 
HETATM    4  N6  UNL     1      30.554  38.305  42.592  1.00  0.00    -0.064 NA
HETATM    5  N7  UNL     1      31.633  36.891  44.243  1.00  0.00    -0.326 N 
ATOM      6  H7  UNL     1      31.209  37.131  45.139  1.00  0.00     0.168 HD
HETATM    7  C7  UNL     1      32.845  36.521  44.292  1.00  0.00     0.106 C 
HETATM    8  C8  UNL     1      33.463  36.484  45.547  1.00  0.00     0.080 C 
HETATM    9  C9  UNL     1      34.590  35.784  45.957  1.00  0.00     0.119 C 
HETATM   10  N8  UNL     1      34.792  35.638  47.349  1.00  0.00    -0.083 NA
HETATM   11  N9  UNL     1      35.492  35.242  45.119  1.00  0.00    -0.341 N 
ATOM     12  H9  UNL     1      36.407  35.081  45.540  1.00  0.00     0.167 HD
HETATM   13  C10 UNL     1      35.409  34.873  43.830  1.00  0.00     0.184 C 
HETATM   14  N10 UNL     1      34.420  35.239  42.973  1.00  0.00    -0.318 N 
ATOM     15  H10 UNL     1      34.389  34.718  42.097  1.00  0.00     0.169 HD
HETATM   16  C11 UNL     1      33.474  36.186  43.110  1.00  0.00     0.273 C 
HETATM   17  O1  UNL     1      33.110  36.841  42.093  1.00  0.00    -0.266 OA
ENDROOT
BRANCH   1  18
HETATM   18  C5  UNL     1      30.349  34.633  42.932  1.00  0.00     0.156 C 
BRANCH  18  19
HETATM   19  C4  UNL     1      29.155  33.811  42.553  1.00  0.00     0.221 C 
BRANCH  19  20
HETATM   20  C3  UNL     1      28.822  33.869  41.102  1.00  0.00     0.185 C 
BRANCH  20  21
HETATM   21  N3  UNL     1      28.719  32.517  40.508  1.00  0.00    -0.269 N 
HETATM   22  C1  UNL     1      27.633  32.190  39.800  1.00  0.00     0.160 A 
HETATM   23  N1  UNL     1      26.580  32.920  39.531  1.00  0.00    -0.378 N 
HETATM   24  S1  UNL     1      27.992  30.580  39.346  1.00  0.00    -0.046 SA
ATOM     25  H12 UNL     1      25.752  32.670  38.990  1.00  0.00     0.158 HD
ATOM     26  H11 UNL     1      26.366  33.880  39.801  1.00  0.00     0.158 HD
HETATM   27  C2  UNL     1      29.519  30.451  40.108  1.00  0.00     0.160 A 
HETATM   28  N2  UNL     1      29.634  31.653  40.651  1.00  0.00    -0.301 N 
ATOM     29  H2  UNL     1      30.468  31.887  41.189  1.00  0.00     0.186 HD
ENDBRANCH  20  21
ENDBRANCH  19  20
BRANCH  19  30
HETATM   30  N4  UNL     1      27.992  34.144  43.329  1.00  0.00    -0.072 N 
ATOM     31  H43 UNL     1      27.132  33.810  42.894  1.00  0.00     0.274 HD
ATOM     32  H42 UNL     1      27.938  33.604  44.192  1.00  0.00     0.274 HD
ATOM     33  H41 UNL     1      27.971  35.149  43.502  1.00  0.00     0.274 HD
ENDBRANCH  19  30
ENDBRANCH  18  19
ENDBRANCH   1  18
TORSDOF 5
ENDMDL
MODEL 4
REMARK VINA RESULT: -5.493136232      2.951      6.852
REMARK  5 active torsions:
REMARK  status: ('A' for Active; 'I' for Inactive)
REMARK    1  A    between atoms: N3_9  and  C3_10 
REMARK    2  A    between atoms: C3_10  and  C4_11 
REMARK    3  A    between atoms: C4_11  and  N4_12 
REMARK    4  A    between atoms: C4_11  and  C5_16 
REMARK    5  A    between atoms: C5_16  and  N5_17 
REMARK       I    between atoms: C6_19  and  N7_21 
ROOT
HETATM    1  N5  UNL     1      28.382  32.446  41.191  1.00  0.00    -0.362 N 
ATOM      2  H5  UNL     1      27.500  31.934  41.224  1.00  0.00     0.162 HD
HETATM    3  C6  UNL     1      29.135  32.325  42.210  1.00  0.00     0.188 C 
HETATM    4  N6  UNL     1      28.700  31.509  43.284  1.00  0.00    -0.064 NA
HETATM    5  N7  UNL     1      30.379  32.965  42.309  1.00  0.00    -0.326 N 
ATOM      6  H7  UNL     1      31.193  32.376  42.132  1.00  0.00     0.168 HD
HETATM    7  C7  UNL     1      30.628  34.177  42.588  1.00  0.00     0.106 C 
HETATM    8  C8  UNL     1      31.970  34.571  42.624  1.00  0.00     0.080 C 
HETATM    9  C9  UNL     1      32.521  35.841  42.512  1.00  0.00     0.119 C 
HETATM   10  N8  UNL     1      33.904  35.925  42.226  1.00  0.00    -0.083 NA
HETATM   11  N9  UNL     1      31.828  36.984  42.659  1.00  0.00    -0.341 N 
ATOM     12  H9  UNL     1      32.403  37.792  42.896  1.00  0.00     0.167 HD
HETATM   13  C10 UNL     1      30.517  37.257  42.549  1.00  0.00     0.184 C 
HETATM   14  N10 UNL     1      29.523  36.330  42.530  1.00  0.00    -0.318 N 
ATOM     15  H10 UNL     1      28.609  36.678  42.239  1.00  0.00     0.169 HD
HETATM   16  C11 UNL     1      29.566  35.021  42.839  1.00  0.00     0.273 C 
HETATM   17  O1  UNL     1      28.570  34.492  43.405  1.00  0.00    -0.266 OA
ENDROOT
BRANCH   1  18
HETATM   18  C5  UNL     1      28.617  33.208  40.007  1.00  0.00     0.156 C 
BRANCH  18  19
HETATM   19  C4  UNL     1      28.346  32.459  38.737  1.00  0.00     0.221 C 
BRANCH  19  20
HETATM   20  C3  UNL     1      29.559  31.836  38.137  1.00  0.00     0.185 C 
BRANCH  20  21
HETATM   21  N3  UNL     1      29.496  30.358  38.183  1.00  0.00    -0.269 N 
HETATM   22  C1  UNL     1      30.184  29.698  39.120  1.00  0.00     0.160 A 
HETATM   23  N1  UNL     1      30.955  30.180  40.062  1.00  0.00    -0.378 N 
HETATM   24  S1  UNL     1      29.789  28.074  38.756  1.00  0.00    -0.046 SA
ATOM     25  H12 UNL     1      31.480  29.677  40.777  1.00  0.00     0.158 HD
ATOM     26  H11 UNL     1      31.190  31.149  40.279  1.00  0.00     0.158 HD
HETATM   27  C2  UNL     1      28.763  28.371  37.419  1.00  0.00     0.160 A 
HETATM   28  N2  UNL     1      28.804  29.693  37.356  1.00  0.00    -0.301 N 
ATOM     29  H2  UNL     1      28.274  30.181  36.634  1.00  0.00     0.186 HD
ENDBRANCH  20  21
ENDBRANCH  19  20
BRANCH  19  30
HETATM   30  N4  UNL     1      27.684  33.271  37.753  1.00  0.00    -0.072 N 
ATOM     31  H43 UNL     1      28.230  33.360  36.897  1.00  0.00     0.274 HD
ATOM     32  H42 UNL     1      26.867  32.806  37.358  1.00  0.00     0.274 HD
ATOM     33  H41 UNL     1      27.451  34.179  38.158  1.00  0.00     0.274 HD
ENDBRANCH  19  30
ENDBRANCH  18  19
ENDBRANCH   1  18
TORSDOF 5
ENDMDL
MODEL 5
REMARK VINA RESULT: -5.485590758      3.019      7.182
REMARK  5 active torsions:
REMARK  status: ('A' for Active; 'I' for Inactive)
REMARK    1  A    between atoms: N3_9  and  C3_10 
REMARK    2  A    between atoms: C3_10  and  C4_11 
REMARK    3  A    between atoms: C4_11  and  N4_12 
REMARK    4  A    between atoms: C4_11  and  C5_16 
REMARK    5  A    between atoms: C5_16  and  N5_17 
REMARK       I    between atoms: C6_19  and  N7_21 
ROOT
HETATM    1  N5  UNL     1      28.529  32.350  41.555  1.00  0.00    -0.362 N 
ATOM      2  H5  UNL     1      27.638  31.856  41.610  1.00  0.00     0.162 HD
HETATM    3  C6  UNL     1      29.221  32.372  42.624  1.00  0.00     0.188 C 
HETATM    4  N6  UNL     1      28.711  31.725  43.777  1.00  0.00    -0.064 NA
HETATM    5  N7  UNL     1      30.468  33.009  42.702  1.00  0.00    -0.326 N 
ATOM      6  H7  UNL     1      31.280  32.394  42.661  1.00  0.00     0.168 HD
HETATM    7  C7  UNL     1      30.721  34.246  42.816  1.00  0.00     0.106 C 
HETATM    8  C8  UNL     1      32.065  34.631  42.875  1.00  0.00     0.080 C 
HETATM    9  C9  UNL     1      32.644  35.866  42.612  1.00  0.00     0.119 C 
HETATM   10  N8  UNL     1      34.042  35.895  42.399  1.00  0.00    -0.083 NA
HETATM   11  N9  UNL     1      31.963  37.024  42.551  1.00  0.00    -0.341 N 
ATOM     12  H9  UNL     1      32.537  37.853  42.702  1.00  0.00     0.167 HD
HETATM   13  C10 UNL     1      30.664  37.289  42.326  1.00  0.00     0.184 C 
HETATM   14  N10 UNL     1      29.658  36.378  42.383  1.00  0.00    -0.318 N 
ATOM     15  H10 UNL     1      28.769  36.687  41.991  1.00  0.00     0.169 HD
HETATM   16  C11 UNL     1      29.662  35.127  42.879  1.00  0.00     0.273 C 
HETATM   17  O1  UNL     1      28.625  34.695  43.457  1.00  0.00    -0.266 OA
ENDROOT
BRANCH   1  18
HETATM   18  C5  UNL     1      28.844  32.929  40.289  1.00  0.00     0.156 C 
BRANCH  18  19
HETATM   19  C4  UNL     1      27.890  32.558  39.195  1.00  0.00     0.221 C 
BRANCH  19  20
HETATM   20  C3  UNL     1      28.390  32.875  37.828  1.00  0.00     0.185 C 
BRANCH  20  21
HETATM   21  N3  UNL     1      28.773  31.653  37.086  1.00  0.00    -0.269 N 
HETATM   22  C1  UNL     1      29.038  31.733  35.778  1.00  0.00     0.160 A 
HETATM   23  N1  UNL     1      29.010  32.784  34.999  1.00  0.00    -0.378 N 
HETATM   24  S1  UNL     1      29.417  30.107  35.406  1.00  0.00    -0.046 SA
ATOM     25  H12 UNL     1      29.212  32.845  34.001  1.00  0.00     0.158 HD
ATOM     26  H11 UNL     1      28.783  33.754  35.221  1.00  0.00     0.158 HD
HETATM   27  C2  UNL     1      29.204  29.447  36.970  1.00  0.00     0.160 A 
HETATM   28  N2  UNL     1      28.858  30.525  37.656  1.00  0.00    -0.301 N 
ATOM     29  H2  UNL     1      28.659  30.447  38.653  1.00  0.00     0.186 HD
ENDBRANCH  20  21
ENDBRANCH  19  20
BRANCH  19  30
HETATM   30  N4  UNL     1      26.590  33.142  39.380  1.00  0.00    -0.072 N 
ATOM     31  H43 UNL     1      25.942  32.500  39.837  1.00  0.00     0.274 HD
ATOM     32  H42 UNL     1      26.595  33.875  40.090  1.00  0.00     0.274 HD
ATOM     33  H41 UNL     1      26.233  33.476  38.484  1.00  0.00     0.274 HD
ENDBRANCH  19  30
ENDBRANCH  18  19
ENDBRANCH   1  18
TORSDOF 5
ENDMDL
