MODEL 1
REMARK VINA RESULT: -5.590751694      0.000      0.000
REMARK  8 active torsions:
REMARK  status: ('A' for Active; 'I' for Inactive)
REMARK    1  A    between atoms: N1_1  and  C1_4 
REMARK    2  A    between atoms: C2_9  and  C3_10 
REMARK    3  A    between atoms: C3_10  and  N4_11 
REMARK    4  A    between atoms: N5_12  and  O1_13 
REMARK    5  A    between atoms: C4_15  and  S1_16 
REMARK    6  A    between atoms: S1_16  and  C5_17 
REMARK    7  A    between atoms: C5_17  and  C6_18 
REMARK    8  A    between atoms: N9_24  and  N10_25 
ROOT
HETATM    1  N4  UNL     1      28.625  32.658  41.378  1.00  0.00    -0.089 NA
HETATM    2  N5  UNL     1      29.168  31.706  40.560  1.00  0.00    -0.077 NA
HETATM    3  C4  UNL     1      30.578  31.691  40.621  1.00  0.00     0.276 C 
HETATM    4  N11 UNL     1      31.026  31.773  41.993  1.00  0.00    -0.276 N 
ATOM      5  H11 UNL     1      31.880  31.412  42.419  1.00  0.00     0.176 HD
HETATM    6  S2  UNL     1      29.714  32.657  42.721  1.00  0.00     0.316 S 
HETATM    7  O2  UNL     1      30.124  34.042  43.105  1.00  0.00    -0.187 OA
HETATM    8  O3  UNL     1      29.161  31.943  43.904  1.00  0.00    -0.187 OA
ENDROOT
BRANCH   3   9
HETATM    9  S1  UNL     1      31.282  30.243  39.840  1.00  0.00    -0.117 SA
BRANCH   9  10
HETATM   10  C5  UNL     1      30.807  30.020  38.135  1.00  0.00     0.158 C 
BRANCH  10  11
HETATM   11  C6  UNL     1      29.826  28.901  38.063  1.00  0.00     0.145 A 
HETATM   12  N6  UNL     1      29.542  27.989  39.009  1.00  0.00    -0.268 N 
HETATM   13  N7  UNL     1      28.606  27.152  38.561  1.00  0.00    -0.004 NA
ATOM     14  H6  UNL     1      29.977  27.945  39.930  1.00  0.00     0.185 HD
HETATM   15  N8  UNL     1      28.302  27.542  37.324  1.00  0.00    -0.204 N 
HETATM   16  N9  UNL     1      29.032  28.592  37.023  1.00  0.00    -0.176 N 
ATOM     17  H8  UNL     1      27.616  27.100  36.711  1.00  0.00     0.208 HD
BRANCH  16  18
HETATM   18  N10 UNL     1      28.979  29.279  35.790  1.00  0.00    -0.322 N 
ATOM     19 2H10 UNL     1      29.054  30.291  35.687  1.00  0.00     0.179 HD
ATOM     20 1H10 UNL     1      28.861  28.850  34.872  1.00  0.00     0.179 HD
ENDBRANCH  16  18
ENDBRANCH  10  11
ENDBRANCH   9  10
ENDBRANCH   3   9
BRANCH   2  21
HETATM   21  O1  UNL     1      28.543  30.531  40.601  1.00  0.00    -0.294 OA
ATOM     22  H1  UNL     1      27.738  30.500  40.096  1.00  0.00     0.238 HD
ENDBRANCH   2  21
BRANCH   1  23
HETATM   23  C3  UNL     1      28.537  33.976  40.848  1.00  0.00     0.216 C 
BRANCH  23  24
HETATM   24  C2  UNL     1      27.819  34.036  39.546  1.00  0.00     0.157 A 
HETATM   25  N3  UNL     1      28.324  33.540  38.411  1.00  0.00    -0.279 N 
HETATM   26  N2  UNL     1      27.455  33.748  37.449  1.00  0.00    -0.263 N 
ATOM     27  H3  UNL     1      29.229  33.080  38.310  1.00  0.00     0.189 HD
HETATM   28  C1  UNL     1      26.402  34.374  37.982  1.00  0.00     0.238 A 
ATOM     29  H2  UNL     1      27.564  33.479  36.472  1.00  0.00     0.190 HD
HETATM   30  O4  UNL     1      26.653  34.535  39.255  1.00  0.00    -0.263 OA
BRANCH  28  31
HETATM   31  N1  UNL     1      25.361  34.731  37.319  1.00  0.00    -0.364 N 
ATOM     32  H12 UNL     1      25.311  35.144  36.388  1.00  0.00     0.159 HD
ATOM     33  H11 UNL     1      24.405  34.641  37.661  1.00  0.00     0.159 HD
ENDBRANCH  28  31
ENDBRANCH  23  24
ENDBRANCH   1  23
TORSDOF 8
ENDMDL
MODEL 2
REMARK VINA RESULT: -5.483779321      4.725      7.076
REMARK  8 active torsions:
REMARK  status: ('A' for Active; 'I' for Inactive)
REMARK    1  A    between atoms: N1_1  and  C1_4 
REMARK    2  A    between atoms: C2_9  and  C3_10 
REMARK    3  A    between atoms: C3_10  and  N4_11 
REMARK    4  A    between atoms: N5_12  and  O1_13 
REMARK    5  A    between atoms: C4_15  and  S1_16 
REMARK    6  A    between atoms: S1_16  and  C5_17 
REMARK    7  A    between atoms: C5_17  and  C6_18 
REMARK    8  A    between atoms: N9_24  and  N10_25 
ROOT
HETATM    1  N4  UNL     1      28.754  28.067  37.088  1.00  0.00    -0.089 NA
HETATM    2  N5  UNL     1      29.560  27.262  37.845  1.00  0.00    -0.077 NA
HETATM    3  C4  UNL     1      30.869  27.776  37.960  1.00  0.00     0.276 C 
HETATM    4  N11 UNL     1      30.835  29.194  38.240  1.00  0.00    -0.276 N 
ATOM      5  H11 UNL     1      31.506  29.772  38.745  1.00  0.00     0.176 HD
HETATM    6  S2  UNL     1      29.334  29.648  37.480  1.00  0.00     0.316 S 
HETATM    7  O2  UNL     1      29.561  30.476  36.257  1.00  0.00    -0.187 OA
HETATM    8  O3  UNL     1      28.437  30.367  38.424  1.00  0.00    -0.187 OA
ENDROOT
BRANCH   3   9
HETATM    9  S1  UNL     1      31.827  26.934  39.216  1.00  0.00    -0.117 SA
BRANCH   9  10
HETATM   10  C5  UNL     1      32.749  25.528  38.622  1.00  0.00     0.158 C 
BRANCH  10  11
HETATM   11  C6  UNL     1      31.782  24.495  38.153  1.00  0.00     0.145 A 
HETATM   12  N6  UNL     1      30.455  24.454  38.359  1.00  0.00    -0.268 N 
HETATM   13  N7  UNL     1      29.943  23.368  37.779  1.00  0.00    -0.004 NA
ATOM     14  H6  UNL     1      29.920  25.148  38.880  1.00  0.00     0.185 HD
HETATM   15  N8  UNL     1      30.960  22.723  37.206  1.00  0.00    -0.204 N 
HETATM   16  N9  UNL     1      32.063  23.399  37.429  1.00  0.00    -0.176 N 
ATOM     17  H8  UNL     1      30.892  21.851  36.682  1.00  0.00     0.208 HD
BRANCH  16  18
HETATM   18  N10 UNL     1      33.344  23.016  36.971  1.00  0.00    -0.322 N 
ATOM     19 2H10 UNL     1      34.177  23.602  37.024  1.00  0.00     0.179 HD
ATOM     20 1H10 UNL     1      33.581  22.124  36.538  1.00  0.00     0.179 HD
ENDBRANCH  16  18
ENDBRANCH  10  11
ENDBRANCH   9  10
ENDBRANCH   3   9
BRANCH   2  21
HETATM   21  O1  UNL     1      28.984  26.803  38.954  1.00  0.00    -0.294 OA
ATOM     22  H1  UNL     1      29.393  26.024  39.311  1.00  0.00     0.238 HD
ENDBRANCH   2  21
BRANCH   1  23
HETATM   23  C3  UNL     1      28.816  27.882  35.678  1.00  0.00     0.216 C 
BRANCH  23  24
HETATM   24  C2  UNL     1      28.743  26.453  35.272  1.00  0.00     0.157 A 
HETATM   25  N3  UNL     1      28.146  25.514  36.013  1.00  0.00    -0.279 N 
HETATM   26  N2  UNL     1      28.250  24.366  35.386  1.00  0.00    -0.263 N 
ATOM     27  H3  UNL     1      27.688  25.664  36.912  1.00  0.00     0.189 HD
HETATM   28  C1  UNL     1      28.914  24.585  34.247  1.00  0.00     0.238 A 
ATOM     29  H2  UNL     1      27.890  23.468  35.709  1.00  0.00     0.190 HD
HETATM   30  O4  UNL     1      29.199  25.860  34.206  1.00  0.00    -0.263 OA
BRANCH  28  31
HETATM   31  N1  UNL     1      29.194  23.674  33.386  1.00  0.00    -0.364 N 
ATOM     32  H12 UNL     1      30.047  23.120  33.301  1.00  0.00     0.159 HD
ATOM     33  H11 UNL     1      28.565  23.375  32.641  1.00  0.00     0.159 HD
ENDBRANCH  28  31
ENDBRANCH  23  24
ENDBRANCH   1  23
TORSDOF 8
ENDMDL
MODEL 3
REMARK VINA RESULT: -5.425154012      5.049      7.339
REMARK  8 active torsions:
REMARK  status: ('A' for Active; 'I' for Inactive)
REMARK    1  A    between atoms: N1_1  and  C1_4 
REMARK    2  A    between atoms: C2_9  and  C3_10 
REMARK    3  A    between atoms: C3_10  and  N4_11 
REMARK    4  A    between atoms: N5_12  and  O1_13 
REMARK    5  A    between atoms: C4_15  and  S1_16 
REMARK    6  A    between atoms: S1_16  and  C5_17 
REMARK    7  A    between atoms: C5_17  and  C6_18 
REMARK    8  A    between atoms: N9_24  and  N10_25 
ROOT
HETATM    1  N4  UNL     1      28.796  26.973  37.750  1.00  0.00    -0.089 NA
HETATM    2  N5  UNL     1      29.876  26.345  38.307  1.00  0.00    -0.077 NA
HETATM    3  C4  UNL     1      30.957  27.228  38.516  1.00  0.00     0.276 C 
HETATM    4  N11 UNL     1      30.494  28.469  39.094  1.00  0.00    -0.276 N 
ATOM      5  H11 UNL     1      30.984  29.123  39.703  1.00  0.00     0.176 HD
HETATM    6  S2  UNL     1      28.870  28.545  38.467  1.00  0.00     0.316 S 
HETATM    7  O2  UNL     1      28.720  29.628  37.448  1.00  0.00    -0.187 OA
HETATM    8  O3  UNL     1      27.870  28.725  39.553  1.00  0.00    -0.187 OA
ENDROOT
BRANCH   3   9
HETATM    9  S1  UNL     1      32.232  26.517  39.550  1.00  0.00    -0.117 SA
BRANCH   9  10
HETATM   10  C5  UNL     1      33.403  25.491  38.679  1.00  0.00     0.158 C 
BRANCH  10  11
HETATM   11  C6  UNL     1      32.645  24.476  37.895  1.00  0.00     0.145 A 
HETATM   12  N6  UNL     1      31.627  23.704  38.309  1.00  0.00    -0.268 N 
HETATM   13  N7  UNL     1      31.218  22.922  37.310  1.00  0.00    -0.004 NA
ATOM     14  H6  UNL     1      31.226  23.714  39.247  1.00  0.00     0.185 HD
HETATM   15  N8  UNL     1      31.988  23.206  36.260  1.00  0.00    -0.204 N 
HETATM   16  N9  UNL     1      32.845  24.139  36.609  1.00  0.00    -0.176 N 
ATOM     17  H8  UNL     1      31.924  22.772  35.339  1.00  0.00     0.208 HD
BRANCH  16  18
HETATM   18  N10 UNL     1      33.821  24.692  35.751  1.00  0.00    -0.322 N 
ATOM     19 2H10 UNL     1      34.828  24.600  35.884  1.00  0.00     0.179 HD
ATOM     20 1H10 UNL     1      33.636  25.241  34.911  1.00  0.00     0.179 HD
ENDBRANCH  16  18
ENDBRANCH  10  11
ENDBRANCH   9  10
ENDBRANCH   3   9
BRANCH   2  21
HETATM   21  O1  UNL     1      29.569  25.511  39.298  1.00  0.00    -0.294 OA
ATOM     22  H1  UNL     1      30.102  24.724  39.324  1.00  0.00     0.238 HD
ENDBRANCH   2  21
BRANCH   1  23
HETATM   23  C3  UNL     1      28.799  27.104  36.333  1.00  0.00     0.216 C 
BRANCH  23  24
HETATM   24  C2  UNL     1      28.847  25.797  35.625  1.00  0.00     0.157 A 
HETATM   25  N3  UNL     1      28.729  24.622  36.254  1.00  0.00    -0.279 N 
HETATM   26  N2  UNL     1      28.812  23.666  35.358  1.00  0.00    -0.263 N 
ATOM     27  H3  UNL     1      28.597  24.492  37.257  1.00  0.00     0.189 HD
HETATM   28  C1  UNL     1      28.982  24.242  34.165  1.00  0.00     0.238 A 
ATOM     29  H2  UNL     1      28.757  22.664  35.541  1.00  0.00     0.190 HD
HETATM   30  O4  UNL     1      28.999  25.534  34.359  1.00  0.00    -0.263 OA
BRANCH  28  31
HETATM   31  N1  UNL     1      29.102  23.596  33.061  1.00  0.00    -0.364 N 
ATOM     32  H12 UNL     1      29.941  23.179  32.656  1.00  0.00     0.159 HD
ATOM     33  H11 UNL     1      28.333  23.411  32.418  1.00  0.00     0.159 HD
ENDBRANCH  28  31
ENDBRANCH  23  24
ENDBRANCH   1  23
TORSDOF 8
ENDMDL
MODEL 4
REMARK VINA RESULT: -5.374749233      2.485      5.336
REMARK  8 active torsions:
REMARK  status: ('A' for Active; 'I' for Inactive)
REMARK    1  A    between atoms: N1_1  and  C1_4 
REMARK    2  A    between atoms: C2_9  and  C3_10 
REMARK    3  A    between atoms: C3_10  and  N4_11 
REMARK    4  A    between atoms: N5_12  and  O1_13 
REMARK    5  A    between atoms: C4_15  and  S1_16 
REMARK    6  A    between atoms: S1_16  and  C5_17 
REMARK    7  A    between atoms: C5_17  and  C6_18 
REMARK    8  A    between atoms: N9_24  and  N10_25 
ROOT
HETATM    1  N4  UNL     1      29.812  30.517  40.413  1.00  0.00    -0.089 NA
HETATM    2  N5  UNL     1      29.082  31.276  39.539  1.00  0.00    -0.077 NA
HETATM    3  C4  UNL     1      29.845  31.691  38.427  1.00  0.00     0.276 C 
HETATM    4  N11 UNL     1      30.630  30.591  37.912  1.00  0.00    -0.276 N 
ATOM      5  H11 UNL     1      30.958  30.417  36.963  1.00  0.00     0.176 HD
HETATM    6  S2  UNL     1      30.864  29.644  39.355  1.00  0.00     0.316 S 
HETATM    7  O2  UNL     1      32.284  29.688  39.823  1.00  0.00    -0.187 OA
HETATM    8  O3  UNL     1      30.436  28.233  39.161  1.00  0.00    -0.187 OA
ENDROOT
BRANCH   3   9
HETATM    9  S1  UNL     1      28.833  32.376  37.119  1.00  0.00    -0.117 SA
BRANCH   9  10
HETATM   10  C5  UNL     1      28.535  34.129  37.259  1.00  0.00     0.158 C 
BRANCH  10  11
HETATM   11  C6  UNL     1      27.086  34.339  37.537  1.00  0.00     0.145 A 
HETATM   12  N6  UNL     1      26.158  34.869  36.723  1.00  0.00    -0.268 N 
HETATM   13  N7  UNL     1      24.975  34.886  37.340  1.00  0.00    -0.004 NA
ATOM     14  H6  UNL     1      26.331  35.208  35.778  1.00  0.00     0.185 HD
HETATM   15  N8  UNL     1      25.166  34.362  38.550  1.00  0.00    -0.204 N 
HETATM   16  N9  UNL     1      26.431  34.033  38.670  1.00  0.00    -0.176 N 
ATOM     17  H8  UNL     1      24.448  34.238  39.264  1.00  0.00     0.208 HD
BRANCH  16  18
HETATM   18  N10 UNL     1      27.002  33.446  39.823  1.00  0.00    -0.322 N 
ATOM     19 2H10 UNL     1      27.495  33.962  40.551  1.00  0.00     0.179 HD
ATOM     20 1H10 UNL     1      26.988  32.454  40.057  1.00  0.00     0.179 HD
ENDBRANCH  16  18
ENDBRANCH  10  11
ENDBRANCH   9  10
ENDBRANCH   3   9
BRANCH   2  21
HETATM   21  O1  UNL     1      27.859  30.807  39.300  1.00  0.00    -0.294 OA
ATOM     22  H1  UNL     1      27.158  31.383  39.583  1.00  0.00     0.238 HD
ENDBRANCH   2  21
BRANCH   1  23
HETATM   23  C3  UNL     1      30.591  31.225  41.370  1.00  0.00     0.216 C 
BRANCH  23  24
HETATM   24  C2  UNL     1      29.853  32.345  42.013  1.00  0.00     0.157 A 
HETATM   25  N3  UNL     1      28.749  32.164  42.747  1.00  0.00    -0.279 N 
HETATM   26  N2  UNL     1      28.340  33.337  43.171  1.00  0.00    -0.263 N 
ATOM     27  H3  UNL     1      28.302  31.269  42.944  1.00  0.00     0.189 HD
HETATM   28  C1  UNL     1      29.190  34.256  42.703  1.00  0.00     0.238 A 
ATOM     29  H2  UNL     1      27.522  33.515  43.753  1.00  0.00     0.190 HD
HETATM   30  O4  UNL     1      30.096  33.624  42.005  1.00  0.00    -0.263 OA
BRANCH  28  31
HETATM   31  N1  UNL     1      29.087  35.517  42.928  1.00  0.00    -0.364 N 
ATOM     32  H12 UNL     1      28.567  35.991  43.666  1.00  0.00     0.159 HD
ATOM     33  H11 UNL     1      29.539  36.239  42.366  1.00  0.00     0.159 HD
ENDBRANCH  28  31
ENDBRANCH  23  24
ENDBRANCH   1  23
TORSDOF 8
ENDMDL
MODEL 5
REMARK VINA RESULT: -5.339800498      3.698      7.891
REMARK  8 active torsions:
REMARK  status: ('A' for Active; 'I' for Inactive)
REMARK    1  A    between atoms: N1_1  and  C1_4 
REMARK    2  A    between atoms: C2_9  and  C3_10 
REMARK    3  A    between atoms: C3_10  and  N4_11 
REMARK    4  A    between atoms: N5_12  and  O1_13 
REMARK    5  A    between atoms: C4_15  and  S1_16 
REMARK    6  A    between atoms: S1_16  and  C5_17 
REMARK    7  A    between atoms: C5_17  and  C6_18 
REMARK    8  A    between atoms: N9_24  and  N10_25 
ROOT
HETATM    1  N4  UNL     1      29.155  27.116  38.194  1.00  0.00    -0.089 NA
HETATM    2  N5  UNL     1      28.402  27.890  39.035  1.00  0.00    -0.077 NA
HETATM    3  C4  UNL     1      28.851  29.228  39.071  1.00  0.00     0.276 C 
HETATM    4  N11 UNL     1      29.125  29.707  37.735  1.00  0.00    -0.276 N 
ATOM      5  H11 UNL     1      29.077  30.656  37.364  1.00  0.00     0.176 HD
HETATM    6  S2  UNL     1      29.558  28.224  36.930  1.00  0.00     0.316 S 
HETATM    7  O2  UNL     1      31.014  28.181  36.596  1.00  0.00    -0.187 OA
HETATM    8  O3  UNL     1      28.746  28.009  35.702  1.00  0.00    -0.187 OA
ENDROOT
BRANCH   3   9
HETATM    9  S1  UNL     1      27.684  30.319  39.878  1.00  0.00    -0.117 SA
BRANCH   9  10
HETATM   10  C5  UNL     1      28.219  32.016  39.994  1.00  0.00     0.158 C 
BRANCH  10  11
HETATM   11  C6  UNL     1      28.571  32.302  41.414  1.00  0.00     0.145 A 
HETATM   12  N6  UNL     1      28.588  31.445  42.449  1.00  0.00    -0.268 N 
HETATM   13  N7  UNL     1      28.955  32.087  43.559  1.00  0.00    -0.004 NA
ATOM     14  H6  UNL     1      28.355  30.454  42.394  1.00  0.00     0.185 HD
HETATM   15  N8  UNL     1      29.170  33.356  43.215  1.00  0.00    -0.204 N 
HETATM   16  N9  UNL     1      28.940  33.487  41.929  1.00  0.00    -0.176 N 
ATOM     17  H8  UNL     1      29.463  34.102  43.846  1.00  0.00     0.208 HD
BRANCH  16  18
HETATM   18  N10 UNL     1      29.066  34.698  41.211  1.00  0.00    -0.322 N 
ATOM     19 2H10 UNL     1      29.286  34.762  40.218  1.00  0.00     0.179 HD
ATOM     20 1H10 UNL     1      28.954  35.636  41.597  1.00  0.00     0.179 HD
ENDBRANCH  16  18
ENDBRANCH  10  11
ENDBRANCH   9  10
ENDBRANCH   3   9
BRANCH   2  21
HETATM   21  O1  UNL     1      27.091  27.688  38.933  1.00  0.00    -0.294 OA
ATOM     22  H1  UNL     1      26.595  27.952  39.700  1.00  0.00     0.238 HD
ENDBRANCH   2  21
BRANCH   1  23
HETATM   23  C3  UNL     1      30.352  26.569  38.737  1.00  0.00     0.216 C 
BRANCH  23  24
HETATM   24  C2  UNL     1      30.622  25.181  38.275  1.00  0.00     0.157 A 
HETATM   25  N3  UNL     1      31.690  24.477  38.665  1.00  0.00    -0.279 N 
HETATM   26  N2  UNL     1      31.641  23.300  38.086  1.00  0.00    -0.263 N 
ATOM     27  H3  UNL     1      32.418  24.799  39.303  1.00  0.00     0.189 HD
HETATM   28  C1  UNL     1      30.539  23.264  37.331  1.00  0.00     0.238 A 
ATOM     29  H2  UNL     1      32.321  22.548  38.194  1.00  0.00     0.190 HD
HETATM   30  O4  UNL     1      29.942  24.420  37.466  1.00  0.00    -0.263 OA
BRANCH  28  31
HETATM   31  N1  UNL     1      30.179  22.255  36.623  1.00  0.00    -0.364 N 
ATOM     32  H12 UNL     1      29.692  21.410  36.922  1.00  0.00     0.159 HD
ATOM     33  H11 UNL     1      30.345  22.169  35.620  1.00  0.00     0.159 HD
ENDBRANCH  28  31
ENDBRANCH  23  24
ENDBRANCH   1  23
TORSDOF 8
ENDMDL
