MODEL 1
REMARK VINA RESULT: -5.263576534      0.000      0.000
REMARK  2 active torsions:
REMARK  status: ('A' for Active; 'I' for Inactive)
REMARK    1  A    between atoms: O1_2  and  C2_3 
REMARK    2  A    between atoms: N2_10  and  O2_11 
ROOT
HETATM    1  C2  UNL     1      15.813  10.667   0.003  1.00  0.00     0.347 C 
HETATM    2  N1  UNL     1      15.924  10.411   1.429  1.00  0.00    -0.024 N 
ATOM      3  H11 UNL     1      16.313  11.200   1.945  1.00  0.00     0.282 HD
ATOM      4  H12 UNL     1      16.650   9.732   1.655  1.00  0.00     0.282 HD
HETATM    5  C3  UNL     1      14.630  10.022   1.899  1.00  0.00     0.199 C 
HETATM    6  C4  UNL     1      14.079  10.995   2.950  1.00  0.00     0.066 C 
HETATM    7  C5  UNL     1      14.739   8.683   2.578  1.00  0.00     0.066 C 
HETATM    8  N2  UNL     1      13.717  10.040   0.803  1.00  0.00    -0.150 NA
HETATM    9  C6  UNL     1      14.474  10.109  -0.412  1.00  0.00     0.085 C 
HETATM   10  C7  UNL     1      13.875  11.038  -1.435  1.00  0.00     0.039 C 
HETATM   11  C8  UNL     1      14.573   8.737  -1.021  1.00  0.00     0.039 C 
ENDROOT
BRANCH   1  12
HETATM   12  O1  UNL     1      16.862  10.123  -0.703  1.00  0.00    -0.362 OA
HETATM   13  C1  UNL     1      17.868  11.049  -0.844  1.00  0.00     0.204 C 
ENDBRANCH   1  12
BRANCH   8  14
HETATM   14  O2  UNL     1      12.816   9.042   0.829  1.00  0.00    -0.310 OA
ATOM     15  H2  UNL     1      12.431   8.850  -0.018  1.00  0.00     0.237 HD
ENDBRANCH   8  14
TORSDOF 2
ENDMDL
MODEL 2
REMARK VINA RESULT: -5.250882906      1.458      3.851
REMARK  2 active torsions:
REMARK  status: ('A' for Active; 'I' for Inactive)
REMARK    1  A    between atoms: O1_2  and  C2_3 
REMARK    2  A    between atoms: N2_10  and  O2_11 
ROOT
HETATM    1  C2  UNL     1      13.646   9.161   1.648  1.00  0.00     0.347 C 
HETATM    2  N1  UNL     1      13.736   9.012   0.206  1.00  0.00    -0.024 N 
ATOM      3  H11 UNL     1      12.823   8.922  -0.241  1.00  0.00     0.282 HD
ATOM      4  H12 UNL     1      14.113   8.108  -0.077  1.00  0.00     0.282 HD
HETATM    5  C3  UNL     1      14.496  10.115  -0.296  1.00  0.00     0.199 C 
HETATM    6  C4  UNL     1      13.681  10.987  -1.260  1.00  0.00     0.066 C 
HETATM    7  C5  UNL     1      15.662   9.585  -1.086  1.00  0.00     0.066 C 
HETATM    8  N2  UNL     1      14.871  10.951   0.798  1.00  0.00    -0.150 NA
HETATM    9  C6  UNL     1      14.651  10.226   2.014  1.00  0.00     0.085 C 
HETATM   10  C7  UNL     1      14.061  11.071   3.112  1.00  0.00     0.039 C 
HETATM   11  C8  UNL     1      15.956   9.659   2.505  1.00  0.00     0.039 C 
ENDROOT
BRANCH   1  12
HETATM   12  O1  UNL     1      13.864   7.972   2.306  1.00  0.00    -0.362 OA
HETATM   13  C1  UNL     1      13.784   6.921   1.424  1.00  0.00     0.204 C 
ENDBRANCH   1  12
BRANCH   8  14
HETATM   14  O2  UNL     1      16.108  11.468   0.687  1.00  0.00    -0.310 OA
ATOM     15  H2  UNL     1      16.781  10.821   0.514  1.00  0.00     0.237 HD
ENDBRANCH   8  14
TORSDOF 2
ENDMDL
MODEL 3
REMARK VINA RESULT: -5.159163292      1.444      3.172
REMARK  2 active torsions:
REMARK  status: ('A' for Active; 'I' for Inactive)
REMARK    1  A    between atoms: O1_2  and  C2_3 
REMARK    2  A    between atoms: N2_10  and  O2_11 
ROOT
HETATM    1  C2  UNL     1      15.863  10.543   1.321  1.00  0.00     0.347 C 
HETATM    2  N1  UNL     1      15.497  10.660  -0.080  1.00  0.00    -0.024 N 
ATOM      3  H11 UNL     1      16.276  10.469  -0.711  1.00  0.00     0.282 HD
ATOM      4  H12 UNL     1      15.326  11.624  -0.367  1.00  0.00     0.282 HD
HETATM    5  C3  UNL     1      14.374   9.803  -0.306  1.00  0.00     0.199 C 
HETATM    6  C4  UNL     1      14.684   8.700  -1.326  1.00  0.00     0.066 C 
HETATM    7  C5  UNL     1      13.249  10.616  -0.888  1.00  0.00     0.066 C 
HETATM    8  N2  UNL     1      14.040   9.150   0.918  1.00  0.00    -0.150 NA
HETATM    9  C6  UNL     1      14.715   9.825   1.987  1.00  0.00     0.085 C 
HETATM   10  C7  UNL     1      15.284   8.887   3.019  1.00  0.00     0.039 C 
HETATM   11  C8  UNL     1      13.758  10.759   2.676  1.00  0.00     0.039 C 
ENDROOT
BRANCH   1  12
HETATM   12  O1  UNL     1      16.130  11.768   1.890  1.00  0.00    -0.362 OA
HETATM   13  C1  UNL     1      17.457  12.086   1.729  1.00  0.00     0.204 C 
ENDBRANCH   1  12
BRANCH   8  14
HETATM   14  O2  UNL     1      12.718   9.004   1.114  1.00  0.00    -0.310 OA
ATOM     15  H2  UNL     1      12.482   8.204   1.568  1.00  0.00     0.237 HD
ENDBRANCH   8  14
TORSDOF 2
ENDMDL
MODEL 4
REMARK VINA RESULT: -5.153204892      2.513      3.672
REMARK  2 active torsions:
REMARK  status: ('A' for Active; 'I' for Inactive)
REMARK    1  A    between atoms: O1_2  and  C2_3 
REMARK    2  A    between atoms: N2_10  and  O2_11 
ROOT
HETATM    1  C2  UNL     1      15.691  10.022   2.057  1.00  0.00     0.347 C 
HETATM    2  N1  UNL     1      14.516   9.615   1.306  1.00  0.00    -0.024 N 
ATOM      3  H11 UNL     1      14.744   9.238   0.385  1.00  0.00     0.282 HD
ATOM      4  H12 UNL     1      13.953  10.405   0.992  1.00  0.00     0.282 HD
HETATM    5  C3  UNL     1      13.782   8.694   2.119  1.00  0.00     0.199 C 
HETATM    6  C4  UNL     1      13.669   7.310   1.466  1.00  0.00     0.066 C 
HETATM    7  C5  UNL     1      12.375   9.202   2.284  1.00  0.00     0.066 C 
HETATM    8  N2  UNL     1      14.479   8.512   3.351  1.00  0.00    -0.150 NA
HETATM    9  C6  UNL     1      15.460   9.550   3.471  1.00  0.00     0.085 C 
HETATM   10  C7  UNL     1      16.774   9.065   4.025  1.00  0.00     0.039 C 
HETATM   11  C8  UNL     1      14.938  10.633   4.375  1.00  0.00     0.039 C 
ENDROOT
BRANCH   1  12
HETATM   12  O1  UNL     1      15.913  11.379   1.976  1.00  0.00    -0.362 OA
HETATM   13  C1  UNL     1      17.107  11.626   1.342  1.00  0.00     0.204 C 
ENDBRANCH   1  12
BRANCH   8  14
HETATM   14  O2  UNL     1      13.671   8.398   4.420  1.00  0.00    -0.310 OA
ATOM     15  H2  UNL     1      14.107   8.073   5.198  1.00  0.00     0.237 HD
ENDBRANCH   8  14
TORSDOF 2
ENDMDL
MODEL 5
REMARK VINA RESULT: -5.138571610      2.476      3.817
REMARK  2 active torsions:
REMARK  status: ('A' for Active; 'I' for Inactive)
REMARK    1  A    between atoms: O1_2  and  C2_3 
REMARK    2  A    between atoms: N2_10  and  O2_11 
ROOT
HETATM    1  C2  UNL     1      14.813   9.252   1.865  1.00  0.00     0.347 C 
HETATM    2  N1  UNL     1      16.241   9.515   1.814  1.00  0.00    -0.024 N 
ATOM      3  H11 UNL     1      16.644   9.343   0.893  1.00  0.00     0.282 HD
ATOM      4  H12 UNL     1      16.790   8.828   2.331  1.00  0.00     0.282 HD
HETATM    5  C3  UNL     1      16.450  10.854   2.272  1.00  0.00     0.199 C 
HETATM    6  C4  UNL     1      17.079  11.743   1.191  1.00  0.00     0.066 C 
HETATM    7  C5  UNL     1      17.421  10.831   3.422  1.00  0.00     0.066 C 
HETATM    8  N2  UNL     1      15.186  11.432   2.596  1.00  0.00    -0.150 NA
HETATM    9  C6  UNL     1      14.216  10.380   2.670  1.00  0.00     0.085 C 
HETATM   10  C7  UNL     1      12.892  10.747   2.054  1.00  0.00     0.039 C 
HETATM   11  C8  UNL     1      13.981  10.014   4.111  1.00  0.00     0.039 C 
ENDROOT
BRANCH   1  12
HETATM   12  O1  UNL     1      14.534   8.012   2.393  1.00  0.00    -0.362 OA
HETATM   13  C1  UNL     1      13.841   7.254   1.480  1.00  0.00     0.204 C 
ENDBRANCH   1  12
BRANCH   8  14
HETATM   14  O2  UNL     1      15.214  12.227   3.681  1.00  0.00    -0.310 OA
ATOM     15  H2  UNL     1      14.379  12.633   3.881  1.00  0.00     0.237 HD
ENDBRANCH   8  14
TORSDOF 2
ENDMDL
