MODEL 1
REMARK VINA RESULT: -5.704633570      0.000      0.000
REMARK  2 active torsions:
REMARK  status: ('A' for Active; 'I' for Inactive)
REMARK    1  A    between atoms: C2_2  and  N1_3 
REMARK    2  A    between atoms: N1_3  and  C3_5 
ROOT
HETATM    1  C3  UNL     1      16.158  10.804   0.218  1.00  0.00     0.139 A 
HETATM    2  N2  UNL     1      14.875  10.551  -0.076  1.00  0.00    -0.342 N 
ATOM      3  H2  UNL     1      14.177  10.599   0.667  1.00  0.00     0.167 HD
HETATM    4  C4  UNL     1      14.477  10.232  -1.339  1.00  0.00     0.029 A 
HETATM    5  C5  UNL     1      13.043   9.960  -1.620  1.00  0.00     0.070 C 
HETATM    6  C6  UNL     1      15.430  10.168  -2.335  1.00  0.00     0.028 A 
HETATM    7  C7  UNL     1      14.983   9.821  -3.698  1.00  0.00     0.070 C 
HETATM    8  N3  UNL     1      16.732  10.419  -2.066  1.00  0.00    -0.347 N 
ATOM      9  H3  UNL     1      17.431  10.371  -2.807  1.00  0.00     0.166 HD
HETATM   10  C8  UNL     1      17.098  10.737  -0.787  1.00  0.00     0.158 A 
HETATM   11  C9  UNL     1      18.476  11.004  -0.488  1.00  0.00     0.121 C 
HETATM   12  N4  UNL     1      19.601  11.236  -0.242  1.00  0.00    -0.190 NA
ENDROOT
BRANCH   1  13
HETATM   13  N1  UNL     1      16.522  11.103   1.408  1.00  0.00    -0.374 N 
ATOM     14  H1  UNL     1      16.933  12.026   1.547  1.00  0.00     0.161 HD
BRANCH  13  15
HETATM   15  C2  UNL     1      16.407  10.267   2.553  1.00  0.00     0.116 C 
HETATM   16  C1  UNL     1      17.826  10.040   3.095  1.00  0.00     0.026 C 
ENDBRANCH  13  15
ENDBRANCH   1  13
TORSDOF 2
ENDMDL
MODEL 2
REMARK VINA RESULT: -5.682448395      1.721      4.173
REMARK  2 active torsions:
REMARK  status: ('A' for Active; 'I' for Inactive)
REMARK    1  A    between atoms: C2_2  and  N1_3 
REMARK    2  A    between atoms: N1_3  and  C3_5 
ROOT
HETATM    1  C3  UNL     1      15.227  10.463  -0.172  1.00  0.00     0.139 A 
HETATM    2  N2  UNL     1      14.311   9.611   0.309  1.00  0.00    -0.342 N 
ATOM      3  H2  UNL     1      13.554   9.301  -0.300  1.00  0.00     0.167 HD
HETATM    4  C4  UNL     1      14.363   9.150   1.589  1.00  0.00     0.029 A 
HETATM    5  C5  UNL     1      13.325   8.205   2.081  1.00  0.00     0.070 C 
HETATM    6  C6  UNL     1      15.390   9.578   2.405  1.00  0.00     0.028 A 
HETATM    7  C7  UNL     1      15.432   9.069   3.789  1.00  0.00     0.070 C 
HETATM    8  N3  UNL     1      16.328  10.438   1.945  1.00  0.00    -0.347 N 
ATOM      9  H3  UNL     1      17.086  10.750   2.552  1.00  0.00     0.166 HD
HETATM   10  C8  UNL     1      16.248  10.882   0.653  1.00  0.00     0.158 A 
HETATM   11  C9  UNL     1      17.235  11.794   0.153  1.00  0.00     0.121 C 
HETATM   12  N4  UNL     1      18.050  12.531  -0.264  1.00  0.00    -0.190 NA
ENDROOT
BRANCH   1  13
HETATM   13  N1  UNL     1      15.171  10.891  -1.377  1.00  0.00    -0.374 N 
ATOM     14  H1  UNL     1      15.886  11.558  -1.665  1.00  0.00     0.161 HD
BRANCH  13  15
HETATM   15  C2  UNL     1      14.201  10.523  -2.351  1.00  0.00     0.116 C 
HETATM   16  C1  UNL     1      14.962  10.126  -3.623  1.00  0.00     0.026 C 
ENDBRANCH  13  15
ENDBRANCH   1  13
TORSDOF 2
ENDMDL
MODEL 3
REMARK VINA RESULT: -5.577652554      1.786      2.404
REMARK  2 active torsions:
REMARK  status: ('A' for Active; 'I' for Inactive)
REMARK    1  A    between atoms: C2_2  and  N1_3 
REMARK    2  A    between atoms: N1_3  and  C3_5 
ROOT
HETATM    1  C3  UNL     1      16.620  10.322   1.727  1.00  0.00     0.139 A 
HETATM    2  N2  UNL     1      15.640   9.479   2.080  1.00  0.00    -0.342 N 
ATOM      3  H2  UNL     1      15.712   8.978   2.966  1.00  0.00     0.167 HD
HETATM    4  C4  UNL     1      14.551   9.271   1.289  1.00  0.00     0.029 A 
HETATM    5  C5  UNL     1      13.488   8.327   1.721  1.00  0.00     0.070 C 
HETATM    6  C6  UNL     1      14.465   9.953   0.092  1.00  0.00     0.028 A 
HETATM    7  C7  UNL     1      13.279   9.717  -0.754  1.00  0.00     0.070 C 
HETATM    8  N3  UNL     1      15.440  10.810  -0.289  1.00  0.00    -0.347 N 
ATOM      9  H3  UNL     1      15.370  11.311  -1.175  1.00  0.00     0.166 HD
HETATM   10  C8  UNL     1      16.521  10.996   0.530  1.00  0.00     0.158 A 
HETATM   11  C9  UNL     1      17.561  11.902   0.137  1.00  0.00     0.121 C 
HETATM   12  N4  UNL     1      18.410  12.652  -0.175  1.00  0.00    -0.190 NA
ENDROOT
BRANCH   1  13
HETATM   13  N1  UNL     1      17.639  10.511   2.478  1.00  0.00    -0.374 N 
ATOM     14  H1  UNL     1      17.834  11.471   2.760  1.00  0.00     0.161 HD
BRANCH  13  15
HETATM   15  C2  UNL     1      18.526   9.505   2.953  1.00  0.00     0.116 C 
HETATM   16  C1  UNL     1      19.668   9.387   1.935  1.00  0.00     0.026 C 
ENDBRANCH  13  15
ENDBRANCH   1  13
TORSDOF 2
ENDMDL
MODEL 4
REMARK VINA RESULT: -5.510934082      5.671      7.900
REMARK  2 active torsions:
REMARK  status: ('A' for Active; 'I' for Inactive)
REMARK    1  A    between atoms: C2_2  and  N1_3 
REMARK    2  A    between atoms: N1_3  and  C3_5 
ROOT
HETATM    1  C3  UNL     1      13.989   9.859   6.989  1.00  0.00     0.139 A 
HETATM    2  N2  UNL     1      13.959  10.583   5.861  1.00  0.00    -0.342 N 
ATOM      3  H2  UNL     1      13.286  11.345   5.779  1.00  0.00     0.167 HD
HETATM    4  C4  UNL     1      14.802  10.328   4.823  1.00  0.00     0.029 A 
HETATM    5  C5  UNL     1      14.735  11.158   3.591  1.00  0.00     0.070 C 
HETATM    6  C6  UNL     1      15.707   9.294   4.944  1.00  0.00     0.028 A 
HETATM    7  C7  UNL     1      16.613   9.031   3.810  1.00  0.00     0.070 C 
HETATM    8  N3  UNL     1      15.759   8.547   6.072  1.00  0.00    -0.347 N 
ATOM      9  H3  UNL     1      16.430   7.784   6.156  1.00  0.00     0.166 HD
HETATM   10  C8  UNL     1      14.898   8.829   7.097  1.00  0.00     0.158 A 
HETATM   11  C9  UNL     1      14.942   8.045   8.297  1.00  0.00     0.121 C 
HETATM   12  N4  UNL     1      14.983   7.412   9.287  1.00  0.00    -0.190 NA
ENDROOT
BRANCH   1  13
HETATM   13  N1  UNL     1      13.193  10.106   7.961  1.00  0.00    -0.374 N 
ATOM     14  H1  UNL     1      12.481   9.405   8.165  1.00  0.00     0.161 HD
BRANCH  13  15
HETATM   15  C2  UNL     1      13.211  11.268   8.782  1.00  0.00     0.116 C 
HETATM   16  C1  UNL     1      13.571  10.814  10.203  1.00  0.00     0.026 C 
ENDBRANCH  13  15
ENDBRANCH   1  13
TORSDOF 2
ENDMDL
MODEL 5
REMARK VINA RESULT: -5.483651259      1.329      1.701
REMARK  2 active torsions:
REMARK  status: ('A' for Active; 'I' for Inactive)
REMARK    1  A    between atoms: C2_2  and  N1_3 
REMARK    2  A    between atoms: N1_3  and  C3_5 
ROOT
HETATM    1  C3  UNL     1      17.455  11.261   1.349  1.00  0.00     0.139 A 
HETATM    2  N2  UNL     1      16.171  10.894   1.236  1.00  0.00    -0.342 N 
ATOM      3  H2  UNL     1      15.583  10.883   2.069  1.00  0.00     0.167 HD
HETATM    4  C4  UNL     1      15.630  10.535   0.039  1.00  0.00     0.029 A 
HETATM    5  C5  UNL     1      14.200  10.135  -0.040  1.00  0.00     0.070 C 
HETATM    6  C6  UNL     1      16.436  10.551  -1.082  1.00  0.00     0.028 A 
HETATM    7  C7  UNL     1      15.834  10.159  -2.371  1.00  0.00     0.070 C 
HETATM    8  N3  UNL     1      17.735  10.917  -0.996  1.00  0.00    -0.347 N 
ATOM      9  H3  UNL     1      18.325  10.928  -1.828  1.00  0.00     0.166 HD
HETATM   10  C8  UNL     1      18.248  11.273   0.222  1.00  0.00     0.158 A 
HETATM   11  C9  UNL     1      19.624  11.663   0.327  1.00  0.00     0.121 C 
HETATM   12  N4  UNL     1      20.748  11.995   0.415  1.00  0.00    -0.190 NA
ENDROOT
BRANCH   1  13
HETATM   13  N1  UNL     1      17.955  11.598   2.478  1.00  0.00    -0.374 N 
ATOM     14  H1  UNL     1      18.467  12.479   2.513  1.00  0.00     0.161 HD
BRANCH  13  15
HETATM   15  C2  UNL     1      17.862  10.856   3.689  1.00  0.00     0.116 C 
HETATM   16  C1  UNL     1      18.863   9.696   3.589  1.00  0.00     0.026 C 
ENDBRANCH  13  15
ENDBRANCH   1  13
TORSDOF 2
ENDMDL
