MODEL 1
REMARK VINA RESULT: -8.237227824      0.000      0.000
REMARK  9 active torsions:
REMARK  status: ('A' for Active; 'I' for Inactive)
REMARK    1  A    between atoms: C2_2  and  N1_3 
REMARK    2  A    between atoms: C2_2  and  O1_7 
REMARK    3  A    between atoms: C2_2  and  C3_9 
REMARK    4  A    between atoms: C3_9  and  O2_10 
REMARK    5  A    between atoms: C3_9  and  N2_12 
REMARK    6  A    between atoms: C5_17  and  C6_18 
REMARK    7  A    between atoms: C6_18  and  N4_19 
REMARK    8  A    between atoms: C10_33  and  C11_34 
REMARK    9  A    between atoms: C13_39  and  O6_40 
ROOT
HETATM    1  N2  UNL     1      -0.441  21.374  22.423  1.00  0.00    -0.343 N 
ATOM      2  H2  UNL     1       0.556  21.204  22.289  1.00  0.00     0.164 HD
HETATM    3  C4  UNL     1      -1.188  21.632  21.401  1.00  0.00     0.149 C 
HETATM    4  N3  UNL     1      -2.578  21.872  21.568  1.00  0.00    -0.366 N 
ATOM      5  H3  UNL     1      -3.096  21.434  22.329  1.00  0.00     0.161 HD
HETATM    6  C5  UNL     1      -3.242  22.754  20.631  1.00  0.00     0.123 C 
HETATM    7  C7  UNL     1      -2.684  22.807  19.278  1.00  0.00     0.123 C 
HETATM    8  C8  UNL     1      -1.903  24.018  18.924  1.00  0.00     0.108 A 
HETATM    9  N5  UNL     1      -1.857  25.225  19.376  1.00  0.00    -0.262 N 
ATOM     10  H5  UNL     1      -2.456  25.500  20.155  1.00  0.00     0.190 HD
HETATM   11  N6  UNL     1      -0.992  26.155  18.804  1.00  0.00    -0.119 N 
HETATM   12  C9  UNL     1      -0.470  27.424  18.786  1.00  0.00     0.378 A 
HETATM   13  O3  UNL     1      -0.670  28.465  19.464  1.00  0.00    -0.242 OA
HETATM   14  N7  UNL     1       0.328  27.104  17.761  1.00  0.00    -0.228 N 
ATOM     15  H7  UNL     1       1.030  27.584  17.197  1.00  0.00     0.193 HD
HETATM   16  N8  UNL     1      -0.202  25.869  17.804  1.00  0.00    -0.169 N 
HETATM   17  C10 UNL     1      -0.188  24.588  17.198  1.00  0.00     0.332 A 
HETATM   18  N9  UNL     1      -1.038  23.649  17.885  1.00  0.00    -0.333 N 
HETATM   19  C12 UNL     1      -1.150  22.172  17.645  1.00  0.00     0.174 C 
HETATM   20  C13 UNL     1      -1.699  21.705  18.964  1.00  0.00     0.154 C 
HETATM   21  C14 UNL     1      -0.680  21.695  20.037  1.00  0.00     0.229 C 
HETATM   22  O7  UNL     1       0.553  21.736  19.839  1.00  0.00    -0.286 OA
ENDROOT
BRANCH   1  23
HETATM   23  C3  UNL     1      -0.999  21.323  23.741  1.00  0.00     0.282 C 
BRANCH  23  24
HETATM   24  C2  UNL     1       0.125  21.508  24.769  1.00  0.00     0.262 C 
HETATM   25  C1  UNL     1      -0.341  21.038  26.108  1.00  0.00     0.083 C 
BRANCH  24  26
HETATM   26  N1  UNL     1       1.282  20.728  24.377  1.00  0.00    -0.043 N 
ATOM     27  H13 UNL     1       1.409  20.700  23.366  1.00  0.00     0.278 HD
ATOM     28  H12 UNL     1       2.162  21.186  24.617  1.00  0.00     0.278 HD
ATOM     29  H11 UNL     1       1.204  19.796  24.785  1.00  0.00     0.278 HD
ENDBRANCH  24  26
BRANCH  24  30
HETATM   30  O1  UNL     1       0.440  22.869  24.752  1.00  0.00    -0.362 OA
ATOM     31  H1  UNL     1      -0.074  23.358  24.120  1.00  0.00     0.212 HD
ENDBRANCH  24  30
ENDBRANCH  23  24
BRANCH  23  32
HETATM   32  O2  UNL     1      -1.513  20.033  23.931  1.00  0.00    -0.372 OA
ATOM     33  H2  UNL     1      -2.268  19.952  23.362  1.00  0.00     0.212 HD
ENDBRANCH  23  32
ENDBRANCH   1  23
BRANCH   6  34
HETATM   34  C6  UNL     1      -3.420  24.074  21.344  1.00  0.00     0.255 C 
BRANCH  34  35
HETATM   35  N4  UNL     1      -2.726  23.908  22.634  1.00  0.00    -0.077 N 
ATOM     36  H43 UNL     1      -1.709  23.882  22.555  1.00  0.00     0.274 HD
ATOM     37  H42 UNL     1      -2.775  24.729  23.237  1.00  0.00     0.274 HD
ATOM     38  H41 UNL     1      -3.130  23.067  23.045  1.00  0.00     0.274 HD
ENDBRANCH  34  35
ENDBRANCH   6  34
BRANCH  20  39
HETATM   39  O6  UNL     1      -2.333  20.492  18.804  1.00  0.00    -0.379 OA
ATOM     40  H6  UNL     1      -1.708  19.780  18.738  1.00  0.00     0.211 HD
ENDBRANCH  20  39
BRANCH  17  41
HETATM   41  C11 UNL     1      -0.677  24.755  15.780  1.00  0.00     0.221 C 
HETATM   42  O4  UNL     1       0.036  25.363  14.955  1.00  0.00    -0.645 OA
HETATM   43  O5  UNL     1      -1.894  24.256  15.360  1.00  0.00    -0.645 OA
ENDBRANCH  17  41
TORSDOF 9
ENDMDL
MODEL 2
REMARK VINA RESULT: -7.845256136      1.986      2.604
REMARK  9 active torsions:
REMARK  status: ('A' for Active; 'I' for Inactive)
REMARK    1  A    between atoms: C2_2  and  N1_3 
REMARK    2  A    between atoms: C2_2  and  O1_7 
REMARK    3  A    between atoms: C2_2  and  C3_9 
REMARK    4  A    between atoms: C3_9  and  O2_10 
REMARK    5  A    between atoms: C3_9  and  N2_12 
REMARK    6  A    between atoms: C5_17  and  C6_18 
REMARK    7  A    between atoms: C6_18  and  N4_19 
REMARK    8  A    between atoms: C10_33  and  C11_34 
REMARK    9  A    between atoms: C13_39  and  O6_40 
ROOT
HETATM    1  N2  UNL     1      -1.971  21.482  23.121  1.00  0.00    -0.343 N 
ATOM      2  H2  UNL     1      -1.997  20.514  22.798  1.00  0.00     0.164 HD
HETATM    3  C4  UNL     1      -2.357  22.429  22.333  1.00  0.00     0.149 C 
HETATM    4  N3  UNL     1      -2.327  23.781  22.764  1.00  0.00    -0.366 N 
ATOM      5  H3  UNL     1      -2.450  24.018  23.748  1.00  0.00     0.161 HD
HETATM    6  C5  UNL     1      -2.118  24.816  21.774  1.00  0.00     0.123 C 
HETATM    7  C7  UNL     1      -2.596  24.529  20.420  1.00  0.00     0.123 C 
HETATM    8  C8  UNL     1      -1.566  24.199  19.403  1.00  0.00     0.108 A 
HETATM    9  N5  UNL     1      -0.302  24.430  19.294  1.00  0.00    -0.262 N 
ATOM     10  H5  UNL     1       0.187  24.945  20.026  1.00  0.00     0.190 HD
HETATM   11  N6  UNL     1       0.398  23.975  18.178  1.00  0.00    -0.119 N 
HETATM   12  C9  UNL     1       1.586  23.852  17.503  1.00  0.00     0.378 A 
HETATM   13  O3  UNL     1       2.766  24.229  17.726  1.00  0.00    -0.242 OA
HETATM   14  N7  UNL     1       0.981  23.176  16.519  1.00  0.00    -0.228 N 
ATOM     15  H7  UNL     1       1.265  22.745  15.639  1.00  0.00     0.193 HD
HETATM   16  N8  UNL     1      -0.168  23.313  17.205  1.00  0.00    -0.169 N 
HETATM   17  C10 UNL     1      -1.557  23.031  17.194  1.00  0.00     0.332 A 
HETATM   18  N9  UNL     1      -2.209  23.449  18.410  1.00  0.00    -0.333 N 
HETATM   19  C12 UNL     1      -3.621  23.169  18.831  1.00  0.00     0.174 C 
HETATM   20  C13 UNL     1      -3.516  23.334  20.322  1.00  0.00     0.154 C 
HETATM   21  C14 UNL     1      -2.841  22.193  20.978  1.00  0.00     0.229 C 
HETATM   22  O7  UNL     1      -2.671  21.075  20.449  1.00  0.00    -0.286 OA
ENDROOT
BRANCH   1  23
HETATM   23  C3  UNL     1      -1.506  21.775  24.444  1.00  0.00     0.282 C 
BRANCH  23  24
HETATM   24  C2  UNL     1       0.028  21.801  24.444  1.00  0.00     0.262 C 
HETATM   25  C1  UNL     1       0.535  21.255  25.738  1.00  0.00     0.083 C 
BRANCH  24  26
HETATM   26  N1  UNL     1       0.532  20.979  23.360  1.00  0.00    -0.043 N 
ATOM     27  H13 UNL     1       0.538  19.987  23.595  1.00  0.00     0.278 HD
ATOM     28  H12 UNL     1      -0.113  20.935  22.571  1.00  0.00     0.278 HD
ATOM     29  H11 UNL     1       1.454  21.321  23.091  1.00  0.00     0.278 HD
ENDBRANCH  24  26
BRANCH  24  30
HETATM   30  O1  UNL     1       0.389  23.134  24.239  1.00  0.00    -0.362 OA
ATOM     31  H1  UNL     1       0.839  23.513  24.985  1.00  0.00     0.212 HD
ENDBRANCH  24  30
ENDBRANCH  23  24
BRANCH  23  32
HETATM   32  O2  UNL     1      -1.894  20.711  25.271  1.00  0.00    -0.372 OA
ATOM     33  H2  UNL     1      -2.576  20.239  24.809  1.00  0.00     0.212 HD
ENDBRANCH  23  32
ENDBRANCH   1  23
BRANCH   6  34
HETATM   34  C6  UNL     1      -0.676  25.247  21.907  1.00  0.00     0.255 C 
BRANCH  34  35
HETATM   35  N4  UNL     1      -0.622  26.014  23.165  1.00  0.00    -0.077 N 
ATOM     36  H43 UNL     1      -0.037  26.848  23.115  1.00  0.00     0.274 HD
ATOM     37  H42 UNL     1      -1.492  26.494  23.394  1.00  0.00     0.274 HD
ATOM     38  H41 UNL     1      -0.323  25.341  23.872  1.00  0.00     0.274 HD
ENDBRANCH  34  35
ENDBRANCH   6  34
BRANCH  20  39
HETATM   39  O6  UNL     1      -4.758  23.609  20.851  1.00  0.00    -0.379 OA
ATOM     40  H6  UNL     1      -4.739  24.387  21.396  1.00  0.00     0.211 HD
ENDBRANCH  20  39
BRANCH  17  41
HETATM   41  C11 UNL     1      -2.158  23.774  16.027  1.00  0.00     0.221 C 
HETATM   42  O4  UNL     1      -2.140  25.022  16.022  1.00  0.00    -0.645 OA
HETATM   43  O5  UNL     1      -2.733  23.117  14.957  1.00  0.00    -0.645 OA
ENDBRANCH  17  41
TORSDOF 9
ENDMDL
MODEL 3
REMARK VINA RESULT: -7.809542744      1.332      1.543
REMARK  9 active torsions:
REMARK  status: ('A' for Active; 'I' for Inactive)
REMARK    1  A    between atoms: C2_2  and  N1_3 
REMARK    2  A    between atoms: C2_2  and  O1_7 
REMARK    3  A    between atoms: C2_2  and  C3_9 
REMARK    4  A    between atoms: C3_9  and  O2_10 
REMARK    5  A    between atoms: C3_9  and  N2_12 
REMARK    6  A    between atoms: C5_17  and  C6_18 
REMARK    7  A    between atoms: C6_18  and  N4_19 
REMARK    8  A    between atoms: C10_33  and  C11_34 
REMARK    9  A    between atoms: C13_39  and  O6_40 
ROOT
HETATM    1  N2  UNL     1       0.220  21.379  23.378  1.00  0.00    -0.343 N 
ATOM      2  H2  UNL     1       1.111  21.068  22.991  1.00  0.00     0.164 HD
HETATM    3  C4  UNL     1      -0.783  21.584  22.591  1.00  0.00     0.149 C 
HETATM    4  N3  UNL     1      -2.031  22.018  23.112  1.00  0.00    -0.366 N 
ATOM      5  H3  UNL     1      -2.321  21.759  24.054  1.00  0.00     0.161 HD
HETATM    6  C5  UNL     1      -2.881  22.836  22.273  1.00  0.00     0.123 C 
HETATM    7  C7  UNL     1      -2.765  22.629  20.828  1.00  0.00     0.123 C 
HETATM    8  C8  UNL     1      -2.039  23.670  20.059  1.00  0.00     0.108 A 
HETATM    9  N5  UNL     1      -1.763  24.914  20.264  1.00  0.00    -0.262 N 
ATOM     10  H5  UNL     1      -2.069  25.368  21.125  1.00  0.00     0.190 HD
HETATM   11  N6  UNL     1      -1.047  25.637  19.314  1.00  0.00    -0.119 N 
HETATM   12  C9  UNL     1      -0.459  26.815  18.927  1.00  0.00     0.378 A 
HETATM   13  O3  UNL     1      -0.359  27.959  19.445  1.00  0.00    -0.242 OA
HETATM   14  N7  UNL     1      -0.043  26.257  17.784  1.00  0.00    -0.228 N 
ATOM     15  H7  UNL     1       0.486  26.561  16.966  1.00  0.00     0.193 HD
HETATM   16  N8  UNL     1      -0.628  25.117  18.191  1.00  0.00    -0.169 N 
HETATM   17  C10 UNL     1      -0.902  23.772  17.836  1.00  0.00     0.332 A 
HETATM   18  N9  UNL     1      -1.569  23.054  18.893  1.00  0.00    -0.333 N 
HETATM   19  C12 UNL     1      -1.864  21.584  18.952  1.00  0.00     0.174 C 
HETATM   20  C13 UNL     1      -2.013  21.378  20.434  1.00  0.00     0.154 C 
HETATM   21  C14 UNL     1      -0.717  21.391  21.148  1.00  0.00     0.229 C 
HETATM   22  O7  UNL     1       0.393  21.248  20.595  1.00  0.00    -0.286 OA
ENDROOT
BRANCH   1  23
HETATM   23  C3  UNL     1       0.094  21.584  24.790  1.00  0.00     0.282 C 
BRANCH  23  24
HETATM   24  C2  UNL     1       1.309  20.970  25.498  1.00  0.00     0.262 C 
HETATM   25  C1  UNL     1       1.069  19.513  25.726  1.00  0.00     0.083 C 
BRANCH  24  26
HETATM   26  N1  UNL     1       2.489  21.124  24.669  1.00  0.00    -0.043 N 
ATOM     27  H13 UNL     1       2.269  21.493  23.744  1.00  0.00     0.278 HD
ATOM     28  H12 UNL     1       3.091  21.885  24.986  1.00  0.00     0.278 HD
ATOM     29  H11 UNL     1       2.980  20.231  24.626  1.00  0.00     0.278 HD
ENDBRANCH  24  26
BRANCH  24  30
HETATM   30  O1  UNL     1       1.463  21.686  26.686  1.00  0.00    -0.362 OA
ATOM     31  H1  UNL     1       1.180  22.590  26.611  1.00  0.00     0.212 HD
ENDBRANCH  24  30
ENDBRANCH  23  24
BRANCH  23  32
HETATM   32  O2  UNL     1      -1.031  20.866  25.221  1.00  0.00    -0.372 OA
ATOM     33  H2  UNL     1      -1.504  20.603  24.440  1.00  0.00     0.212 HD
ENDBRANCH  23  32
ENDBRANCH   1  23
BRANCH   6  34
HETATM   34  C6  UNL     1      -2.727  24.255  22.769  1.00  0.00     0.255 C 
BRANCH  34  35
HETATM   35  N4  UNL     1      -1.397  24.296  23.403  1.00  0.00    -0.077 N 
ATOM     36  H43 UNL     1      -1.424  24.454  24.410  1.00  0.00     0.274 HD
ATOM     37  H42 UNL     1      -0.928  23.391  23.438  1.00  0.00     0.274 HD
ATOM     38  H41 UNL     1      -0.880  25.009  22.887  1.00  0.00     0.274 HD
ENDBRANCH  34  35
ENDBRANCH   6  34
BRANCH  20  39
HETATM   39  O6  UNL     1      -2.758  20.245  20.676  1.00  0.00    -0.379 OA
ATOM     40  H6  UNL     1      -3.331  20.359  21.426  1.00  0.00     0.211 HD
ENDBRANCH  20  39
BRANCH  17  41
HETATM   41  C11 UNL     1      -1.789  23.799  16.617  1.00  0.00     0.221 C 
HETATM   42  O4  UNL     1      -2.044  22.732  16.022  1.00  0.00    -0.645 OA
HETATM   43  O5  UNL     1      -2.331  24.972  16.130  1.00  0.00    -0.645 OA
ENDBRANCH  17  41
TORSDOF 9
ENDMDL
MODEL 4
REMARK VINA RESULT: -7.797800974      1.614      1.779
REMARK  9 active torsions:
REMARK  status: ('A' for Active; 'I' for Inactive)
REMARK    1  A    between atoms: C2_2  and  N1_3 
REMARK    2  A    between atoms: C2_2  and  O1_7 
REMARK    3  A    between atoms: C2_2  and  C3_9 
REMARK    4  A    between atoms: C3_9  and  O2_10 
REMARK    5  A    between atoms: C3_9  and  N2_12 
REMARK    6  A    between atoms: C5_17  and  C6_18 
REMARK    7  A    between atoms: C6_18  and  N4_19 
REMARK    8  A    between atoms: C10_33  and  C11_34 
REMARK    9  A    between atoms: C13_39  and  O6_40 
ROOT
HETATM    1  N2  UNL     1      -0.455  21.764  21.318  1.00  0.00    -0.343 N 
ATOM      2  H2  UNL     1       0.547  21.784  21.507  1.00  0.00     0.164 HD
HETATM    3  C4  UNL     1      -0.887  22.029  20.130  1.00  0.00     0.149 C 
HETATM    4  N3  UNL     1      -2.279  22.007  19.849  1.00  0.00    -0.366 N 
ATOM      5  H3  UNL     1      -2.906  21.389  20.363  1.00  0.00     0.161 HD
HETATM    6  C5  UNL     1      -2.787  22.883  18.814  1.00  0.00     0.123 C 
HETATM    7  C7  UNL     1      -1.863  23.212  17.728  1.00  0.00     0.123 C 
HETATM    8  C8  UNL     1      -1.273  24.574  17.740  1.00  0.00     0.108 A 
HETATM    9  N5  UNL     1      -1.615  25.699  18.271  1.00  0.00    -0.262 N 
ATOM     10  H5  UNL     1      -2.467  25.761  18.828  1.00  0.00     0.190 HD
HETATM   11  N6  UNL     1      -0.823  26.830  18.085  1.00  0.00    -0.119 N 
HETATM   12  C9  UNL     1      -0.590  28.159  18.333  1.00  0.00     0.378 A 
HETATM   13  O3  UNL     1      -1.197  29.050  18.984  1.00  0.00    -0.242 OA
HETATM   14  N7  UNL     1       0.532  28.121  17.606  1.00  0.00    -0.228 N 
ATOM     15  H7  UNL     1       1.261  28.784  17.341  1.00  0.00     0.193 HD
HETATM   16  N8  UNL     1       0.277  26.820  17.381  1.00  0.00    -0.169 N 
HETATM   17  C10 UNL     1       0.737  25.653  16.719  1.00  0.00     0.332 A 
HETATM   18  N9  UNL     1      -0.075  24.500  17.018  1.00  0.00    -0.333 N 
HETATM   19  C12 UNL     1       0.195  23.072  16.645  1.00  0.00     0.174 C 
HETATM   20  C13 UNL     1      -0.626  22.344  17.673  1.00  0.00     0.154 C 
HETATM   21  C14 UNL     1      -0.007  22.361  19.017  1.00  0.00     0.229 C 
HETATM   22  O7  UNL     1       1.191  22.635  19.238  1.00  0.00    -0.286 OA
ENDROOT
BRANCH   1  23
HETATM   23  C3  UNL     1      -1.369  21.442  22.373  1.00  0.00     0.282 C 
BRANCH  23  24
HETATM   24  C2  UNL     1      -0.610  21.420  23.706  1.00  0.00     0.262 C 
HETATM   25  C1  UNL     1      -0.442  22.817  24.207  1.00  0.00     0.083 C 
BRANCH  24  26
HETATM   26  N1  UNL     1      -1.360  20.660  24.686  1.00  0.00    -0.043 N 
ATOM     27  H13 UNL     1      -2.295  20.417  24.358  1.00  0.00     0.278 HD
ATOM     28  H12 UNL     1      -1.001  19.712  24.803  1.00  0.00     0.278 HD
ATOM     29  H11 UNL     1      -1.379  21.181  25.563  1.00  0.00     0.278 HD
ENDBRANCH  24  26
BRANCH  24  30
HETATM   30  O1  UNL     1       0.608  20.789  23.444  1.00  0.00    -0.362 OA
ATOM     31  H1  UNL     1       0.608  20.317  22.619  1.00  0.00     0.212 HD
ENDBRANCH  24  30
ENDBRANCH  23  24
BRANCH  23  32
HETATM   32  O2  UNL     1      -1.828  20.136  22.147  1.00  0.00    -0.372 OA
ATOM     33  H2  UNL     1      -2.776  20.165  22.206  1.00  0.00     0.212 HD
ENDBRANCH  23  32
ENDBRANCH   1  23
BRANCH   6  34
HETATM   34  C6  UNL     1      -3.440  24.045  19.525  1.00  0.00     0.255 C 
BRANCH  34  35
HETATM   35  N4  UNL     1      -3.896  23.496  20.815  1.00  0.00    -0.077 N 
ATOM     36  H43 UNL     1      -3.420  22.636  21.089  1.00  0.00     0.274 HD
ATOM     37  H42 UNL     1      -3.611  24.050  21.623  1.00  0.00     0.274 HD
ATOM     38  H41 UNL     1      -4.906  23.397  20.718  1.00  0.00     0.274 HD
ENDBRANCH  34  35
ENDBRANCH   6  34
BRANCH  20  39
HETATM   39  O6  UNL     1      -0.920  21.076  17.224  1.00  0.00    -0.379 OA
ATOM     40  H6  UNL     1      -0.437  20.416  17.707  1.00  0.00     0.211 HD
ENDBRANCH  20  39
BRANCH  17  41
HETATM   41  C11 UNL     1       0.685  25.926  15.237  1.00  0.00     0.221 C 
HETATM   42  O4  UNL     1       0.013  26.890  14.815  1.00  0.00    -0.645 OA
HETATM   43  O5  UNL     1       1.359  25.141  14.322  1.00  0.00    -0.645 OA
ENDBRANCH  17  41
TORSDOF 9
ENDMDL
MODEL 5
REMARK VINA RESULT: -7.742386441      2.461      3.670
REMARK  9 active torsions:
REMARK  status: ('A' for Active; 'I' for Inactive)
REMARK    1  A    between atoms: C2_2  and  N1_3 
REMARK    2  A    between atoms: C2_2  and  O1_7 
REMARK    3  A    between atoms: C2_2  and  C3_9 
REMARK    4  A    between atoms: C3_9  and  O2_10 
REMARK    5  A    between atoms: C3_9  and  N2_12 
REMARK    6  A    between atoms: C5_17  and  C6_18 
REMARK    7  A    between atoms: C6_18  and  N4_19 
REMARK    8  A    between atoms: C10_33  and  C11_34 
REMARK    9  A    between atoms: C13_39  and  O6_40 
ROOT
HETATM    1  N2  UNL     1      -1.179  23.436  20.784  1.00  0.00    -0.343 N 
ATOM      2  H2  UNL     1      -0.643  24.071  21.377  1.00  0.00     0.164 HD
HETATM    3  C4  UNL     1      -0.823  23.255  19.555  1.00  0.00     0.149 C 
HETATM    4  N3  UNL     1      -1.557  22.378  18.715  1.00  0.00    -0.366 N 
ATOM      5  H3  UNL     1      -2.045  21.571  19.102  1.00  0.00     0.161 HD
HETATM    6  C5  UNL     1      -1.595  22.655  17.295  1.00  0.00     0.123 C 
HETATM    7  C7  UNL     1      -0.431  23.343  16.733  1.00  0.00     0.123 C 
HETATM    8  C8  UNL     1      -0.601  24.779  16.398  1.00  0.00     0.108 A 
HETATM    9  N5  UNL     1      -1.618  25.531  16.142  1.00  0.00    -0.262 N 
ATOM     10  H5  UNL     1      -2.559  25.136  16.154  1.00  0.00     0.190 HD
HETATM   11  N6  UNL     1      -1.435  26.881  15.851  1.00  0.00    -0.119 N 
HETATM   12  C9  UNL     1      -1.976  28.105  15.549  1.00  0.00     0.378 A 
HETATM   13  O3  UNL     1      -3.149  28.526  15.371  1.00  0.00    -0.242 OA
HETATM   14  N7  UNL     1      -0.759  28.660  15.521  1.00  0.00    -0.228 N 
ATOM     15  H7  UNL     1      -0.379  29.591  15.350  1.00  0.00     0.193 HD
HETATM   16  N8  UNL     1      -0.259  27.447  15.817  1.00  0.00    -0.169 N 
HETATM   17  C10 UNL     1       0.935  26.718  16.045  1.00  0.00     0.332 A 
HETATM   18  N9  UNL     1       0.677  25.352  16.424  1.00  0.00    -0.333 N 
HETATM   19  C12 UNL     1       1.670  24.334  16.904  1.00  0.00     0.174 C 
HETATM   20  C13 UNL     1       0.773  23.383  17.647  1.00  0.00     0.154 C 
HETATM   21  C14 UNL     1       0.328  23.917  18.953  1.00  0.00     0.229 C 
HETATM   22  O7  UNL     1       0.870  24.873  19.545  1.00  0.00    -0.286 OA
ENDROOT
BRANCH   1  23
HETATM   23  C3  UNL     1      -2.318  22.756  21.322  1.00  0.00     0.282 C 
BRANCH  23  24
HETATM   24  C2  UNL     1      -1.868  21.414  21.915  1.00  0.00     0.262 C 
HETATM   25  C1  UNL     1      -2.220  21.368  23.366  1.00  0.00     0.083 C 
BRANCH  24  26
HETATM   26  N1  UNL     1      -2.544  20.326  21.236  1.00  0.00    -0.043 N 
ATOM     27  H13 UNL     1      -2.170  19.413  21.494  1.00  0.00     0.278 HD
ATOM     28  H12 UNL     1      -3.498  20.188  21.573  1.00  0.00     0.278 HD
ATOM     29  H11 UNL     1      -2.506  20.492  20.230  1.00  0.00     0.278 HD
ENDBRANCH  24  26
BRANCH  24  30
HETATM   30  O1  UNL     1      -0.493  21.337  21.688  1.00  0.00    -0.362 OA
ATOM     31  H1  UNL     1      -0.229  21.752  20.875  1.00  0.00     0.212 HD
ENDBRANCH  24  30
ENDBRANCH  23  24
BRANCH  23  32
HETATM   32  O2  UNL     1      -3.174  22.459  20.252  1.00  0.00    -0.372 OA
ATOM     33  H2  UNL     1      -3.628  23.264  20.032  1.00  0.00     0.212 HD
ENDBRANCH  23  32
ENDBRANCH   1  23
BRANCH   6  34
HETATM   34  C6  UNL     1      -2.946  23.271  17.019  1.00  0.00     0.255 C 
BRANCH  34  35
HETATM   35  N4  UNL     1      -3.348  22.738  15.705  1.00  0.00    -0.077 N 
ATOM     36  H43 UNL     1      -3.164  23.373  14.928  1.00  0.00     0.274 HD
ATOM     37  H42 UNL     1      -2.761  21.973  15.372  1.00  0.00     0.274 HD
ATOM     38  H41 UNL     1      -4.331  22.489  15.810  1.00  0.00     0.274 HD
ENDBRANCH  34  35
ENDBRANCH   6  34
BRANCH  20  39
HETATM   39  O6  UNL     1       1.376  22.148  17.739  1.00  0.00    -0.379 OA
ATOM     40  H6  UNL     1       2.071  22.149  18.387  1.00  0.00     0.211 HD
ENDBRANCH  20  39
BRANCH  17  41
HETATM   41  C11 UNL     1       1.726  26.736  14.760  1.00  0.00     0.221 C 
HETATM   42  O4  UNL     1       2.293  27.791  14.405  1.00  0.00    -0.645 OA
HETATM   43  O5  UNL     1       1.844  25.621  13.956  1.00  0.00    -0.645 OA
ENDBRANCH  17  41
TORSDOF 9
ENDMDL
