MODEL 1
REMARK VINA RESULT: -6.251863203      0.000      0.000
REMARK  4 active torsions:
REMARK  status: ('A' for Active; 'I' for Inactive)
REMARK    1  A    between atoms: C2_2  and  C3_3 
REMARK    2  A    between atoms: C3_3  and  C4_4 
REMARK    3  A    between atoms: C4_4  and  N1_5 
REMARK    4  A    between atoms: C7_11  and  N4_12 
ROOT
HETATM    1  N1  UNL     1       3.508  27.771  14.835  1.00  0.00    -0.360 N 
HETATM    2  C5  UNL     1       4.836  27.785  14.612  1.00  0.00     0.135 A 
HETATM    3  C6  UNL     1       5.584  26.638  14.433  1.00  0.00     0.133 A 
HETATM    4  N2  UNL     1       6.995  26.690  14.197  1.00  0.00    -0.081 NA
HETATM    5  N3  UNL     1       4.917  25.470  14.492  1.00  0.00    -0.329 N 
ATOM      6  H3  UNL     1       5.425  24.594  14.365  1.00  0.00     0.168 HD
HETATM    7  C7  UNL     1       3.591  25.441  14.714  1.00  0.00     0.115 A 
HETATM    8  C8  UNL     1       2.855  26.594  14.892  1.00  0.00     0.138 A 
ENDROOT
BRANCH   1   9
HETATM    9  C4  UNL     1       2.744  28.994  15.021  1.00  0.00     0.128 C 
BRANCH   9  10
HETATM   10  C3  UNL     1       1.831  29.264  13.827  1.00  0.00     0.020 C 
BRANCH  10  11
HETATM   11  C2  UNL     1       2.635  30.140  12.874  1.00  0.00    -0.003 C 
HETATM   12  C1  UNL     1       1.866  31.347  12.426  1.00  0.00     0.005 C 
ENDBRANCH  10  11
ENDBRANCH   9  10
ENDBRANCH   1   9
BRANCH   7  13
HETATM   13  N4  UNL     1       2.987  24.294  14.764  1.00  0.00    -0.384 N 
ATOM     14  H42 UNL     1       3.129  23.694  15.576  1.00  0.00     0.157 HD
ATOM     15  H41 UNL     1       2.384  24.019  13.989  1.00  0.00     0.157 HD
ENDBRANCH   7  13
TORSDOF 4
ENDMDL
MODEL 2
REMARK VINA RESULT: -6.141862771      2.271      4.880
REMARK  4 active torsions:
REMARK  status: ('A' for Active; 'I' for Inactive)
REMARK    1  A    between atoms: C2_2  and  C3_3 
REMARK    2  A    between atoms: C3_3  and  C4_4 
REMARK    3  A    between atoms: C4_4  and  N1_5 
REMARK    4  A    between atoms: C7_11  and  N4_12 
ROOT
HETATM    1  N1  UNL     1       2.875  28.698  14.642  1.00  0.00    -0.360 N 
HETATM    2  C5  UNL     1       2.044  29.323  13.786  1.00  0.00     0.135 A 
HETATM    3  C6  UNL     1       2.433  30.388  12.997  1.00  0.00     0.133 A 
HETATM    4  N2  UNL     1       1.523  31.029  12.096  1.00  0.00    -0.081 NA
HETATM    5  N3  UNL     1       3.713  30.790  13.117  1.00  0.00    -0.329 N 
ATOM      6  H3  UNL     1       4.049  31.571  12.555  1.00  0.00     0.168 HD
HETATM    7  C7  UNL     1       4.554  30.175  13.967  1.00  0.00     0.115 A 
HETATM    8  C8  UNL     1       4.152  29.113  14.751  1.00  0.00     0.138 A 
ENDROOT
BRANCH   1   9
HETATM    9  C4  UNL     1       2.440  27.580  15.462  1.00  0.00     0.128 C 
BRANCH   9  10
HETATM   10  C3  UNL     1       2.081  26.369  14.604  1.00  0.00     0.020 C 
BRANCH  10  11
HETATM   11  C2  UNL     1       3.116  25.300  14.935  1.00  0.00    -0.003 C 
HETATM   12  C1  UNL     1       4.406  25.513  14.203  1.00  0.00     0.005 C 
ENDBRANCH  10  11
ENDBRANCH   9  10
ENDBRANCH   1   9
BRANCH   7  13
HETATM   13  N4  UNL     1       5.778  30.594  14.053  1.00  0.00    -0.384 N 
ATOM     14  H42 UNL     1       5.979  31.578  13.876  1.00  0.00     0.157 HD
ATOM     15  H41 UNL     1       6.512  29.928  14.296  1.00  0.00     0.157 HD
ENDBRANCH   7  13
TORSDOF 4
ENDMDL
MODEL 3
REMARK VINA RESULT: -5.904948049      2.225      4.303
REMARK  4 active torsions:
REMARK  status: ('A' for Active; 'I' for Inactive)
REMARK    1  A    between atoms: C2_2  and  C3_3 
REMARK    2  A    between atoms: C3_3  and  C4_4 
REMARK    3  A    between atoms: C4_4  and  N1_5 
REMARK    4  A    between atoms: C7_11  and  N4_12 
ROOT
HETATM    1  N1  UNL     1       3.039  28.695  14.791  1.00  0.00    -0.360 N 
HETATM    2  C5  UNL     1       4.313  28.845  15.199  1.00  0.00     0.135 A 
HETATM    3  C6  UNL     1       5.175  29.778  14.656  1.00  0.00     0.133 A 
HETATM    4  N2  UNL     1       6.525  29.912  15.116  1.00  0.00    -0.081 NA
HETATM    5  N3  UNL     1       4.681  30.555  13.674  1.00  0.00    -0.329 N 
ATOM      6  H3  UNL     1       5.278  31.260  13.242  1.00  0.00     0.168 HD
HETATM    7  C7  UNL     1       3.410  30.416  13.256  1.00  0.00     0.115 A 
HETATM    8  C8  UNL     1       2.559  29.479  13.806  1.00  0.00     0.138 A 
ENDROOT
BRANCH   1   9
HETATM    9  C4  UNL     1       2.152  27.705  15.378  1.00  0.00     0.128 C 
BRANCH   9  10
HETATM   10  C3  UNL     1       2.014  26.479  14.478  1.00  0.00     0.020 C 
BRANCH  10  11
HETATM   11  C2  UNL     1       3.008  25.454  15.011  1.00  0.00    -0.003 C 
HETATM   12  C1  UNL     1       4.261  25.398  14.190  1.00  0.00     0.005 C 
ENDBRANCH  10  11
ENDBRANCH   9  10
ENDBRANCH   1   9
BRANCH   7  13
HETATM   13  N4  UNL     1       2.973  31.184  12.307  1.00  0.00    -0.384 N 
ATOM     14  H42 UNL     1       2.337  31.947  12.541  1.00  0.00     0.157 HD
ATOM     15  H41 UNL     1       3.275  31.007  11.349  1.00  0.00     0.157 HD
ENDBRANCH   7  13
TORSDOF 4
ENDMDL
MODEL 4
REMARK VINA RESULT: -5.664766850      2.008      3.632
REMARK  4 active torsions:
REMARK  status: ('A' for Active; 'I' for Inactive)
REMARK    1  A    between atoms: C2_2  and  C3_3 
REMARK    2  A    between atoms: C3_3  and  C4_4 
REMARK    3  A    between atoms: C4_4  and  N1_5 
REMARK    4  A    between atoms: C7_11  and  N4_12 
ROOT
HETATM    1  N1  UNL     1       3.077  27.990  14.529  1.00  0.00    -0.360 N 
HETATM    2  C5  UNL     1       1.748  27.812  14.402  1.00  0.00     0.135 A 
HETATM    3  C6  UNL     1       1.139  26.576  14.490  1.00  0.00     0.133 A 
HETATM    4  N2  UNL     1      -0.278  26.424  14.352  1.00  0.00    -0.081 NA
HETATM    5  N3  UNL     1       1.946  25.522  14.715  1.00  0.00    -0.329 N 
ATOM      6  H3  UNL     1       1.544  24.588  14.790  1.00  0.00     0.168 HD
HETATM    7  C7  UNL     1       3.275  25.684  14.844  1.00  0.00     0.115 A 
HETATM    8  C8  UNL     1       3.872  26.925  14.753  1.00  0.00     0.138 A 
ENDROOT
BRANCH   1   9
HETATM    9  C4  UNL     1       3.693  29.302  14.431  1.00  0.00     0.128 C 
BRANCH   9  10
HETATM   10  C3  UNL     1       5.007  29.358  15.207  1.00  0.00     0.020 C 
BRANCH  10  11
HETATM   11  C2  UNL     1       5.959  30.192  14.359  1.00  0.00    -0.003 C 
HETATM   12  C1  UNL     1       7.393  29.806  14.567  1.00  0.00     0.005 C 
ENDBRANCH  10  11
ENDBRANCH   9  10
ENDBRANCH   1   9
BRANCH   7  13
HETATM   13  N4  UNL     1       4.017  24.643  15.059  1.00  0.00    -0.384 N 
ATOM     14  H42 UNL     1       4.738  24.398  14.380  1.00  0.00     0.157 HD
ATOM     15  H41 UNL     1       3.862  24.092  15.904  1.00  0.00     0.157 HD
ENDBRANCH   7  13
TORSDOF 4
ENDMDL
MODEL 5
REMARK VINA RESULT: -5.411104187      0.693      2.469
REMARK  4 active torsions:
REMARK  status: ('A' for Active; 'I' for Inactive)
REMARK    1  A    between atoms: C2_2  and  C3_3 
REMARK    2  A    between atoms: C3_3  and  C4_4 
REMARK    3  A    between atoms: C4_4  and  N1_5 
REMARK    4  A    between atoms: C7_11  and  N4_12 
ROOT
HETATM    1  N1  UNL     1       3.157  27.704  14.558  1.00  0.00    -0.360 N 
HETATM    2  C5  UNL     1       2.457  26.571  14.754  1.00  0.00     0.135 A 
HETATM    3  C6  UNL     1       3.043  25.322  14.814  1.00  0.00     0.133 A 
HETATM    4  N2  UNL     1       2.267  24.137  15.026  1.00  0.00    -0.081 NA
HETATM    5  N3  UNL     1       4.380  25.277  14.664  1.00  0.00    -0.329 N 
ATOM      6  H3  UNL     1       4.860  24.378  14.701  1.00  0.00     0.168 HD
HETATM    7  C7  UNL     1       5.092  26.401  14.467  1.00  0.00     0.115 A 
HETATM    8  C8  UNL     1       4.494  27.643  14.409  1.00  0.00     0.138 A 
ENDROOT
BRANCH   1   9
HETATM    9  C4  UNL     1       2.516  29.007  14.499  1.00  0.00     0.128 C 
BRANCH   9  10
HETATM   10  C3  UNL     1       3.482  30.080  14.001  1.00  0.00     0.020 C 
BRANCH  10  11
HETATM   11  C2  UNL     1       2.947  30.529  12.646  1.00  0.00    -0.003 C 
HETATM   12  C1  UNL     1       1.485  30.856  12.692  1.00  0.00     0.005 C 
ENDBRANCH  10  11
ENDBRANCH   9  10
ENDBRANCH   1   9
BRANCH   7  13
HETATM   13  N4  UNL     1       6.378  26.313  14.327  1.00  0.00    -0.384 N 
ATOM     14  H42 UNL     1       6.968  27.068  14.678  1.00  0.00     0.157 HD
ATOM     15  H41 UNL     1       6.771  25.490  13.869  1.00  0.00     0.157 HD
ENDBRANCH   7  13
TORSDOF 4
ENDMDL
