MODEL 1
REMARK VINA RESULT: -6.108217632      0.000      0.000
REMARK  7 active torsions:
REMARK  status: ('A' for Active; 'I' for Inactive)
REMARK    1  A    between atoms: C3_6  and  S1_7 
REMARK    2  A    between atoms: S1_7  and  N3_8 
REMARK    3  A    between atoms: C4_13  and  N4_14 
REMARK    4  A    between atoms: N4_14  and  N5_16 
REMARK    5  A    between atoms: N5_16  and  C5_18 
REMARK    6  A    between atoms: C6_21  and  C7_22 
REMARK    7  A    between atoms: C9_27  and  N8_28 
ROOT
HETATM    1  N4  UNL     1      36.348   5.738  21.990  1.00  0.00    -0.281 N 
ATOM      2  H4  UNL     1      36.462   5.988  21.008  1.00  0.00     0.188 HD
ENDROOT
BRANCH   1   3
HETATM    3  C4  UNL     1      36.836   6.622  22.970  1.00  0.00     0.161 A 
HETATM    4  N1  UNL     1      38.097   6.849  23.385  1.00  0.00    -0.279 N 
HETATM    5  C1  UNL     1      39.273   6.174  22.864  1.00  0.00     0.179 C 
HETATM    6  N2  UNL     1      38.105   7.785  24.347  1.00  0.00    -0.307 N 
HETATM    7  C2  UNL     1      36.850   8.175  24.565  1.00  0.00     0.136 A 
ATOM      8  H2  UNL     1      38.932   8.138  24.830  1.00  0.00     0.186 HD
HETATM    9  C3  UNL     1      36.026   7.476  23.729  1.00  0.00     0.142 A 
BRANCH   9  10
HETATM   10  S1  UNL     1      34.310   7.629  23.637  1.00  0.00     0.262 S 
HETATM   11  O1  UNL     1      33.603   6.309  23.555  1.00  0.00    -0.201 OA
HETATM   12  O2  UNL     1      33.941   8.409  22.410  1.00  0.00    -0.201 OA
BRANCH  10  13
HETATM   13  N3  UNL     1      33.749   8.523  25.022  1.00  0.00    -0.324 N 
ATOM     14  H32 UNL     1      34.092   8.396  25.974  1.00  0.00     0.169 HD
ATOM     15  H31 UNL     1      33.031   9.182  24.720  1.00  0.00     0.169 HD
ENDBRANCH  10  13
ENDBRANCH   9  10
ENDBRANCH   1   3
BRANCH   1  16
HETATM   16  N5  UNL     1      35.727   4.559  22.295  1.00  0.00    -0.281 N 
ATOM     17  H5  UNL     1      34.727   4.503  22.103  1.00  0.00     0.188 HD
BRANCH  16  18
HETATM   18  C5  UNL     1      36.289   3.502  22.807  1.00  0.00     0.154 A 
HETATM   19  N6  UNL     1      37.121   2.772  22.033  1.00  0.00    -0.335 N 
HETATM   20  C6  UNL     1      37.787   1.671  22.360  1.00  0.00     0.106 A 
ATOM     21  H6  UNL     1      37.254   3.109  21.079  1.00  0.00     0.168 HD
HETATM   22  C8  UNL     1      37.763   1.037  23.583  1.00  0.00     0.086 A 
HETATM   23  S2  UNL     1      36.767   1.785  24.736  1.00  0.00    -0.079 SA
HETATM   24  C9  UNL     1      35.993   3.198  24.113  1.00  0.00     0.113 A 
BRANCH  20  25
HETATM   25  C7  UNL     1      38.666   1.006  21.352  1.00  0.00     0.281 C 
HETATM   26  N7  UNL     1      38.467   1.118  19.973  1.00  0.00    -0.056 NA
HETATM   27  O3  UNL     1      39.635   0.309  21.761  1.00  0.00    -0.269 OA
ENDBRANCH  20  25
BRANCH  24  28
HETATM   28  N8  UNL     1      35.200   3.885  24.865  1.00  0.00    -0.390 N 
ATOM     29  H82 UNL     1      34.204   3.934  24.648  1.00  0.00     0.157 HD
ATOM     30  H81 UNL     1      35.491   4.405  25.693  1.00  0.00     0.157 HD
ENDBRANCH  24  28
ENDBRANCH  16  18
ENDBRANCH   1  16
TORSDOF 7
ENDMDL
MODEL 2
REMARK VINA RESULT: -6.032289116      2.463      5.891
REMARK  7 active torsions:
REMARK  status: ('A' for Active; 'I' for Inactive)
REMARK    1  A    between atoms: C3_6  and  S1_7 
REMARK    2  A    between atoms: S1_7  and  N3_8 
REMARK    3  A    between atoms: C4_13  and  N4_14 
REMARK    4  A    between atoms: N4_14  and  N5_16 
REMARK    5  A    between atoms: N5_16  and  C5_18 
REMARK    6  A    between atoms: C6_21  and  C7_22 
REMARK    7  A    between atoms: C9_27  and  N8_28 
ROOT
HETATM    1  N4  UNL     1      36.855   3.055  21.896  1.00  0.00    -0.281 N 
ATOM      2  H4  UNL     1      36.851   2.787  20.912  1.00  0.00     0.188 HD
ENDROOT
BRANCH   1   3
HETATM    3  C4  UNL     1      38.021   2.825  22.650  1.00  0.00     0.161 A 
HETATM    4  N1  UNL     1      39.209   3.458  22.627  1.00  0.00    -0.279 N 
HETATM    5  C1  UNL     1      39.536   4.574  21.757  1.00  0.00     0.179 C 
HETATM    6  N2  UNL     1      40.044   2.905  23.522  1.00  0.00    -0.307 N 
HETATM    7  C2  UNL     1      39.405   1.910  24.135  1.00  0.00     0.136 A 
ATOM      8  H2  UNL     1      41.005   3.198  23.702  1.00  0.00     0.186 HD
HETATM    9  C3  UNL     1      38.141   1.825  23.622  1.00  0.00     0.142 A 
BRANCH   9  10
HETATM   10  S1  UNL     1      36.931   0.689  24.097  1.00  0.00     0.262 S 
HETATM   11  O1  UNL     1      35.558   1.287  24.167  1.00  0.00    -0.201 OA
HETATM   12  O2  UNL     1      37.254   0.153  25.460  1.00  0.00    -0.201 OA
BRANCH  10  13
HETATM   13  N3  UNL     1      36.946  -0.649  22.983  1.00  0.00    -0.324 N 
ATOM     14  H32 UNL     1      37.764  -0.962  22.462  1.00  0.00     0.169 HD
ATOM     15  H31 UNL     1      36.011  -1.056  22.944  1.00  0.00     0.169 HD
ENDBRANCH  10  13
ENDBRANCH   9  10
ENDBRANCH   1   3
BRANCH   1  16
HETATM   16  N5  UNL     1      35.729   3.622  22.424  1.00  0.00    -0.281 N 
ATOM     17  H5  UNL     1      34.890   3.043  22.447  1.00  0.00     0.188 HD
BRANCH  16  18
HETATM   18  C5  UNL     1      35.625   4.830  22.900  1.00  0.00     0.154 A 
HETATM   19  N6  UNL     1      35.682   5.871  22.042  1.00  0.00    -0.335 N 
HETATM   20  C6  UNL     1      35.597   7.167  22.321  1.00  0.00     0.106 A 
ATOM     21  H6  UNL     1      35.806   5.633  21.057  1.00  0.00     0.168 HD
HETATM   22  C8  UNL     1      35.430   7.722  23.570  1.00  0.00     0.086 A 
HETATM   23  S2  UNL     1      35.331   6.586  24.829  1.00  0.00    -0.079 SA
HETATM   24  C9  UNL     1      35.463   4.962  24.257  1.00  0.00     0.113 A 
BRANCH  20  25
HETATM   25  C7  UNL     1      35.683   8.172  21.220  1.00  0.00     0.281 C 
HETATM   26  N7  UNL     1      34.785   9.234  21.083  1.00  0.00    -0.056 NA
HETATM   27  O3  UNL     1      36.610   8.062  20.371  1.00  0.00    -0.269 OA
ENDBRANCH  20  25
BRANCH  24  28
HETATM   28  N8  UNL     1      35.407   3.977  25.089  1.00  0.00    -0.390 N 
ATOM     29  H82 UNL     1      35.339   3.019  24.744  1.00  0.00     0.157 HD
ATOM     30  H81 UNL     1      35.424   4.074  26.105  1.00  0.00     0.157 HD
ENDBRANCH  24  28
ENDBRANCH  16  18
ENDBRANCH   1  16
TORSDOF 7
ENDMDL
MODEL 3
REMARK VINA RESULT: -5.983375505      2.838      4.098
REMARK  7 active torsions:
REMARK  status: ('A' for Active; 'I' for Inactive)
REMARK    1  A    between atoms: C3_6  and  S1_7 
REMARK    2  A    between atoms: S1_7  and  N3_8 
REMARK    3  A    between atoms: C4_13  and  N4_14 
REMARK    4  A    between atoms: N4_14  and  N5_16 
REMARK    5  A    between atoms: N5_16  and  C5_18 
REMARK    6  A    between atoms: C6_21  and  C7_22 
REMARK    7  A    between atoms: C9_27  and  N8_28 
ROOT
HETATM    1  N4  UNL     1      36.584   2.893  21.966  1.00  0.00    -0.281 N 
ATOM      2  H4  UNL     1      35.854   2.661  21.292  1.00  0.00     0.188 HD
ENDROOT
BRANCH   1   3
HETATM    3  C4  UNL     1      36.249   3.704  23.065  1.00  0.00     0.161 A 
HETATM    4  N1  UNL     1      35.643   3.390  24.225  1.00  0.00    -0.279 N 
HETATM    5  C1  UNL     1      35.184   2.059  24.584  1.00  0.00     0.179 C 
HETATM    6  N2  UNL     1      35.523   4.483  24.996  1.00  0.00    -0.307 N 
HETATM    7  C2  UNL     1      36.053   5.517  24.344  1.00  0.00     0.136 A 
ATOM      8  H2  UNL     1      35.099   4.516  25.923  1.00  0.00     0.186 HD
HETATM    9  C3  UNL     1      36.517   5.077  23.136  1.00  0.00     0.142 A 
BRANCH   9  10
HETATM   10  S1  UNL     1      37.287   6.047  21.934  1.00  0.00     0.262 S 
HETATM   11  O1  UNL     1      36.318   6.731  21.019  1.00  0.00    -0.201 OA
HETATM   12  O2  UNL     1      38.170   5.182  21.083  1.00  0.00    -0.201 OA
BRANCH  10  13
HETATM   13  N3  UNL     1      38.299   7.224  22.723  1.00  0.00    -0.324 N 
ATOM     14  H32 UNL     1      38.529   7.220  23.717  1.00  0.00     0.169 HD
ATOM     15  H31 UNL     1      38.614   7.904  22.031  1.00  0.00     0.169 HD
ENDBRANCH  10  13
ENDBRANCH   9  10
ENDBRANCH   1   3
BRANCH   1  16
HETATM   16  N5  UNL     1      37.842   2.401  21.761  1.00  0.00    -0.281 N 
ATOM     17  H5  UNL     1      38.417   2.880  21.067  1.00  0.00     0.188 HD
BRANCH  16  18
HETATM   18  C5  UNL     1      38.378   1.380  22.366  1.00  0.00     0.154 A 
HETATM   19  N6  UNL     1      37.630   0.271  22.551  1.00  0.00    -0.335 N 
HETATM   20  C6  UNL     1      37.984  -0.866  23.139  1.00  0.00     0.106 A 
ATOM     21  H6  UNL     1      36.674   0.312  22.196  1.00  0.00     0.168 HD
HETATM   22  C8  UNL     1      39.214  -1.150  23.691  1.00  0.00     0.086 A 
HETATM   23  S2  UNL     1      40.337   0.118  23.575  1.00  0.00    -0.079 SA
HETATM   24  C9  UNL     1      39.682   1.503  22.779  1.00  0.00     0.113 A 
BRANCH  20  25
HETATM   25  C7  UNL     1      37.002  -1.986  23.245  1.00  0.00     0.281 C 
HETATM   26  N7  UNL     1      37.201  -3.102  24.063  1.00  0.00    -0.056 NA
HETATM   27  O3  UNL     1      35.941  -1.927  22.565  1.00  0.00    -0.269 OA
ENDBRANCH  20  25
BRANCH  24  28
HETATM   28  N8  UNL     1      40.409   2.556  22.610  1.00  0.00    -0.390 N 
ATOM     29  H82 UNL     1      40.974   2.917  23.380  1.00  0.00     0.157 HD
ATOM     30  H81 UNL     1      40.474   3.082  21.739  1.00  0.00     0.157 HD
ENDBRANCH  24  28
ENDBRANCH  16  18
ENDBRANCH   1  16
TORSDOF 7
ENDMDL
MODEL 4
REMARK VINA RESULT: -5.982994129      2.519      3.018
REMARK  7 active torsions:
REMARK  status: ('A' for Active; 'I' for Inactive)
REMARK    1  A    between atoms: C3_6  and  S1_7 
REMARK    2  A    between atoms: S1_7  and  N3_8 
REMARK    3  A    between atoms: C4_13  and  N4_14 
REMARK    4  A    between atoms: N4_14  and  N5_16 
REMARK    5  A    between atoms: N5_16  and  C5_18 
REMARK    6  A    between atoms: C6_21  and  C7_22 
REMARK    7  A    between atoms: C9_27  and  N8_28 
ROOT
HETATM    1  N4  UNL     1      36.584   3.181  22.369  1.00  0.00    -0.281 N 
ATOM      2  H4  UNL     1      36.104   2.944  21.501  1.00  0.00     0.188 HD
ENDROOT
BRANCH   1   3
HETATM    3  C4  UNL     1      37.176   4.452  22.483  1.00  0.00     0.161 A 
HETATM    4  N1  UNL     1      38.325   4.925  21.966  1.00  0.00    -0.279 N 
HETATM    5  C1  UNL     1      39.236   4.157  21.136  1.00  0.00     0.179 C 
HETATM    6  N2  UNL     1      38.504   6.204  22.331  1.00  0.00    -0.307 N 
HETATM    7  C2  UNL     1      37.471   6.575  23.087  1.00  0.00     0.136 A 
ATOM      8  H2  UNL     1      39.296   6.794  22.073  1.00  0.00     0.186 HD
HETATM    9  C3  UNL     1      36.620   5.513  23.208  1.00  0.00     0.142 A 
BRANCH   9  10
HETATM   10  S1  UNL     1      35.138   5.500  24.094  1.00  0.00     0.262 S 
HETATM   11  O1  UNL     1      34.776   4.143  24.618  1.00  0.00    -0.201 OA
HETATM   12  O2  UNL     1      34.017   5.947  23.202  1.00  0.00    -0.201 OA
BRANCH  10  13
HETATM   13  N3  UNL     1      35.256   6.637  25.407  1.00  0.00    -0.324 N 
ATOM     14  H32 UNL     1      36.129   7.030  25.759  1.00  0.00     0.169 HD
ATOM     15  H31 UNL     1      34.318   6.836  25.756  1.00  0.00     0.169 HD
ENDBRANCH  10  13
ENDBRANCH   9  10
ENDBRANCH   1   3
BRANCH   1  16
HETATM   16  N5  UNL     1      36.622   2.250  23.369  1.00  0.00    -0.281 N 
ATOM     17  H5  UNL     1      35.964   2.374  24.139  1.00  0.00     0.188 HD
BRANCH  16  18
HETATM   18  C5  UNL     1      37.417   1.221  23.434  1.00  0.00     0.154 A 
HETATM   19  N6  UNL     1      37.007   0.050  22.900  1.00  0.00    -0.335 N 
HETATM   20  C6  UNL     1      37.659  -1.105  22.862  1.00  0.00     0.106 A 
ATOM     21  H6  UNL     1      36.080   0.055  22.473  1.00  0.00     0.168 HD
HETATM   22  C8  UNL     1      38.916  -1.349  23.372  1.00  0.00     0.086 A 
HETATM   23  S2  UNL     1      39.642  -0.001  24.105  1.00  0.00    -0.079 SA
HETATM   24  C9  UNL     1      38.632   1.399  24.049  1.00  0.00     0.113 A 
BRANCH  20  25
HETATM   25  C7  UNL     1      37.028  -2.296  22.219  1.00  0.00     0.281 C 
HETATM   26  N7  UNL     1      37.697  -3.116  21.306  1.00  0.00    -0.056 NA
HETATM   27  O3  UNL     1      35.834  -2.579  22.512  1.00  0.00    -0.269 OA
ENDBRANCH  20  25
BRANCH  24  28
HETATM   28  N8  UNL     1      39.038   2.511  24.565  1.00  0.00    -0.390 N 
ATOM     29  H82 UNL     1      39.960   2.878  24.326  1.00  0.00     0.157 HD
ATOM     30  H81 UNL     1      38.498   3.079  25.217  1.00  0.00     0.157 HD
ENDBRANCH  24  28
ENDBRANCH  16  18
ENDBRANCH   1  16
TORSDOF 7
ENDMDL
MODEL 5
REMARK VINA RESULT: -5.858458969      2.744      5.567
REMARK  7 active torsions:
REMARK  status: ('A' for Active; 'I' for Inactive)
REMARK    1  A    between atoms: C3_6  and  S1_7 
REMARK    2  A    between atoms: S1_7  and  N3_8 
REMARK    3  A    between atoms: C4_13  and  N4_14 
REMARK    4  A    between atoms: N4_14  and  N5_16 
REMARK    5  A    between atoms: N5_16  and  C5_18 
REMARK    6  A    between atoms: C6_21  and  C7_22 
REMARK    7  A    between atoms: C9_27  and  N8_28 
ROOT
HETATM    1  N4  UNL     1      37.015   2.820  22.060  1.00  0.00    -0.281 N 
ATOM      2  H4  UNL     1      37.141   2.508  21.097  1.00  0.00     0.188 HD
ENDROOT
BRANCH   1   3
HETATM    3  C4  UNL     1      38.065   2.618  22.974  1.00  0.00     0.161 A 
HETATM    4  N1  UNL     1      38.300   1.593  23.814  1.00  0.00    -0.279 N 
HETATM    5  C1  UNL     1      37.454   0.420  23.946  1.00  0.00     0.179 C 
HETATM    6  N2  UNL     1      39.427   1.815  24.510  1.00  0.00    -0.307 N 
HETATM    7  C2  UNL     1      39.935   2.986  24.126  1.00  0.00     0.136 A 
ATOM      8  H2  UNL     1      39.828   1.193  25.212  1.00  0.00     0.186 HD
HETATM    9  C3  UNL     1      39.117   3.521  23.171  1.00  0.00     0.142 A 
BRANCH   9  10
HETATM   10  S1  UNL     1      39.353   5.029  22.366  1.00  0.00     0.262 S 
HETATM   11  O1  UNL     1      38.875   6.204  23.165  1.00  0.00    -0.201 OA
HETATM   12  O2  UNL     1      38.594   5.032  21.072  1.00  0.00    -0.201 OA
BRANCH  10  13
HETATM   13  N3  UNL     1      41.043   5.209  21.990  1.00  0.00    -0.324 N 
ATOM     14  H32 UNL     1      41.577   4.576  21.394  1.00  0.00     0.169 HD
ATOM     15  H31 UNL     1      41.400   6.040  22.462  1.00  0.00     0.169 HD
ENDBRANCH  10  13
ENDBRANCH   9  10
ENDBRANCH   1   3
BRANCH   1  16
HETATM   16  N5  UNL     1      35.834   3.415  22.403  1.00  0.00    -0.281 N 
ATOM     17  H5  UNL     1      34.982   2.878  22.239  1.00  0.00     0.188 HD
BRANCH  16  18
HETATM   18  C5  UNL     1      35.691   4.602  22.921  1.00  0.00     0.154 A 
HETATM   19  N6  UNL     1      35.758   5.676  22.105  1.00  0.00    -0.335 N 
HETATM   20  C6  UNL     1      35.639   6.958  22.430  1.00  0.00     0.106 A 
ATOM     21  H6  UNL     1      35.919   5.478  21.117  1.00  0.00     0.168 HD
HETATM   22  C8  UNL     1      35.420   7.462  23.693  1.00  0.00     0.086 A 
HETATM   23  S2  UNL     1      35.299   6.278  24.903  1.00  0.00    -0.079 SA
HETATM   24  C9  UNL     1      35.480   4.679  24.276  1.00  0.00     0.113 A 
BRANCH  20  25
HETATM   25  C7  UNL     1      35.744   8.006  21.372  1.00  0.00     0.281 C 
HETATM   26  N7  UNL     1      34.680   8.838  21.012  1.00  0.00    -0.056 NA
HETATM   27  O3  UNL     1      36.844   8.153  20.771  1.00  0.00    -0.269 OA
ENDBRANCH  20  25
BRANCH  24  28
HETATM   28  N8  UNL     1      35.415   3.662  25.068  1.00  0.00    -0.390 N 
ATOM     29  H82 UNL     1      35.593   2.723  24.710  1.00  0.00     0.157 HD
ATOM     30  H81 UNL     1      35.191   3.715  26.062  1.00  0.00     0.157 HD
ENDBRANCH  24  28
ENDBRANCH  16  18
ENDBRANCH   1  16
TORSDOF 7
ENDMDL
