MODEL 1
REMARK VINA RESULT: -2.446309304      0.000      0.000
REMARK  3 active torsions:
REMARK  status: ('A' for Active; 'I' for Inactive)
REMARK    1  A    between atoms: C1_2  and  C8_17 
REMARK    2  A    between atoms: N2_3  and  N3_5 
REMARK       I    between atoms: N3_5  and  C2_7 
REMARK    3  A    between atoms: C2_7  and  C3_9 
ROOT
HETATM    1  N1  UNL     1     -39.128  -9.349  42.075  1.00  0.00    -0.079 NA
HETATM    2  C1  UNL     1     -39.481  -8.054  42.500  1.00  0.00     0.159 C 
HETATM    3  N2  UNL     1     -39.295  -7.035  41.730  1.00  0.00    -0.283 N 
ATOM      4  H2  UNL     1     -39.562  -6.113  42.075  1.00  0.00     0.188 HD
ENDROOT
BRANCH   2   5
HETATM    5  C8  UNL     1     -40.060  -7.852  43.823  1.00  0.00     0.094 A 
HETATM    6  C9  UNL     1     -39.767  -8.505  45.004  1.00  0.00     0.151 A 
HETATM    7  N6  UNL     1     -40.539  -8.011  46.010  1.00  0.00    -0.249 N 
HETATM    8  N7  UNL     1     -40.642  -8.288  47.303  1.00  0.00    -0.302 N 
HETATM    9  C13 UNL     1     -41.314  -7.055  45.467  1.00  0.00     0.129 A 
HETATM   10  C10 UNL     1     -41.496  -7.654  48.123  1.00  0.00     0.134 A 
ATOM     11  H7  UNL     1     -40.043  -9.018  47.693  1.00  0.00     0.186 HD
HETATM   12  C11 UNL     1     -42.314  -6.666  47.613  1.00  0.00     0.066 A 
HETATM   13  N8  UNL     1     -43.231  -5.978  48.470  1.00  0.00    -0.101 NA
HETATM   14  C12 UNL     1     -42.207  -6.378  46.273  1.00  0.00     0.078 A 
HETATM   15  N9  UNL     1     -41.019  -6.962  44.137  1.00  0.00    -0.337 N 
ATOM     16  H9  UNL     1     -41.459  -6.316  43.481  1.00  0.00     0.167 HD
ENDBRANCH   2   5
BRANCH   3  17
HETATM   17  N3  UNL     1     -38.752  -7.130  40.460  1.00  0.00    -0.264 N 
HETATM   18  C2  UNL     1     -38.788  -6.027  39.593  1.00  0.00     0.273 C 
HETATM   19  O1  UNL     1     -39.339  -4.958  40.038  1.00  0.00    -0.266 OA
ATOM     20  H3  UNL     1     -38.325  -8.004  40.154  1.00  0.00     0.190 HD
BRANCH  18  21
HETATM   21  C3  UNL     1     -38.247  -6.021  38.240  1.00  0.00     0.073 A 
HETATM   22  C4  UNL     1     -39.021  -5.672  37.164  1.00  0.00     0.106 A 
HETATM   23  N4  UNL     1     -38.524  -5.663  35.896  1.00  0.00    -0.374 N 
HETATM   24  C5  UNL     1     -37.256  -5.994  35.633  1.00  0.00     0.089 A 
ATOM     25  H4  UNL     1     -39.138  -5.396  35.126  1.00  0.00     0.164 HD
HETATM   26  C6  UNL     1     -36.442  -6.352  36.685  1.00  0.00     0.044 A 
HETATM   27  C7  UNL     1     -36.935  -6.366  37.994  1.00  0.00     0.064 A 
HETATM   28  N5  UNL     1     -36.117  -6.729  39.072  1.00  0.00    -0.101 NA
ENDBRANCH  18  21
ENDBRANCH   3  17
TORSDOF 3
ENDMDL
MODEL 2
REMARK VINA RESULT: -1.847864058      0.788      1.430
REMARK  3 active torsions:
REMARK  status: ('A' for Active; 'I' for Inactive)
REMARK    1  A    between atoms: C1_2  and  C8_17 
REMARK    2  A    between atoms: N2_3  and  N3_5 
REMARK       I    between atoms: N3_5  and  C2_7 
REMARK    3  A    between atoms: C2_7  and  C3_9 
ROOT
HETATM    1  N1  UNL     1     -39.142  -9.583  42.454  1.00  0.00    -0.079 NA
HETATM    2  C1  UNL     1     -39.401  -8.253  42.838  1.00  0.00     0.159 C 
HETATM    3  N2  UNL     1     -39.071  -7.270  42.070  1.00  0.00    -0.283 N 
ATOM      4  H2  UNL     1     -39.273  -6.321  42.384  1.00  0.00     0.188 HD
ENDROOT
BRANCH   2   5
HETATM    5  C8  UNL     1     -40.046  -7.974  44.116  1.00  0.00     0.094 A 
HETATM    6  C9  UNL     1     -39.791  -8.533  45.353  1.00  0.00     0.151 A 
HETATM    7  N6  UNL     1     -40.621  -7.990  46.286  1.00  0.00    -0.249 N 
HETATM    8  N7  UNL     1     -40.777  -8.178  47.589  1.00  0.00    -0.302 N 
HETATM    9  C13 UNL     1     -41.393  -7.097  45.641  1.00  0.00     0.129 A 
HETATM   10  C10 UNL     1     -41.684  -7.511  48.322  1.00  0.00     0.134 A 
ATOM     11  H7  UNL     1     -40.179  -8.861  48.057  1.00  0.00     0.186 HD
HETATM   12  C11 UNL     1     -42.501  -6.585  47.707  1.00  0.00     0.066 A 
HETATM   13  N8  UNL     1     -43.474  -5.863  48.470  1.00  0.00    -0.101 NA
HETATM   14  C12 UNL     1     -42.339  -6.390  46.356  1.00  0.00     0.078 A 
HETATM   15  N9  UNL     1     -41.040  -7.091  44.322  1.00  0.00    -0.337 N 
ATOM     16  H9  UNL     1     -41.465  -6.506  43.602  1.00  0.00     0.167 HD
ENDBRANCH   2   5
BRANCH   3  17
HETATM   17  N3  UNL     1     -38.456  -7.438  40.841  1.00  0.00    -0.264 N 
HETATM   18  C2  UNL     1     -38.184  -6.326  40.030  1.00  0.00     0.273 C 
HETATM   19  O1  UNL     1     -38.530  -5.178  40.485  1.00  0.00    -0.266 OA
ATOM     20  H3  UNL     1     -38.200  -8.373  40.524  1.00  0.00     0.190 HD
BRANCH  18  21
HETATM   21  C3  UNL     1     -37.542  -6.392  38.724  1.00  0.00     0.073 A 
HETATM   22  C4  UNL     1     -36.193  -6.601  38.600  1.00  0.00     0.106 A 
HETATM   23  N4  UNL     1     -35.584  -6.664  37.384  1.00  0.00    -0.374 N 
HETATM   24  C5  UNL     1     -36.269  -6.526  36.245  1.00  0.00     0.089 A 
ATOM     25  H4  UNL     1     -34.577  -6.820  37.342  1.00  0.00     0.164 HD
HETATM   26  C6  UNL     1     -37.628  -6.314  36.321  1.00  0.00     0.044 A 
HETATM   27  C7  UNL     1     -38.271  -6.247  37.562  1.00  0.00     0.064 A 
HETATM   28  N5  UNL     1     -39.652  -6.032  37.652  1.00  0.00    -0.101 NA
ENDBRANCH  18  21
ENDBRANCH   3  17
TORSDOF 3
ENDMDL
MODEL 3
REMARK VINA RESULT: -1.607104408      1.517      1.762
REMARK  3 active torsions:
REMARK  status: ('A' for Active; 'I' for Inactive)
REMARK    1  A    between atoms: C1_2  and  C8_17 
REMARK    2  A    between atoms: N2_3  and  N3_5 
REMARK       I    between atoms: N3_5  and  C2_7 
REMARK    3  A    between atoms: C2_7  and  C3_9 
ROOT
HETATM    1  N1  UNL     1     -39.218  -9.279  40.387  1.00  0.00    -0.079 NA
HETATM    2  C1  UNL     1     -39.182  -8.100  41.155  1.00  0.00     0.159 C 
HETATM    3  N2  UNL     1     -38.782  -6.987  40.636  1.00  0.00    -0.283 N 
ATOM      4  H2  UNL     1     -38.769  -6.155  41.225  1.00  0.00     0.188 HD
ENDROOT
BRANCH   2   5
HETATM    5  C8  UNL     1     -39.597  -8.124  42.553  1.00  0.00     0.094 A 
HETATM    6  C9  UNL     1     -39.226  -9.007  43.549  1.00  0.00     0.151 A 
HETATM    7  N6  UNL     1     -39.845  -8.675  44.715  1.00  0.00    -0.249 N 
HETATM    8  N7  UNL     1     -39.827  -9.190  45.937  1.00  0.00    -0.302 N 
HETATM    9  C13 UNL     1     -40.600  -7.592  44.456  1.00  0.00     0.129 A 
HETATM   10  C10 UNL     1     -40.537  -8.681  46.958  1.00  0.00     0.134 A 
ATOM     11  H7  UNL     1     -39.246 -10.011  46.110  1.00  0.00     0.186 HD
HETATM   12  C11 UNL     1     -41.328  -7.571  46.742  1.00  0.00     0.066 A 
HETATM   13  N8  UNL     1     -42.092  -7.012  47.816  1.00  0.00    -0.101 NA
HETATM   14  C12 UNL     1     -41.346  -7.036  45.476  1.00  0.00     0.078 A 
HETATM   15  N9  UNL     1     -40.446  -7.262  43.140  1.00  0.00    -0.337 N 
ATOM     16  H9  UNL     1     -40.905  -6.479  42.673  1.00  0.00     0.167 HD
ENDBRANCH   2   5
BRANCH   3  17
HETATM   17  N3  UNL     1     -38.370  -6.867  39.319  1.00  0.00    -0.264 N 
HETATM   18  C2  UNL     1     -37.036  -6.552  39.023  1.00  0.00     0.273 C 
HETATM   19  O1  UNL     1     -36.245  -6.387  40.019  1.00  0.00    -0.266 OA
ATOM     20  H3  UNL     1     -39.039  -7.008  38.562  1.00  0.00     0.190 HD
BRANCH  18  21
HETATM   21  C3  UNL     1     -36.500  -6.403  37.677  1.00  0.00     0.073 A 
HETATM   22  C4  UNL     1     -37.296  -6.018  36.630  1.00  0.00     0.106 A 
HETATM   23  N4  UNL     1     -36.805  -5.876  35.369  1.00  0.00    -0.374 N 
HETATM   24  C5  UNL     1     -35.519  -6.104  35.083  1.00  0.00     0.089 A 
ATOM     25  H4  UNL     1     -37.436  -5.587  34.620  1.00  0.00     0.164 HD
HETATM   26  C6  UNL     1     -34.682  -6.494  36.105  1.00  0.00     0.044 A 
HETATM   27  C7  UNL     1     -35.169  -6.644  37.407  1.00  0.00     0.064 A 
HETATM   28  N5  UNL     1     -34.327  -7.041  38.454  1.00  0.00    -0.101 NA
ENDBRANCH  18  21
ENDBRANCH   3  17
TORSDOF 3
ENDMDL
MODEL 4
REMARK VINA RESULT: -1.446386445      1.578      2.155
REMARK  3 active torsions:
REMARK  status: ('A' for Active; 'I' for Inactive)
REMARK    1  A    between atoms: C1_2  and  C8_17 
REMARK    2  A    between atoms: N2_3  and  N3_5 
REMARK       I    between atoms: N3_5  and  C2_7 
REMARK    3  A    between atoms: C2_7  and  C3_9 
ROOT
HETATM    1  N1  UNL     1     -39.369  -9.194  40.356  1.00  0.00    -0.079 NA
HETATM    2  C1  UNL     1     -39.166  -8.070  41.178  1.00  0.00     0.159 C 
HETATM    3  N2  UNL     1     -38.606  -7.005  40.710  1.00  0.00    -0.283 N 
ATOM      4  H2  UNL     1     -38.475  -6.212  41.338  1.00  0.00     0.188 HD
ENDROOT
BRANCH   2   5
HETATM    5  C8  UNL     1     -39.588  -8.099  42.573  1.00  0.00     0.094 A 
HETATM    6  C9  UNL     1     -39.218  -8.981  43.570  1.00  0.00     0.151 A 
HETATM    7  N6  UNL     1     -39.844  -8.654  44.733  1.00  0.00    -0.249 N 
HETATM    8  N7  UNL     1     -39.829  -9.171  45.955  1.00  0.00    -0.302 N 
HETATM    9  C13 UNL     1     -40.603  -7.575  44.472  1.00  0.00     0.129 A 
HETATM   10  C10 UNL     1     -40.547  -8.667  46.972  1.00  0.00     0.134 A 
ATOM     11  H7  UNL     1     -39.245  -9.990  46.129  1.00  0.00     0.186 HD
HETATM   12  C11 UNL     1     -41.342  -7.561  46.755  1.00  0.00     0.066 A 
HETATM   13  N8  UNL     1     -42.115  -7.008  47.826  1.00  0.00    -0.101 NA
HETATM   14  C12 UNL     1     -41.357  -7.024  45.489  1.00  0.00     0.078 A 
HETATM   15  N9  UNL     1     -40.444  -7.242  43.157  1.00  0.00    -0.337 N 
ATOM     16  H9  UNL     1     -40.905  -6.461  42.689  1.00  0.00     0.167 HD
ENDBRANCH   2   5
BRANCH   3  17
HETATM   17  N3  UNL     1     -38.174  -6.885  39.401  1.00  0.00    -0.264 N 
HETATM   18  C2  UNL     1     -36.836  -6.563  39.125  1.00  0.00     0.273 C 
HETATM   19  O1  UNL     1     -36.062  -6.392  40.134  1.00  0.00    -0.266 OA
ATOM     20  H3  UNL     1     -38.830  -7.030  38.633  1.00  0.00     0.190 HD
BRANCH  18  21
HETATM   21  C3  UNL     1     -36.280  -6.413  37.788  1.00  0.00     0.073 A 
HETATM   22  C4  UNL     1     -34.935  -6.538  37.556  1.00  0.00     0.106 A 
HETATM   23  N4  UNL     1     -34.405  -6.399  36.309  1.00  0.00    -0.374 N 
HETATM   24  C5  UNL     1     -35.169  -6.135  35.244  1.00  0.00     0.089 A 
ATOM     25  H4  UNL     1     -33.398  -6.500  36.184  1.00  0.00     0.164 HD
HETATM   26  C6  UNL     1     -36.527  -6.000  35.431  1.00  0.00     0.044 A 
HETATM   27  C7  UNL     1     -37.088  -6.140  36.704  1.00  0.00     0.064 A 
HETATM   28  N5  UNL     1     -38.468  -6.005  36.906  1.00  0.00    -0.101 NA
ENDBRANCH  18  21
ENDBRANCH   3  17
TORSDOF 3
ENDMDL
MODEL 5
REMARK VINA RESULT: 0.352702716      1.979      9.339
REMARK  3 active torsions:
REMARK  status: ('A' for Active; 'I' for Inactive)
REMARK    1  A    between atoms: C1_2  and  C8_17 
REMARK    2  A    between atoms: N2_3  and  N3_5 
REMARK       I    between atoms: N3_5  and  C2_7 
REMARK    3  A    between atoms: C2_7  and  C3_9 
ROOT
HETATM    1  N1  UNL     1     -38.839  -8.922  39.137  1.00  0.00    -0.079 NA
HETATM    2  C1  UNL     1     -38.645  -7.528  39.163  1.00  0.00     0.159 C 
HETATM    3  N2  UNL     1     -39.055  -6.825  40.165  1.00  0.00    -0.283 N 
ATOM      4  H2  UNL     1     -38.897  -5.818  40.146  1.00  0.00     0.188 HD
ENDROOT
BRANCH   2   5
HETATM    5  C8  UNL     1     -37.976  -6.862  38.052  1.00  0.00     0.094 A 
HETATM    6  C9  UNL     1     -38.529  -6.094  37.045  1.00  0.00     0.151 A 
HETATM    7  N6  UNL     1     -37.551  -5.659  36.205  1.00  0.00    -0.249 N 
HETATM    8  N7  UNL     1     -37.554  -4.909  35.111  1.00  0.00    -0.302 N 
HETATM    9  C13 UNL     1     -36.390  -6.149  36.678  1.00  0.00     0.129 A 
HETATM   10  C10 UNL     1     -36.437  -4.601  34.430  1.00  0.00     0.134 A 
ATOM     11  H7  UNL     1     -38.446  -4.548  34.772  1.00  0.00     0.186 HD
HETATM   12  C11 UNL     1     -35.222  -5.081  34.875  1.00  0.00     0.066 A 
HETATM   13  N8  UNL     1     -34.020  -4.765  34.164  1.00  0.00    -0.101 NA
HETATM   14  C12 UNL     1     -35.218  -5.858  36.009  1.00  0.00     0.078 A 
HETATM   15  N9  UNL     1     -36.654  -6.880  37.800  1.00  0.00    -0.337 N 
ATOM     16  H9  UNL     1     -35.955  -7.366  38.363  1.00  0.00     0.167 HD
ENDBRANCH   2   5
BRANCH   3  17
HETATM   17  N3  UNL     1     -39.699  -7.369  41.263  1.00  0.00    -0.264 N 
HETATM   18  C2  UNL     1     -38.965  -7.739  42.400  1.00  0.00     0.273 C 
HETATM   19  O1  UNL     1     -37.697  -7.547  42.359  1.00  0.00    -0.266 OA
ATOM     20  H3  UNL     1     -40.710  -7.501  41.246  1.00  0.00     0.190 HD
BRANCH  18  21
HETATM   21  C3  UNL     1     -39.542  -8.317  43.606  1.00  0.00     0.073 A 
HETATM   22  C4  UNL     1     -39.789  -7.554  44.717  1.00  0.00     0.106 A 
HETATM   23  N4  UNL     1     -40.328  -8.086  45.848  1.00  0.00    -0.374 N 
HETATM   24  C5  UNL     1     -40.646  -9.381  45.937  1.00  0.00     0.089 A 
ATOM     25  H4  UNL     1     -40.494  -7.478  46.651  1.00  0.00     0.164 HD
HETATM   26  C6  UNL     1     -40.414 -10.187  44.843  1.00  0.00     0.044 A 
HETATM   27  C7  UNL     1     -39.861  -9.657  43.672  1.00  0.00     0.064 A 
HETATM   28  N5  UNL     1     -39.621 -10.467  42.555  1.00  0.00    -0.101 NA
ENDBRANCH  18  21
ENDBRANCH   3  17
TORSDOF 3
ENDMDL
