MODEL 1
REMARK VINA RESULT: -5.868697616      0.000      0.000
REMARK  2 active torsions:
REMARK  status: ('A' for Active; 'I' for Inactive)
REMARK    1  A    between atoms: C2_2  and  C3_3 
REMARK    2  A    between atoms: C3_3  and  N1_4 
REMARK       I    between atoms: C4_6  and  N3_8 
ROOT
HETATM    1  N1  UNL     1       5.875   5.025  49.356  1.00  0.00    -0.361 N 
ATOM      2  H1  UNL     1       5.220   4.855  50.119  1.00  0.00     0.162 HD
HETATM    3  C4  UNL     1       6.024   4.077  48.545  1.00  0.00     0.186 C 
HETATM    4  N2  UNL     1       6.904   4.189  47.447  1.00  0.00    -0.064 NA
HETATM    5  N3  UNL     1       5.307   2.873  48.721  1.00  0.00    -0.356 N 
HETATM    6  C5  UNL     1       5.035   1.936  47.653  1.00  0.00     0.125 C 
HETATM    7  C6  UNL     1       5.026   0.548  48.293  1.00  0.00     0.020 C 
HETATM    8  C7  UNL     1       3.718   0.478  49.087  1.00  0.00     0.003 C 
HETATM    9  C8  UNL     1       3.548   1.700  49.962  1.00  0.00     0.020 C 
HETATM   10  C9  UNL     1       4.804   2.534  50.039  1.00  0.00     0.125 C 
ENDROOT
BRANCH   1  11
HETATM   11  C3  UNL     1       6.502   6.305  49.350  1.00  0.00     0.148 C 
BRANCH  11  12
HETATM   12  C2  UNL     1       5.620   7.415  48.935  1.00  0.00    -0.018 C 
HETATM   13  C1  UNL     1       5.472   7.665  47.648  1.00  0.00     0.008 C 
ENDBRANCH  11  12
ENDBRANCH   1  11
TORSDOF 2
ENDMDL
MODEL 2
REMARK VINA RESULT: -5.733603540      1.552      5.245
REMARK  2 active torsions:
REMARK  status: ('A' for Active; 'I' for Inactive)
REMARK    1  A    between atoms: C2_2  and  C3_3 
REMARK    2  A    between atoms: C3_3  and  N1_4 
REMARK       I    between atoms: C4_6  and  N3_8 
ROOT
HETATM    1  N1  UNL     1       5.816   3.086  47.573  1.00  0.00    -0.361 N 
ATOM      2  H1  UNL     1       6.103   3.195  48.545  1.00  0.00     0.162 HD
HETATM    3  C4  UNL     1       5.641   4.153  46.934  1.00  0.00     0.186 C 
HETATM    4  N2  UNL     1       5.243   4.134  45.579  1.00  0.00    -0.064 NA
HETATM    5  N3  UNL     1       5.841   5.400  47.565  1.00  0.00    -0.356 N 
HETATM    6  C5  UNL     1       6.127   6.626  46.852  1.00  0.00     0.125 C 
HETATM    7  C6  UNL     1       5.488   7.753  47.663  1.00  0.00     0.020 C 
HETATM    8  C7  UNL     1       6.379   7.916  48.899  1.00  0.00     0.003 C 
HETATM    9  C8  UNL     1       6.640   6.581  49.560  1.00  0.00     0.020 C 
HETATM   10  C9  UNL     1       5.760   5.484  49.012  1.00  0.00     0.125 C 
ENDROOT
BRANCH   1  11
HETATM   11  C3  UNL     1       5.667   1.743  47.119  1.00  0.00     0.148 C 
BRANCH  11  12
HETATM   12  C2  UNL     1       4.552   1.007  47.748  1.00  0.00    -0.018 C 
HETATM   13  C1  UNL     1       3.509   0.675  47.010  1.00  0.00     0.008 C 
ENDBRANCH  11  12
ENDBRANCH   1  11
TORSDOF 2
ENDMDL
MODEL 3
REMARK VINA RESULT: -5.683389314      1.422      1.827
REMARK  2 active torsions:
REMARK  status: ('A' for Active; 'I' for Inactive)
REMARK    1  A    between atoms: C2_2  and  C3_3 
REMARK    2  A    between atoms: C3_3  and  N1_4 
REMARK       I    between atoms: C4_6  and  N3_8 
ROOT
HETATM    1  N1  UNL     1       5.832   5.653  47.369  1.00  0.00    -0.361 N 
ATOM      2  H1  UNL     1       5.648   5.453  48.351  1.00  0.00     0.162 HD
HETATM    3  C4  UNL     1       5.784   4.667  46.593  1.00  0.00     0.186 C 
HETATM    4  N2  UNL     1       6.021   4.815  45.209  1.00  0.00    -0.064 NA
HETATM    5  N3  UNL     1       5.489   3.381  47.097  1.00  0.00    -0.356 N 
HETATM    6  C5  UNL     1       4.957   2.304  46.292  1.00  0.00     0.125 C 
HETATM    7  C6  UNL     1       5.526   1.011  46.876  1.00  0.00     0.020 C 
HETATM    8  C7  UNL     1       4.770   0.796  48.191  1.00  0.00     0.003 C 
HETATM    9  C8  UNL     1       4.773   2.054  49.030  1.00  0.00     0.020 C 
HETATM   10  C9  UNL     1       5.725   3.099  48.501  1.00  0.00     0.125 C 
ENDROOT
BRANCH   1  11
HETATM   11  C3  UNL     1       6.111   7.017  47.057  1.00  0.00     0.148 C 
BRANCH  11  12
HETATM   12  C2  UNL     1       5.541   7.990  48.011  1.00  0.00    -0.018 C 
HETATM   13  C1  UNL     1       5.617   7.736  49.303  1.00  0.00     0.008 C 
ENDBRANCH  11  12
ENDBRANCH   1  11
TORSDOF 2
ENDMDL
MODEL 4
REMARK VINA RESULT: -5.616071180      2.477      3.806
REMARK  2 active torsions:
REMARK  status: ('A' for Active; 'I' for Inactive)
REMARK    1  A    between atoms: C2_2  and  C3_3 
REMARK    2  A    between atoms: C3_3  and  N1_4 
REMARK       I    between atoms: C4_6  and  N3_8 
ROOT
HETATM    1  N1  UNL     1       6.790   7.527  49.598  1.00  0.00    -0.361 N 
ATOM      2  H1  UNL     1       6.857   6.686  50.171  1.00  0.00     0.162 HD
HETATM    3  C4  UNL     1       6.470   7.343  48.397  1.00  0.00     0.186 C 
HETATM    4  N2  UNL     1       6.344   8.427  47.502  1.00  0.00    -0.064 NA
HETATM    5  N3  UNL     1       6.228   6.036  47.919  1.00  0.00    -0.356 N 
HETATM    6  C5  UNL     1       5.429   5.742  46.750  1.00  0.00     0.125 C 
HETATM    7  C6  UNL     1       6.039   4.492  46.116  1.00  0.00     0.020 C 
HETATM    8  C7  UNL     1       5.643   3.337  47.042  1.00  0.00     0.003 C 
HETATM    9  C8  UNL     1       5.955   3.666  48.485  1.00  0.00     0.020 C 
HETATM   10  C9  UNL     1       6.806   4.905  48.623  1.00  0.00     0.125 C 
ENDROOT
BRANCH   1  11
HETATM   11  C3  UNL     1       7.071   8.755  50.264  1.00  0.00     0.148 C 
BRANCH  11  12
HETATM   12  C2  UNL     1       8.246   8.710  51.158  1.00  0.00    -0.018 C 
HETATM   13  C1  UNL     1       8.153   8.059  52.302  1.00  0.00     0.008 C 
ENDBRANCH  11  12
ENDBRANCH   1  11
TORSDOF 2
ENDMDL
MODEL 5
REMARK VINA RESULT: -5.543573407      2.855      6.170
REMARK  2 active torsions:
REMARK  status: ('A' for Active; 'I' for Inactive)
REMARK    1  A    between atoms: C2_2  and  C3_3 
REMARK    2  A    between atoms: C3_3  and  N1_4 
REMARK       I    between atoms: C4_6  and  N3_8 
ROOT
HETATM    1  N1  UNL     1       6.383   6.372  48.071  1.00  0.00    -0.361 N 
ATOM      2  H1  UNL     1       5.951   6.404  48.994  1.00  0.00     0.162 HD
HETATM    3  C4  UNL     1       7.466   6.995  47.953  1.00  0.00     0.186 C 
HETATM    4  N2  UNL     1       8.161   7.026  46.725  1.00  0.00    -0.064 NA
HETATM    5  N3  UNL     1       8.013   7.683  49.060  1.00  0.00    -0.356 N 
HETATM    6  C5  UNL     1       9.414   8.019  49.186  1.00  0.00     0.125 C 
HETATM    7  C6  UNL     1       9.472   9.338  49.955  1.00  0.00     0.020 C 
HETATM    8  C7  UNL     1       9.124   8.976  51.403  1.00  0.00     0.003 C 
HETATM    9  C8  UNL     1       7.870   8.134  51.465  1.00  0.00     0.020 C 
HETATM   10  C9  UNL     1       7.139   8.088  50.145  1.00  0.00     0.125 C 
ENDROOT
BRANCH   1  11
HETATM   11  C3  UNL     1       5.676   5.624  47.083  1.00  0.00     0.148 C 
BRANCH  11  12
HETATM   12  C2  UNL     1       5.921   4.168  47.129  1.00  0.00    -0.018 C 
HETATM   13  C1  UNL     1       5.977   3.567  48.302  1.00  0.00     0.008 C 
ENDBRANCH  11  12
ENDBRANCH   1  11
TORSDOF 2
ENDMDL
