MODEL 1
REMARK VINA RESULT: -6.488901897      0.000      0.000
REMARK  2 active torsions:
REMARK  status: ('A' for Active; 'I' for Inactive)
REMARK    1  A    between atoms: C1_4  and  N2_5 
REMARK    2  A    between atoms: N2_5  and  C2_7 
ROOT
HETATM    1  C2  UNL     1      30.987 -16.128   2.962  1.00  0.00     0.090 C 
HETATM    2  C3  UNL     1      31.978 -15.764   4.035  1.00  0.00     0.010 C 
HETATM    3  C4  UNL     1      33.264 -15.347   3.367  1.00  0.00     0.011 C 
HETATM    4  C5  UNL     1      32.970 -14.117   2.530  1.00  0.00    -0.012 C 
HETATM    5  C6  UNL     1      31.880 -14.388   1.511  1.00  0.00     0.011 C 
HETATM    6  C7  UNL     1      30.628 -14.874   2.211  1.00  0.00     0.010 C 
HETATM    7  C8  UNL     1      30.153 -13.771   3.110  1.00  0.00     0.027 C 
HETATM    8  C9  UNL     1      31.223 -13.452   4.139  1.00  0.00     0.019 C 
HETATM    9 BR1  UNL     1      30.640 -11.962   5.220  1.00  0.00    -0.086 Br
HETATM   10  C10 UNL     1      32.511 -13.036   3.470  1.00  0.00     0.025 C 
HETATM   11  C11 UNL     1      31.447 -14.690   4.952  1.00  0.00     0.027 C 
ENDROOT
BRANCH   1  12
HETATM   12  N2  UNL     1      29.863 -16.796   3.531  1.00  0.00    -0.379 N 
ATOM     13  H2  UNL     1      28.942 -16.552   3.167  1.00  0.00     0.160 HD
BRANCH  12  14
HETATM   14  C1  UNL     1      29.919 -17.763   4.554  1.00  0.00     0.205 C 
HETATM   15  N1  UNL     1      28.899 -17.990   5.283  1.00  0.00    -0.220 N 
HETATM   16  F1  UNL     1      27.719 -17.364   5.162  1.00  0.00    -0.101 F 
ATOM     17  H1  UNL     1      28.987 -18.699   6.011  1.00  0.00     0.200 HD
ENDBRANCH  12  14
ENDBRANCH   1  12
TORSDOF 2
ENDMDL
MODEL 2
REMARK VINA RESULT: -6.423945761      3.068      3.723
REMARK  2 active torsions:
REMARK  status: ('A' for Active; 'I' for Inactive)
REMARK    1  A    between atoms: C1_4  and  N2_5 
REMARK    2  A    between atoms: N2_5  and  C2_7 
ROOT
HETATM    1  C2  UNL     1      29.543 -14.125   5.757  1.00  0.00     0.090 C 
HETATM    2  C3  UNL     1      30.954 -14.082   6.279  1.00  0.00     0.010 C 
HETATM    3  C4  UNL     1      31.599 -15.417   6.003  1.00  0.00     0.011 C 
HETATM    4  C5  UNL     1      31.635 -15.610   4.500  1.00  0.00    -0.012 C 
HETATM    5  C6  UNL     1      30.246 -15.532   3.897  1.00  0.00     0.011 C 
HETATM    6  C7  UNL     1      29.601 -14.209   4.254  1.00  0.00     0.010 C 
HETATM    7  C8  UNL     1      30.430 -13.120   3.640  1.00  0.00     0.027 C 
HETATM    8  C9  UNL     1      31.840 -13.170   4.202  1.00  0.00     0.019 C 
HETATM    9 BR1  UNL     1      32.920 -11.831   3.326  1.00  0.00    -0.086 Br
HETATM   10  C10 UNL     1      32.485 -14.507   3.928  1.00  0.00     0.025 C 
HETATM   11  C11 UNL     1      31.743 -12.944   5.680  1.00  0.00     0.027 C 
ENDROOT
BRANCH   1  12
HETATM   12  N2  UNL     1      28.802 -13.006   6.237  1.00  0.00    -0.379 N 
ATOM     13  H2  UNL     1      29.310 -12.304   6.774  1.00  0.00     0.160 HD
BRANCH  12  14
HETATM   14  C1  UNL     1      27.424 -12.791   6.032  1.00  0.00     0.205 C 
HETATM   15  N1  UNL     1      27.027 -11.903   5.208  1.00  0.00    -0.220 N 
HETATM   16  F1  UNL     1      27.836 -11.116   4.484  1.00  0.00    -0.101 F 
ATOM     17  H1  UNL     1      26.020 -11.782   5.093  1.00  0.00     0.200 HD
ENDBRANCH  12  14
ENDBRANCH   1  12
TORSDOF 2
ENDMDL
MODEL 3
REMARK VINA RESULT: -6.417905430      1.910      3.036
REMARK  2 active torsions:
REMARK  status: ('A' for Active; 'I' for Inactive)
REMARK    1  A    between atoms: C1_4  and  N2_5 
REMARK    2  A    between atoms: N2_5  and  C2_7 
ROOT
HETATM    1  C2  UNL     1      29.817 -15.063   4.858  1.00  0.00     0.090 C 
HETATM    2  C3  UNL     1      29.719 -13.747   4.136  1.00  0.00     0.010 C 
HETATM    3  C4  UNL     1      29.906 -12.641   5.144  1.00  0.00     0.011 C 
HETATM    4  C5  UNL     1      31.298 -12.781   5.728  1.00  0.00    -0.012 C 
HETATM    5  C6  UNL     1      31.501 -14.145   6.358  1.00  0.00     0.011 C 
HETATM    6  C7  UNL     1      31.235 -15.231   5.337  1.00  0.00     0.010 C 
HETATM    7  C8  UNL     1      32.244 -15.078   4.238  1.00  0.00     0.027 C 
HETATM    8  C9  UNL     1      32.090 -13.715   3.587  1.00  0.00     0.019 C 
HETATM    9 BR1  UNL     1      33.463 -13.493   2.248  1.00  0.00    -0.086 Br
HETATM   10  C10 UNL     1      32.276 -12.608   4.597  1.00  0.00     0.025 C 
HETATM   11  C11 UNL     1      30.712 -13.648   3.005  1.00  0.00     0.027 C 
ENDROOT
BRANCH   1  12
HETATM   12  N2  UNL     1      29.369 -16.125   4.018  1.00  0.00    -0.379 N 
ATOM     13  H2  UNL     1      29.284 -15.928   3.022  1.00  0.00     0.160 HD
BRANCH  12  14
HETATM   14  C1  UNL     1      29.036 -17.424   4.452  1.00  0.00     0.205 C 
HETATM   15  N1  UNL     1      29.879 -18.374   4.351  1.00  0.00    -0.220 N 
HETATM   16  F1  UNL     1      31.115 -18.246   3.846  1.00  0.00    -0.101 F 
ATOM     17  H1  UNL     1      29.594 -19.297   4.678  1.00  0.00     0.200 HD
ENDBRANCH  12  14
ENDBRANCH   1  12
TORSDOF 2
ENDMDL
MODEL 4
REMARK VINA RESULT: -6.353204445      4.348      5.592
REMARK  2 active torsions:
REMARK  status: ('A' for Active; 'I' for Inactive)
REMARK    1  A    between atoms: C1_4  and  N2_5 
REMARK    2  A    between atoms: N2_5  and  C2_7 
ROOT
HETATM    1  C2  UNL     1      30.423 -11.339   4.854  1.00  0.00     0.090 C 
HETATM    2  C3  UNL     1      31.784 -11.975   4.763  1.00  0.00     0.010 C 
HETATM    3  C4  UNL     1      31.964 -12.875   5.960  1.00  0.00     0.011 C 
HETATM    4  C5  UNL     1      30.907 -13.959   5.884  1.00  0.00    -0.012 C 
HETATM    5  C6  UNL     1      29.510 -13.370   5.840  1.00  0.00     0.011 C 
HETATM    6  C7  UNL     1      29.388 -12.417   4.670  1.00  0.00     0.010 C 
HETATM    7  C8  UNL     1      29.590 -13.212   3.414  1.00  0.00     0.027 C 
HETATM    8  C9  UNL     1      30.974 -13.838   3.422  1.00  0.00     0.019 C 
HETATM    9 BR1  UNL     1      31.179 -14.943   1.851  1.00  0.00    -0.086 Br
HETATM   10  C10 UNL     1      31.155 -14.738   4.621  1.00  0.00     0.025 C 
HETATM   11  C11 UNL     1      31.972 -12.723   3.466  1.00  0.00     0.027 C 
ENDROOT
BRANCH   1  12
HETATM   12  N2  UNL     1      30.310 -10.273   3.914  1.00  0.00    -0.379 N 
ATOM     13  H2  UNL     1      29.908 -10.493   3.003  1.00  0.00     0.160 HD
BRANCH  12  14
HETATM   14  C1  UNL     1      30.709  -8.940   4.140  1.00  0.00     0.205 C 
HETATM   15  N1  UNL     1      31.443  -8.334   3.293  1.00  0.00    -0.220 N 
HETATM   16  F1  UNL     1      31.894  -8.873   2.150  1.00  0.00    -0.101 F 
ATOM     17  H1  UNL     1      31.707  -7.370   3.499  1.00  0.00     0.200 HD
ENDBRANCH  12  14
ENDBRANCH   1  12
TORSDOF 2
ENDMDL
MODEL 5
REMARK VINA RESULT: -6.278098951      3.147      3.898
REMARK  2 active torsions:
REMARK  status: ('A' for Active; 'I' for Inactive)
REMARK    1  A    between atoms: C1_4  and  N2_5 
REMARK    2  A    between atoms: N2_5  and  C2_7 
ROOT
HETATM    1  C2  UNL     1      30.145 -13.978   3.984  1.00  0.00     0.090 C 
HETATM    2  C3  UNL     1      31.330 -13.969   4.913  1.00  0.00     0.010 C 
HETATM    3  C4  UNL     1      31.717 -15.398   5.197  1.00  0.00     0.011 C 
HETATM    4  C5  UNL     1      32.126 -16.034   3.882  1.00  0.00    -0.012 C 
HETATM    5  C6  UNL     1      31.010 -15.956   2.858  1.00  0.00     0.011 C 
HETATM    6  C7  UNL     1      30.598 -14.514   2.651  1.00  0.00     0.010 C 
HETATM    7  C8  UNL     1      31.782 -13.778   2.098  1.00  0.00     0.027 C 
HETATM    8  C9  UNL     1      32.934 -13.845   3.086  1.00  0.00     0.019 C 
HETATM    9 BR1  UNL     1      34.481 -12.985   2.315  1.00  0.00    -0.086 Br
HETATM   10  C10 UNL     1      33.321 -15.276   3.371  1.00  0.00     0.025 C 
HETATM   11  C11 UNL     1      32.483 -13.177   4.348  1.00  0.00     0.027 C 
ENDROOT
BRANCH   1  12
HETATM   12  N2  UNL     1      29.563 -12.678   3.909  1.00  0.00    -0.379 N 
ATOM     13  H2  UNL     1      29.588 -12.207   3.005  1.00  0.00     0.160 HD
BRANCH  12  14
HETATM   14  C1  UNL     1      28.958 -11.992   4.980  1.00  0.00     0.205 C 
HETATM   15  N1  UNL     1      29.509 -10.954   5.474  1.00  0.00    -0.220 N 
HETATM   16  F1  UNL     1      30.667 -10.429   5.049  1.00  0.00    -0.101 F 
ATOM     17  H1  UNL     1      29.034 -10.490   6.249  1.00  0.00     0.200 HD
ENDBRANCH  12  14
ENDBRANCH   1  12
TORSDOF 2
ENDMDL
