MODEL 1
REMARK VINA RESULT: -7.599063188      0.000      0.000
REMARK  2 active torsions:
REMARK  status: ('A' for Active; 'I' for Inactive)
REMARK       I    between atoms: C2_2  and  N1_4 
REMARK    1  A    between atoms: N1_4  and  C3_6 
REMARK    2  A    between atoms: N2_9  and  C6_10 
ROOT
HETATM    1  C3  UNL     1      12.419 -10.652  21.586  1.00  0.00     0.091 C 
HETATM    2  C4  UNL     1      11.653 -11.452  22.619  1.00  0.00     0.056 C 
HETATM    3  C5  UNL     1      12.644 -12.456  23.202  1.00  0.00     0.275 C 
HETATM    4  N2  UNL     1      13.790 -11.843  23.775  1.00  0.00     0.093 N 
HETATM    5  C12 UNL     1      13.804 -10.404  23.667  1.00  0.00     0.279 C 
HETATM    6  C13 UNL     1      13.641 -10.016  22.210  1.00  0.00     0.033 C 
HETATM    7  C14 UNL     1      14.908 -10.367  21.478  1.00  0.00     0.014 C 
ENDROOT
BRANCH   4   8
HETATM    8  C6  UNL     1      14.139 -12.321  25.076  1.00  0.00     0.223 C 
HETATM    9  C7  UNL     1      14.297 -11.204  26.056  1.00  0.00     0.041 C 
HETATM   10  C8  UNL     1      14.912 -11.716  27.332  1.00  0.00     0.081 C 
HETATM   11  C9  UNL     1      14.282 -12.952  27.861  1.00  0.00     0.243 C 
HETATM   12  F1  UNL     1      13.203 -12.686  28.712  1.00  0.00    -0.206 F 
HETATM   13  F2  UNL     1      15.229 -13.585  28.678  1.00  0.00    -0.206 F 
HETATM   14  C10 UNL     1      13.852 -13.941  26.839  1.00  0.00     0.081 C 
HETATM   15  C11 UNL     1      13.130 -13.284  25.661  1.00  0.00     0.041 C 
ENDBRANCH   4   8
BRANCH   1  16
HETATM   16  N1  UNL     1      11.593  -9.667  20.932  1.00  0.00    -0.356 N 
HETATM   17  C2  UNL     1      11.549  -9.602  19.514  1.00  0.00     0.213 C 
HETATM   18  C1  UNL     1      10.721  -8.614  18.793  1.00  0.00     0.117 C 
HETATM   19  O1  UNL     1      12.229 -10.405  18.826  1.00  0.00    -0.274 OA
ATOM     20  H1  UNL     1      11.041  -9.015  21.489  1.00  0.00     0.162 HD
ENDBRANCH   1  16
TORSDOF 2
ENDMDL
MODEL 2
REMARK VINA RESULT: -7.506444451      1.691      2.578
REMARK  2 active torsions:
REMARK  status: ('A' for Active; 'I' for Inactive)
REMARK       I    between atoms: C2_2  and  N1_4 
REMARK    1  A    between atoms: N1_4  and  C3_6 
REMARK    2  A    between atoms: N2_9  and  C6_10 
ROOT
HETATM    1  C3  UNL     1      13.836 -10.270  21.863  1.00  0.00     0.091 C 
HETATM    2  C4  UNL     1      14.788  -9.931  22.990  1.00  0.00     0.056 C 
HETATM    3  C5  UNL     1      13.991 -10.084  24.283  1.00  0.00     0.275 C 
HETATM    4  N2  UNL     1      13.439 -11.382  24.450  1.00  0.00     0.093 N 
HETATM    5  C12 UNL     1      13.716 -12.284  23.359  1.00  0.00     0.279 C 
HETATM    6  C13 UNL     1      13.250 -11.650  22.063  1.00  0.00     0.033 C 
HETATM    7  C14 UNL     1      11.746 -11.642  22.050  1.00  0.00     0.014 C 
ENDROOT
BRANCH   4   8
HETATM    8  C6  UNL     1      13.653 -11.963  25.740  1.00  0.00     0.223 C 
HETATM    9  C7  UNL     1      13.660 -13.456  25.682  1.00  0.00     0.041 C 
HETATM   10  C8  UNL     1      13.625 -14.028  27.076  1.00  0.00     0.081 C 
HETATM   11  C9  UNL     1      14.599 -13.415  28.013  1.00  0.00     0.243 C 
HETATM   12  F1  UNL     1      15.846 -14.050  27.989  1.00  0.00    -0.206 F 
HETATM   13  F2  UNL     1      14.117 -13.629  29.313  1.00  0.00    -0.206 F 
HETATM   14  C10 UNL     1      14.805 -11.952  27.857  1.00  0.00     0.081 C 
HETATM   15  C11 UNL     1      14.950 -11.537  26.391  1.00  0.00     0.041 C 
ENDBRANCH   4   8
BRANCH   1  16
HETATM   16  N1  UNL     1      14.455 -10.147  20.566  1.00  0.00    -0.356 N 
HETATM   17  C2  UNL     1      14.379  -8.922  19.853  1.00  0.00     0.213 C 
HETATM   18  C1  UNL     1      14.995  -8.741  18.522  1.00  0.00     0.117 C 
HETATM   19  O1  UNL     1      13.774  -7.940  20.352  1.00  0.00    -0.274 OA
ATOM     20  H1  UNL     1      14.947 -10.943  20.160  1.00  0.00     0.162 HD
ENDBRANCH   1  16
TORSDOF 2
ENDMDL
MODEL 3
REMARK VINA RESULT: -7.392205502      2.694      3.168
REMARK  2 active torsions:
REMARK  status: ('A' for Active; 'I' for Inactive)
REMARK       I    between atoms: C2_2  and  N1_4 
REMARK    1  A    between atoms: N1_4  and  C3_6 
REMARK    2  A    between atoms: N2_9  and  C6_10 
ROOT
HETATM    1  C3  UNL     1      13.019  -9.691  21.096  1.00  0.00     0.091 C 
HETATM    2  C4  UNL     1      12.545 -11.071  20.691  1.00  0.00     0.056 C 
HETATM    3  C5  UNL     1      13.674 -12.033  21.054  1.00  0.00     0.275 C 
HETATM    4  N2  UNL     1      14.022 -11.993  22.430  1.00  0.00     0.093 N 
HETATM    5  C12 UNL     1      13.265 -11.038  23.201  1.00  0.00     0.279 C 
HETATM    6  C13 UNL     1      13.396  -9.670  22.560  1.00  0.00     0.033 C 
HETATM    7  C14 UNL     1      14.797  -9.170  22.785  1.00  0.00     0.014 C 
ENDROOT
BRANCH   4   8
HETATM    8  C6  UNL     1      14.134 -13.274  23.057  1.00  0.00     0.223 C 
HETATM    9  C7  UNL     1      13.213 -13.403  24.226  1.00  0.00     0.041 C 
HETATM   10  C8  UNL     1      13.541 -14.647  25.010  1.00  0.00     0.081 C 
HETATM   11  C9  UNL     1      13.703 -15.867  24.181  1.00  0.00     0.243 C 
HETATM   12  F1  UNL     1      12.496 -16.544  23.975  1.00  0.00    -0.206 F 
HETATM   13  F2  UNL     1      14.494 -16.765  24.912  1.00  0.00    -0.206 F 
HETATM   14  C10 UNL     1      14.368 -15.666  22.867  1.00  0.00     0.081 C 
HETATM   15  C11 UNL     1      13.840 -14.432  22.131  1.00  0.00     0.041 C 
ENDBRANCH   4   8
BRANCH   1  16
HETATM   16  N1  UNL     1      12.050  -8.666  20.791  1.00  0.00    -0.356 N 
HETATM   17  C2  UNL     1      12.428  -7.536  20.020  1.00  0.00     0.213 C 
HETATM   18  C1  UNL     1      11.477  -6.458  19.678  1.00  0.00     0.117 C 
HETATM   19  O1  UNL     1      13.608  -7.426  19.599  1.00  0.00    -0.274 OA
ATOM     20  H1  UNL     1      11.093  -8.754  21.130  1.00  0.00     0.162 HD
ENDBRANCH   1  16
TORSDOF 2
ENDMDL
MODEL 4
REMARK VINA RESULT: -7.361802172      2.705      3.288
REMARK  2 active torsions:
REMARK  status: ('A' for Active; 'I' for Inactive)
REMARK       I    between atoms: C2_2  and  N1_4 
REMARK    1  A    between atoms: N1_4  and  C3_6 
REMARK    2  A    between atoms: N2_9  and  C6_10 
ROOT
HETATM    1  C3  UNL     1      12.868 -10.963  19.269  1.00  0.00     0.091 C 
HETATM    2  C4  UNL     1      12.618 -12.456  19.287  1.00  0.00     0.056 C 
HETATM    3  C5  UNL     1      13.782 -13.074  20.057  1.00  0.00     0.275 C 
HETATM    4  N2  UNL     1      13.917 -12.561  21.374  1.00  0.00     0.093 N 
HETATM    5  C12 UNL     1      12.952 -11.543  21.711  1.00  0.00     0.279 C 
HETATM    6  C13 UNL     1      13.020 -10.435  20.678  1.00  0.00     0.033 C 
HETATM    7  C14 UNL     1      14.307  -9.681  20.872  1.00  0.00     0.014 C 
ENDROOT
BRANCH   4   8
HETATM    8  C6  UNL     1      14.079 -13.553  22.391  1.00  0.00     0.223 C 
HETATM    9  C7  UNL     1      13.248 -13.255  23.597  1.00  0.00     0.041 C 
HETATM   10  C8  UNL     1      13.637 -14.165  24.733  1.00  0.00     0.081 C 
HETATM   11  C9  UNL     1      13.740 -15.598  24.360  1.00  0.00     0.243 C 
HETATM   12  F1  UNL     1      12.523 -16.277  24.485  1.00  0.00    -0.206 F 
HETATM   13  F2  UNL     1      14.586 -16.211  25.296  1.00  0.00    -0.206 F 
HETATM   14  C10 UNL     1      14.304 -15.871  23.013  1.00  0.00     0.081 C 
HETATM   15  C11 UNL     1      13.720 -14.951  21.939  1.00  0.00     0.041 C 
ENDBRANCH   4   8
BRANCH   1  16
HETATM   16  N1  UNL     1      11.845 -10.243  18.549  1.00  0.00    -0.356 N 
HETATM   17  C2  UNL     1      12.202  -9.185  17.673  1.00  0.00     0.213 C 
HETATM   18  C1  UNL     1      11.196  -8.416  16.911  1.00  0.00     0.117 C 
HETATM   19  O1  UNL     1      13.410  -8.873  17.521  1.00  0.00    -0.274 OA
ATOM     20  H1  UNL     1      10.865 -10.496  18.670  1.00  0.00     0.162 HD
ENDBRANCH   1  16
TORSDOF 2
ENDMDL
MODEL 5
REMARK VINA RESULT: -7.330071557      1.588      2.402
REMARK  2 active torsions:
REMARK  status: ('A' for Active; 'I' for Inactive)
REMARK       I    between atoms: C2_2  and  N1_4 
REMARK    1  A    between atoms: N1_4  and  C3_6 
REMARK    2  A    between atoms: N2_9  and  C6_10 
ROOT
HETATM    1  C3  UNL     1      12.003 -11.701  20.404  1.00  0.00     0.091 C 
HETATM    2  C4  UNL     1      12.052 -10.652  21.494  1.00  0.00     0.056 C 
HETATM    3  C5  UNL     1      11.605 -11.347  22.777  1.00  0.00     0.275 C 
HETATM    4  N2  UNL     1      12.406 -12.471  23.112  1.00  0.00     0.093 N 
HETATM    5  C12 UNL     1      13.457 -12.748  22.164  1.00  0.00     0.279 C 
HETATM    6  C13 UNL     1      12.851 -12.895  20.782  1.00  0.00     0.033 C 
HETATM    7  C14 UNL     1      12.080 -14.186  20.734  1.00  0.00     0.014 C 
ENDROOT
BRANCH   4   8
HETATM    8  C6  UNL     1      12.838 -12.515  24.474  1.00  0.00     0.223 C 
HETATM    9  C7  UNL     1      13.499 -13.814  24.806  1.00  0.00     0.041 C 
HETATM   10  C8  UNL     1      13.704 -13.926  26.295  1.00  0.00     0.081 C 
HETATM   11  C9  UNL     1      14.301 -12.720  26.922  1.00  0.00     0.243 C 
HETATM   12  F1  UNL     1      15.700 -12.748  26.920  1.00  0.00    -0.206 F 
HETATM   13  F2  UNL     1      13.948 -12.739  28.279  1.00  0.00    -0.206 F 
HETATM   14  C10 UNL     1      13.847 -11.418  26.369  1.00  0.00     0.081 C 
HETATM   15  C11 UNL     1      13.811 -11.416  24.839  1.00  0.00     0.041 C 
ENDBRANCH   4   8
BRANCH   1  16
HETATM   16  N1  UNL     1      12.386 -11.175  19.117  1.00  0.00    -0.356 N 
HETATM   17  C2  UNL     1      11.750 -10.012  18.605  1.00  0.00     0.213 C 
HETATM   18  C1  UNL     1      12.103  -9.431  17.294  1.00  0.00     0.117 C 
HETATM   19  O1  UNL     1      10.854  -9.439  19.274  1.00  0.00    -0.274 OA
ATOM     20  H1  UNL     1      13.113 -11.638  18.573  1.00  0.00     0.162 HD
ENDBRANCH   1  16
TORSDOF 2
ENDMDL
