MODEL 1
REMARK VINA RESULT: -8.873897420      0.000      0.000
REMARK  6 active torsions:
REMARK  status: ('A' for Active; 'I' for Inactive)
REMARK    1  A    between atoms: O1_2  and  C2_3 
REMARK    2  A    between atoms: C6_7  and  C7_8 
REMARK    3  A    between atoms: C7_8  and  O2_9 
REMARK    4  A    between atoms: C7_8  and  N1_11 
REMARK    5  A    between atoms: N1_11  and  C8_13 
REMARK    6  A    between atoms: C15_23  and  C16_24 
ROOT
HETATM    1  C2  UNL     1      -8.342  -7.718 -14.106  1.00  0.00     0.080 A 
HETATM    2  C3  UNL     1      -9.006  -8.937 -14.055  1.00  0.00     0.037 A 
HETATM    3  C4  UNL     1      -9.033  -9.818 -15.117  1.00  0.00     0.003 A 
HETATM    4  C5  UNL     1      -8.363  -9.441 -16.263  1.00  0.00     0.012 A 
HETATM    5  C6  UNL     1      -7.696  -8.224 -16.324  1.00  0.00     0.004 A 
HETATM    6  C15 UNL     1      -7.675  -7.353 -15.255  1.00  0.00     0.021 A 
ENDROOT
BRANCH   5   7
HETATM    7  C7  UNL     1      -6.980  -7.834 -17.566  1.00  0.00     0.256 C 
BRANCH   7   8
HETATM    8  O2  UNL     1      -5.814  -8.635 -17.605  1.00  0.00    -0.372 OA
ATOM      9  H2  UNL     1      -6.079  -9.457 -18.001  1.00  0.00     0.212 HD
ENDBRANCH   7   8
BRANCH   7  10
HETATM   10  N1  UNL     1      -7.793  -8.229 -18.684  1.00  0.00    -0.325 N 
ATOM     11  H1  UNL     1      -8.735  -7.840 -18.742  1.00  0.00     0.166 HD
BRANCH  10  12
HETATM   12  C8  UNL     1      -7.428  -9.026 -19.606  1.00  0.00     0.227 A 
HETATM   13  N2  UNL     1      -6.897  -8.749 -20.817  1.00  0.00    -0.320 N 
HETATM   14  C9  UNL     1      -6.657  -9.913 -21.484  1.00  0.00     0.069 A 
ATOM     15  H2  UNL     1      -6.706  -7.813 -21.176  1.00  0.00     0.169 HD
HETATM   16  C10 UNL     1      -6.136 -10.194 -22.722  1.00  0.00     0.032 A 
HETATM   17  C14 UNL     1      -7.073 -10.897 -20.608  1.00  0.00     0.106 A 
HETATM   18  C11 UNL     1      -6.041 -11.540 -23.067  1.00  0.00     0.002 A 
HETATM   19  C12 UNL     1      -6.450 -12.540 -22.211  1.00  0.00     0.003 A 
HETATM   20  C13 UNL     1      -6.972 -12.226 -20.964  1.00  0.00     0.040 A 
HETATM   21  O3  UNL     1      -7.516 -10.332 -19.524  1.00  0.00    -0.277 OA
ENDBRANCH  10  12
ENDBRANCH   7  10
ENDBRANCH   5   7
BRANCH   6  22
HETATM   22  C16 UNL     1      -6.958  -6.092 -15.385  1.00  0.00     0.016 A 
HETATM   23  C17 UNL     1      -5.598  -6.114 -15.152  1.00  0.00     0.018 A 
HETATM   24  C18 UNL     1      -4.857  -4.959 -15.255  1.00  0.00     0.043 A 
HETATM   25  C19 UNL     1      -5.480  -3.775 -15.595  1.00  0.00     0.119 A 
HETATM   26  F1  UNL     1      -4.748  -2.622 -15.701  1.00  0.00    -0.206 F 
HETATM   27  C20 UNL     1      -6.839  -3.760 -15.827  1.00  0.00     0.085 A 
HETATM   28  C21 UNL     1      -7.593  -4.906 -15.727  1.00  0.00     0.130 A 
HETATM   29  F2  UNL     1      -8.917  -4.955 -15.940  1.00  0.00    -0.205 F 
ENDBRANCH   6  22
BRANCH   1  30
HETATM   30  O1  UNL     1      -8.317  -6.839 -13.037  1.00  0.00    -0.355 OA
HETATM   31  C1  UNL     1      -9.531  -6.168 -12.714  1.00  0.00     0.210 C 
ENDBRANCH   1  30
TORSDOF 6
ENDMDL
MODEL 2
REMARK VINA RESULT: -8.565859749      0.929      1.294
REMARK  6 active torsions:
REMARK  status: ('A' for Active; 'I' for Inactive)
REMARK    1  A    between atoms: O1_2  and  C2_3 
REMARK    2  A    between atoms: C6_7  and  C7_8 
REMARK    3  A    between atoms: C7_8  and  O2_9 
REMARK    4  A    between atoms: C7_8  and  N1_11 
REMARK    5  A    between atoms: N1_11  and  C8_13 
REMARK    6  A    between atoms: C15_23  and  C16_24 
ROOT
HETATM    1  C2  UNL     1      -8.137  -7.642 -14.203  1.00  0.00     0.080 A 
HETATM    2  C3  UNL     1      -8.824  -8.844 -14.097  1.00  0.00     0.037 A 
HETATM    3  C4  UNL     1      -8.934  -9.735 -15.144  1.00  0.00     0.003 A 
HETATM    4  C5  UNL     1      -8.324  -9.387 -16.332  1.00  0.00     0.012 A 
HETATM    5  C6  UNL     1      -7.634  -8.187 -16.448  1.00  0.00     0.004 A 
HETATM    6  C15 UNL     1      -7.532  -7.305 -15.394  1.00  0.00     0.021 A 
ENDROOT
BRANCH   5   7
HETATM    7  C7  UNL     1      -6.985  -7.828 -17.735  1.00  0.00     0.256 C 
BRANCH   7   8
HETATM    8  O2  UNL     1      -5.780  -8.569 -17.777  1.00  0.00    -0.372 OA
ATOM      9  H2  UNL     1      -5.089  -7.950 -17.574  1.00  0.00     0.212 HD
ENDBRANCH   7   8
BRANCH   7  10
HETATM   10  N1  UNL     1      -7.815  -8.322 -18.799  1.00  0.00    -0.325 N 
ATOM     11  H1  UNL     1      -8.787  -8.013 -18.821  1.00  0.00     0.166 HD
BRANCH  10  12
HETATM   12  C8  UNL     1      -7.430  -9.116 -19.716  1.00  0.00     0.227 A 
HETATM   13  N2  UNL     1      -6.881  -8.834 -20.918  1.00  0.00    -0.320 N 
HETATM   14  C9  UNL     1      -6.622  -9.996 -21.582  1.00  0.00     0.069 A 
ATOM     15  H2  UNL     1      -6.691  -7.897 -21.273  1.00  0.00     0.169 HD
HETATM   16  C10 UNL     1      -6.080 -10.271 -22.812  1.00  0.00     0.032 A 
HETATM   17  C14 UNL     1      -7.046 -10.983 -20.714  1.00  0.00     0.106 A 
HETATM   18  C11 UNL     1      -5.970 -11.617 -23.157  1.00  0.00     0.002 A 
HETATM   19  C12 UNL     1      -6.386 -12.621 -22.309  1.00  0.00     0.003 A 
HETATM   20  C13 UNL     1      -6.931 -12.311 -21.070  1.00  0.00     0.040 A 
HETATM   21  O3  UNL     1      -7.511 -10.423 -19.637  1.00  0.00    -0.277 OA
ENDBRANCH  10  12
ENDBRANCH   7  10
ENDBRANCH   5   7
BRANCH   6  22
HETATM   22  C16 UNL     1      -6.795  -6.062 -15.581  1.00  0.00     0.016 A 
HETATM   23  C17 UNL     1      -7.532  -4.924 -15.836  1.00  0.00     0.018 A 
HETATM   24  C18 UNL     1      -6.902  -3.716 -16.024  1.00  0.00     0.043 A 
HETATM   25  C19 UNL     1      -5.525  -3.645 -15.956  1.00  0.00     0.119 A 
HETATM   26  F1  UNL     1      -4.891  -2.445 -16.142  1.00  0.00    -0.206 F 
HETATM   27  C20 UNL     1      -4.794  -4.786 -15.702  1.00  0.00     0.085 A 
HETATM   28  C21 UNL     1      -5.410  -6.001 -15.512  1.00  0.00     0.130 A 
HETATM   29  F2  UNL     1      -4.754  -7.145 -15.261  1.00  0.00    -0.205 F 
ENDBRANCH   6  22
BRANCH   1  30
HETATM   30  O1  UNL     1      -8.030  -6.751 -13.148  1.00  0.00    -0.355 OA
HETATM   31  C1  UNL     1      -9.219  -6.091 -12.725  1.00  0.00     0.210 C 
ENDBRANCH   1  30
TORSDOF 6
ENDMDL
MODEL 3
REMARK VINA RESULT: -8.526229187      1.924      3.630
REMARK  6 active torsions:
REMARK  status: ('A' for Active; 'I' for Inactive)
REMARK    1  A    between atoms: O1_2  and  C2_3 
REMARK    2  A    between atoms: C6_7  and  C7_8 
REMARK    3  A    between atoms: C7_8  and  O2_9 
REMARK    4  A    between atoms: C7_8  and  N1_11 
REMARK    5  A    between atoms: N1_11  and  C8_13 
REMARK    6  A    between atoms: C15_23  and  C16_24 
ROOT
HETATM    1  C2  UNL     1      -4.933  -5.163 -16.271  1.00  0.00     0.080 A 
HETATM    2  C3  UNL     1      -3.927  -5.161 -17.228  1.00  0.00     0.037 A 
HETATM    3  C4  UNL     1      -3.977  -5.938 -18.366  1.00  0.00     0.003 A 
HETATM    4  C5  UNL     1      -5.088  -6.741 -18.531  1.00  0.00     0.012 A 
HETATM    5  C6  UNL     1      -6.100  -6.750 -17.579  1.00  0.00     0.004 A 
HETATM    6  C15 UNL     1      -6.038  -5.968 -16.446  1.00  0.00     0.021 A 
ENDROOT
BRANCH   5   7
HETATM    7  C7  UNL     1      -7.288  -7.621 -17.772  1.00  0.00     0.256 C 
BRANCH   7   8
HETATM    8  O2  UNL     1      -7.676  -7.449 -19.122  1.00  0.00    -0.372 OA
ATOM      9  H2  UNL     1      -7.847  -6.520 -19.225  1.00  0.00     0.212 HD
ENDBRANCH   7   8
BRANCH   7  10
HETATM   10  N1  UNL     1      -6.860  -8.986 -17.633  1.00  0.00    -0.325 N 
ATOM     11  H1  UNL     1      -6.417  -9.253 -16.754  1.00  0.00     0.166 HD
BRANCH  10  12
HETATM   12  C8  UNL     1      -6.991  -9.886 -18.523  1.00  0.00     0.227 A 
HETATM   13  N2  UNL     1      -6.141 -10.245 -19.510  1.00  0.00    -0.320 N 
HETATM   14  C9  UNL     1      -6.690 -11.261 -20.233  1.00  0.00     0.069 A 
ATOM     15  H2  UNL     1      -5.230  -9.821 -19.686  1.00  0.00     0.169 HD
HETATM   16  C10 UNL     1      -6.257 -11.978 -21.320  1.00  0.00     0.032 A 
HETATM   17  C14 UNL     1      -7.910 -11.488 -19.627  1.00  0.00     0.106 A 
HETATM   18  C11 UNL     1      -7.115 -12.967 -21.797  1.00  0.00     0.002 A 
HETATM   19  C12 UNL     1      -8.338 -13.212 -21.209  1.00  0.00     0.003 A 
HETATM   20  C13 UNL     1      -8.750 -12.470 -20.111  1.00  0.00     0.040 A 
HETATM   21  O3  UNL     1      -8.043 -10.661 -18.632  1.00  0.00    -0.277 OA
ENDBRANCH  10  12
ENDBRANCH   7  10
ENDBRANCH   5   7
BRANCH   6  22
HETATM   22  C16 UNL     1      -7.133  -6.025 -15.487  1.00  0.00     0.016 A 
HETATM   23  C17 UNL     1      -7.106  -7.046 -14.559  1.00  0.00     0.018 A 
HETATM   24  C18 UNL     1      -8.109  -7.161 -13.624  1.00  0.00     0.043 A 
HETATM   25  C19 UNL     1      -9.144  -6.249 -13.616  1.00  0.00     0.119 A 
HETATM   26  F1  UNL     1     -10.145  -6.358 -12.687  1.00  0.00    -0.206 F 
HETATM   27  C20 UNL     1      -9.166  -5.231 -14.546  1.00  0.00     0.085 A 
HETATM   28  C21 UNL     1      -8.171  -5.103 -15.487  1.00  0.00     0.130 A 
HETATM   29  F2  UNL     1      -8.136  -4.136 -16.417  1.00  0.00    -0.205 F 
ENDBRANCH   6  22
BRANCH   1  30
HETATM   30  O1  UNL     1      -4.878  -4.380 -15.130  1.00  0.00    -0.355 OA
HETATM   31  C1  UNL     1      -5.086  -2.979 -15.287  1.00  0.00     0.210 C 
ENDBRANCH   1  30
TORSDOF 6
ENDMDL
MODEL 4
REMARK VINA RESULT: -8.498969984      4.438      8.888
REMARK  6 active torsions:
REMARK  status: ('A' for Active; 'I' for Inactive)
REMARK    1  A    between atoms: O1_2  and  C2_3 
REMARK    2  A    between atoms: C6_7  and  C7_8 
REMARK    3  A    between atoms: C7_8  and  O2_9 
REMARK    4  A    between atoms: C7_8  and  N1_11 
REMARK    5  A    between atoms: N1_11  and  C8_13 
REMARK    6  A    between atoms: C15_23  and  C16_24 
ROOT
HETATM    1  C2  UNL     1      -6.319  -5.971 -18.403  1.00  0.00     0.080 A 
HETATM    2  C3  UNL     1      -5.477  -5.686 -19.471  1.00  0.00     0.037 A 
HETATM    3  C4  UNL     1      -4.631  -4.596 -19.484  1.00  0.00     0.003 A 
HETATM    4  C5  UNL     1      -4.646  -3.776 -18.375  1.00  0.00     0.012 A 
HETATM    5  C6  UNL     1      -5.484  -4.052 -17.302  1.00  0.00     0.004 A 
HETATM    6  C15 UNL     1      -6.325  -5.145 -17.301  1.00  0.00     0.021 A 
ENDROOT
BRANCH   5   7
HETATM    7  C7  UNL     1      -5.488  -3.157 -16.116  1.00  0.00     0.256 C 
BRANCH   7   8
HETATM    8  O2  UNL     1      -4.463  -3.640 -15.267  1.00  0.00    -0.372 OA
ATOM      9  H2  UNL     1      -4.298  -2.945 -14.641  1.00  0.00     0.212 HD
ENDBRANCH   7   8
BRANCH   7  10
HETATM   10  N1  UNL     1      -5.084  -1.849 -16.552  1.00  0.00    -0.325 N 
ATOM     11  H1  UNL     1      -5.472  -1.504 -17.431  1.00  0.00     0.166 HD
BRANCH  10  12
HETATM   12  C8  UNL     1      -4.280  -1.087 -15.926  1.00  0.00     0.227 A 
HETATM   13  N2  UNL     1      -4.497  -0.331 -14.827  1.00  0.00    -0.320 N 
HETATM   14  C9  UNL     1      -3.351   0.329 -14.497  1.00  0.00     0.069 A 
ATOM     15  H2  UNL     1      -5.382  -0.264 -14.324  1.00  0.00     0.169 HD
HETATM   16  C10 UNL     1      -3.031   1.207 -13.492  1.00  0.00     0.032 A 
HETATM   17  C14 UNL     1      -2.441  -0.073 -15.456  1.00  0.00     0.106 A 
HETATM   18  C11 UNL     1      -1.722   1.685 -13.476  1.00  0.00     0.002 A 
HETATM   19  C12 UNL     1      -0.796   1.300 -14.422  1.00  0.00     0.003 A 
HETATM   20  C13 UNL     1      -1.149   0.411 -15.427  1.00  0.00     0.040 A 
HETATM   21  O3  UNL     1      -3.028  -0.900 -16.270  1.00  0.00    -0.277 OA
ENDBRANCH  10  12
ENDBRANCH   7  10
ENDBRANCH   5   7
BRANCH   6  22
HETATM   22  C16 UNL     1      -7.179  -5.378 -16.144  1.00  0.00     0.016 A 
HETATM   23  C17 UNL     1      -8.342  -4.639 -16.059  1.00  0.00     0.018 A 
HETATM   24  C18 UNL     1      -9.195  -4.807 -14.994  1.00  0.00     0.043 A 
HETATM   25  C19 UNL     1      -8.885  -5.720 -14.007  1.00  0.00     0.119 A 
HETATM   26  F1  UNL     1      -9.731  -5.893 -12.943  1.00  0.00    -0.206 F 
HETATM   27  C20 UNL     1      -7.722  -6.456 -14.097  1.00  0.00     0.085 A 
HETATM   28  C21 UNL     1      -6.858  -6.299 -15.155  1.00  0.00     0.130 A 
HETATM   29  F2  UNL     1      -5.713  -6.983 -15.300  1.00  0.00    -0.205 F 
ENDBRANCH   6  22
BRANCH   1  30
HETATM   30  O1  UNL     1      -7.166  -7.066 -18.395  1.00  0.00    -0.355 OA
HETATM   31  C1  UNL     1      -7.003  -8.027 -19.435  1.00  0.00     0.210 C 
ENDBRANCH   1  30
TORSDOF 6
ENDMDL
MODEL 5
REMARK VINA RESULT: -8.464960881      2.986      5.248
REMARK  6 active torsions:
REMARK  status: ('A' for Active; 'I' for Inactive)
REMARK    1  A    between atoms: O1_2  and  C2_3 
REMARK    2  A    between atoms: C6_7  and  C7_8 
REMARK    3  A    between atoms: C7_8  and  O2_9 
REMARK    4  A    between atoms: C7_8  and  N1_11 
REMARK    5  A    between atoms: N1_11  and  C8_13 
REMARK    6  A    between atoms: C15_23  and  C16_24 
ROOT
HETATM    1  C2  UNL     1      -4.689  -3.431 -16.906  1.00  0.00     0.080 A 
HETATM    2  C3  UNL     1      -3.763  -3.182 -17.911  1.00  0.00     0.037 A 
HETATM    3  C4  UNL     1      -3.755  -3.869 -19.106  1.00  0.00     0.003 A 
HETATM    4  C5  UNL     1      -4.721  -4.841 -19.279  1.00  0.00     0.012 A 
HETATM    5  C6  UNL     1      -5.651  -5.098 -18.280  1.00  0.00     0.004 A 
HETATM    6  C15 UNL     1      -5.648  -4.403 -17.090  1.00  0.00     0.021 A 
ENDROOT
BRANCH   5   7
HETATM    7  C7  UNL     1      -6.683  -6.148 -18.483  1.00  0.00     0.256 C 
BRANCH   7   8
HETATM    8  O2  UNL     1      -6.525  -6.588 -19.818  1.00  0.00    -0.372 OA
ATOM      9  H2  UNL     1      -7.182  -7.263 -19.947  1.00  0.00     0.212 HD
ENDBRANCH   7   8
BRANCH   7  10
HETATM   10  N1  UNL     1      -6.350  -7.260 -17.636  1.00  0.00    -0.325 N 
ATOM     11  H1  UNL     1      -5.402  -7.299 -17.260  1.00  0.00     0.166 HD
BRANCH  10  12
HETATM   12  C8  UNL     1      -7.147  -8.200 -17.319  1.00  0.00     0.227 A 
HETATM   13  N2  UNL     1      -7.478  -9.312 -18.012  1.00  0.00    -0.320 N 
HETATM   14  C9  UNL     1      -8.372 -10.046 -17.291  1.00  0.00     0.069 A 
ATOM     15  H2  UNL     1      -7.115  -9.563 -18.932  1.00  0.00     0.169 HD
HETATM   16  C10 UNL     1      -9.016 -11.235 -17.527  1.00  0.00     0.032 A 
HETATM   17  C14 UNL     1      -8.557  -9.314 -16.135  1.00  0.00     0.106 A 
HETATM   18  C11 UNL     1      -9.881 -11.683 -16.532  1.00  0.00     0.002 A 
HETATM   19  C12 UNL     1     -10.083 -10.970 -15.369  1.00  0.00     0.003 A 
HETATM   20  C13 UNL     1      -9.418  -9.770 -15.158  1.00  0.00     0.040 A 
HETATM   21  O3  UNL     1      -7.821  -8.243 -16.195  1.00  0.00    -0.277 OA
ENDBRANCH  10  12
ENDBRANCH   7  10
ENDBRANCH   5   7
BRANCH   6  22
HETATM   22  C16 UNL     1      -6.651  -4.723 -16.083  1.00  0.00     0.016 A 
HETATM   23  C17 UNL     1      -7.937  -4.276 -16.309  1.00  0.00     0.018 A 
HETATM   24  C18 UNL     1      -8.934  -4.541 -15.399  1.00  0.00     0.043 A 
HETATM   25  C19 UNL     1      -8.645  -5.258 -14.256  1.00  0.00     0.119 A 
HETATM   26  F1  UNL     1      -9.634  -5.526 -13.346  1.00  0.00    -0.206 F 
HETATM   27  C20 UNL     1      -7.358  -5.701 -14.035  1.00  0.00     0.085 A 
HETATM   28  C21 UNL     1      -6.350  -5.444 -14.935  1.00  0.00     0.130 A 
HETATM   29  F2  UNL     1      -5.080  -5.848 -14.777  1.00  0.00    -0.205 F 
ENDBRANCH   6  22
BRANCH   1  30
HETATM   30  O1  UNL     1      -4.692  -2.737 -15.708  1.00  0.00    -0.355 OA
HETATM   31  C1  UNL     1      -4.303  -1.368 -15.744  1.00  0.00     0.210 C 
ENDBRANCH   1  30
TORSDOF 6
ENDMDL
