MODEL 1
REMARK VINA RESULT: -8.322015960      0.000      0.000
REMARK  6 active torsions:
REMARK  status: ('A' for Active; 'I' for Inactive)
REMARK    1  A    between atoms: C2_2  and  C3_3 
REMARK    2  A    between atoms: C3_3  and  C4_4 
REMARK    3  A    between atoms: C5_7  and  N2_8 
REMARK    4  A    between atoms: N2_8  and  C6_10 
REMARK    5  A    between atoms: C6_10  and  C7_11 
REMARK    6  A    between atoms: C17_25  and  C18_26 
ROOT
HETATM    1  N2  UNL     1      -8.548  -7.869 -16.080  1.00  0.00    -0.372 N 
ATOM      2  H2  UNL     1      -9.010  -7.614 -16.953  1.00  0.00     0.161 HD
ENDROOT
BRANCH   1   3
HETATM    3  C5  UNL     1      -7.959  -6.934 -15.480  1.00  0.00     0.104 A 
HETATM    4  N1  UNL     1      -7.379  -5.966 -16.262  1.00  0.00    -0.332 N 
HETATM    5  C4  UNL     1      -6.727  -4.921 -15.786  1.00  0.00     0.083 A 
ATOM      6  H1  UNL     1      -7.456  -6.060 -17.275  1.00  0.00     0.168 HD
HETATM    7  N5  UNL     1      -6.638  -4.832 -14.416  1.00  0.00    -0.342 N 
HETATM    8  C17 UNL     1      -7.174  -5.733 -13.604  1.00  0.00     0.121 A 
ATOM      9  H5  UNL     1      -6.138  -4.042 -14.009  1.00  0.00     0.167 HD
HETATM   10  C16 UNL     1      -7.852  -6.806 -14.121  1.00  0.00     0.082 A 
BRANCH   5  11
HETATM   11  C3  UNL     1      -6.218  -3.802 -16.574  1.00  0.00     0.076 C 
BRANCH  11  12
HETATM   12  C2  UNL     1      -4.769  -3.664 -16.820  1.00  0.00     0.003 C 
HETATM   13  C1  UNL     1      -4.078  -4.731 -17.596  1.00  0.00     0.005 C 
ENDBRANCH  11  12
ENDBRANCH   5  11
BRANCH   8  14
HETATM   14  C18 UNL     1      -7.018  -5.588 -12.124  1.00  0.00     0.432 C 
HETATM   15  F1  UNL     1      -7.912  -4.675 -11.574  1.00  0.00    -0.165 F 
HETATM   16  F2  UNL     1      -7.278  -6.784 -11.530  1.00  0.00    -0.165 F 
HETATM   17  F3  UNL     1      -5.752  -5.112 -11.902  1.00  0.00    -0.165 F 
ENDBRANCH   8  14
ENDBRANCH   1   3
BRANCH   1  18
HETATM   18  C6  UNL     1      -8.655  -9.270 -15.690  1.00  0.00     0.162 C 
BRANCH  18  19
HETATM   19  C7  UNL     1      -8.529 -10.038 -16.964  1.00  0.00    -0.016 A 
HETATM   20  C8  UNL     1      -7.499  -9.795 -17.833  1.00  0.00     0.042 A 
HETATM   21  C9  UNL     1      -7.426 -10.593 -18.979  1.00  0.00     0.060 A 
HETATM   22  N3  UNL     1      -6.572 -10.624 -20.028  1.00  0.00    -0.363 N 
HETATM   23  C13 UNL     1      -8.391 -11.562 -19.157  1.00  0.00     0.066 A 
HETATM   24  C10 UNL     1      -6.980 -11.599 -20.895  1.00  0.00     0.097 A 
ATOM     25  H3  UNL     1      -5.760 -10.020 -20.151  1.00  0.00     0.165 HD
HETATM   26  C11 UNL     1      -8.098 -12.177 -20.366  1.00  0.00    -0.018 A 
HETATM   27  C12 UNL     1      -9.006 -13.233 -20.959  1.00  0.00     0.052 C 
HETATM   28  N4  UNL     1      -9.387 -11.778 -18.279  1.00  0.00    -0.357 N 
HETATM   29  C14 UNL     1      -9.469 -11.027 -17.186  1.00  0.00     0.013 A 
ATOM     30  H4  UNL     1     -10.074 -12.511 -18.452  1.00  0.00     0.166 HD
HETATM   31  C15 UNL     1     -10.562 -11.143 -16.194  1.00  0.00     0.068 C 
ENDBRANCH  18  19
ENDBRANCH   1  18
TORSDOF 6
ENDMDL
MODEL 2
REMARK VINA RESULT: -8.272955841      2.531      5.903
REMARK  6 active torsions:
REMARK  status: ('A' for Active; 'I' for Inactive)
REMARK    1  A    between atoms: C2_2  and  C3_3 
REMARK    2  A    between atoms: C3_3  and  C4_4 
REMARK    3  A    between atoms: C5_7  and  N2_8 
REMARK    4  A    between atoms: N2_8  and  C6_10 
REMARK    5  A    between atoms: C6_10  and  C7_11 
REMARK    6  A    between atoms: C17_25  and  C18_26 
ROOT
HETATM    1  N2  UNL     1      -7.297  -5.417 -16.866  1.00  0.00    -0.372 N 
ATOM      2  H2  UNL     1      -7.220  -4.402 -16.799  1.00  0.00     0.161 HD
ENDROOT
BRANCH   1   3
HETATM    3  C5  UNL     1      -7.535  -6.020 -15.790  1.00  0.00     0.104 A 
HETATM    4  N1  UNL     1      -8.163  -7.237 -15.889  1.00  0.00    -0.332 N 
HETATM    5  C4  UNL     1      -8.481  -7.994 -14.854  1.00  0.00     0.083 A 
ATOM      6  H1  UNL     1      -8.399  -7.579 -16.821  1.00  0.00     0.168 HD
HETATM    7  N5  UNL     1      -8.154  -7.497 -13.614  1.00  0.00    -0.342 N 
HETATM    8  C17 UNL     1      -7.549  -6.328 -13.448  1.00  0.00     0.121 A 
ATOM      9  H5  UNL     1      -8.387  -8.049 -12.789  1.00  0.00     0.167 HD
HETATM   10  C16 UNL     1      -7.223  -5.564 -14.538  1.00  0.00     0.082 A 
BRANCH   5  11
HETATM   11  C3  UNL     1      -9.020  -9.349 -14.922  1.00  0.00     0.076 C 
BRANCH  11  12
HETATM   12  C2  UNL     1      -9.106 -10.051 -16.217  1.00  0.00     0.003 C 
HETATM   13  C1  UNL     1     -10.442 -10.519 -16.682  1.00  0.00     0.005 C 
ENDBRANCH  11  12
ENDBRANCH   5  11
BRANCH   8  14
HETATM   14  C18 UNL     1      -7.243  -5.837 -12.069  1.00  0.00     0.432 C 
HETATM   15  F1  UNL     1      -8.146  -4.875 -11.627  1.00  0.00    -0.165 F 
HETATM   16  F2  UNL     1      -7.332  -6.876 -11.196  1.00  0.00    -0.165 F 
HETATM   17  F3  UNL     1      -6.006  -5.250 -12.121  1.00  0.00    -0.165 F 
ENDBRANCH   8  14
ENDBRANCH   1   3
BRANCH   1  18
HETATM   18  C6  UNL     1      -7.117  -5.981 -18.200  1.00  0.00     0.162 C 
BRANCH  18  19
HETATM   19  C7  UNL     1      -5.659  -5.840 -18.486  1.00  0.00    -0.016 A 
HETATM   20  C8  UNL     1      -4.957  -4.750 -18.046  1.00  0.00     0.042 A 
HETATM   21  C9  UNL     1      -3.585  -4.721 -18.313  1.00  0.00     0.060 A 
HETATM   22  N3  UNL     1      -2.611  -3.821 -18.042  1.00  0.00    -0.363 N 
HETATM   23  C13 UNL     1      -3.034  -5.783 -19.000  1.00  0.00     0.066 A 
HETATM   24  C10 UNL     1      -1.432  -4.283 -18.557  1.00  0.00     0.097 A 
ATOM     25  H3  UNL     1      -2.736  -2.944 -17.537  1.00  0.00     0.165 HD
HETATM   26  C11 UNL     1      -1.687  -5.487 -19.149  1.00  0.00    -0.018 A 
HETATM   27  C12 UNL     1      -0.764  -6.377 -19.953  1.00  0.00     0.052 C 
HETATM   28  N4  UNL     1      -3.753  -6.842 -19.414  1.00  0.00    -0.357 N 
HETATM   29  C14 UNL     1      -5.059  -6.883 -19.167  1.00  0.00     0.013 A 
ATOM     30  H4  UNL     1      -3.300  -7.607 -19.914  1.00  0.00     0.166 HD
HETATM   31  C15 UNL     1      -5.945  -7.972 -19.636  1.00  0.00     0.068 C 
ENDBRANCH  18  19
ENDBRANCH   1  18
TORSDOF 6
ENDMDL
MODEL 3
REMARK VINA RESULT: -8.251812524      4.385      8.351
REMARK  6 active torsions:
REMARK  status: ('A' for Active; 'I' for Inactive)
REMARK    1  A    between atoms: C2_2  and  C3_3 
REMARK    2  A    between atoms: C3_3  and  C4_4 
REMARK    3  A    between atoms: C5_7  and  N2_8 
REMARK    4  A    between atoms: N2_8  and  C6_10 
REMARK    5  A    between atoms: C6_10  and  C7_11 
REMARK    6  A    between atoms: C17_25  and  C18_26 
ROOT
HETATM    1  N2  UNL     1      -6.322  -9.031 -18.783  1.00  0.00    -0.372 N 
ATOM      2  H2  UNL     1      -5.518  -9.265 -18.201  1.00  0.00     0.161 HD
ENDROOT
BRANCH   1   3
HETATM    3  C5  UNL     1      -7.225  -9.903 -18.844  1.00  0.00     0.104 A 
HETATM    4  N1  UNL     1      -8.247  -9.799 -17.933  1.00  0.00    -0.332 N 
HETATM    5  C4  UNL     1      -9.269 -10.633 -17.868  1.00  0.00     0.083 A 
ATOM      6  H1  UNL     1      -8.215  -9.029 -17.264  1.00  0.00     0.168 HD
HETATM    7  N5  UNL     1      -9.274 -11.662 -18.780  1.00  0.00    -0.342 N 
HETATM    8  C17 UNL     1      -8.318 -11.820 -19.685  1.00  0.00     0.121 A 
ATOM      9  H5  UNL     1     -10.044 -12.330 -18.759  1.00  0.00     0.167 HD
HETATM   10  C16 UNL     1      -7.270 -10.938 -19.738  1.00  0.00     0.082 A 
BRANCH   5  11
HETATM   11  C3  UNL     1     -10.441 -10.479 -17.010  1.00  0.00     0.076 C 
BRANCH  11  12
HETATM   12  C2  UNL     1     -10.333 -10.700 -15.555  1.00  0.00     0.003 C 
HETATM   13  C1  UNL     1      -9.576  -9.706 -14.743  1.00  0.00     0.005 C 
ENDBRANCH  11  12
ENDBRANCH   5  11
BRANCH   8  14
HETATM   14  C18 UNL     1      -8.373 -12.976 -20.633  1.00  0.00     0.432 C 
HETATM   15  F1  UNL     1      -7.595 -14.052 -20.217  1.00  0.00    -0.165 F 
HETATM   16  F2  UNL     1      -9.653 -13.432 -20.704  1.00  0.00    -0.165 F 
HETATM   17  F3  UNL     1      -7.865 -12.535 -21.827  1.00  0.00    -0.165 F 
ENDBRANCH   8  14
ENDBRANCH   1   3
BRANCH   1  18
HETATM   18  C6  UNL     1      -6.275  -7.727 -19.436  1.00  0.00     0.162 C 
BRANCH  18  19
HETATM   19  C7  UNL     1      -6.082  -6.746 -18.328  1.00  0.00    -0.016 A 
HETATM   20  C8  UNL     1      -6.421  -7.063 -17.040  1.00  0.00     0.042 A 
HETATM   21  C9  UNL     1      -6.160  -6.105 -16.054  1.00  0.00     0.060 A 
HETATM   22  N3  UNL     1      -6.368  -6.077 -14.718  1.00  0.00    -0.363 N 
HETATM   23  C13 UNL     1      -5.586  -4.913 -16.443  1.00  0.00     0.066 A 
HETATM   24  C10 UNL     1      -5.944  -4.871 -14.234  1.00  0.00     0.097 A 
ATOM     25  H3  UNL     1      -6.774  -6.831 -14.163  1.00  0.00     0.165 HD
HETATM   26  C11 UNL     1      -5.464  -4.151 -15.290  1.00  0.00    -0.018 A 
HETATM   27  C12 UNL     1      -4.969  -2.722 -15.333  1.00  0.00     0.052 C 
HETATM   28  N4  UNL     1      -5.260  -4.636 -17.719  1.00  0.00    -0.357 N 
HETATM   29  C14 UNL     1      -5.502  -5.537 -18.666  1.00  0.00     0.013 A 
ATOM     30  H4  UNL     1      -4.832  -3.742 -17.957  1.00  0.00     0.166 HD
HETATM   31  C15 UNL     1      -5.240  -5.302 -20.104  1.00  0.00     0.068 C 
ENDBRANCH  18  19
ENDBRANCH   1  18
TORSDOF 6
ENDMDL
MODEL 4
REMARK VINA RESULT: -8.204949540      2.926      7.783
REMARK  6 active torsions:
REMARK  status: ('A' for Active; 'I' for Inactive)
REMARK    1  A    between atoms: C2_2  and  C3_3 
REMARK    2  A    between atoms: C3_3  and  C4_4 
REMARK    3  A    between atoms: C5_7  and  N2_8 
REMARK    4  A    between atoms: N2_8  and  C6_10 
REMARK    5  A    between atoms: C6_10  and  C7_11 
REMARK    6  A    between atoms: C17_25  and  C18_26 
ROOT
HETATM    1  N2  UNL     1      -6.192  -9.390 -19.128  1.00  0.00    -0.372 N 
ATOM      2  H2  UNL     1      -5.331  -9.620 -18.633  1.00  0.00     0.161 HD
ENDROOT
BRANCH   1   3
HETATM    3  C5  UNL     1      -7.172 -10.145 -18.903  1.00  0.00     0.104 A 
HETATM    4  N1  UNL     1      -7.420 -11.128 -19.829  1.00  0.00    -0.332 N 
HETATM    5  C4  UNL     1      -8.407 -12.001 -19.737  1.00  0.00     0.083 A 
ATOM      6  H1  UNL     1      -6.803 -11.188 -20.639  1.00  0.00     0.168 HD
HETATM    7  N5  UNL     1      -9.222 -11.883 -18.636  1.00  0.00    -0.342 N 
HETATM    8  C17 UNL     1      -9.039 -10.956 -17.705  1.00  0.00     0.121 A 
ATOM      9  H5  UNL     1      -9.999 -12.535 -18.530  1.00  0.00     0.167 HD
HETATM   10  C16 UNL     1      -8.003 -10.065 -17.819  1.00  0.00     0.082 A 
BRANCH   5  11
HETATM   11  C3  UNL     1      -8.621 -13.142 -20.623  1.00  0.00     0.076 C 
BRANCH  11  12
HETATM   12  C2  UNL     1      -7.854 -13.265 -21.877  1.00  0.00     0.003 C 
HETATM   13  C1  UNL     1      -8.463 -12.746 -23.133  1.00  0.00     0.005 C 
ENDBRANCH  11  12
ENDBRANCH   5  11
BRANCH   8  14
HETATM   14  C18 UNL     1      -9.977 -10.869 -16.544  1.00  0.00     0.432 C 
HETATM   15  F1  UNL     1      -9.457 -10.137 -15.483  1.00  0.00    -0.165 F 
HETATM   16  F2  UNL     1     -11.111 -10.226 -16.936  1.00  0.00    -0.165 F 
HETATM   17  F3  UNL     1     -10.182 -12.150 -16.102  1.00  0.00    -0.165 F 
ENDBRANCH   8  14
ENDBRANCH   1   3
BRANCH   1  18
HETATM   18  C6  UNL     1      -6.128  -8.227 -20.007  1.00  0.00     0.162 C 
BRANCH  18  19
HETATM   19  C7  UNL     1      -6.072  -7.051 -19.089  1.00  0.00    -0.016 A 
HETATM   20  C8  UNL     1      -7.148  -6.711 -18.314  1.00  0.00     0.042 A 
HETATM   21  C9  UNL     1      -6.994  -5.626 -17.445  1.00  0.00     0.060 A 
HETATM   22  N3  UNL     1      -7.828  -5.024 -16.565  1.00  0.00    -0.363 N 
HETATM   23  C13 UNL     1      -5.779  -4.975 -17.428  1.00  0.00     0.066 A 
HETATM   24  C10 UNL     1      -7.168  -3.977 -15.983  1.00  0.00     0.097 A 
ATOM     25  H3  UNL     1      -8.788  -5.305 -16.369  1.00  0.00     0.165 HD
HETATM   26  C11 UNL     1      -5.909  -3.941 -16.512  1.00  0.00    -0.018 A 
HETATM   27  C12 UNL     1      -4.805  -2.929 -16.295  1.00  0.00     0.052 C 
HETATM   28  N4  UNL     1      -4.739  -5.339 -18.200  1.00  0.00    -0.357 N 
HETATM   29  C14 UNL     1      -4.871  -6.369 -19.031  1.00  0.00     0.013 A 
ATOM     30  H4  UNL     1      -3.857  -4.830 -18.149  1.00  0.00     0.166 HD
HETATM   31  C15 UNL     1      -3.809  -6.805 -19.965  1.00  0.00     0.068 C 
ENDBRANCH  18  19
ENDBRANCH   1  18
TORSDOF 6
ENDMDL
MODEL 5
REMARK VINA RESULT: -8.204125426      4.753      8.196
REMARK  6 active torsions:
REMARK  status: ('A' for Active; 'I' for Inactive)
REMARK    1  A    between atoms: C2_2  and  C3_3 
REMARK    2  A    between atoms: C3_3  and  C4_4 
REMARK    3  A    between atoms: C5_7  and  N2_8 
REMARK    4  A    between atoms: N2_8  and  C6_10 
REMARK    5  A    between atoms: C6_10  and  C7_11 
REMARK    6  A    between atoms: C17_25  and  C18_26 
ROOT
HETATM    1  N2  UNL     1      -6.217  -9.119 -18.467  1.00  0.00    -0.372 N 
ATOM      2  H2  UNL     1      -5.440  -9.212 -19.121  1.00  0.00     0.161 HD
ENDROOT
BRANCH   1   3
HETATM    3  C5  UNL     1      -7.157  -9.940 -18.614  1.00  0.00     0.104 A 
HETATM    4  N1  UNL     1      -8.205  -9.843 -17.732  1.00  0.00    -0.332 N 
HETATM    5  C4  UNL     1      -9.267 -10.628 -17.753  1.00  0.00     0.083 A 
ATOM      6  H1  UNL     1      -8.161  -9.118 -17.015  1.00  0.00     0.168 HD
HETATM    7  N5  UNL     1      -9.287 -11.597 -18.729  1.00  0.00    -0.342 N 
HETATM    8  C17 UNL     1      -8.308 -11.746 -19.610  1.00  0.00     0.121 A 
ATOM      9  H5  UNL     1     -10.088 -12.226 -18.776  1.00  0.00     0.167 HD
HETATM   10  C16 UNL     1      -7.218 -10.914 -19.573  1.00  0.00     0.082 A 
BRANCH   5  11
HETATM   11  C3  UNL     1     -10.460 -10.470 -16.926  1.00  0.00     0.076 C 
BRANCH  11  12
HETATM   12  C2  UNL     1     -10.396 -10.716 -15.473  1.00  0.00     0.003 C 
HETATM   13  C1  UNL     1      -9.681  -9.728 -14.618  1.00  0.00     0.005 C 
ENDBRANCH  11  12
ENDBRANCH   5  11
BRANCH   8  14
HETATM   14  C18 UNL     1      -8.383 -12.836 -20.631  1.00  0.00     0.432 C 
HETATM   15  F1  UNL     1      -7.639 -13.957 -20.278  1.00  0.00    -0.165 F 
HETATM   16  F2  UNL     1      -9.673 -13.252 -20.744  1.00  0.00    -0.165 F 
HETATM   17  F3  UNL     1      -7.850 -12.334 -21.789  1.00  0.00    -0.165 F 
ENDBRANCH   8  14
ENDBRANCH   1   3
BRANCH   1  18
HETATM   18  C6  UNL     1      -6.093  -8.049 -17.483  1.00  0.00     0.162 C 
BRANCH  18  19
HETATM   19  C7  UNL     1      -5.129  -7.081 -18.083  1.00  0.00    -0.016 A 
HETATM   20  C8  UNL     1      -5.119  -6.841 -19.431  1.00  0.00     0.042 A 
HETATM   21  C9  UNL     1      -4.218  -5.881 -19.904  1.00  0.00     0.060 A 
HETATM   22  N3  UNL     1      -3.938  -5.411 -21.141  1.00  0.00    -0.363 N 
HETATM   23  C13 UNL     1      -3.404  -5.247 -18.989  1.00  0.00     0.066 A 
HETATM   24  C10 UNL     1      -2.939  -4.482 -21.041  1.00  0.00     0.097 A 
ATOM     25  H3  UNL     1      -4.396  -5.700 -22.005  1.00  0.00     0.165 HD
HETATM   26  C11 UNL     1      -2.606  -4.379 -19.721  1.00  0.00    -0.018 A 
HETATM   27  C12 UNL     1      -1.501  -3.578 -19.068  1.00  0.00     0.052 C 
HETATM   28  N4  UNL     1      -3.444  -5.503 -17.669  1.00  0.00    -0.357 N 
HETATM   29  C14 UNL     1      -4.295  -6.413 -17.205  1.00  0.00     0.013 A 
ATOM     30  H4  UNL     1      -2.826  -5.004 -17.029  1.00  0.00     0.166 HD
HETATM   31  C15 UNL     1      -4.370  -6.811 -15.781  1.00  0.00     0.068 C 
ENDBRANCH  18  19
ENDBRANCH   1  18
TORSDOF 6
ENDMDL
