MODEL 1
REMARK VINA RESULT: -9.091406158      0.000      0.000
REMARK  7 active torsions:
REMARK  status: ('A' for Active; 'I' for Inactive)
REMARK    1  A    between atoms: C2_2  and  C3_3 
REMARK    2  A    between atoms: C3_3  and  C4_4 
REMARK    3  A    between atoms: C3_3  and  N1_6 
REMARK    4  A    between atoms: N1_6  and  C6_8 
REMARK    5  A    between atoms: C8_14  and  N4_15 
REMARK    6  A    between atoms: N4_15  and  C9_17 
REMARK    7  A    between atoms: C11_19  and  C12_20 
ROOT
HETATM    1  C6  UNL     1      -5.927  -5.106 -17.969  1.00  0.00     0.693 A 
HETATM    2  N2  UNL     1      -5.537  -4.862 -19.229  1.00  0.00    -0.187 N 
ATOM      3  H2  UNL     1      -5.453  -3.902 -19.565  1.00  0.00     0.185 HD
HETATM    4  C7  UNL     1      -5.257  -5.894 -20.047  1.00  0.00     0.215 A 
HETATM    5  N3  UNL     1      -5.358  -7.168 -19.635  1.00  0.00    -0.187 N 
ATOM      6  H3  UNL     1      -5.143  -7.941 -20.263  1.00  0.00     0.185 HD
HETATM    7  C8  UNL     1      -5.748  -7.393 -18.372  1.00  0.00     0.698 A 
HETATM    8  N5  UNL     1      -6.032  -6.375 -17.545  1.00  0.00    -0.022 N 
ATOM      9  H5  UNL     1      -6.328  -6.567 -16.588  1.00  0.00     0.203 HD
ENDROOT
BRANCH   7  10
HETATM   10  N4  UNL     1      -5.874  -8.582 -17.886  1.00  0.00    -0.191 N 
ATOM     11  H4  UNL     1      -5.110  -9.242 -18.025  1.00  0.00     0.184 HD
BRANCH  10  12
HETATM   12  C9  UNL     1      -7.009  -9.020 -17.174  1.00  0.00     0.056 A 
HETATM   13  C10 UNL     1      -7.310  -8.567 -15.909  1.00  0.00     0.047 A 
HETATM   14  C11 UNL     1      -8.444  -9.010 -15.209  1.00  0.00     0.056 A 
HETATM   15  C13 UNL     1      -9.268  -9.925 -15.820  1.00  0.00    -0.040 A 
HETATM   16  C14 UNL     1     -10.481 -10.431 -15.118  1.00  0.00     0.049 C 
HETATM   17  C15 UNL     1      -8.984 -10.404 -17.112  1.00  0.00    -0.047 A 
HETATM   18  C16 UNL     1      -9.879 -11.383 -17.745  1.00  0.00     0.049 C 
HETATM   19  C17 UNL     1      -7.861  -9.935 -17.747  1.00  0.00    -0.028 A 
HETATM   20  C18 UNL     1      -7.538 -10.430 -19.120  1.00  0.00     0.051 C 
BRANCH  14  21
HETATM   21  C12 UNL     1      -8.716  -8.486 -13.862  1.00  0.00     0.418 C 
HETATM   22  F1  UNL     1      -7.633  -7.662 -13.495  1.00  0.00    -0.166 F 
HETATM   23  F2  UNL     1      -9.807  -7.634 -13.799  1.00  0.00    -0.166 F 
HETATM   24  F3  UNL     1      -8.755  -9.450 -12.875  1.00  0.00    -0.166 F 
ENDBRANCH  14  21
ENDBRANCH  10  12
ENDBRANCH   7  10
BRANCH   1  25
HETATM   25  N1  UNL     1      -6.206  -4.119 -17.153  1.00  0.00    -0.221 N 
ATOM     26  H1  UNL     1      -6.053  -3.153 -17.444  1.00  0.00     0.178 HD
BRANCH  25  27
HETATM   27  C3  UNL     1      -6.725  -4.406 -15.853  1.00  0.00     0.098 C 
BRANCH  27  28
HETATM   28  C2  UNL     1      -8.164  -3.891 -15.720  1.00  0.00     0.021 C 
HETATM   29  C1  UNL     1      -9.102  -5.066 -15.532  1.00  0.00     0.007 C 
ENDBRANCH  27  28
BRANCH  27  30
HETATM   30  C4  UNL     1      -5.849  -3.830 -14.773  1.00  0.00     0.021 C 
HETATM   31  C5  UNL     1      -5.864  -4.786 -13.610  1.00  0.00     0.007 C 
ENDBRANCH  27  30
ENDBRANCH  25  27
ENDBRANCH   1  25
TORSDOF 7
ENDMDL
MODEL 2
REMARK VINA RESULT: -8.947420010      0.841      1.521
REMARK  7 active torsions:
REMARK  status: ('A' for Active; 'I' for Inactive)
REMARK    1  A    between atoms: C2_2  and  C3_3 
REMARK    2  A    between atoms: C3_3  and  C4_4 
REMARK    3  A    between atoms: C3_3  and  N1_6 
REMARK    4  A    between atoms: N1_6  and  C6_8 
REMARK    5  A    between atoms: C8_14  and  N4_15 
REMARK    6  A    between atoms: N4_15  and  C9_17 
REMARK    7  A    between atoms: C11_19  and  C12_20 
ROOT
HETATM    1  C6  UNL     1      -5.814  -4.970 -17.364  1.00  0.00     0.693 A 
HETATM    2  N2  UNL     1      -4.583  -4.596 -17.741  1.00  0.00    -0.187 N 
ATOM      3  H2  UNL     1      -4.324  -3.609 -17.748  1.00  0.00     0.185 HD
HETATM    4  C7  UNL     1      -3.690  -5.533 -18.111  1.00  0.00     0.215 A 
HETATM    5  N3  UNL     1      -4.000  -6.840 -18.113  1.00  0.00    -0.187 N 
ATOM      6  H3  UNL     1      -3.316  -7.541 -18.396  1.00  0.00     0.185 HD
HETATM    7  C8  UNL     1      -5.235  -7.196 -17.733  1.00  0.00     0.698 A 
HETATM    8  N5  UNL     1      -6.136  -6.273 -17.362  1.00  0.00    -0.022 N 
ATOM      9  H5  UNL     1      -7.071  -6.564 -17.076  1.00  0.00     0.203 HD
ENDROOT
BRANCH   7  10
HETATM   10  N4  UNL     1      -5.625  -8.427 -17.703  1.00  0.00    -0.191 N 
ATOM     11  H4  UNL     1      -5.042  -9.127 -18.160  1.00  0.00     0.184 HD
BRANCH  10  12
HETATM   12  C9  UNL     1      -6.810  -8.856 -17.073  1.00  0.00     0.056 A 
HETATM   13  C10 UNL     1      -7.165  -8.450 -15.806  1.00  0.00     0.047 A 
HETATM   14  C11 UNL     1      -8.349  -8.884 -15.189  1.00  0.00     0.056 A 
HETATM   15  C13 UNL     1      -9.168  -9.743 -15.885  1.00  0.00    -0.040 A 
HETATM   16  C14 UNL     1     -10.432 -10.236 -15.272  1.00  0.00     0.049 C 
HETATM   17  C15 UNL     1      -8.829 -10.173 -17.180  1.00  0.00    -0.047 A 
HETATM   18  C16 UNL     1      -9.719 -11.091 -17.905  1.00  0.00     0.049 C 
HETATM   19  C17 UNL     1      -7.658  -9.714 -17.732  1.00  0.00    -0.028 A 
HETATM   20  C18 UNL     1      -7.277 -10.159 -19.108  1.00  0.00     0.051 C 
BRANCH  14  21
HETATM   21  C12 UNL     1      -8.678  -8.412 -13.835  1.00  0.00     0.418 C 
HETATM   22  F1  UNL     1      -7.579  -7.667 -13.363  1.00  0.00    -0.166 F 
HETATM   23  F2  UNL     1      -9.725  -7.506 -13.794  1.00  0.00    -0.166 F 
HETATM   24  F3  UNL     1      -8.828  -9.419 -12.903  1.00  0.00    -0.166 F 
ENDBRANCH  14  21
ENDBRANCH  10  12
ENDBRANCH   7  10
BRANCH   1  25
HETATM   25  N1  UNL     1      -6.702  -4.077 -17.000  1.00  0.00    -0.221 N 
ATOM     26  H1  UNL     1      -7.175  -3.507 -17.702  1.00  0.00     0.178 HD
BRANCH  25  27
HETATM   27  C3  UNL     1      -7.001  -3.907 -15.613  1.00  0.00     0.098 C 
BRANCH  27  28
HETATM   28  C2  UNL     1      -5.734  -4.072 -14.763  1.00  0.00     0.021 C 
HETATM   29  C1  UNL     1      -6.058  -4.899 -13.536  1.00  0.00     0.007 C 
ENDBRANCH  27  28
BRANCH  27  30
HETATM   30  C4  UNL     1      -8.074  -4.861 -15.163  1.00  0.00     0.021 C 
HETATM   31  C5  UNL     1      -9.343  -4.501 -15.891  1.00  0.00     0.007 C 
ENDBRANCH  27  30
ENDBRANCH  25  27
ENDBRANCH   1  25
TORSDOF 7
ENDMDL
MODEL 3
REMARK VINA RESULT: -8.541032953      2.729      4.507
REMARK  7 active torsions:
REMARK  status: ('A' for Active; 'I' for Inactive)
REMARK    1  A    between atoms: C2_2  and  C3_3 
REMARK    2  A    between atoms: C3_3  and  C4_4 
REMARK    3  A    between atoms: C3_3  and  N1_6 
REMARK    4  A    between atoms: N1_6  and  C6_8 
REMARK    5  A    between atoms: C8_14  and  N4_15 
REMARK    6  A    between atoms: N4_15  and  C9_17 
REMARK    7  A    between atoms: C11_19  and  C12_20 
ROOT
HETATM    1  C6  UNL     1      -6.445  -4.461 -16.645  1.00  0.00     0.693 A 
HETATM    2  N2  UNL     1      -7.479  -3.682 -16.293  1.00  0.00    -0.187 N 
ATOM      3  H2  UNL     1      -7.514  -2.707 -16.591  1.00  0.00     0.185 HD
HETATM    4  C7  UNL     1      -8.470  -4.197 -15.542  1.00  0.00     0.215 A 
HETATM    5  N3  UNL     1      -8.454  -5.476 -15.134  1.00  0.00    -0.187 N 
ATOM      6  H3  UNL     1      -9.211  -5.855 -14.565  1.00  0.00     0.185 HD
HETATM    7  C8  UNL     1      -7.414  -6.240 -15.496  1.00  0.00     0.698 A 
HETATM    8  N5  UNL     1      -6.417  -5.741 -16.244  1.00  0.00    -0.022 N 
ATOM      9  H5  UNL     1      -5.634  -6.339 -16.508  1.00  0.00     0.203 HD
ENDROOT
BRANCH   7  10
HETATM   10  N4  UNL     1      -7.310  -7.480 -15.151  1.00  0.00    -0.191 N 
ATOM     11  H4  UNL     1      -6.834  -7.698 -14.276  1.00  0.00     0.184 HD
BRANCH  10  12
HETATM   12  C9  UNL     1      -7.816  -8.549 -15.916  1.00  0.00     0.056 A 
HETATM   13  C10 UNL     1      -7.322  -8.868 -17.161  1.00  0.00     0.047 A 
HETATM   14  C11 UNL     1      -7.834  -9.937 -17.915  1.00  0.00     0.056 A 
HETATM   15  C13 UNL     1      -8.862 -10.677 -17.379  1.00  0.00    -0.040 A 
HETATM   16  C14 UNL     1      -9.444 -11.817 -18.141  1.00  0.00     0.049 C 
HETATM   17  C15 UNL     1      -9.385 -10.373 -16.109  1.00  0.00    -0.047 A 
HETATM   18  C16 UNL     1     -10.483 -11.177 -15.556  1.00  0.00     0.049 C 
HETATM   19  C17 UNL     1      -8.843  -9.316 -15.418  1.00  0.00    -0.028 A 
HETATM   20  C18 UNL     1      -9.383  -8.974 -14.067  1.00  0.00     0.051 C 
BRANCH  14  21
HETATM   21  C12 UNL     1      -7.262 -10.233 -19.238  1.00  0.00     0.418 C 
HETATM   22  F1  UNL     1      -5.900  -9.875 -19.205  1.00  0.00    -0.166 F 
HETATM   23  F2  UNL     1      -7.236 -11.582 -19.550  1.00  0.00    -0.166 F 
HETATM   24  F3  UNL     1      -7.785  -9.473 -20.265  1.00  0.00    -0.166 F 
ENDBRANCH  14  21
ENDBRANCH  10  12
ENDBRANCH   7  10
BRANCH   1  25
HETATM   25  N1  UNL     1      -5.467  -3.983 -17.375  1.00  0.00    -0.221 N 
ATOM     26  H1  UNL     1      -5.263  -2.984 -17.370  1.00  0.00     0.178 HD
BRANCH  25  27
HETATM   27  C3  UNL     1      -4.689  -4.873 -18.179  1.00  0.00     0.098 C 
BRANCH  27  28
HETATM   28  C2  UNL     1      -3.250  -4.361 -18.314  1.00  0.00     0.021 C 
HETATM   29  C1  UNL     1      -2.876  -4.298 -19.781  1.00  0.00     0.007 C 
ENDBRANCH  27  28
BRANCH  27  30
HETATM   30  C4  UNL     1      -5.314  -5.077 -19.533  1.00  0.00     0.021 C 
HETATM   31  C5  UNL     1      -5.731  -6.521 -19.634  1.00  0.00     0.007 C 
ENDBRANCH  27  30
ENDBRANCH  25  27
ENDBRANCH   1  25
TORSDOF 7
ENDMDL
MODEL 4
REMARK VINA RESULT: -8.505000929      1.173      1.527
REMARK  7 active torsions:
REMARK  status: ('A' for Active; 'I' for Inactive)
REMARK    1  A    between atoms: C2_2  and  C3_3 
REMARK    2  A    between atoms: C3_3  and  C4_4 
REMARK    3  A    between atoms: C3_3  and  N1_6 
REMARK    4  A    between atoms: N1_6  and  C6_8 
REMARK    5  A    between atoms: C8_14  and  N4_15 
REMARK    6  A    between atoms: N4_15  and  C9_17 
REMARK    7  A    between atoms: C11_19  and  C12_20 
ROOT
HETATM    1  C6  UNL     1      -6.259  -5.363 -17.911  1.00  0.00     0.693 A 
HETATM    2  N2  UNL     1      -5.795  -4.667 -18.960  1.00  0.00    -0.187 N 
ATOM      3  H2  UNL     1      -5.818  -3.648 -18.951  1.00  0.00     0.185 HD
HETATM    4  C7  UNL     1      -5.298  -5.325 -20.024  1.00  0.00     0.215 A 
HETATM    5  N3  UNL     1      -5.254  -6.667 -20.066  1.00  0.00    -0.187 N 
ATOM      6  H3  UNL     1      -4.876  -7.154 -20.877  1.00  0.00     0.185 HD
HETATM    7  C8  UNL     1      -5.722  -7.346 -19.009  1.00  0.00     0.698 A 
HETATM    8  N5  UNL     1      -6.221  -6.705 -17.941  1.00  0.00    -0.022 N 
ATOM      9  H5  UNL     1      -6.573  -7.240 -17.147  1.00  0.00     0.203 HD
ENDROOT
BRANCH   7  10
HETATM   10  N4  UNL     1      -5.722  -8.637 -18.958  1.00  0.00    -0.191 N 
ATOM     11  H4  UNL     1      -4.898  -9.131 -19.298  1.00  0.00     0.184 HD
BRANCH  10  12
HETATM   12  C9  UNL     1      -6.796  -9.399 -18.458  1.00  0.00     0.056 A 
HETATM   13  C10 UNL     1      -7.399  -9.128 -17.251  1.00  0.00     0.047 A 
HETATM   14  C11 UNL     1      -8.469  -9.894 -16.763  1.00  0.00     0.056 A 
HETATM   15  C13 UNL     1      -8.916 -10.947 -17.527  1.00  0.00    -0.040 A 
HETATM   16  C14 UNL     1     -10.045 -11.795 -17.052  1.00  0.00     0.049 C 
HETATM   17  C15 UNL     1      -8.318 -11.246 -18.765  1.00  0.00    -0.047 A 
HETATM   18  C16 UNL     1      -8.812 -12.376 -19.564  1.00  0.00     0.049 C 
HETATM   19  C17 UNL     1      -7.275 -10.461 -19.190  1.00  0.00    -0.028 A 
HETATM   20  C18 UNL     1      -6.623 -10.760 -20.501  1.00  0.00     0.051 C 
BRANCH  14  21
HETATM   21  C12 UNL     1      -9.076  -9.553 -15.467  1.00  0.00     0.418 C 
HETATM   22  F1  UNL     1      -8.869  -8.177 -15.247  1.00  0.00    -0.166 F 
HETATM   23  F2  UNL     1     -10.456  -9.682 -15.441  1.00  0.00    -0.166 F 
HETATM   24  F3  UNL     1      -8.479 -10.162 -14.382  1.00  0.00    -0.166 F 
ENDBRANCH  14  21
ENDBRANCH  10  12
ENDBRANCH   7  10
BRANCH   1  25
HETATM   25  N1  UNL     1      -6.748  -4.747 -16.864  1.00  0.00    -0.221 N 
ATOM     26  H1  UNL     1      -7.017  -3.764 -16.924  1.00  0.00     0.178 HD
BRANCH  25  27
HETATM   27  C3  UNL     1      -6.903  -5.461 -15.635  1.00  0.00     0.098 C 
BRANCH  27  28
HETATM   28  C2  UNL     1      -8.193  -5.037 -14.922  1.00  0.00     0.021 C 
HETATM   29  C1  UNL     1      -9.147  -4.431 -15.930  1.00  0.00     0.007 C 
ENDBRANCH  27  28
BRANCH  27  30
HETATM   30  C4  UNL     1      -5.709  -5.272 -14.738  1.00  0.00     0.021 C 
HETATM   31  C5  UNL     1      -6.218  -4.948 -13.358  1.00  0.00     0.007 C 
ENDBRANCH  27  30
ENDBRANCH  25  27
ENDBRANCH   1  25
TORSDOF 7
ENDMDL
MODEL 5
REMARK VINA RESULT: -8.484964946      0.913      1.577
REMARK  7 active torsions:
REMARK  status: ('A' for Active; 'I' for Inactive)
REMARK    1  A    between atoms: C2_2  and  C3_3 
REMARK    2  A    between atoms: C3_3  and  C4_4 
REMARK    3  A    between atoms: C3_3  and  N1_6 
REMARK    4  A    between atoms: N1_6  and  C6_8 
REMARK    5  A    between atoms: C8_14  and  N4_15 
REMARK    6  A    between atoms: N4_15  and  C9_17 
REMARK    7  A    between atoms: C11_19  and  C12_20 
ROOT
HETATM    1  C6  UNL     1      -4.897  -5.182 -17.320  1.00  0.00     0.693 A 
HETATM    2  N2  UNL     1      -4.980  -4.686 -18.564  1.00  0.00    -0.187 N 
ATOM      3  H2  UNL     1      -4.779  -3.702 -18.740  1.00  0.00     0.185 HD
HETATM    4  C7  UNL     1      -5.330  -5.498 -19.579  1.00  0.00     0.215 A 
HETATM    5  N3  UNL     1      -5.600  -6.799 -19.380  1.00  0.00    -0.187 N 
ATOM      6  H3  UNL     1      -5.865  -7.404 -20.157  1.00  0.00     0.185 HD
HETATM    7  C8  UNL     1      -5.512  -7.277 -18.131  1.00  0.00     0.698 A 
HETATM    8  N5  UNL     1      -5.165  -6.480 -17.109  1.00  0.00    -0.022 N 
ATOM      9  H5  UNL     1      -5.104  -6.864 -16.165  1.00  0.00     0.203 HD
ENDROOT
BRANCH   7  10
HETATM   10  N4  UNL     1      -5.753  -8.513 -17.842  1.00  0.00    -0.191 N 
ATOM     11  H4  UNL     1      -5.068  -9.215 -18.122  1.00  0.00     0.184 HD
BRANCH  10  12
HETATM   12  C9  UNL     1      -6.909  -8.946 -17.163  1.00  0.00     0.056 A 
HETATM   13  C10 UNL     1      -7.236  -8.503 -15.901  1.00  0.00     0.047 A 
HETATM   14  C11 UNL     1      -8.391  -8.941 -15.233  1.00  0.00     0.056 A 
HETATM   15  C13 UNL     1      -9.210  -9.841 -15.873  1.00  0.00    -0.040 A 
HETATM   16  C14 UNL     1     -10.444 -10.340 -15.206  1.00  0.00     0.049 C 
HETATM   17  C15 UNL     1      -8.900 -10.309 -17.163  1.00  0.00    -0.047 A 
HETATM   18  C16 UNL     1      -9.790 -11.271 -17.828  1.00  0.00     0.049 C 
HETATM   19  C17 UNL     1      -7.756  -9.845 -17.766  1.00  0.00    -0.028 A 
HETATM   20  C18 UNL     1      -7.406 -10.329 -19.136  1.00  0.00     0.051 C 
BRANCH  14  21
HETATM   21  C12 UNL     1      -8.690  -8.429 -13.887  1.00  0.00     0.418 C 
HETATM   22  F1  UNL     1      -7.583  -7.667 -13.462  1.00  0.00    -0.166 F 
HETATM   23  F2  UNL     1      -9.739  -7.524 -13.849  1.00  0.00    -0.166 F 
HETATM   24  F3  UNL     1      -8.815  -9.408 -12.922  1.00  0.00    -0.166 F 
ENDBRANCH  14  21
ENDBRANCH  10  12
ENDBRANCH   7  10
BRANCH   1  25
HETATM   25  N1  UNL     1      -4.559  -4.412 -16.315  1.00  0.00    -0.221 N 
ATOM     26  H1  UNL     1      -3.578  -4.305 -16.058  1.00  0.00     0.178 HD
BRANCH  25  27
HETATM   27  C3  UNL     1      -5.576  -3.724 -15.583  1.00  0.00     0.098 C 
BRANCH  27  28
HETATM   28  C2  UNL     1      -4.985  -2.520 -14.840  1.00  0.00     0.021 C 
HETATM   29  C1  UNL     1      -4.165  -1.688 -15.804  1.00  0.00     0.007 C 
ENDBRANCH  27  28
BRANCH  27  30
HETATM   30  C4  UNL     1      -6.282  -4.648 -14.627  1.00  0.00     0.021 C 
HETATM   31  C5  UNL     1      -7.715  -4.765 -15.076  1.00  0.00     0.007 C 
ENDBRANCH  27  30
ENDBRANCH  25  27
ENDBRANCH   1  25
TORSDOF 7
ENDMDL
