MODEL 1
REMARK VINA RESULT: -8.249563669      0.000      0.000
REMARK  3 active torsions:
REMARK  status: ('A' for Active; 'I' for Inactive)
REMARK    1  A    between atoms: C2_2  and  C3_4 
REMARK    2  A    between atoms: C7_10  and  N2_11 
REMARK    3  A    between atoms: C14_19  and  O2_20 
ROOT
HETATM    1  C3  UNL     1      35.632  15.735  17.562  1.00  0.00     0.051 A 
HETATM    2  C4  UNL     1      36.514  16.440  16.778  1.00  0.00    -0.033 A 
HETATM    3  C5  UNL     1      37.819  16.031  16.516  1.00  0.00    -0.022 A 
HETATM    4  C6  UNL     1      38.307  14.852  17.050  1.00  0.00     0.061 A 
HETATM    5  N1  UNL     1      39.506  14.360  16.880  1.00  0.00    -0.335 N 
ATOM      6  H1  UNL     1      40.179  14.864  16.303  1.00  0.00     0.168 HD
HETATM    7  C7  UNL     1      39.853  13.236  17.436  1.00  0.00     0.148 A 
HETATM    8  S1  UNL     1      38.421  12.787  18.279  1.00  0.00    -0.049 SA
HETATM    9  C13 UNL     1      37.442  14.136  17.834  1.00  0.00     0.069 A 
HETATM   10  C14 UNL     1      36.136  14.554  18.092  1.00  0.00     0.099 A 
HETATM   11  C15 UNL     1      38.622  16.915  15.640  1.00  0.00     0.041 C 
HETATM   12  C16 UNL     1      37.805  17.030  14.345  1.00  0.00     0.005 C 
HETATM   13  C17 UNL     1      36.470  17.640  14.617  1.00  0.00     0.005 C 
HETATM   14  C18 UNL     1      36.164  17.732  16.131  1.00  0.00     0.040 C 
ENDROOT
BRANCH   7  15
HETATM   15  N2  UNL     1      41.090  12.542  17.375  1.00  0.00    -0.361 N 
HETATM   16  C8  UNL     1      41.297  11.532  16.367  1.00  0.00     0.125 C 
HETATM   17  C9  UNL     1      42.246  10.456  16.903  1.00  0.00     0.020 C 
HETATM   18  C10 UNL     1      41.920  10.319  18.384  1.00  0.00     0.003 C 
HETATM   19  C11 UNL     1      42.342  11.554  19.134  1.00  0.00     0.020 C 
HETATM   20  C12 UNL     1      42.159  12.818  18.304  1.00  0.00     0.125 C 
ENDBRANCH   7  15
BRANCH  10  21
HETATM   21  O2  UNL     1      35.416  13.701  18.903  1.00  0.00    -0.358 OA
ATOM     22  H2  UNL     1      35.493  12.754  18.881  1.00  0.00     0.217 HD
ENDBRANCH  10  21
BRANCH   1  23
HETATM   23  C2  UNL     1      34.275  16.093  17.868  1.00  0.00     0.159 C 
HETATM   24  C1  UNL     1      33.178  15.936  16.887  1.00  0.00     0.097 C 
HETATM   25  O1  UNL     1      33.949  16.555  18.978  1.00  0.00    -0.293 OA
ENDBRANCH   1  23
TORSDOF 3
ENDMDL
MODEL 2
REMARK VINA RESULT: -7.991168176      2.082      3.403
REMARK  3 active torsions:
REMARK  status: ('A' for Active; 'I' for Inactive)
REMARK    1  A    between atoms: C2_2  and  C3_4 
REMARK    2  A    between atoms: C7_10  and  N2_11 
REMARK    3  A    between atoms: C14_19  and  O2_20 
ROOT
HETATM    1  C3  UNL     1      37.419  16.548  16.234  1.00  0.00     0.051 A 
HETATM    2  C4  UNL     1      36.653  15.740  17.040  1.00  0.00    -0.033 A 
HETATM    3  C5  UNL     1      37.144  14.621  17.707  1.00  0.00    -0.022 A 
HETATM    4  C6  UNL     1      38.472  14.255  17.588  1.00  0.00     0.061 A 
HETATM    5  N1  UNL     1      39.051  13.233  18.160  1.00  0.00    -0.335 N 
ATOM      6  H1  UNL     1      38.505  12.618  18.763  1.00  0.00     0.168 HD
HETATM    7  C7  UNL     1      40.315  12.988  17.971  1.00  0.00     0.148 A 
HETATM    8  S1  UNL     1      40.781  14.264  16.913  1.00  0.00    -0.049 SA
HETATM    9  C13 UNL     1      39.250  15.049  16.788  1.00  0.00     0.069 A 
HETATM   10  C14 UNL     1      38.751  16.169  16.122  1.00  0.00     0.099 A 
HETATM   11  C15 UNL     1      36.172  13.875  18.541  1.00  0.00     0.041 C 
HETATM   12  C16 UNL     1      35.625  14.914  19.529  1.00  0.00     0.005 C 
HETATM   13  C17 UNL     1      34.941  16.024  18.801  1.00  0.00     0.005 C 
HETATM   14  C18 UNL     1      35.205  15.976  17.277  1.00  0.00     0.040 C 
ENDROOT
BRANCH   7  15
HETATM   15  N2  UNL     1      41.121  11.944  18.494  1.00  0.00    -0.361 N 
HETATM   16  C8  UNL     1      42.001  12.203  19.607  1.00  0.00     0.125 C 
HETATM   17  C9  UNL     1      43.234  11.301  19.512  1.00  0.00     0.020 C 
HETATM   18  C10 UNL     1      43.536  11.171  18.025  1.00  0.00     0.003 C 
HETATM   19  C11 UNL     1      42.467  10.366  17.337  1.00  0.00     0.020 C 
HETATM   20  C12 UNL     1      41.089  10.613  17.939  1.00  0.00     0.125 C 
ENDBRANCH   7  15
BRANCH  10  21
HETATM   21  O2  UNL     1      39.686  16.844  15.364  1.00  0.00    -0.358 OA
ATOM     22  H2  UNL     1      40.461  16.440  14.992  1.00  0.00     0.217 HD
ENDBRANCH  10  21
BRANCH   1  23
HETATM   23  C2  UNL     1      36.983  17.718  15.523  1.00  0.00     0.159 C 
HETATM   24  C1  UNL     1      36.215  17.631  14.260  1.00  0.00     0.097 C 
HETATM   25  O1  UNL     1      37.229  18.868  15.931  1.00  0.00    -0.293 OA
ENDBRANCH   1  23
TORSDOF 3
ENDMDL
MODEL 3
REMARK VINA RESULT: -7.932910881      2.012      3.193
REMARK  3 active torsions:
REMARK  status: ('A' for Active; 'I' for Inactive)
REMARK    1  A    between atoms: C2_2  and  C3_4 
REMARK    2  A    between atoms: C7_10  and  N2_11 
REMARK    3  A    between atoms: C14_19  and  O2_20 
ROOT
HETATM    1  C3  UNL     1      36.974  16.850  16.475  1.00  0.00     0.051 A 
HETATM    2  C4  UNL     1      36.469  15.807  17.214  1.00  0.00    -0.033 A 
HETATM    3  C5  UNL     1      37.214  14.695  17.599  1.00  0.00    -0.022 A 
HETATM    4  C6  UNL     1      38.546  14.582  17.242  1.00  0.00     0.061 A 
HETATM    5  N1  UNL     1      39.349  13.595  17.539  1.00  0.00    -0.335 N 
ATOM      6  H1  UNL     1      38.998  12.809  18.087  1.00  0.00     0.168 HD
HETATM    7  C7  UNL     1      40.589  13.599  17.146  1.00  0.00     0.148 A 
HETATM    8  S1  UNL     1      40.694  15.086  16.285  1.00  0.00    -0.049 SA
HETATM    9  C13 UNL     1      39.066  15.612  16.505  1.00  0.00     0.069 A 
HETATM   10  C14 UNL     1      38.312  16.723  16.123  1.00  0.00     0.099 A 
HETATM   11  C15 UNL     1      36.503  13.674  18.403  1.00  0.00     0.041 C 
HETATM   12  C16 UNL     1      35.975  14.437  19.626  1.00  0.00     0.005 C 
HETATM   13  C17 UNL     1      35.033  15.516  19.206  1.00  0.00     0.005 C 
HETATM   14  C18 UNL     1      35.057  15.755  17.678  1.00  0.00     0.040 C 
ENDROOT
BRANCH   7  15
HETATM   15  N2  UNL     1      41.608  12.636  17.361  1.00  0.00    -0.361 N 
HETATM   16  C8  UNL     1      41.653  11.443  16.552  1.00  0.00     0.125 C 
HETATM   17  C9  UNL     1      42.239  10.287  17.368  1.00  0.00     0.020 C 
HETATM   18  C10 UNL     1      41.743  10.495  18.792  1.00  0.00     0.003 C 
HETATM   19  C11 UNL     1      42.387  11.709  19.404  1.00  0.00     0.020 C 
HETATM   20  C12 UNL     1      42.614  12.814  18.380  1.00  0.00     0.125 C 
ENDBRANCH   7  15
BRANCH  10  21
HETATM   21  O2  UNL     1      39.009  17.657  15.384  1.00  0.00    -0.358 OA
ATOM     22  H2  UNL     1      39.547  17.445  14.630  1.00  0.00     0.217 HD
ENDBRANCH  10  21
BRANCH   1  23
HETATM   23  C2  UNL     1      36.268  18.026  16.050  1.00  0.00     0.159 C 
HETATM   24  C1  UNL     1      35.957  19.136  16.980  1.00  0.00     0.097 C 
HETATM   25  O1  UNL     1      35.880  18.176  14.876  1.00  0.00    -0.293 OA
ENDBRANCH   1  23
TORSDOF 3
ENDMDL
MODEL 4
REMARK VINA RESULT: -7.860043953      2.632      6.863
REMARK  3 active torsions:
REMARK  status: ('A' for Active; 'I' for Inactive)
REMARK    1  A    between atoms: C2_2  and  C3_4 
REMARK    2  A    between atoms: C7_10  and  N2_11 
REMARK    3  A    between atoms: C14_19  and  O2_20 
ROOT
HETATM    1  C3  UNL     1      38.781  13.123  17.242  1.00  0.00     0.051 A 
HETATM    2  C4  UNL     1      39.152  14.000  16.251  1.00  0.00    -0.033 A 
HETATM    3  C5  UNL     1      38.553  15.240  16.046  1.00  0.00    -0.022 A 
HETATM    4  C6  UNL     1      37.518  15.665  16.859  1.00  0.00     0.061 A 
HETATM    5  N1  UNL     1      36.877  16.800  16.770  1.00  0.00    -0.335 N 
ATOM      6  H1  UNL     1      37.134  17.467  16.043  1.00  0.00     0.168 HD
HETATM    7  C7  UNL     1      35.914  17.091  17.596  1.00  0.00     0.148 A 
HETATM    8  S1  UNL     1      35.861  15.694  18.602  1.00  0.00    -0.049 SA
HETATM    9  C13 UNL     1      37.134  14.804  17.852  1.00  0.00     0.069 A 
HETATM   10  C14 UNL     1      37.739  13.562  18.050  1.00  0.00     0.099 A 
HETATM   11  C15 UNL     1      39.094  16.055  14.933  1.00  0.00     0.041 C 
HETATM   12  C16 UNL     1      40.588  16.207  15.250  1.00  0.00     0.005 C 
HETATM   13  C17 UNL     1      41.256  14.872  15.288  1.00  0.00     0.005 C 
HETATM   14  C18 UNL     1      40.239  13.706  15.280  1.00  0.00     0.040 C 
ENDROOT
BRANCH   7  15
HETATM   15  N2  UNL     1      35.105  18.254  17.667  1.00  0.00    -0.361 N 
HETATM   16  C8  UNL     1      33.974  18.289  18.561  1.00  0.00     0.125 C 
HETATM   17  C9  UNL     1      32.880  19.186  17.974  1.00  0.00     0.020 C 
HETATM   18  C10 UNL     1      32.941  18.978  16.468  1.00  0.00     0.003 C 
HETATM   19  C11 UNL     1      34.206  19.565  15.903  1.00  0.00     0.020 C 
HETATM   20  C12 UNL     1      35.382  19.418  16.861  1.00  0.00     0.125 C 
ENDBRANCH   7  15
BRANCH  10  21
HETATM   21  O2  UNL     1      37.216  12.836  19.101  1.00  0.00    -0.358 OA
ATOM     22  H2  UNL     1      36.776  13.223  19.848  1.00  0.00     0.217 HD
ENDBRANCH  10  21
BRANCH   1  23
HETATM   23  C2  UNL     1      39.356  11.836  17.515  1.00  0.00     0.159 C 
HETATM   24  C1  UNL     1      40.749  11.682  17.993  1.00  0.00     0.097 C 
HETATM   25  O1  UNL     1      38.714  10.780  17.364  1.00  0.00    -0.293 OA
ENDBRANCH   1  23
TORSDOF 3
ENDMDL
MODEL 5
REMARK VINA RESULT: -7.816233034      0.967      1.121
REMARK  3 active torsions:
REMARK  status: ('A' for Active; 'I' for Inactive)
REMARK    1  A    between atoms: C2_2  and  C3_4 
REMARK    2  A    between atoms: C7_10  and  N2_11 
REMARK    3  A    between atoms: C14_19  and  O2_20 
ROOT
HETATM    1  C3  UNL     1      36.273  16.284  16.892  1.00  0.00     0.051 A 
HETATM    2  C4  UNL     1      37.186  16.719  15.961  1.00  0.00    -0.033 A 
HETATM    3  C5  UNL     1      38.429  16.125  15.755  1.00  0.00    -0.022 A 
HETATM    4  C6  UNL     1      38.818  15.029  16.503  1.00  0.00     0.061 A 
HETATM    5  N1  UNL     1      39.951  14.385  16.406  1.00  0.00    -0.335 N 
ATOM      6  H1  UNL     1      40.645  14.688  15.723  1.00  0.00     0.168 HD
HETATM    7  C7  UNL     1      40.207  13.363  17.169  1.00  0.00     0.148 A 
HETATM    8  S1  UNL     1      38.776  13.249  18.120  1.00  0.00    -0.049 SA
HETATM    9  C13 UNL     1      37.921  14.582  17.436  1.00  0.00     0.069 A 
HETATM   10  C14 UNL     1      36.678  15.183  17.637  1.00  0.00     0.099 A 
HETATM   11  C15 UNL     1      39.277  16.726  14.699  1.00  0.00     0.041 C 
HETATM   12  C16 UNL     1      38.418  16.670  13.428  1.00  0.00     0.005 C 
HETATM   13  C17 UNL     1      37.166  17.465  13.603  1.00  0.00     0.005 C 
HETATM   14  C18 UNL     1      36.940  17.888  15.075  1.00  0.00     0.040 C 
ENDROOT
BRANCH   7  15
HETATM   15  N2  UNL     1      41.361  12.539  17.219  1.00  0.00    -0.361 N 
HETATM   16  C8  UNL     1      41.499  11.439  16.298  1.00  0.00     0.125 C 
HETATM   17  C9  UNL     1      42.302  10.312  16.955  1.00  0.00     0.020 C 
HETATM   18  C10 UNL     1      41.902  10.325  18.424  1.00  0.00     0.003 C 
HETATM   19  C11 UNL     1      42.424  11.561  19.104  1.00  0.00     0.020 C 
HETATM   20  C12 UNL     1      42.415  12.771  18.177  1.00  0.00     0.125 C 
ENDBRANCH   7  15
BRANCH  10  21
HETATM   21  O2  UNL     1      35.912  14.591  18.621  1.00  0.00    -0.358 OA
ATOM     22  H2  UNL     1      36.271  14.104  19.353  1.00  0.00     0.217 HD
ENDBRANCH  10  21
BRANCH   1  23
HETATM   23  C2  UNL     1      34.976  16.842  17.153  1.00  0.00     0.159 C 
HETATM   24  C1  UNL     1      34.793  18.056  17.980  1.00  0.00     0.097 C 
HETATM   25  O1  UNL     1      33.935  16.333  16.698  1.00  0.00    -0.293 OA
ENDBRANCH   1  23
TORSDOF 3
ENDMDL
