MODEL 1
REMARK VINA RESULT: -5.564828803      0.000      0.000
REMARK  3 active torsions:
REMARK  status: ('A' for Active; 'I' for Inactive)
REMARK    1  A    between atoms: C2_2  and  C3_3 
REMARK    2  A    between atoms: C3_3  and  N1_4 
REMARK       I    between atoms: N1_4  and  C4_6 
REMARK       I    between atoms: C4_6  and  N2_8 
REMARK    3  A    between atoms: C5_10  and  N3_11 
ROOT
HETATM    1  N1  UNL     1      -3.530  -4.996  17.472  1.00  0.00    -0.339 N 
ATOM      2  H1  UNL     1      -4.150  -4.186  17.438  1.00  0.00     0.164 HD
HETATM    3  C4  UNL     1      -4.040  -6.278  17.801  1.00  0.00     0.321 C 
HETATM    4  O1  UNL     1      -3.378  -7.323  17.869  1.00  0.00    -0.247 OA
HETATM    5  N2  UNL     1      -5.443  -6.378  18.079  1.00  0.00    -0.305 N 
ATOM      6  H2  UNL     1      -5.782  -6.113  19.004  1.00  0.00     0.171 HD
HETATM    7  C5  UNL     1      -6.282  -6.789  17.210  1.00  0.00     0.182 C 
ENDROOT
BRANCH   1   8
HETATM    8  C3  UNL     1      -2.128  -4.851  17.187  1.00  0.00     0.150 C 
BRANCH   8   9
HETATM    9  C2  UNL     1      -1.923  -4.422  15.783  1.00  0.00    -0.018 C 
HETATM   10  C1  UNL     1      -2.926  -4.018  15.034  1.00  0.00     0.008 C 
ENDBRANCH   8   9
ENDBRANCH   1   8
BRANCH   7  11
HETATM   11  N3  UNL     1      -7.651  -6.877  17.510  1.00  0.00    -0.374 N 
HETATM   12  C6  UNL     1      -8.906  -7.727  17.488  1.00  0.00     0.143 A 
HETATM   13  C7  UNL     1      -8.947  -6.380  18.017  1.00  0.00     0.143 A 
ENDBRANCH   7  11
TORSDOF 3
ENDMDL
MODEL 2
REMARK VINA RESULT: -5.475155134      1.096      1.227
REMARK  3 active torsions:
REMARK  status: ('A' for Active; 'I' for Inactive)
REMARK    1  A    between atoms: C2_2  and  C3_3 
REMARK    2  A    between atoms: C3_3  and  N1_4 
REMARK       I    between atoms: N1_4  and  C4_6 
REMARK       I    between atoms: C4_6  and  N2_8 
REMARK    3  A    between atoms: C5_10  and  N3_11 
ROOT
HETATM    1  N1  UNL     1      -4.366  -5.167  17.224  1.00  0.00    -0.339 N 
ATOM      2  H1  UNL     1      -5.173  -4.562  17.073  1.00  0.00     0.164 HD
HETATM    3  C4  UNL     1      -4.542  -6.504  17.660  1.00  0.00     0.321 C 
HETATM    4  O1  UNL     1      -3.635  -7.321  17.873  1.00  0.00    -0.247 OA
HETATM    5  N2  UNL     1      -5.886  -6.957  17.875  1.00  0.00    -0.305 N 
ATOM      6  H2  UNL     1      -6.354  -6.713  18.748  1.00  0.00     0.171 HD
HETATM    7  C5  UNL     1      -6.516  -7.654  17.012  1.00  0.00     0.182 C 
ENDROOT
BRANCH   1   8
HETATM    8  C3  UNL     1      -3.034  -4.673  16.999  1.00  0.00     0.150 C 
BRANCH   8   9
HETATM    9  C2  UNL     1      -3.056  -3.529  16.056  1.00  0.00    -0.018 C 
HETATM   10  C1  UNL     1      -3.975  -2.591  16.133  1.00  0.00     0.008 C 
ENDBRANCH   8   9
ENDBRANCH   1   8
BRANCH   7  11
HETATM   11  N3  UNL     1      -7.831  -8.084  17.249  1.00  0.00    -0.374 N 
HETATM   12  C6  UNL     1      -8.785  -9.256  17.373  1.00  0.00     0.143 A 
HETATM   13  C7  UNL     1      -9.269  -7.903  17.542  1.00  0.00     0.143 A 
ENDBRANCH   7  11
TORSDOF 3
ENDMDL
MODEL 3
REMARK VINA RESULT: -5.260472643      1.359      1.458
REMARK  3 active torsions:
REMARK  status: ('A' for Active; 'I' for Inactive)
REMARK    1  A    between atoms: C2_2  and  C3_3 
REMARK    2  A    between atoms: C3_3  and  N1_4 
REMARK       I    between atoms: N1_4  and  C4_6 
REMARK       I    between atoms: C4_6  and  N2_8 
REMARK    3  A    between atoms: C5_10  and  N3_11 
ROOT
HETATM    1  N1  UNL     1      -4.855  -4.792  16.555  1.00  0.00    -0.339 N 
ATOM      2  H1  UNL     1      -5.585  -4.162  16.221  1.00  0.00     0.164 HD
HETATM    3  C4  UNL     1      -5.181  -5.892  17.389  1.00  0.00     0.321 C 
HETATM    4  O1  UNL     1      -4.376  -6.715  17.847  1.00  0.00    -0.247 OA
HETATM    5  N2  UNL     1      -6.561  -6.070  17.736  1.00  0.00    -0.305 N 
ATOM      6  H2  UNL     1      -6.956  -5.507  18.488  1.00  0.00     0.171 HD
HETATM    7  C5  UNL     1      -7.310  -6.911  17.136  1.00  0.00     0.182 C 
ENDROOT
BRANCH   1   8
HETATM    8  C3  UNL     1      -3.482  -4.576  16.184  1.00  0.00     0.150 C 
BRANCH   8   9
HETATM    9  C2  UNL     1      -3.286  -3.188  15.701  1.00  0.00    -0.018 C 
HETATM   10  C1  UNL     1      -3.996  -2.188  16.174  1.00  0.00     0.008 C 
ENDBRANCH   8   9
ENDBRANCH   1   8
BRANCH   7  11
HETATM   11  N3  UNL     1      -8.658  -7.065  17.496  1.00  0.00    -0.374 N 
HETATM   12  C6  UNL     1      -9.892  -7.947  17.466  1.00  0.00     0.143 A 
HETATM   13  C7  UNL     1      -9.938  -6.652  18.110  1.00  0.00     0.143 A 
ENDBRANCH   7  11
TORSDOF 3
ENDMDL
MODEL 4
REMARK VINA RESULT: -5.128413599      2.014      5.439
REMARK  3 active torsions:
REMARK  status: ('A' for Active; 'I' for Inactive)
REMARK    1  A    between atoms: C2_2  and  C3_3 
REMARK    2  A    between atoms: C3_3  and  N1_4 
REMARK       I    between atoms: N1_4  and  C4_6 
REMARK       I    between atoms: C4_6  and  N2_8 
REMARK    3  A    between atoms: C5_10  and  N3_11 
ROOT
HETATM    1  N1  UNL     1      -5.319  -6.178  17.122  1.00  0.00    -0.339 N 
ATOM      2  H1  UNL     1      -6.123  -5.596  16.885  1.00  0.00     0.164 HD
HETATM    3  C4  UNL     1      -4.004  -5.745  16.818  1.00  0.00     0.321 C 
HETATM    4  O1  UNL     1      -2.962  -6.371  17.062  1.00  0.00    -0.247 OA
HETATM    5  N2  UNL     1      -3.860  -4.473  16.172  1.00  0.00    -0.305 N 
ATOM      6  H2  UNL     1      -4.008  -4.412  15.165  1.00  0.00     0.171 HD
HETATM    7  C5  UNL     1      -3.553  -3.414  16.815  1.00  0.00     0.182 C 
ENDROOT
BRANCH   1   8
HETATM    8  C3  UNL     1      -5.507  -7.449  17.768  1.00  0.00     0.150 C 
BRANCH   8   9
HETATM    9  C2  UNL     1      -6.892  -7.938  17.562  1.00  0.00    -0.018 C 
HETATM   10  C1  UNL     1      -7.902  -7.107  17.422  1.00  0.00     0.008 C 
ENDBRANCH   8   9
ENDBRANCH   1   8
BRANCH   7  11
HETATM   11  N3  UNL     1      -3.419  -2.181  16.157  1.00  0.00    -0.374 N 
HETATM   12  C6  UNL     1      -3.730  -0.697  16.158  1.00  0.00     0.143 A 
HETATM   13  C7  UNL     1      -2.966  -1.280  15.076  1.00  0.00     0.143 A 
ENDBRANCH   7  11
TORSDOF 3
ENDMDL
MODEL 5
REMARK VINA RESULT: -4.907026714      1.544      1.573
REMARK  3 active torsions:
REMARK  status: ('A' for Active; 'I' for Inactive)
REMARK    1  A    between atoms: C2_2  and  C3_3 
REMARK    2  A    between atoms: C3_3  and  N1_4 
REMARK       I    between atoms: N1_4  and  C4_6 
REMARK       I    between atoms: C4_6  and  N2_8 
REMARK    3  A    between atoms: C5_10  and  N3_11 
ROOT
HETATM    1  N1  UNL     1      -3.426  -5.526  17.416  1.00  0.00    -0.339 N 
ATOM      2  H1  UNL     1      -3.350  -6.479  17.771  1.00  0.00     0.164 HD
HETATM    3  C4  UNL     1      -4.639  -5.066  16.845  1.00  0.00     0.321 C 
HETATM    4  O1  UNL     1      -4.839  -3.932  16.387  1.00  0.00    -0.247 OA
HETATM    5  N2  UNL     1      -5.734  -5.991  16.788  1.00  0.00    -0.305 N 
ATOM      6  H2  UNL     1      -5.756  -6.683  16.039  1.00  0.00     0.171 HD
HETATM    7  C5  UNL     1      -6.681  -5.977  17.643  1.00  0.00     0.182 C 
ENDROOT
BRANCH   1   8
HETATM    8  C3  UNL     1      -2.302  -4.630  17.490  1.00  0.00     0.150 C 
BRANCH   8   9
HETATM    9  C2  UNL     1      -1.359  -4.885  16.375  1.00  0.00    -0.018 C 
HETATM   10  C1  UNL     1      -1.416  -4.198  15.255  1.00  0.00     0.008 C 
ENDBRANCH   8   9
ENDBRANCH   1   8
BRANCH   7  11
HETATM   11  N3  UNL     1      -7.741  -6.894  17.564  1.00  0.00    -0.374 N 
HETATM   12  C6  UNL     1      -8.169  -8.327  17.312  1.00  0.00     0.143 A 
HETATM   13  C7  UNL     1      -9.157  -7.317  17.624  1.00  0.00     0.143 A 
ENDBRANCH   7  11
TORSDOF 3
ENDMDL
