MODEL 1
REMARK VINA RESULT: -9.017914284      0.000      0.000
REMARK  14 active torsions:
REMARK  status: ('A' for Active; 'I' for Inactive)
REMARK    1  A    between atoms: C2_2  and  C3_3 
REMARK    2  A    between atoms: C3_3  and  N1_4 
REMARK    3  A    between atoms: C6_7  and  N2_8 
REMARK    4  A    between atoms: N2_8  and  C7_10 
REMARK    5  A    between atoms: C8_13  and  N4_14 
REMARK    6  A    between atoms: N4_14  and  C9_16 
REMARK    7  A    between atoms: C9_16  and  C10_17 
REMARK    8  A    between atoms: C10_17  and  C11_18 
REMARK    9  A    between atoms: C11_18  and  N5_19 
REMARK       I    between atoms: N5_19  and  C12_21 
REMARK   10  A    between atoms: C12_21  and  C13_23 
REMARK   11  A    between atoms: C13_23  and  C14_24 
REMARK   12  A    between atoms: C14_24  and  C15_25 
REMARK   13  A    between atoms: C15_25  and  N6_26 
REMARK   14  A    between atoms: C25_43  and  O3_44 
ROOT
HETATM    1  C7  UNL     1      -7.143  26.309  -2.355  1.00  0.00     0.153 A 
HETATM    2  N3  UNL     1      -7.500  25.133  -2.864  1.00  0.00    -0.174 N 
ATOM      3  H3  UNL     1      -7.728  24.371  -2.224  1.00  0.00     0.186 HD
HETATM    4  C8  UNL     1      -7.571  24.907  -4.195  1.00  0.00     0.680 A 
HETATM    5  N7  UNL     1      -7.274  25.907  -5.001  1.00  0.00    -0.188 N 
ATOM      6  H7  UNL     1      -7.332  25.727  -6.003  1.00  0.00     0.184 HD
HETATM    7  C16 UNL     1      -6.892  27.172  -4.614  1.00  0.00     0.097 A 
HETATM    8  C17 UNL     1      -6.522  28.115  -5.620  1.00  0.00     0.003 A 
HETATM    9  C18 UNL     1      -5.904  27.561  -6.760  1.00  0.00     0.016 A 
HETATM   10  C19 UNL     1      -5.572  28.302  -7.867  1.00  0.00     0.023 A 
HETATM   11  C20 UNL     1      -5.843  29.649  -7.895  1.00  0.00     0.044 A 
HETATM   12 BR1  UNL     1      -5.381  30.701  -9.428  1.00  0.00    -0.048 Br
HETATM   13  C21 UNL     1      -6.446  30.188  -6.789  1.00  0.00     0.093 A 
HETATM   14  C22 UNL     1      -6.794  29.448  -5.644  1.00  0.00    -0.009 A 
HETATM   15  C23 UNL     1      -7.466  30.394  -4.723  1.00  0.00     0.069 C 
HETATM   16  C24 UNL     1      -7.907  31.505  -5.705  1.00  0.00     0.180 C 
HETATM   17  O2  UNL     1      -6.809  31.530  -6.614  1.00  0.00    -0.349 OA
HETATM   18  C25 UNL     1      -6.831  27.349  -3.261  1.00  0.00     0.138 A 
ENDROOT
BRANCH   4  19
HETATM   19  N4  UNL     1      -7.922  23.748  -4.674  1.00  0.00    -0.226 N 
ATOM     20  H4  UNL     1      -8.765  23.276  -4.349  1.00  0.00     0.177 HD
BRANCH  19  21
HETATM   21  C9  UNL     1      -7.076  23.156  -5.682  1.00  0.00     0.139 C 
BRANCH  21  22
HETATM   22  C10 UNL     1      -5.755  22.689  -5.101  1.00  0.00     0.040 C 
BRANCH  22  23
HETATM   23  C11 UNL     1      -4.601  23.449  -5.738  1.00  0.00     0.124 C 
BRANCH  23  24
HETATM   24  N5  UNL     1      -3.717  22.531  -6.394  1.00  0.00    -0.361 N 
HETATM   25  C12 UNL     1      -2.330  22.583  -6.176  1.00  0.00     0.217 C 
HETATM   26  O1  UNL     1      -1.847  23.443  -5.395  1.00  0.00    -0.274 OA
ATOM     27  H5  UNL     1      -4.100  21.830  -7.028  1.00  0.00     0.162 HD
BRANCH  25  28
HETATM   28  C13 UNL     1      -1.453  21.616  -6.876  1.00  0.00     0.104 C 
BRANCH  28  29
HETATM   29  C14 UNL     1      -0.387  22.331  -7.654  1.00  0.00     0.036 C 
BRANCH  29  30
HETATM   30  C15 UNL     1       0.935  22.002  -6.950  1.00  0.00     0.230 C 
BRANCH  30  31
HETATM   31  N6  UNL     1       1.187  23.061  -6.005  1.00  0.00    -0.079 N 
ATOM     32  H63 UNL     1       0.423  23.734  -5.946  1.00  0.00     0.274 HD
ATOM     33  H62 UNL     1       1.161  22.746  -5.035  1.00  0.00     0.274 HD
ATOM     34  H61 UNL     1       2.077  23.487  -6.262  1.00  0.00     0.274 HD
ENDBRANCH  30  31
ENDBRANCH  29  30
ENDBRANCH  28  29
ENDBRANCH  25  28
ENDBRANCH  23  24
ENDBRANCH  22  23
ENDBRANCH  21  22
ENDBRANCH  19  21
ENDBRANCH   4  19
BRANCH   1  35
HETATM   35  N2  UNL     1      -7.061  26.588  -1.112  1.00  0.00    -0.369 N 
ATOM     36  H2  UNL     1      -6.117  26.604  -0.727  1.00  0.00     0.161 HD
BRANCH  35  37
HETATM   37  C6  UNL     1      -8.101  26.879  -0.191  1.00  0.00     0.086 C 
HETATM   38  C5  UNL     1      -7.681  27.797   0.925  1.00  0.00     0.055 C 
HETATM   39  C4  UNL     1      -7.676  27.024   2.211  1.00  0.00     0.275 C 
HETATM   40  N1  UNL     1      -6.907  25.821   2.140  1.00  0.00     0.091 N 
HETATM   41  C27 UNL     1      -7.369  24.947   1.116  1.00  0.00     0.275 C 
HETATM   42  C26 UNL     1      -8.557  25.542   0.410  1.00  0.00     0.055 C 
BRANCH  40  43
HETATM   43  C3  UNL     1      -6.759  25.182   3.434  1.00  0.00     0.299 C 
BRANCH  43  44
HETATM   44  C2  UNL     1      -7.496  23.905   3.526  1.00  0.00    -0.007 C 
HETATM   45  C1  UNL     1      -7.358  23.108   4.589  1.00  0.00     0.008 C 
ENDBRANCH  43  44
ENDBRANCH  40  43
ENDBRANCH  35  37
ENDBRANCH   1  35
BRANCH  18  46
HETATM   46  O3  UNL     1      -6.451  28.557  -2.711  1.00  0.00    -0.355 OA
ATOM     47  H3  UNL     1      -5.569  28.853  -2.902  1.00  0.00     0.218 HD
ENDBRANCH  18  46
TORSDOF 14
ENDMDL
MODEL 2
REMARK VINA RESULT: -8.810246705      1.443      2.287
REMARK  14 active torsions:
REMARK  status: ('A' for Active; 'I' for Inactive)
REMARK    1  A    between atoms: C2_2  and  C3_3 
REMARK    2  A    between atoms: C3_3  and  N1_4 
REMARK    3  A    between atoms: C6_7  and  N2_8 
REMARK    4  A    between atoms: N2_8  and  C7_10 
REMARK    5  A    between atoms: C8_13  and  N4_14 
REMARK    6  A    between atoms: N4_14  and  C9_16 
REMARK    7  A    between atoms: C9_16  and  C10_17 
REMARK    8  A    between atoms: C10_17  and  C11_18 
REMARK    9  A    between atoms: C11_18  and  N5_19 
REMARK       I    between atoms: N5_19  and  C12_21 
REMARK   10  A    between atoms: C12_21  and  C13_23 
REMARK   11  A    between atoms: C13_23  and  C14_24 
REMARK   12  A    between atoms: C14_24  and  C15_25 
REMARK   13  A    between atoms: C15_25  and  N6_26 
REMARK   14  A    between atoms: C25_43  and  O3_44 
ROOT
HETATM    1  C7  UNL     1      -6.679  25.915  -2.267  1.00  0.00     0.153 A 
HETATM    2  N3  UNL     1      -7.130  24.775  -2.784  1.00  0.00    -0.174 N 
ATOM      3  H3  UNL     1      -7.290  23.984  -2.159  1.00  0.00     0.186 HD
HETATM    4  C8  UNL     1      -7.384  24.624  -4.103  1.00  0.00     0.680 A 
HETATM    5  N7  UNL     1      -7.171  25.660  -4.889  1.00  0.00    -0.188 N 
ATOM      6  H7  UNL     1      -7.367  25.537  -5.882  1.00  0.00     0.184 HD
HETATM    7  C16 UNL     1      -6.710  26.896  -4.492  1.00  0.00     0.097 A 
HETATM    8  C17 UNL     1      -6.453  27.885  -5.488  1.00  0.00     0.003 A 
HETATM    9  C18 UNL     1      -6.006  27.383  -6.729  1.00  0.00     0.016 A 
HETATM   10  C19 UNL     1      -5.806  28.177  -7.830  1.00  0.00     0.023 A 
HETATM   11  C20 UNL     1      -6.045  29.528  -7.752  1.00  0.00     0.044 A 
HETATM   12 BR1  UNL     1      -5.765  30.653  -9.277  1.00  0.00    -0.048 Br
HETATM   13  C21 UNL     1      -6.481  30.017  -6.548  1.00  0.00     0.093 A 
HETATM   14  C22 UNL     1      -6.692  29.222  -5.407  1.00  0.00    -0.009 A 
HETATM   15  C23 UNL     1      -7.212  30.129  -4.356  1.00  0.00     0.069 C 
HETATM   16  C24 UNL     1      -7.751  31.299  -5.212  1.00  0.00     0.180 C 
HETATM   17  O2  UNL     1      -6.784  31.354  -6.257  1.00  0.00    -0.349 OA
HETATM   18  C25 UNL     1      -6.464  26.998  -3.152  1.00  0.00     0.138 A 
ENDROOT
BRANCH   4  19
HETATM   19  N4  UNL     1      -7.824  23.499  -4.590  1.00  0.00    -0.226 N 
ATOM     20  H4  UNL     1      -8.634  23.030  -4.184  1.00  0.00     0.177 HD
BRANCH  19  21
HETATM   21  C9  UNL     1      -7.127  22.940  -5.723  1.00  0.00     0.139 C 
BRANCH  21  22
HETATM   22  C10 UNL     1      -5.782  22.364  -5.325  1.00  0.00     0.040 C 
BRANCH  22  23
HETATM   23  C11 UNL     1      -4.837  22.357  -6.517  1.00  0.00     0.124 C 
BRANCH  23  24
HETATM   24  N5  UNL     1      -3.547  22.836  -6.118  1.00  0.00    -0.361 N 
HETATM   25  C12 UNL     1      -2.372  22.247  -6.615  1.00  0.00     0.217 C 
HETATM   26  O1  UNL     1      -2.443  21.284  -7.421  1.00  0.00    -0.274 OA
ATOM     27  H5  UNL     1      -3.480  23.616  -5.464  1.00  0.00     0.162 HD
BRANCH  25  28
HETATM   28  C13 UNL     1      -1.059  22.774  -6.174  1.00  0.00     0.104 C 
BRANCH  28  29
HETATM   29  C14 UNL     1      -0.047  22.669  -7.278  1.00  0.00     0.036 C 
BRANCH  29  30
HETATM   30  C15 UNL     1       1.288  23.108  -6.664  1.00  0.00     0.230 C 
BRANCH  30  31
HETATM   31  N6  UNL     1       0.987  23.733  -5.400  1.00  0.00    -0.079 N 
ATOM     32  H63 UNL     1       0.101  24.238  -5.405  1.00  0.00     0.274 HD
ATOM     33  H62 UNL     1       0.753  23.063  -4.667  1.00  0.00     0.274 HD
ATOM     34  H61 UNL     1       1.784  24.325  -5.161  1.00  0.00     0.274 HD
ENDBRANCH  30  31
ENDBRANCH  29  30
ENDBRANCH  28  29
ENDBRANCH  25  28
ENDBRANCH  23  24
ENDBRANCH  22  23
ENDBRANCH  21  22
ENDBRANCH  19  21
ENDBRANCH   4  19
BRANCH   1  35
HETATM   35  N2  UNL     1      -6.425  26.125  -1.034  1.00  0.00    -0.369 N 
ATOM     36  H2  UNL     1      -5.703  26.821  -0.847  1.00  0.00     0.161 HD
BRANCH  35  37
HETATM   37  C6  UNL     1      -7.007  25.525   0.113  1.00  0.00     0.086 C 
HETATM   38  C5  UNL     1      -8.377  24.954  -0.133  1.00  0.00     0.055 C 
HETATM   39  C4  UNL     1      -9.385  25.775   0.618  1.00  0.00     0.275 C 
HETATM   40  N1  UNL     1      -9.289  27.174   0.338  1.00  0.00     0.091 N 
HETATM   41  C27 UNL     1      -8.000  27.696   0.640  1.00  0.00     0.275 C 
HETATM   42  C26 UNL     1      -7.108  26.615   1.189  1.00  0.00     0.055 C 
BRANCH  40  43
HETATM   43  C3  UNL     1     -10.380  27.930   0.923  1.00  0.00     0.299 C 
BRANCH  43  44
HETATM   44  C2  UNL     1     -11.698  27.308   0.680  1.00  0.00    -0.007 C 
HETATM   45  C1  UNL     1     -12.744  28.045   0.297  1.00  0.00     0.008 C 
ENDBRANCH  43  44
ENDBRANCH  40  43
ENDBRANCH  35  37
ENDBRANCH   1  35
BRANCH  18  46
HETATM   46  O3  UNL     1      -5.984  28.166  -2.597  1.00  0.00    -0.355 OA
ATOM     47  H3  UNL     1      -6.449  28.965  -2.818  1.00  0.00     0.218 HD
ENDBRANCH  18  46
TORSDOF 14
ENDMDL
MODEL 3
REMARK VINA RESULT: -8.664839517      3.161      7.534
REMARK  14 active torsions:
REMARK  status: ('A' for Active; 'I' for Inactive)
REMARK    1  A    between atoms: C2_2  and  C3_3 
REMARK    2  A    between atoms: C3_3  and  N1_4 
REMARK    3  A    between atoms: C6_7  and  N2_8 
REMARK    4  A    between atoms: N2_8  and  C7_10 
REMARK    5  A    between atoms: C8_13  and  N4_14 
REMARK    6  A    between atoms: N4_14  and  C9_16 
REMARK    7  A    between atoms: C9_16  and  C10_17 
REMARK    8  A    between atoms: C10_17  and  C11_18 
REMARK    9  A    between atoms: C11_18  and  N5_19 
REMARK       I    between atoms: N5_19  and  C12_21 
REMARK   10  A    between atoms: C12_21  and  C13_23 
REMARK   11  A    between atoms: C13_23  and  C14_24 
REMARK   12  A    between atoms: C14_24  and  C15_25 
REMARK   13  A    between atoms: C15_25  and  N6_26 
REMARK   14  A    between atoms: C25_43  and  O3_44 
ROOT
HETATM    1  C7  UNL     1      -5.949  26.750  -5.522  1.00  0.00     0.153 A 
HETATM    2  N3  UNL     1      -5.224  25.673  -5.807  1.00  0.00    -0.174 N 
ATOM      3  H3  UNL     1      -4.843  25.573  -6.749  1.00  0.00     0.186 HD
HETATM    4  C8  UNL     1      -4.971  24.704  -4.898  1.00  0.00     0.680 A 
HETATM    5  N7  UNL     1      -5.471  24.856  -3.688  1.00  0.00    -0.188 N 
ATOM      6  H7  UNL     1      -5.273  24.121  -3.010  1.00  0.00     0.184 HD
HETATM    7  C16 UNL     1      -6.235  25.917  -3.256  1.00  0.00     0.097 A 
HETATM    8  C17 UNL     1      -6.770  25.884  -1.933  1.00  0.00     0.003 A 
HETATM    9  C18 UNL     1      -7.097  24.598  -1.452  1.00  0.00     0.016 A 
HETATM   10  C19 UNL     1      -7.528  24.364  -0.171  1.00  0.00     0.023 A 
HETATM   11  C20 UNL     1      -7.656  25.412   0.709  1.00  0.00     0.044 A 
HETATM   12 BR1  UNL     1      -8.263  25.106   2.501  1.00  0.00    -0.048 Br
HETATM   13  C21 UNL     1      -7.337  26.661   0.245  1.00  0.00     0.093 A 
HETATM   14  C22 UNL     1      -6.894  26.923  -1.064  1.00  0.00    -0.009 A 
HETATM   15  C23 UNL     1      -6.610  28.376  -1.126  1.00  0.00     0.069 C 
HETATM   16  C24 UNL     1      -6.423  28.708   0.373  1.00  0.00     0.180 C 
HETATM   17  O2  UNL     1      -7.395  27.856   0.974  1.00  0.00    -0.349 OA
HETATM   18  C25 UNL     1      -6.466  26.866  -4.210  1.00  0.00     0.138 A 
ENDROOT
BRANCH   4  19
HETATM   19  N4  UNL     1      -4.258  23.656  -5.197  1.00  0.00    -0.226 N 
ATOM     20  H4  UNL     1      -3.274  23.594  -4.935  1.00  0.00     0.177 HD
BRANCH  19  21
HETATM   21  C9  UNL     1      -4.909  22.584  -5.911  1.00  0.00     0.139 C 
BRANCH  21  22
HETATM   22  C10 UNL     1      -3.973  21.921  -6.904  1.00  0.00     0.040 C 
BRANCH  22  23
HETATM   23  C11 UNL     1      -2.526  22.231  -6.552  1.00  0.00     0.124 C 
BRANCH  23  24
HETATM   24  N5  UNL     1      -1.678  21.166  -6.999  1.00  0.00    -0.361 N 
HETATM   25  C12 UNL     1      -0.528  21.428  -7.762  1.00  0.00     0.217 C 
HETATM   26  O1  UNL     1      -0.229  22.612  -8.062  1.00  0.00    -0.274 OA
ATOM     27  H5  UNL     1      -1.912  20.202  -6.759  1.00  0.00     0.162 HD
BRANCH  25  28
HETATM   28  C13 UNL     1       0.320  20.296  -8.203  1.00  0.00     0.104 C 
BRANCH  28  29
HETATM   29  C14 UNL     1       1.599  20.794  -8.810  1.00  0.00     0.036 C 
BRANCH  29  30
HETATM   30  C15 UNL     1       2.642  20.740  -7.687  1.00  0.00     0.230 C 
BRANCH  30  31
HETATM   31  N6  UNL     1       2.932  22.102  -7.313  1.00  0.00    -0.079 N 
ATOM     32  H63 UNL     1       2.511  22.787  -7.940  1.00  0.00     0.274 HD
ATOM     33  H62 UNL     1       2.454  22.393  -6.460  1.00  0.00     0.274 HD
ATOM     34  H61 UNL     1       3.947  22.187  -7.250  1.00  0.00     0.274 HD
ENDBRANCH  30  31
ENDBRANCH  29  30
ENDBRANCH  28  29
ENDBRANCH  25  28
ENDBRANCH  23  24
ENDBRANCH  22  23
ENDBRANCH  21  22
ENDBRANCH  19  21
ENDBRANCH   4  19
BRANCH   1  35
HETATM   35  N2  UNL     1      -6.220  27.701  -6.330  1.00  0.00    -0.369 N 
ATOM     36  H2  UNL     1      -7.202  27.790  -6.590  1.00  0.00     0.161 HD
BRANCH  35  37
HETATM   37  C6  UNL     1      -5.344  28.651  -6.918  1.00  0.00     0.086 C 
HETATM   38  C5  UNL     1      -5.812  30.073  -6.777  1.00  0.00     0.055 C 
HETATM   39  C4  UNL     1      -6.196  30.593  -8.132  1.00  0.00     0.275 C 
HETATM   40  N1  UNL     1      -7.127  29.750  -8.814  1.00  0.00     0.091 N 
HETATM   41  C27 UNL     1      -6.628  28.428  -8.986  1.00  0.00     0.275 C 
HETATM   42  C26 UNL     1      -5.243  28.306  -8.410  1.00  0.00     0.055 C 
BRANCH  40  43
HETATM   43  C3  UNL     1      -7.627  30.352 -10.034  1.00  0.00     0.299 C 
BRANCH  43  44
HETATM   44  C2  UNL     1      -8.414  29.409 -10.855  1.00  0.00    -0.007 C 
HETATM   45  C1  UNL     1      -8.290  29.385 -12.184  1.00  0.00     0.008 C 
ENDBRANCH  43  44
ENDBRANCH  40  43
ENDBRANCH  35  37
ENDBRANCH   1  35
BRANCH  18  46
HETATM   46  O3  UNL     1      -7.227  27.986  -3.940  1.00  0.00    -0.355 OA
ATOM     47  H3  UNL     1      -8.070  27.839  -3.528  1.00  0.00     0.218 HD
ENDBRANCH  18  46
TORSDOF 14
ENDMDL
MODEL 4
REMARK VINA RESULT: -8.646090312      1.268      1.979
REMARK  14 active torsions:
REMARK  status: ('A' for Active; 'I' for Inactive)
REMARK    1  A    between atoms: C2_2  and  C3_3 
REMARK    2  A    between atoms: C3_3  and  N1_4 
REMARK    3  A    between atoms: C6_7  and  N2_8 
REMARK    4  A    between atoms: N2_8  and  C7_10 
REMARK    5  A    between atoms: C8_13  and  N4_14 
REMARK    6  A    between atoms: N4_14  and  C9_16 
REMARK    7  A    between atoms: C9_16  and  C10_17 
REMARK    8  A    between atoms: C10_17  and  C11_18 
REMARK    9  A    between atoms: C11_18  and  N5_19 
REMARK       I    between atoms: N5_19  and  C12_21 
REMARK   10  A    between atoms: C12_21  and  C13_23 
REMARK   11  A    between atoms: C13_23  and  C14_24 
REMARK   12  A    between atoms: C14_24  and  C15_25 
REMARK   13  A    between atoms: C15_25  and  N6_26 
REMARK   14  A    between atoms: C25_43  and  O3_44 
ROOT
HETATM    1  C7  UNL     1      -7.043  25.998  -2.290  1.00  0.00     0.153 A 
HETATM    2  N3  UNL     1      -7.407  24.840  -2.833  1.00  0.00    -0.174 N 
ATOM      3  H3  UNL     1      -7.609  24.051  -2.218  1.00  0.00     0.186 HD
HETATM    4  C8  UNL     1      -7.521  24.667  -4.169  1.00  0.00     0.680 A 
HETATM    5  N7  UNL     1      -7.258  25.701  -4.944  1.00  0.00    -0.188 N 
ATOM      6  H7  UNL     1      -7.348  25.561  -5.950  1.00  0.00     0.184 HD
HETATM    7  C16 UNL     1      -6.874  26.953  -4.519  1.00  0.00     0.097 A 
HETATM    8  C17 UNL     1      -6.545  27.939  -5.497  1.00  0.00     0.003 A 
HETATM    9  C18 UNL     1      -5.960  27.437  -6.679  1.00  0.00     0.016 A 
HETATM   10  C19 UNL     1      -5.671  28.224  -7.766  1.00  0.00     0.023 A 
HETATM   11  C20 UNL     1      -5.954  29.568  -7.730  1.00  0.00     0.044 A 
HETATM   12 BR1  UNL     1      -5.550  30.685  -9.234  1.00  0.00    -0.048 Br
HETATM   13  C21 UNL     1      -6.523  30.058  -6.584  1.00  0.00     0.093 A 
HETATM   14  C22 UNL     1      -6.828  29.269  -5.459  1.00  0.00    -0.009 A 
HETATM   15  C23 UNL     1      -7.477  30.172  -4.479  1.00  0.00     0.069 C 
HETATM   16  C24 UNL     1      -7.958  31.316  -5.401  1.00  0.00     0.180 C 
HETATM   17  O2  UNL     1      -6.891  31.388  -6.343  1.00  0.00    -0.349 OA
HETATM   18  C25 UNL     1      -6.770  27.077  -3.163  1.00  0.00     0.138 A 
ENDROOT
BRANCH   4  19
HETATM   19  N4  UNL     1      -7.879  23.525  -4.683  1.00  0.00    -0.226 N 
ATOM     20  H4  UNL     1      -8.686  23.015  -4.326  1.00  0.00     0.177 HD
BRANCH  19  21
HETATM   21  C9  UNL     1      -7.092  23.006  -5.776  1.00  0.00     0.139 C 
BRANCH  21  22
HETATM   22  C10 UNL     1      -5.740  22.503  -5.305  1.00  0.00     0.040 C 
BRANCH  22  23
HETATM   23  C11 UNL     1      -4.627  23.366  -5.879  1.00  0.00     0.124 C 
BRANCH  23  24
HETATM   24  N5  UNL     1      -3.584  22.533  -6.399  1.00  0.00    -0.361 N 
HETATM   25  C12 UNL     1      -2.237  22.779  -6.083  1.00  0.00     0.217 C 
HETATM   26  O1  UNL     1      -1.932  23.742  -5.334  1.00  0.00    -0.274 OA
ATOM     27  H5  UNL     1      -3.823  21.749  -7.007  1.00  0.00     0.162 HD
BRANCH  25  28
HETATM   28  C13 UNL     1      -1.191  21.892  -6.645  1.00  0.00     0.104 C 
BRANCH  28  29
HETATM   29  C14 UNL     1      -0.167  22.689  -7.400  1.00  0.00     0.036 C 
BRANCH  29  30
HETATM   30  C15 UNL     1       1.126  22.588  -6.583  1.00  0.00     0.230 C 
BRANCH  30  31
HETATM   31  N6  UNL     1       1.074  23.622  -5.579  1.00  0.00    -0.079 N 
ATOM     32  H63 UNL     1       0.234  24.196  -5.639  1.00  0.00     0.274 HD
ATOM     33  H62 UNL     1       0.919  23.259  -4.638  1.00  0.00     0.274 HD
ATOM     34  H61 UNL     1       1.936  24.163  -5.661  1.00  0.00     0.274 HD
ENDBRANCH  30  31
ENDBRANCH  29  30
ENDBRANCH  28  29
ENDBRANCH  25  28
ENDBRANCH  23  24
ENDBRANCH  22  23
ENDBRANCH  21  22
ENDBRANCH  19  21
ENDBRANCH   4  19
BRANCH   1  35
HETATM   35  N2  UNL     1      -6.922  26.228  -1.040  1.00  0.00    -0.369 N 
ATOM     36  H2  UNL     1      -6.063  26.702  -0.762  1.00  0.00     0.161 HD
BRANCH  35  37
HETATM   37  C6  UNL     1      -7.817  25.916   0.017  1.00  0.00     0.086 C 
HETATM   38  C5  UNL     1      -9.218  26.414  -0.210  1.00  0.00     0.055 C 
HETATM   39  C4  UNL     1      -9.507  27.511   0.773  1.00  0.00     0.275 C 
HETATM   40  N1  UNL     1      -8.523  28.548   0.762  1.00  0.00     0.091 N 
HETATM   41  C27 UNL     1      -7.218  28.053   1.041  1.00  0.00     0.275 C 
HETATM   42  C26 UNL     1      -7.257  26.569   1.288  1.00  0.00     0.055 C 
BRANCH  40  43
HETATM   43  C3  UNL     1      -8.908  29.684   1.578  1.00  0.00     0.299 C 
BRANCH  43  44
HETATM   44  C2  UNL     1      -9.761  29.300   2.721  1.00  0.00    -0.007 C 
HETATM   45  C1  UNL     1      -9.348  29.486   3.978  1.00  0.00     0.008 C 
ENDBRANCH  43  44
ENDBRANCH  40  43
ENDBRANCH  35  37
ENDBRANCH   1  35
BRANCH  18  46
HETATM   46  O3  UNL     1      -6.381  28.264  -2.578  1.00  0.00    -0.355 OA
ATOM     47  H3  UNL     1      -6.867  29.042  -2.828  1.00  0.00     0.218 HD
ENDBRANCH  18  46
TORSDOF 14
ENDMDL
MODEL 5
REMARK VINA RESULT: -8.549882217      0.857      1.044
REMARK  14 active torsions:
REMARK  status: ('A' for Active; 'I' for Inactive)
REMARK    1  A    between atoms: C2_2  and  C3_3 
REMARK    2  A    between atoms: C3_3  and  N1_4 
REMARK    3  A    between atoms: C6_7  and  N2_8 
REMARK    4  A    between atoms: N2_8  and  C7_10 
REMARK    5  A    between atoms: C8_13  and  N4_14 
REMARK    6  A    between atoms: N4_14  and  C9_16 
REMARK    7  A    between atoms: C9_16  and  C10_17 
REMARK    8  A    between atoms: C10_17  and  C11_18 
REMARK    9  A    between atoms: C11_18  and  N5_19 
REMARK       I    between atoms: N5_19  and  C12_21 
REMARK   10  A    between atoms: C12_21  and  C13_23 
REMARK   11  A    between atoms: C13_23  and  C14_24 
REMARK   12  A    between atoms: C14_24  and  C15_25 
REMARK   13  A    between atoms: C15_25  and  N6_26 
REMARK   14  A    between atoms: C25_43  and  O3_44 
ROOT
HETATM    1  C7  UNL     1      -7.209  26.060  -2.253  1.00  0.00     0.153 A 
HETATM    2  N3  UNL     1      -7.565  24.905  -2.808  1.00  0.00    -0.174 N 
ATOM      3  H3  UNL     1      -7.814  24.124  -2.199  1.00  0.00     0.186 HD
HETATM    4  C8  UNL     1      -7.609  24.723  -4.146  1.00  0.00     0.680 A 
HETATM    5  N7  UNL     1      -7.286  25.745  -4.913  1.00  0.00    -0.188 N 
ATOM      6  H7  UNL     1      -7.323  25.599  -5.921  1.00  0.00     0.184 HD
HETATM    7  C16 UNL     1      -6.902  26.994  -4.476  1.00  0.00     0.097 A 
HETATM    8  C17 UNL     1      -6.502  27.966  -5.443  1.00  0.00     0.003 A 
HETATM    9  C18 UNL     1      -5.863  27.444  -6.587  1.00  0.00     0.016 A 
HETATM   10  C19 UNL     1      -5.501  28.217  -7.662  1.00  0.00     0.023 A 
HETATM   11  C20 UNL     1      -5.760  29.566  -7.651  1.00  0.00     0.044 A 
HETATM   12 BR1  UNL     1      -5.255  30.663  -9.139  1.00  0.00    -0.048 Br
HETATM   13  C21 UNL     1      -6.383  30.075  -6.542  1.00  0.00     0.093 A 
HETATM   14  C22 UNL     1      -6.762  29.301  -5.430  1.00  0.00    -0.009 A 
HETATM   15  C23 UNL     1      -7.446  30.223  -4.493  1.00  0.00     0.069 C 
HETATM   16  C24 UNL     1      -7.856  31.369  -5.447  1.00  0.00     0.180 C 
HETATM   17  O2  UNL     1      -6.738  31.414  -6.331  1.00  0.00    -0.349 OA
HETATM   18  C25 UNL     1      -6.869  27.127  -3.118  1.00  0.00     0.138 A 
ENDROOT
BRANCH   4  19
HETATM   19  N4  UNL     1      -7.959  23.583  -4.671  1.00  0.00    -0.226 N 
ATOM     20  H4  UNL     1      -8.796  23.092  -4.356  1.00  0.00     0.177 HD
BRANCH  19  21
HETATM   21  C9  UNL     1      -7.121  23.039  -5.712  1.00  0.00     0.139 C 
BRANCH  21  22
HETATM   22  C10 UNL     1      -5.772  22.601  -5.176  1.00  0.00     0.040 C 
BRANCH  22  23
HETATM   23  C11 UNL     1      -4.820  22.298  -6.322  1.00  0.00     0.124 C 
BRANCH  23  24
HETATM   24  N5  UNL     1      -3.525  22.841  -6.036  1.00  0.00    -0.361 N 
HETATM   25  C12 UNL     1      -2.364  22.262  -6.576  1.00  0.00     0.217 C 
HETATM   26  O1  UNL     1      -2.452  21.254  -7.321  1.00  0.00    -0.274 OA
ATOM     27  H5  UNL     1      -3.445  23.659  -5.433  1.00  0.00     0.162 HD
BRANCH  25  28
HETATM   28  C13 UNL     1      -1.045  22.856  -6.252  1.00  0.00     0.104 C 
BRANCH  28  29
HETATM   29  C14 UNL     1       0.055  22.132  -6.973  1.00  0.00     0.036 C 
BRANCH  29  30
HETATM   30  C15 UNL     1       1.334  22.928  -6.689  1.00  0.00     0.230 C 
BRANCH  30  31
HETATM   31  N6  UNL     1       1.105  23.681  -5.481  1.00  0.00    -0.079 N 
ATOM     32  H63 UNL     1       0.469  23.215  -4.834  1.00  0.00     0.274 HD
ATOM     33  H62 UNL     1       1.919  23.710  -4.867  1.00  0.00     0.274 HD
ATOM     34  H61 UNL     1       0.784  24.608  -5.762  1.00  0.00     0.274 HD
ENDBRANCH  30  31
ENDBRANCH  29  30
ENDBRANCH  28  29
ENDBRANCH  25  28
ENDBRANCH  23  24
ENDBRANCH  22  23
ENDBRANCH  21  22
ENDBRANCH  19  21
ENDBRANCH   4  19
BRANCH   1  35
HETATM   35  N2  UNL     1      -7.153  26.298  -1.000  1.00  0.00    -0.369 N 
ATOM     36  H2  UNL     1      -6.219  26.276  -0.592  1.00  0.00     0.161 HD
BRANCH  35  37
HETATM   37  C6  UNL     1      -8.208  26.589  -0.097  1.00  0.00     0.086 C 
HETATM   38  C5  UNL     1      -7.883  27.685   0.881  1.00  0.00     0.055 C 
HETATM   39  C4  UNL     1      -7.774  27.090   2.255  1.00  0.00     0.275 C 
HETATM   40  N1  UNL     1      -6.874  25.981   2.318  1.00  0.00     0.091 N 
HETATM   41  C27 UNL     1      -7.246  24.936   1.426  1.00  0.00     0.275 C 
HETATM   42  C26 UNL     1      -8.503  25.299   0.681  1.00  0.00     0.055 C 
BRANCH  40  43
HETATM   43  C3  UNL     1      -6.640  25.537   3.678  1.00  0.00     0.299 C 
BRANCH  43  44
HETATM   44  C2  UNL     1      -5.456  26.176   4.291  1.00  0.00    -0.007 C 
HETATM   45  C1  UNL     1      -4.465  25.440   4.799  1.00  0.00     0.008 C 
ENDBRANCH  43  44
ENDBRANCH  40  43
ENDBRANCH  35  37
ENDBRANCH   1  35
BRANCH  18  46
HETATM   46  O3  UNL     1      -6.491  28.312  -2.521  1.00  0.00    -0.355 OA
ATOM     47  H3  UNL     1      -5.558  28.465  -2.428  1.00  0.00     0.218 HD
ENDBRANCH  18  46
TORSDOF 14
ENDMDL
