MODEL 1
REMARK VINA RESULT: -9.571181331      0.000      0.000
REMARK  12 active torsions:
REMARK  status: ('A' for Active; 'I' for Inactive)
REMARK    1  A    between atoms: C2_2  and  C3_3 
REMARK    2  A    between atoms: C3_3  and  C4_4 
REMARK    3  A    between atoms: C4_4  and  N1_5 
REMARK       I    between atoms: N1_5  and  C5_7 
REMARK    4  A    between atoms: C5_7  and  C6_9 
REMARK    5  A    between atoms: C6_9  and  N2_10 
REMARK    6  A    between atoms: C6_9  and  C24_42 
REMARK       I    between atoms: N2_10  and  C7_12 
REMARK    7  A    between atoms: C7_12  and  O3_14 
REMARK    8  A    between atoms: O3_14  and  C8_15 
REMARK    9  A    between atoms: C10_17  and  N3_18 
REMARK       I    between atoms: N3_18  and  C11_20 
REMARK   10  A    between atoms: C11_20  and  C12_22 
REMARK   11  A    between atoms: C15_25  and  C16_26 
REMARK   12  A    between atoms: C16_26  and  C17_28 
REMARK       I    between atoms: C17_28  and  N4_30 
ROOT
HETATM    1  C8  UNL     1      -8.201  24.813   1.096  1.00  0.00     0.147 C 
HETATM    2  C9  UNL     1      -8.121  23.920   2.321  1.00  0.00     0.058 C 
HETATM    3  C10 UNL     1      -9.039  24.540   3.356  1.00  0.00     0.087 C 
HETATM    4  C14 UNL     1      -9.972  25.456   2.640  1.00  0.00     0.040 C 
HETATM    5  C15 UNL     1      -9.468  25.578   1.197  1.00  0.00     0.097 C 
ENDROOT
BRANCH   1   6
HETATM    6  O3  UNL     1      -8.047  24.068  -0.096  1.00  0.00    -0.298 OA
BRANCH   6   7
HETATM    7  C7  UNL     1      -7.253  24.474  -1.138  1.00  0.00     0.361 C 
HETATM    8  N2  UNL     1      -7.665  24.595  -2.474  1.00  0.00    -0.323 N 
ATOM      9  H2  UNL     1      -8.632  24.380  -2.722  1.00  0.00     0.165 HD
HETATM   10  O2  UNL     1      -6.056  24.756  -0.855  1.00  0.00    -0.238 OA
BRANCH   8  11
HETATM   11  C6  UNL     1      -6.743  25.020  -3.506  1.00  0.00     0.183 C 
BRANCH  11  12
HETATM   12  C5  UNL     1      -6.543  23.954  -4.504  1.00  0.00     0.240 C 
HETATM   13  N1  UNL     1      -5.322  23.381  -4.903  1.00  0.00    -0.359 N 
ATOM     14  H1  UNL     1      -4.454  23.712  -4.483  1.00  0.00     0.162 HD
HETATM   15  O1  UNL     1      -7.580  23.470  -5.106  1.00  0.00    -0.271 OA
BRANCH  13  16
HETATM   16  C4  UNL     1      -5.273  22.315  -5.913  1.00  0.00     0.122 C 
BRANCH  16  17
HETATM   17  C3  UNL     1      -3.939  22.214  -6.571  1.00  0.00     0.019 C 
BRANCH  17  18
HETATM   18  C2  UNL     1      -2.934  23.065  -5.864  1.00  0.00    -0.003 C 
HETATM   19  C1  UNL     1      -1.509  22.686  -6.212  1.00  0.00     0.005 C 
ENDBRANCH  17  18
ENDBRANCH  16  17
ENDBRANCH  13  16
ENDBRANCH  11  12
BRANCH  11  20
HETATM   20  C24 UNL     1      -6.971  26.369  -4.046  1.00  0.00     0.018 C 
HETATM   21  C25 UNL     1      -6.426  27.459  -3.113  1.00  0.00     0.007 C 
HETATM   22  C26 UNL     1      -6.700  28.776  -3.739  1.00  0.00     0.000 C 
HETATM   23  C27 UNL     1      -7.449  28.765  -5.025  1.00  0.00     0.000 C 
HETATM   24  C28 UNL     1      -6.896  27.768  -6.025  1.00  0.00     0.000 C 
HETATM   25  C29 UNL     1      -6.200  26.627  -5.341  1.00  0.00     0.007 C 
ENDBRANCH  11  20
ENDBRANCH   8  11
ENDBRANCH   6   7
ENDBRANCH   1   6
BRANCH   5  26
HETATM   26  C16 UNL     1      -9.375  27.005   0.808  1.00  0.00     0.223 C 
HETATM   27  O5  UNL     1      -8.536  27.307  -0.075  1.00  0.00    -0.287 OA
BRANCH  26  28
HETATM   28  C17 UNL     1     -10.188  28.049   1.385  1.00  0.00     0.291 C 
HETATM   29  O6  UNL     1      -9.565  28.899   2.100  1.00  0.00    -0.264 OA
HETATM   30  N4  UNL     1     -11.575  28.208   1.229  1.00  0.00    -0.328 N 
HETATM   31  C18 UNL     1     -12.342  27.282   0.465  1.00  0.00     0.188 C 
HETATM   32  C22 UNL     1     -12.194  29.381   1.877  1.00  0.00     0.160 C 
HETATM   33  C19 UNL     1     -13.763  27.590   0.338  1.00  0.00     0.075 A 
HETATM   34  N5  UNL     1     -14.925  27.397  -0.274  1.00  0.00    -0.300 N 
HETATM   35  C20 UNL     1     -14.404  28.480   1.149  1.00  0.00     0.121 A 
HETATM   36  N6  UNL     1     -15.556  28.265   0.515  1.00  0.00    -0.295 N 
ATOM     37  H5  UNL     1     -15.222  26.809  -1.052  1.00  0.00     0.186 HD
ATOM     38  H6  UNL     1     -16.510  28.615   0.597  1.00  0.00     0.187 HD
HETATM   39  C21 UNL     1     -13.616  29.158   2.194  1.00  0.00     0.201 C 
HETATM   40  O7  UNL     1     -14.160  29.506   3.270  1.00  0.00    -0.288 OA
HETATM   41  C23 UNL     1     -12.022  30.609   1.009  1.00  0.00     0.041 C 
ENDBRANCH  26  28
ENDBRANCH   5  26
BRANCH   3  42
HETATM   42  N3  UNL     1      -9.677  23.536   4.170  1.00  0.00    -0.356 N 
HETATM   43  C11 UNL     1      -9.907  23.750   5.537  1.00  0.00     0.217 C 
HETATM   44  O4  UNL     1      -9.547  24.842   6.047  1.00  0.00    -0.274 OA
ATOM     45  H3  UNL     1      -9.966  22.655   3.745  1.00  0.00     0.162 HD
BRANCH  43  46
HETATM   46  C12 UNL     1     -10.555  22.729   6.382  1.00  0.00     0.098 C 
HETATM   47  C13 UNL     1      -9.493  22.052   7.217  1.00  0.00     0.014 C 
ENDBRANCH  43  46
ENDBRANCH   3  42
TORSDOF 12
ENDMDL
MODEL 2
REMARK VINA RESULT: -9.077776793      1.923      5.443
REMARK  12 active torsions:
REMARK  status: ('A' for Active; 'I' for Inactive)
REMARK    1  A    between atoms: C2_2  and  C3_3 
REMARK    2  A    between atoms: C3_3  and  C4_4 
REMARK    3  A    between atoms: C4_4  and  N1_5 
REMARK       I    between atoms: N1_5  and  C5_7 
REMARK    4  A    between atoms: C5_7  and  C6_9 
REMARK    5  A    between atoms: C6_9  and  N2_10 
REMARK    6  A    between atoms: C6_9  and  C24_42 
REMARK       I    between atoms: N2_10  and  C7_12 
REMARK    7  A    between atoms: C7_12  and  O3_14 
REMARK    8  A    between atoms: O3_14  and  C8_15 
REMARK    9  A    between atoms: C10_17  and  N3_18 
REMARK       I    between atoms: N3_18  and  C11_20 
REMARK   10  A    between atoms: C11_20  and  C12_22 
REMARK   11  A    between atoms: C15_25  and  C16_26 
REMARK   12  A    between atoms: C16_26  and  C17_28 
REMARK       I    between atoms: C17_28  and  N4_30 
ROOT
HETATM    1  C8  UNL     1      -8.217  25.446   0.362  1.00  0.00     0.147 C 
HETATM    2  C9  UNL     1      -9.250  26.363  -0.269  1.00  0.00     0.058 C 
HETATM    3  C10 UNL     1     -10.434  26.381   0.680  1.00  0.00     0.087 C 
HETATM    4  C14 UNL     1      -9.953  25.905   2.007  1.00  0.00     0.040 C 
HETATM    5  C15 UNL     1      -8.531  25.368   1.810  1.00  0.00     0.097 C 
ENDROOT
BRANCH   1   6
HETATM    6  O3  UNL     1      -6.902  25.866   0.058  1.00  0.00    -0.298 OA
BRANCH   6   7
HETATM    7  C7  UNL     1      -6.426  25.975  -1.223  1.00  0.00     0.361 C 
HETATM    8  N2  UNL     1      -7.160  26.438  -2.326  1.00  0.00    -0.323 N 
ATOM      9  H2  UNL     1      -8.128  26.733  -2.196  1.00  0.00     0.165 HD
HETATM   10  O2  UNL     1      -5.228  25.625  -1.409  1.00  0.00    -0.238 OA
BRANCH   8  11
HETATM   11  C6  UNL     1      -6.568  26.502  -3.645  1.00  0.00     0.183 C 
BRANCH  11  12
HETATM   12  C5  UNL     1      -6.843  25.269  -4.406  1.00  0.00     0.240 C 
HETATM   13  N1  UNL     1      -5.925  24.259  -4.749  1.00  0.00    -0.359 N 
ATOM     14  H1  UNL     1      -4.951  24.352  -4.463  1.00  0.00     0.162 HD
HETATM   15  O1  UNL     1      -8.047  25.059  -4.827  1.00  0.00    -0.271 OA
BRANCH  13  16
HETATM   16  C4  UNL     1      -6.343  23.075  -5.512  1.00  0.00     0.122 C 
BRANCH  16  17
HETATM   17  C3  UNL     1      -5.422  22.771  -6.644  1.00  0.00     0.019 C 
BRANCH  17  18
HETATM   18  C2  UNL     1      -4.001  22.756  -6.180  1.00  0.00    -0.003 C 
HETATM   19  C1  UNL     1      -3.175  21.696  -6.880  1.00  0.00     0.005 C 
ENDBRANCH  17  18
ENDBRANCH  16  17
ENDBRANCH  13  16
ENDBRANCH  11  12
BRANCH  11  20
HETATM   20  C24 UNL     1      -6.773  27.763  -4.374  1.00  0.00     0.018 C 
HETATM   21  C25 UNL     1      -6.366  28.981  -3.535  1.00  0.00     0.007 C 
HETATM   22  C26 UNL     1      -6.607  30.199  -4.349  1.00  0.00     0.000 C 
HETATM   23  C27 UNL     1      -7.209  29.998  -5.694  1.00  0.00     0.000 C 
HETATM   24  C28 UNL     1      -6.521  28.909  -6.495  1.00  0.00     0.000 C 
HETATM   25  C29 UNL     1      -5.872  27.892  -5.602  1.00  0.00     0.007 C 
ENDBRANCH  11  20
ENDBRANCH   8  11
ENDBRANCH   6   7
ENDBRANCH   1   6
BRANCH   5  26
HETATM   26  C16 UNL     1      -8.407  24.018   2.410  1.00  0.00     0.223 C 
HETATM   27  O5  UNL     1      -8.689  23.037   1.681  1.00  0.00    -0.287 OA
BRANCH  26  28
HETATM   28  C17 UNL     1      -7.984  23.779   3.768  1.00  0.00     0.291 C 
HETATM   29  O6  UNL     1      -6.731  23.620   3.934  1.00  0.00    -0.264 OA
HETATM   30  N4  UNL     1      -8.814  23.709   4.900  1.00  0.00    -0.328 N 
HETATM   31  C18 UNL     1     -10.227  23.851   4.788  1.00  0.00     0.188 C 
HETATM   32  C22 UNL     1      -8.156  23.498   6.204  1.00  0.00     0.160 C 
HETATM   33  C19 UNL     1     -10.969  23.810   6.044  1.00  0.00     0.075 A 
HETATM   34  N5  UNL     1     -12.087  24.043   6.720  1.00  0.00    -0.300 N 
HETATM   35  C20 UNL     1     -10.435  23.333   7.206  1.00  0.00     0.121 A 
HETATM   36  N6  UNL     1     -11.571  23.579   7.857  1.00  0.00    -0.295 N 
ATOM     37  H5  UNL     1     -12.995  24.431   6.467  1.00  0.00     0.186 HD
ATOM     38  H6  UNL     1     -11.903  23.461   8.814  1.00  0.00     0.187 HD
HETATM   39  C21 UNL     1      -9.045  22.842   7.179  1.00  0.00     0.201 C 
HETATM   40  O7  UNL     1      -8.686  21.923   7.954  1.00  0.00    -0.288 OA
HETATM   41  C23 UNL     1      -7.638  24.812   6.747  1.00  0.00     0.041 C 
ENDBRANCH  26  28
ENDBRANCH   5  26
BRANCH   3  42
HETATM   42  N3  UNL     1     -11.085  27.667   0.692  1.00  0.00    -0.356 N 
HETATM   43  C11 UNL     1     -12.443  27.794   0.366  1.00  0.00     0.217 C 
HETATM   44  O4  UNL     1     -13.091  26.760   0.062  1.00  0.00    -0.274 OA
ATOM     45  H3  UNL     1     -10.549  28.497   0.943  1.00  0.00     0.162 HD
BRANCH  43  46
HETATM   46  C12 UNL     1     -13.121  29.105   0.371  1.00  0.00     0.098 C 
HETATM   47  C13 UNL     1     -14.258  29.062  -0.623  1.00  0.00     0.014 C 
ENDBRANCH  43  46
ENDBRANCH   3  42
TORSDOF 12
ENDMDL
MODEL 3
REMARK VINA RESULT: -9.016407276      1.295      3.137
REMARK  12 active torsions:
REMARK  status: ('A' for Active; 'I' for Inactive)
REMARK    1  A    between atoms: C2_2  and  C3_3 
REMARK    2  A    between atoms: C3_3  and  C4_4 
REMARK    3  A    between atoms: C4_4  and  N1_5 
REMARK       I    between atoms: N1_5  and  C5_7 
REMARK    4  A    between atoms: C5_7  and  C6_9 
REMARK    5  A    between atoms: C6_9  and  N2_10 
REMARK    6  A    between atoms: C6_9  and  C24_42 
REMARK       I    between atoms: N2_10  and  C7_12 
REMARK    7  A    between atoms: C7_12  and  O3_14 
REMARK    8  A    between atoms: O3_14  and  C8_15 
REMARK    9  A    between atoms: C10_17  and  N3_18 
REMARK       I    between atoms: N3_18  and  C11_20 
REMARK   10  A    between atoms: C11_20  and  C12_22 
REMARK   11  A    between atoms: C15_25  and  C16_26 
REMARK   12  A    between atoms: C16_26  and  C17_28 
REMARK       I    between atoms: C17_28  and  N4_30 
ROOT
HETATM    1  C8  UNL     1      -7.518  25.131   0.916  1.00  0.00     0.147 C 
HETATM    2  C9  UNL     1      -7.185  24.621   2.307  1.00  0.00     0.058 C 
HETATM    3  C10 UNL     1      -8.347  25.024   3.193  1.00  0.00     0.087 C 
HETATM    4  C14 UNL     1      -9.508  25.320   2.307  1.00  0.00     0.040 C 
HETATM    5  C15 UNL     1      -8.987  25.330   0.866  1.00  0.00     0.097 C 
ENDROOT
BRANCH   1   6
HETATM    6  O3  UNL     1      -6.996  24.279  -0.085  1.00  0.00    -0.298 OA
BRANCH   6   7
HETATM    7  C7  UNL     1      -6.796  24.677  -1.381  1.00  0.00     0.361 C 
HETATM    8  N2  UNL     1      -7.742  24.588  -2.414  1.00  0.00    -0.323 N 
ATOM      9  H2  UNL     1      -8.668  24.209  -2.214  1.00  0.00     0.165 HD
HETATM   10  O2  UNL     1      -5.662  25.160  -1.651  1.00  0.00    -0.238 OA
BRANCH   8  11
HETATM   11  C6  UNL     1      -7.426  25.026  -3.757  1.00  0.00     0.183 C 
BRANCH  11  12
HETATM   12  C5  UNL     1      -7.402  26.498  -3.839  1.00  0.00     0.240 C 
HETATM   13  N1  UNL     1      -6.656  27.382  -3.037  1.00  0.00    -0.359 N 
ATOM     14  H1  UNL     1      -6.056  27.005  -2.304  1.00  0.00     0.162 HD
HETATM   15  O1  UNL     1      -8.138  27.079  -4.729  1.00  0.00    -0.271 OA
BRANCH  13  16
HETATM   16  C4  UNL     1      -6.727  28.835  -3.235  1.00  0.00     0.122 C 
BRANCH  16  17
HETATM   17  C3  UNL     1      -5.534  29.372  -3.950  1.00  0.00     0.019 C 
BRANCH  17  18
HETATM   18  C2  UNL     1      -5.869  29.696  -5.370  1.00  0.00    -0.003 C 
HETATM   19  C1  UNL     1      -5.204  28.752  -6.352  1.00  0.00     0.005 C 
ENDBRANCH  17  18
ENDBRANCH  16  17
ENDBRANCH  13  16
ENDBRANCH  11  12
BRANCH  11  20
HETATM   20  C24 UNL     1      -6.305  24.330  -4.407  1.00  0.00     0.018 C 
HETATM   21  C25 UNL     1      -6.776  23.452  -5.574  1.00  0.00     0.007 C 
HETATM   22  C26 UNL     1      -5.583  22.795  -6.163  1.00  0.00     0.000 C 
HETATM   23  C27 UNL     1      -4.277  23.061  -5.502  1.00  0.00     0.000 C 
HETATM   24  C28 UNL     1      -4.036  24.533  -5.234  1.00  0.00     0.000 C 
HETATM   25  C29 UNL     1      -5.326  25.287  -5.086  1.00  0.00     0.007 C 
ENDBRANCH  11  20
ENDBRANCH   8  11
ENDBRANCH   6   7
ENDBRANCH   1   6
BRANCH   5  26
HETATM   26  C16 UNL     1      -9.433  26.560   0.170  1.00  0.00     0.223 C 
HETATM   27  O5  UNL     1      -9.226  26.629  -1.066  1.00  0.00    -0.287 OA
BRANCH  26  28
HETATM   28  C17 UNL     1     -10.084  27.666   0.831  1.00  0.00     0.291 C 
HETATM   29  O6  UNL     1      -9.308  28.496   1.405  1.00  0.00    -0.264 OA
HETATM   30  N4  UNL     1     -11.467  27.903   0.894  1.00  0.00    -0.328 N 
HETATM   31  C18 UNL     1     -12.397  27.003   0.299  1.00  0.00     0.188 C 
HETATM   32  C22 UNL     1     -11.909  29.127   1.590  1.00  0.00     0.160 C 
HETATM   33  C19 UNL     1     -13.802  27.391   0.390  1.00  0.00     0.075 A 
HETATM   34  N5  UNL     1     -15.056  27.251  -0.019  1.00  0.00    -0.300 N 
HETATM   35  C20 UNL     1     -14.253  28.340   1.261  1.00  0.00     0.121 A 
HETATM   36  N6  UNL     1     -15.503  28.176   0.828  1.00  0.00    -0.295 N 
ATOM     37  H5  UNL     1     -15.507  26.660  -0.717  1.00  0.00     0.186 HD
ATOM     38  H6  UNL     1     -16.410  28.584   1.051  1.00  0.00     0.187 HD
HETATM   39  C21 UNL     1     -13.269  28.998   2.140  1.00  0.00     0.201 C 
HETATM   40  O7  UNL     1     -13.612  29.406   3.276  1.00  0.00    -0.288 OA
HETATM   41  C23 UNL     1     -11.814  30.319   0.662  1.00  0.00     0.041 C 
ENDBRANCH  26  28
ENDBRANCH   5  26
BRANCH   3  42
HETATM   42  N3  UNL     1      -8.598  24.043   4.219  1.00  0.00    -0.356 N 
HETATM   43  C11 UNL     1      -8.919  24.429   5.529  1.00  0.00     0.217 C 
HETATM   44  O4  UNL     1      -8.987  25.656   5.797  1.00  0.00    -0.274 OA
ATOM     45  H3  UNL     1      -8.542  23.051   3.988  1.00  0.00     0.162 HD
BRANCH  43  46
HETATM   46  C12 UNL     1      -9.174  23.435   6.589  1.00  0.00     0.098 C 
HETATM   47  C13 UNL     1     -10.584  22.915   6.429  1.00  0.00     0.014 C 
ENDBRANCH  43  46
ENDBRANCH   3  42
TORSDOF 12
ENDMDL
MODEL 4
REMARK VINA RESULT: -8.964303596      2.788      4.097
REMARK  12 active torsions:
REMARK  status: ('A' for Active; 'I' for Inactive)
REMARK    1  A    between atoms: C2_2  and  C3_3 
REMARK    2  A    between atoms: C3_3  and  C4_4 
REMARK    3  A    between atoms: C4_4  and  N1_5 
REMARK       I    between atoms: N1_5  and  C5_7 
REMARK    4  A    between atoms: C5_7  and  C6_9 
REMARK    5  A    between atoms: C6_9  and  N2_10 
REMARK    6  A    between atoms: C6_9  and  C24_42 
REMARK       I    between atoms: N2_10  and  C7_12 
REMARK    7  A    between atoms: C7_12  and  O3_14 
REMARK    8  A    between atoms: O3_14  and  C8_15 
REMARK    9  A    between atoms: C10_17  and  N3_18 
REMARK       I    between atoms: N3_18  and  C11_20 
REMARK   10  A    between atoms: C11_20  and  C12_22 
REMARK   11  A    between atoms: C15_25  and  C16_26 
REMARK   12  A    between atoms: C16_26  and  C17_28 
REMARK       I    between atoms: C17_28  and  N4_30 
ROOT
HETATM    1  C8  UNL     1      -7.955  25.103   0.722  1.00  0.00     0.147 C 
HETATM    2  C9  UNL     1      -7.403  24.202   1.812  1.00  0.00     0.058 C 
HETATM    3  C10 UNL     1      -8.145  24.573   3.082  1.00  0.00     0.087 C 
HETATM    4  C14 UNL     1      -9.386  25.294   2.683  1.00  0.00     0.040 C 
HETATM    5  C15 UNL     1      -9.285  25.576   1.180  1.00  0.00     0.097 C 
ENDROOT
BRANCH   1   6
HETATM    6  O3  UNL     1      -7.952  24.453  -0.534  1.00  0.00    -0.298 OA
BRANCH   6   7
HETATM    7  C7  UNL     1      -7.037  24.725  -1.518  1.00  0.00     0.361 C 
HETATM    8  N2  UNL     1      -7.267  24.604  -2.897  1.00  0.00    -0.323 N 
ATOM      9  H2  UNL     1      -8.183  24.300  -3.228  1.00  0.00     0.165 HD
HETATM   10  O2  UNL     1      -5.899  25.113  -1.135  1.00  0.00    -0.238 OA
BRANCH   8  11
HETATM   11  C6  UNL     1      -6.226  24.903  -3.858  1.00  0.00     0.183 C 
BRANCH  11  12
HETATM   12  C5  UNL     1      -6.026  23.774  -4.786  1.00  0.00     0.240 C 
HETATM   13  N1  UNL     1      -4.803  23.283  -5.276  1.00  0.00    -0.359 N 
ATOM     14  H1  UNL     1      -3.933  23.729  -4.986  1.00  0.00     0.162 HD
HETATM   15  O1  UNL     1      -7.067  23.145  -5.225  1.00  0.00    -0.271 OA
BRANCH  13  16
HETATM   16  C4  UNL     1      -4.753  22.140  -6.197  1.00  0.00     0.122 C 
BRANCH  16  17
HETATM   17  C3  UNL     1      -3.393  21.927  -6.769  1.00  0.00     0.019 C 
BRANCH  17  18
HETATM   18  C2  UNL     1      -2.392  22.810  -6.097  1.00  0.00    -0.003 C 
HETATM   19  C1  UNL     1      -0.979  22.552  -6.578  1.00  0.00     0.005 C 
ENDBRANCH  17  18
ENDBRANCH  16  17
ENDBRANCH  13  16
ENDBRANCH  11  12
BRANCH  11  20
HETATM   20  C24 UNL     1      -6.295  26.236  -4.477  1.00  0.00     0.018 C 
HETATM   21  C25 UNL     1      -5.747  26.230  -5.910  1.00  0.00     0.007 C 
HETATM   22  C26 UNL     1      -5.858  27.609  -6.447  1.00  0.00     0.000 C 
HETATM   23  C27 UNL     1      -6.386  28.649  -5.523  1.00  0.00     0.000 C 
HETATM   24  C28 UNL     1      -7.651  28.218  -4.807  1.00  0.00     0.000 C 
HETATM   25  C29 UNL     1      -7.730  26.725  -4.673  1.00  0.00     0.007 C 
ENDBRANCH  11  20
ENDBRANCH   8  11
ENDBRANCH   6   7
ENDBRANCH   1   6
BRANCH   5  26
HETATM   26  C16 UNL     1      -9.575  27.003   0.907  1.00  0.00     0.223 C 
HETATM   27  O5  UNL     1     -10.606  27.263   0.241  1.00  0.00    -0.287 OA
BRANCH  26  28
HETATM   28  C17 UNL     1      -8.744  28.093   1.360  1.00  0.00     0.291 C 
HETATM   29  O6  UNL     1      -9.030  28.561   2.509  1.00  0.00    -0.264 OA
HETATM   30  N4  UNL     1      -7.671  28.670   0.661  1.00  0.00    -0.328 N 
HETATM   31  C18 UNL     1      -7.310  28.217  -0.640  1.00  0.00     0.188 C 
HETATM   32  C22 UNL     1      -6.930  29.750   1.340  1.00  0.00     0.160 C 
HETATM   33  C19 UNL     1      -6.144  28.863  -1.235  1.00  0.00     0.075 A 
HETATM   34  N5  UNL     1      -5.187  28.874  -2.154  1.00  0.00    -0.300 N 
HETATM   35  C20 UNL     1      -5.631  30.039  -0.770  1.00  0.00     0.121 A 
HETATM   36  N6  UNL     1      -4.681  30.022  -1.705  1.00  0.00    -0.295 N 
ATOM     37  H5  UNL     1      -4.934  28.244  -2.915  1.00  0.00     0.186 HD
ATOM     38  H6  UNL     1      -3.902  30.626  -1.964  1.00  0.00     0.187 HD
HETATM   39  C21 UNL     1      -6.288  30.673   0.387  1.00  0.00     0.201 C 
HETATM   40  O7  UNL     1      -6.278  31.921   0.513  1.00  0.00    -0.288 OA
HETATM   41  C23 UNL     1      -5.909  29.165   2.294  1.00  0.00     0.041 C 
ENDBRANCH  26  28
ENDBRANCH   5  26
BRANCH   3  42
HETATM   42  N3  UNL     1      -8.352  23.426   3.930  1.00  0.00    -0.356 N 
HETATM   43  C11 UNL     1      -7.362  23.001   4.829  1.00  0.00     0.217 C 
HETATM   44  O4  UNL     1      -6.282  23.644   4.887  1.00  0.00    -0.274 OA
ATOM     45  H3  UNL     1      -9.232  22.915   3.875  1.00  0.00     0.162 HD
BRANCH  43  46
HETATM   46  C12 UNL     1      -7.560  21.827   5.700  1.00  0.00     0.098 C 
HETATM   47  C13 UNL     1      -6.210  21.366   6.198  1.00  0.00     0.014 C 
ENDBRANCH  43  46
ENDBRANCH   3  42
TORSDOF 12
ENDMDL
MODEL 5
REMARK VINA RESULT: -8.958864347      2.024      5.616
REMARK  12 active torsions:
REMARK  status: ('A' for Active; 'I' for Inactive)
REMARK    1  A    between atoms: C2_2  and  C3_3 
REMARK    2  A    between atoms: C3_3  and  C4_4 
REMARK    3  A    between atoms: C4_4  and  N1_5 
REMARK       I    between atoms: N1_5  and  C5_7 
REMARK    4  A    between atoms: C5_7  and  C6_9 
REMARK    5  A    between atoms: C6_9  and  N2_10 
REMARK    6  A    between atoms: C6_9  and  C24_42 
REMARK       I    between atoms: N2_10  and  C7_12 
REMARK    7  A    between atoms: C7_12  and  O3_14 
REMARK    8  A    between atoms: O3_14  and  C8_15 
REMARK    9  A    between atoms: C10_17  and  N3_18 
REMARK       I    between atoms: N3_18  and  C11_20 
REMARK   10  A    between atoms: C11_20  and  C12_22 
REMARK   11  A    between atoms: C15_25  and  C16_26 
REMARK   12  A    between atoms: C16_26  and  C17_28 
REMARK       I    between atoms: C17_28  and  N4_30 
ROOT
HETATM    1  C8  UNL     1      -9.116  25.389   1.397  1.00  0.00     0.147 C 
HETATM    2  C9  UNL     1     -10.558  25.701   1.036  1.00  0.00     0.058 C 
HETATM    3  C10 UNL     1     -10.785  27.150   1.421  1.00  0.00     0.087 C 
HETATM    4  C14 UNL     1      -9.449  27.797   1.548  1.00  0.00     0.040 C 
HETATM    5  C15 UNL     1      -8.397  26.685   1.474  1.00  0.00     0.097 C 
ENDROOT
BRANCH   1   6
HETATM    6  O3  UNL     1      -8.554  24.447   0.506  1.00  0.00    -0.298 OA
BRANCH   6   7
HETATM    7  C7  UNL     1      -7.721  24.794  -0.527  1.00  0.00     0.361 C 
HETATM    8  N2  UNL     1      -8.116  25.452  -1.702  1.00  0.00    -0.323 N 
ATOM      9  H2  UNL     1      -9.094  25.717  -1.825  1.00  0.00     0.165 HD
HETATM   10  O2  UNL     1      -6.504  24.487  -0.395  1.00  0.00    -0.238 OA
BRANCH   8  11
HETATM   11  C6  UNL     1      -7.159  25.763  -2.743  1.00  0.00     0.183 C 
BRANCH  11  12
HETATM   12  C5  UNL     1      -7.284  24.821  -3.871  1.00  0.00     0.240 C 
HETATM   13  N1  UNL     1      -6.364  23.829  -4.255  1.00  0.00    -0.359 N 
ATOM     14  H1  UNL     1      -5.500  23.716  -3.725  1.00  0.00     0.162 HD
HETATM   15  O1  UNL     1      -8.338  24.887  -4.616  1.00  0.00    -0.271 OA
BRANCH  13  16
HETATM   16  C4  UNL     1      -6.623  22.953  -5.405  1.00  0.00     0.122 C 
BRANCH  16  17
HETATM   17  C3  UNL     1      -5.596  23.099  -6.476  1.00  0.00     0.019 C 
BRANCH  17  18
HETATM   18  C2  UNL     1      -4.219  23.071  -5.896  1.00  0.00    -0.003 C 
HETATM   19  C1  UNL     1      -3.307  22.101  -6.620  1.00  0.00     0.005 C 
ENDBRANCH  17  18
ENDBRANCH  16  17
ENDBRANCH  13  16
ENDBRANCH  11  12
BRANCH  11  20
HETATM   20  C24 UNL     1      -7.051  27.185  -3.104  1.00  0.00     0.018 C 
HETATM   21  C25 UNL     1      -6.249  27.980  -2.065  1.00  0.00     0.007 C 
HETATM   22  C26 UNL     1      -6.195  29.394  -2.514  1.00  0.00     0.000 C 
HETATM   23  C27 UNL     1      -6.931  29.730  -3.763  1.00  0.00     0.000 C 
HETATM   24  C28 UNL     1      -6.646  28.766  -4.897  1.00  0.00     0.000 C 
HETATM   25  C29 UNL     1      -6.248  27.411  -4.385  1.00  0.00     0.007 C 
ENDBRANCH  11  20
ENDBRANCH   8  11
ENDBRANCH   6   7
ENDBRANCH   1   6
BRANCH   5  26
HETATM   26  C16 UNL     1      -7.443  26.810   2.601  1.00  0.00     0.223 C 
HETATM   27  O5  UNL     1      -7.208  27.966   3.031  1.00  0.00    -0.287 OA
BRANCH  26  28
HETATM   28  C17 UNL     1      -6.779  25.688   3.220  1.00  0.00     0.291 C 
HETATM   29  O6  UNL     1      -5.696  25.314   2.664  1.00  0.00    -0.264 OA
HETATM   30  N4  UNL     1      -7.213  24.986   4.358  1.00  0.00    -0.328 N 
HETATM   31  C18 UNL     1      -8.429  25.330   5.016  1.00  0.00     0.188 C 
HETATM   32  C22 UNL     1      -6.349  23.894   4.844  1.00  0.00     0.160 C 
HETATM   33  C19 UNL     1      -8.740  24.558   6.216  1.00  0.00     0.075 A 
HETATM   34  N5  UNL     1      -9.437  24.415   7.336  1.00  0.00    -0.300 N 
HETATM   35  C20 UNL     1      -8.127  23.376   6.515  1.00  0.00     0.121 A 
HETATM   36  N6  UNL     1      -8.843  23.261   7.634  1.00  0.00    -0.295 N 
ATOM     37  H5  UNL     1     -10.155  24.976   7.794  1.00  0.00     0.186 HD
ATOM     38  H6  UNL     1      -8.908  22.582   8.391  1.00  0.00     0.187 HD
HETATM   39  C21 UNL     1      -7.107  22.867   5.581  1.00  0.00     0.201 C 
HETATM   40  O7  UNL     1      -6.928  21.632   5.453  1.00  0.00    -0.288 OA
HETATM   41  C23 UNL     1      -5.230  24.453   5.697  1.00  0.00     0.041 C 
ENDBRANCH  26  28
ENDBRANCH   5  26
BRANCH   3  42
HETATM   42  N3  UNL     1     -11.696  27.804   0.515  1.00  0.00    -0.356 N 
HETATM   43  C11 UNL     1     -13.084  27.642   0.640  1.00  0.00     0.217 C 
HETATM   44  O4  UNL     1     -13.526  26.913   1.565  1.00  0.00    -0.274 OA
ATOM     45  H3  UNL     1     -11.325  28.393  -0.230  1.00  0.00     0.162 HD
BRANCH  43  46
HETATM   46  C12 UNL     1     -14.026  28.302  -0.283  1.00  0.00     0.098 C 
HETATM   47  C13 UNL     1     -14.685  27.243  -1.136  1.00  0.00     0.014 C 
ENDBRANCH  43  46
ENDBRANCH   3  42
TORSDOF 12
ENDMDL
