MODEL 1
REMARK VINA RESULT: -4.769177760      0.000      0.000
REMARK  3 active torsions:
REMARK  status: ('A' for Active; 'I' for Inactive)
REMARK    1  A    between atoms: C2_2  and  C3_4 
REMARK    2  A    between atoms: N1_5  and  N2_7 
REMARK    3  A    between atoms: N2_7  and  C4_9 
ROOT
HETATM    1  C4  UNL     1       8.050  27.585 -35.891  1.00  0.00     0.180 A 
HETATM    2  N3  UNL     1       7.242  26.644 -36.381  1.00  0.00    -0.277 N 
ATOM      3  H3  UNL     1       6.234  26.699 -36.228  1.00  0.00     0.189 HD
HETATM    4  N4  UNL     1       7.744  25.678 -37.041  1.00  0.00    -0.282 N 
ATOM      5  H4  UNL     1       7.142  24.948 -37.423  1.00  0.00     0.188 HD
HETATM    6  C5  UNL     1       9.063  25.627 -37.228  1.00  0.00     0.160 A 
HETATM    7  S1  UNL     1       9.973  24.513 -38.028  1.00  0.00    -0.051 SA
HETATM    8  S2  UNL     1       9.588  27.052 -36.404  1.00  0.00    -0.020 SA
ENDROOT
BRANCH   1   9
HETATM    9  N2  UNL     1       7.766  28.639 -35.202  1.00  0.00    -0.279 N 
ATOM     10  H2  UNL     1       6.794  28.923 -35.091  1.00  0.00     0.189 HD
BRANCH   9  11
HETATM   11  N1  UNL     1       8.771  29.386 -34.612  1.00  0.00    -0.308 N 
HETATM   12  C3  UNL     1       9.184  30.519 -35.023  1.00  0.00     0.130 C 
ATOM     13  H1  UNL     1       9.218  28.997 -33.780  1.00  0.00     0.186 HD
BRANCH  12  14
HETATM   14  C2  UNL     1      10.255  31.197 -34.303  1.00  0.00     0.041 C 
HETATM   15  C1  UNL     1      10.681  30.737 -33.140  1.00  0.00     0.038 C 
HETATM   16 CL1  UNL     1      11.009  32.645 -34.963  1.00  0.00    -0.084 Cl
ENDBRANCH  12  14
ENDBRANCH   9  11
ENDBRANCH   1   9
TORSDOF 3
ENDMDL
MODEL 2
REMARK VINA RESULT: -4.740999938      3.855      5.187
REMARK  3 active torsions:
REMARK  status: ('A' for Active; 'I' for Inactive)
REMARK    1  A    between atoms: C2_2  and  C3_4 
REMARK    2  A    between atoms: N1_5  and  N2_7 
REMARK    3  A    between atoms: N2_7  and  C4_9 
ROOT
HETATM    1  C4  UNL     1       9.097  25.906 -37.080  1.00  0.00     0.180 A 
HETATM    2  N3  UNL     1       7.855  25.512 -37.360  1.00  0.00    -0.277 N 
ATOM      3  H3  UNL     1       7.687  24.612 -37.811  1.00  0.00     0.189 HD
HETATM    4  N4  UNL     1       6.880  26.273 -37.056  1.00  0.00    -0.282 N 
ATOM      5  H4  UNL     1       5.922  25.989 -37.262  1.00  0.00     0.188 HD
HETATM    6  C5  UNL     1       7.121  27.444 -36.466  1.00  0.00     0.160 A 
HETATM    7  S1  UNL     1       6.073  28.612 -35.968  1.00  0.00    -0.051 SA
HETATM    8  S2  UNL     1       8.845  27.430 -36.352  1.00  0.00    -0.020 SA
ENDROOT
BRANCH   1   9
HETATM    9  N2  UNL     1      10.220  25.307 -37.295  1.00  0.00    -0.279 N 
ATOM     10  H2  UNL     1      10.371  24.368 -36.927  1.00  0.00     0.189 HD
BRANCH   9  11
HETATM   11  N1  UNL     1      11.222  25.928 -38.021  1.00  0.00    -0.308 N 
HETATM   12  C3  UNL     1      11.083  26.438 -39.180  1.00  0.00     0.130 C 
ATOM     13  H1  UNL     1      12.146  25.983 -37.592  1.00  0.00     0.186 HD
BRANCH  12  14
HETATM   14  C2  UNL     1      12.227  27.063 -39.832  1.00  0.00     0.041 C 
HETATM   15  C1  UNL     1      12.108  27.600 -41.033  1.00  0.00     0.038 C 
HETATM   16 CL1  UNL     1      13.796  27.121 -39.035  1.00  0.00    -0.084 Cl
ENDBRANCH  12  14
ENDBRANCH   9  11
ENDBRANCH   1   9
TORSDOF 3
ENDMDL
MODEL 3
REMARK VINA RESULT: -4.708839579      3.970      5.158
REMARK  3 active torsions:
REMARK  status: ('A' for Active; 'I' for Inactive)
REMARK    1  A    between atoms: C2_2  and  C3_4 
REMARK    2  A    between atoms: N1_5  and  N2_7 
REMARK    3  A    between atoms: N2_7  and  C4_9 
ROOT
HETATM    1  C4  UNL     1       9.152  25.869 -37.099  1.00  0.00     0.180 A 
HETATM    2  N3  UNL     1       7.905  25.481 -37.370  1.00  0.00    -0.277 N 
ATOM      3  H3  UNL     1       7.731  24.586 -37.828  1.00  0.00     0.189 HD
HETATM    4  N4  UNL     1       6.936  26.243 -37.050  1.00  0.00    -0.282 N 
ATOM      5  H4  UNL     1       5.975  25.963 -37.250  1.00  0.00     0.188 HD
HETATM    6  C5  UNL     1       7.187  27.408 -36.453  1.00  0.00     0.160 A 
HETATM    7  S1  UNL     1       6.147  28.574 -35.935  1.00  0.00    -0.051 SA
HETATM    8  S2  UNL     1       8.911  27.387 -36.356  1.00  0.00    -0.020 SA
ENDROOT
BRANCH   1   9
HETATM    9  N2  UNL     1      10.271  25.268 -37.330  1.00  0.00    -0.279 N 
ATOM     10  H2  UNL     1      10.422  24.326 -36.972  1.00  0.00     0.189 HD
BRANCH   9  11
HETATM   11  N1  UNL     1      11.267  25.893 -38.060  1.00  0.00    -0.308 N 
HETATM   12  C3  UNL     1      11.106  26.463 -39.188  1.00  0.00     0.130 C 
ATOM     13  H1  UNL     1      12.207  25.897 -37.662  1.00  0.00     0.186 HD
BRANCH  12  14
HETATM   14  C2  UNL     1      12.248  27.083 -39.849  1.00  0.00     0.041 C 
HETATM   15  C1  UNL     1      13.426  27.130 -39.253  1.00  0.00     0.038 C 
HETATM   16 CL1  UNL     1      12.088  27.784 -41.456  1.00  0.00    -0.084 Cl
ENDBRANCH  12  14
ENDBRANCH   9  11
ENDBRANCH   1   9
TORSDOF 3
ENDMDL
MODEL 4
REMARK VINA RESULT: -4.675757538      9.541     11.293
REMARK  3 active torsions:
REMARK  status: ('A' for Active; 'I' for Inactive)
REMARK    1  A    between atoms: C2_2  and  C3_4 
REMARK    2  A    between atoms: N1_5  and  N2_7 
REMARK    3  A    between atoms: N2_7  and  C4_9 
ROOT
HETATM    1  C4  UNL     1      13.296  25.765 -43.231  1.00  0.00     0.180 A 
HETATM    2  N3  UNL     1      14.532  25.422 -42.869  1.00  0.00    -0.277 N 
ATOM      3  H3  UNL     1      15.028  24.678 -43.360  1.00  0.00     0.189 HD
HETATM    4  N4  UNL     1      15.087  26.036 -41.900  1.00  0.00    -0.282 N 
ATOM      5  H4  UNL     1      16.032  25.788 -41.608  1.00  0.00     0.188 HD
HETATM    6  C5  UNL     1      14.422  27.006 -41.272  1.00  0.00     0.160 A 
HETATM    7  S1  UNL     1      14.882  27.954 -40.008  1.00  0.00    -0.051 SA
HETATM    8  S2  UNL     1      12.925  27.018 -42.134  1.00  0.00    -0.020 SA
ENDROOT
BRANCH   1   9
HETATM    9  N2  UNL     1      12.549  25.286 -44.170  1.00  0.00    -0.279 N 
ATOM     10  H2  UNL     1      11.687  24.797 -43.930  1.00  0.00     0.189 HD
BRANCH   9  11
HETATM   11  N1  UNL     1      12.909  25.431 -45.498  1.00  0.00    -0.308 N 
HETATM   12  C3  UNL     1      12.135  25.819 -46.432  1.00  0.00     0.130 C 
ATOM     13  H1  UNL     1      13.873  25.208 -45.750  1.00  0.00     0.186 HD
BRANCH  12  14
HETATM   14  C2  UNL     1      12.648  25.926 -47.792  1.00  0.00     0.041 C 
HETATM   15  C1  UNL     1      11.821  26.008 -48.820  1.00  0.00     0.038 C 
HETATM   16 CL1  UNL     1      14.381  25.951 -48.102  1.00  0.00    -0.084 Cl
ENDBRANCH  12  14
ENDBRANCH   9  11
ENDBRANCH   1   9
TORSDOF 3
ENDMDL
MODEL 5
REMARK VINA RESULT: -4.632356859      4.039      5.843
REMARK  3 active torsions:
REMARK  status: ('A' for Active; 'I' for Inactive)
REMARK    1  A    between atoms: C2_2  and  C3_4 
REMARK    2  A    between atoms: N1_5  and  N2_7 
REMARK    3  A    between atoms: N2_7  and  C4_9 
ROOT
HETATM    1  C4  UNL     1      10.481  27.505 -35.904  1.00  0.00     0.180 A 
HETATM    2  N3  UNL     1      11.313  27.608 -34.867  1.00  0.00    -0.277 N 
ATOM      3  H3  UNL     1      12.074  26.938 -34.746  1.00  0.00     0.189 HD
HETATM    4  N4  UNL     1      11.147  28.554 -34.031  1.00  0.00    -0.282 N 
ATOM      5  H4  UNL     1      11.773  28.649 -33.231  1.00  0.00     0.188 HD
HETATM    6  C5  UNL     1      10.147  29.418 -34.208  1.00  0.00     0.160 A 
HETATM    7  S1  UNL     1       9.701  30.717 -33.301  1.00  0.00    -0.051 SA
HETATM    8  S2  UNL     1       9.422  28.821 -35.658  1.00  0.00    -0.020 SA
ENDROOT
BRANCH   1   9
HETATM    9  N2  UNL     1      10.460  26.639 -36.861  1.00  0.00    -0.279 N 
ATOM     10  H2  UNL     1       9.719  25.940 -36.895  1.00  0.00     0.189 HD
BRANCH   9  11
HETATM   11  N1  UNL     1      11.436  26.652 -37.843  1.00  0.00    -0.308 N 
HETATM   12  C3  UNL     1      11.304  27.157 -39.006  1.00  0.00     0.130 C 
ATOM     13  H1  UNL     1      12.334  26.223 -37.617  1.00  0.00     0.186 HD
BRANCH  12  14
HETATM   14  C2  UNL     1      12.418  27.100 -39.944  1.00  0.00     0.041 C 
HETATM   15  C1  UNL     1      12.203  27.129 -41.247  1.00  0.00     0.038 C 
HETATM   16 CL1  UNL     1      14.078  26.991 -39.366  1.00  0.00    -0.084 Cl
ENDBRANCH  12  14
ENDBRANCH   9  11
ENDBRANCH   1   9
TORSDOF 3
ENDMDL
