MODEL 1
REMARK VINA RESULT: -9.298328440      0.000      0.000
REMARK  7 active torsions:
REMARK  status: ('A' for Active; 'I' for Inactive)
REMARK    1  A    between atoms: N1_2  and  C2_3 
REMARK    2  A    between atoms: N1_2  and  C11_28 
REMARK    3  A    between atoms: C5_6  and  C6_7 
REMARK    4  A    between atoms: C6_7  and  N2_8 
REMARK    5  A    between atoms: C6_7  and  N3_11 
REMARK    6  A    between atoms: N3_11  and  N4_13 
REMARK    7  A    between atoms: C15_38  and  N12_39 
ROOT
HETATM    1  C2  UNL     1      33.554   4.987  10.670  1.00  0.00     0.150 A 
HETATM    2  C3  UNL     1      33.227   4.124   9.657  1.00  0.00     0.059 A 
HETATM    3  C4  UNL     1      31.868   3.851   9.802  1.00  0.00     0.045 A 
HETATM    4  C5  UNL     1      31.434   4.558  10.895  1.00  0.00     0.122 A 
HETATM    5  O2  UNL     1      32.469   5.209  11.366  1.00  0.00    -0.290 OA
ENDROOT
BRANCH   4   6
HETATM    6  C6  UNL     1      30.118   4.653  11.507  1.00  0.00     0.149 C 
BRANCH   6   7
HETATM    7  N2  UNL     1      29.885   5.513  12.462  1.00  0.00    -0.382 N 
ATOM      8  H22 UNL     1      29.534   6.428  12.179  1.00  0.00     0.157 HD
ATOM      9  H21 UNL     1      30.056   5.269  13.437  1.00  0.00     0.157 HD
ENDBRANCH   6   7
BRANCH   6  10
HETATM   10  N3  UNL     1      29.033   3.840  11.105  1.00  0.00    -0.264 N 
ATOM     11  H3  UNL     1      28.783   3.008  11.638  1.00  0.00     0.190 HD
BRANCH  10  12
HETATM   12  N4  UNL     1      28.303   4.201   9.952  1.00  0.00    -0.188 N 
HETATM   13  C7  UNL     1      28.640   5.168   8.922  1.00  0.00     0.310 C 
HETATM   14  N5  UNL     1      27.327   5.632   8.495  1.00  0.00    -0.205 N 
HETATM   15  C8  UNL     1      26.451   4.532   8.693  1.00  0.00     0.708 A 
ATOM     16  H5  UNL     1      27.087   6.554   8.131  1.00  0.00     0.179 HD
HETATM   17  N6  UNL     1      25.242   4.212   8.208  1.00  0.00    -0.164 N 
HETATM   18  N8  UNL     1      27.048   3.676   9.571  1.00  0.00    -0.013 N 
HETATM   19  C9  UNL     1      24.603   3.090   8.554  1.00  0.00     0.194 A 
ATOM     20  H6  UNL     1      24.793   4.850   7.549  1.00  0.00     0.186 HD
HETATM   21  S1  UNL     1      23.134   2.750   7.936  1.00  0.00    -0.040 SA
HETATM   22  N7  UNL     1      25.181   2.250   9.413  1.00  0.00    -0.283 N 
HETATM   23  C10 UNL     1      26.379   2.553   9.901  1.00  0.00     0.364 A 
ATOM     24  H7  UNL     1      24.712   1.389   9.690  1.00  0.00     0.173 HD
HETATM   25  O1  UNL     1      26.939   1.769  10.715  1.00  0.00    -0.244 OA
ENDBRANCH  10  12
ENDBRANCH   6  10
ENDBRANCH   4   6
BRANCH   1  26
HETATM   26  N1  UNL     1      34.789   5.585  11.001  1.00  0.00    -0.330 N 
HETATM   27  C1  UNL     1      34.864   7.041  10.756  1.00  0.00     0.158 C 
BRANCH  26  28
HETATM   28  C11 UNL     1      35.914   4.949  11.548  1.00  0.00     0.069 A 
HETATM   29  C12 UNL     1      36.220   4.785  12.905  1.00  0.00     0.120 A 
HETATM   30  N9  UNL     1      37.345   4.081  13.020  1.00  0.00    -0.349 N 
HETATM   31  C13 UNL     1      37.817   3.764  11.793  1.00  0.00     0.122 A 
ATOM     32  H9  UNL     1      37.785   3.821  13.902  1.00  0.00     0.167 HD
HETATM   33  N10 UNL     1      38.910   3.081  11.388  1.00  0.00    -0.338 N 
HETATM   34  C16 UNL     1      36.923   4.308  10.868  1.00  0.00     0.080 A 
HETATM   35  C14 UNL     1      39.176   2.903  10.092  1.00  0.00     0.183 A 
ATOM     36  H10 UNL     1      39.544   2.695  12.087  1.00  0.00     0.168 HD
HETATM   37  N11 UNL     1      38.350   3.407   9.181  1.00  0.00    -0.338 N 
HETATM   38  C15 UNL     1      37.217   4.114   9.531  1.00  0.00     0.116 A 
ATOM     39  H11 UNL     1      38.560   3.268   8.193  1.00  0.00     0.168 HD
BRANCH  38  40
HETATM   40  N12 UNL     1      36.498   4.579   8.611  1.00  0.00    -0.385 N 
ATOM     41 2H12 UNL     1      35.991   3.980   7.959  1.00  0.00     0.157 HD
ATOM     42 1H12 UNL     1      36.409   5.592   8.532  1.00  0.00     0.157 HD
ENDBRANCH  38  40
ENDBRANCH  26  28
ENDBRANCH   1  26
TORSDOF 7
ENDMDL
MODEL 2
REMARK VINA RESULT: -8.662815775      2.131      2.709
REMARK  7 active torsions:
REMARK  status: ('A' for Active; 'I' for Inactive)
REMARK    1  A    between atoms: N1_2  and  C2_3 
REMARK    2  A    between atoms: N1_2  and  C11_28 
REMARK    3  A    between atoms: C5_6  and  C6_7 
REMARK    4  A    between atoms: C6_7  and  N2_8 
REMARK    5  A    between atoms: C6_7  and  N3_11 
REMARK    6  A    between atoms: N3_11  and  N4_13 
REMARK    7  A    between atoms: C15_38  and  N12_39 
ROOT
HETATM    1  C2  UNL     1      33.383   5.126  10.429  1.00  0.00     0.150 A 
HETATM    2  C3  UNL     1      32.306   4.699  11.162  1.00  0.00     0.059 A 
HETATM    3  C4  UNL     1      31.385   4.200  10.244  1.00  0.00     0.045 A 
HETATM    4  C5  UNL     1      31.941   4.347   8.999  1.00  0.00     0.122 A 
HETATM    5  O2  UNL     1      33.118   4.898   9.168  1.00  0.00    -0.290 OA
ENDROOT
BRANCH   4   6
HETATM    6  C6  UNL     1      31.432   4.002   7.681  1.00  0.00     0.149 C 
BRANCH   6   7
HETATM    7  N2  UNL     1      32.227   3.974   6.644  1.00  0.00    -0.382 N 
ATOM      8  H22 UNL     1      33.037   4.593   6.670  1.00  0.00     0.157 HD
ATOM      9  H21 UNL     1      32.030   3.362   5.852  1.00  0.00     0.157 HD
ENDBRANCH   6   7
BRANCH   6  10
HETATM   10  N3  UNL     1      30.076   3.674   7.452  1.00  0.00    -0.264 N 
ATOM     11  H3  UNL     1      29.746   2.717   7.573  1.00  0.00     0.190 HD
BRANCH  10  12
HETATM   12  N4  UNL     1      29.187   4.695   7.052  1.00  0.00    -0.188 N 
HETATM   13  C7  UNL     1      29.036   5.316   5.748  1.00  0.00     0.310 C 
HETATM   14  N5  UNL     1      28.605   6.662   6.097  1.00  0.00    -0.205 N 
HETATM   15  C8  UNL     1      27.886   6.529   7.315  1.00  0.00     0.708 A 
ATOM     16  H5  UNL     1      28.782   7.521   5.576  1.00  0.00     0.179 HD
HETATM   17  N6  UNL     1      26.993   7.300   7.952  1.00  0.00    -0.164 N 
HETATM   18  N8  UNL     1      28.245   5.341   7.882  1.00  0.00    -0.013 N 
HETATM   19  C9  UNL     1      26.443   6.948   9.119  1.00  0.00     0.194 A 
ATOM     20  H6  UNL     1      26.722   8.189   7.530  1.00  0.00     0.186 HD
HETATM   21  S1  UNL     1      25.362   7.923   9.851  1.00  0.00    -0.040 SA
HETATM   22  N7  UNL     1      26.790   5.788   9.678  1.00  0.00    -0.283 N 
HETATM   23  C10 UNL     1      27.673   5.014   9.058  1.00  0.00     0.364 A 
ATOM     24  H7  UNL     1      26.382   5.500  10.567  1.00  0.00     0.173 HD
HETATM   25  O1  UNL     1      28.012   3.914   9.575  1.00  0.00    -0.244 OA
ENDBRANCH  10  12
ENDBRANCH   6  10
ENDBRANCH   4   6
BRANCH   1  26
HETATM   26  N1  UNL     1      34.597   5.716  10.842  1.00  0.00    -0.330 N 
HETATM   27  C1  UNL     1      34.695   7.172  10.607  1.00  0.00     0.158 C 
BRANCH  26  28
HETATM   28  C11 UNL     1      35.681   5.072  11.458  1.00  0.00     0.069 A 
HETATM   29  C12 UNL     1      35.920   4.940  12.831  1.00  0.00     0.120 A 
HETATM   30  N9  UNL     1      37.022   4.216  13.018  1.00  0.00    -0.349 N 
HETATM   31  C13 UNL     1      37.543   3.854  11.824  1.00  0.00     0.122 A 
ATOM     32  H9  UNL     1      37.415   3.972  13.926  1.00  0.00     0.167 HD
HETATM   33  N10 UNL     1      38.638   3.138  11.489  1.00  0.00    -0.338 N 
HETATM   34  C16 UNL     1      36.705   4.391  10.843  1.00  0.00     0.080 A 
HETATM   35  C14 UNL     1      38.960   2.917  10.212  1.00  0.00     0.183 A 
ATOM     36  H10 UNL     1      39.230   2.757  12.227  1.00  0.00     0.168 HD
HETATM   37  N11 UNL     1      38.188   3.413   9.250  1.00  0.00    -0.338 N 
HETATM   38  C15 UNL     1      37.056   4.153   9.527  1.00  0.00     0.116 A 
ATOM     39  H11 UNL     1      38.440   3.241   8.277  1.00  0.00     0.168 HD
BRANCH  38  40
HETATM   40  N12 UNL     1      36.391   4.607   8.562  1.00  0.00    -0.385 N 
ATOM     41 2H12 UNL     1      36.782   4.696   7.624  1.00  0.00     0.157 HD
ATOM     42 1H12 UNL     1      35.420   4.875   8.727  1.00  0.00     0.157 HD
ENDBRANCH  38  40
ENDBRANCH  26  28
ENDBRANCH   1  26
TORSDOF 7
ENDMDL
MODEL 3
REMARK VINA RESULT: -8.612215476      3.789      4.716
REMARK  7 active torsions:
REMARK  status: ('A' for Active; 'I' for Inactive)
REMARK    1  A    between atoms: N1_2  and  C2_3 
REMARK    2  A    between atoms: N1_2  and  C11_28 
REMARK    3  A    between atoms: C5_6  and  C6_7 
REMARK    4  A    between atoms: C6_7  and  N2_8 
REMARK    5  A    between atoms: C6_7  and  N3_11 
REMARK    6  A    between atoms: N3_11  and  N4_13 
REMARK    7  A    between atoms: C15_38  and  N12_39 
ROOT
HETATM    1  C2  UNL     1      33.487   5.009  10.188  1.00  0.00     0.150 A 
HETATM    2  C3  UNL     1      32.398   4.443  10.795  1.00  0.00     0.059 A 
HETATM    3  C4  UNL     1      31.586   3.965   9.768  1.00  0.00     0.045 A 
HETATM    4  C5  UNL     1      32.217   4.264   8.588  1.00  0.00     0.122 A 
HETATM    5  O2  UNL     1      33.333   4.879   8.895  1.00  0.00    -0.290 OA
ENDROOT
BRANCH   4   6
HETATM    6  C6  UNL     1      31.833   4.004   7.210  1.00  0.00     0.149 C 
BRANCH   6   7
HETATM    7  N2  UNL     1      30.790   3.267   6.933  1.00  0.00    -0.382 N 
ATOM      8  H22 UNL     1      30.077   3.193   7.658  1.00  0.00     0.157 HD
ATOM      9  H21 UNL     1      30.711   2.790   6.035  1.00  0.00     0.157 HD
ENDBRANCH   6   7
BRANCH   6  10
HETATM   10  N3  UNL     1      32.547   4.533   6.109  1.00  0.00    -0.264 N 
ATOM     11  H3  UNL     1      33.211   3.954   5.595  1.00  0.00     0.190 HD
BRANCH  10  12
HETATM   12  N4  UNL     1      32.325   5.876   5.735  1.00  0.00    -0.188 N 
HETATM   13  C7  UNL     1      33.164   7.039   5.966  1.00  0.00     0.310 C 
HETATM   14  N5  UNL     1      32.182   8.110   6.066  1.00  0.00    -0.205 N 
HETATM   15  C8  UNL     1      31.098   7.712   5.239  1.00  0.00     0.708 A 
ATOM     16  H5  UNL     1      32.257   8.966   6.614  1.00  0.00     0.179 HD
HETATM   17  N6  UNL     1      30.082   8.371   4.662  1.00  0.00    -0.164 N 
HETATM   18  N8  UNL     1      31.194   6.365   5.046  1.00  0.00    -0.013 N 
HETATM   19  C9  UNL     1      29.163   7.758   3.909  1.00  0.00     0.194 A 
ATOM     20  H6  UNL     1      30.008   9.379   4.804  1.00  0.00     0.186 HD
HETATM   21  S1  UNL     1      27.949   8.607   3.232  1.00  0.00    -0.040 SA
HETATM   22  N7  UNL     1      29.252   6.442   3.718  1.00  0.00    -0.283 N 
HETATM   23  C10 UNL     1      30.252   5.775   4.282  1.00  0.00     0.364 A 
ATOM     24  H7  UNL     1      28.562   5.954   3.146  1.00  0.00     0.173 HD
HETATM   25  O1  UNL     1      30.349   4.530   4.111  1.00  0.00    -0.244 OA
ENDBRANCH  10  12
ENDBRANCH   6  10
ENDBRANCH   4   6
BRANCH   1  26
HETATM   26  N1  UNL     1      34.619   5.645  10.743  1.00  0.00    -0.330 N 
HETATM   27  C1  UNL     1      34.635   7.118  10.615  1.00  0.00     0.158 C 
BRANCH  26  28
HETATM   28  C11 UNL     1      35.691   5.029  11.408  1.00  0.00     0.069 A 
HETATM   29  C12 UNL     1      35.882   4.921  12.791  1.00  0.00     0.120 A 
HETATM   30  N9  UNL     1      36.989   4.219  13.027  1.00  0.00    -0.349 N 
HETATM   31  C13 UNL     1      37.559   3.848  11.858  1.00  0.00     0.122 A 
ATOM     32  H9  UNL     1      37.354   3.994  13.952  1.00  0.00     0.167 HD
HETATM   33  N10 UNL     1      38.676   3.145  11.574  1.00  0.00    -0.338 N 
HETATM   34  C16 UNL     1      36.747   4.356  10.840  1.00  0.00     0.080 A 
HETATM   35  C14 UNL     1      39.047   2.910  10.313  1.00  0.00     0.183 A 
ATOM     36  H10 UNL     1      39.248   2.786  12.338  1.00  0.00     0.168 HD
HETATM   37  N11 UNL     1      38.302   3.379   9.316  1.00  0.00    -0.338 N 
HETATM   38  C15 UNL     1      37.149   4.104   9.541  1.00  0.00     0.116 A 
ATOM     39  H11 UNL     1      38.592   3.197   8.355  1.00  0.00     0.168 HD
BRANCH  38  40
HETATM   40  N12 UNL     1      36.511   4.532   8.546  1.00  0.00    -0.385 N 
ATOM     41 2H12 UNL     1      35.518   4.343   8.413  1.00  0.00     0.157 HD
ATOM     42 1H12 UNL     1      37.009   5.102   7.862  1.00  0.00     0.157 HD
ENDBRANCH  38  40
ENDBRANCH  26  28
ENDBRANCH   1  26
TORSDOF 7
ENDMDL
MODEL 4
REMARK VINA RESULT: -8.435476535      4.531      5.696
REMARK  7 active torsions:
REMARK  status: ('A' for Active; 'I' for Inactive)
REMARK    1  A    between atoms: N1_2  and  C2_3 
REMARK    2  A    between atoms: N1_2  and  C11_28 
REMARK    3  A    between atoms: C5_6  and  C6_7 
REMARK    4  A    between atoms: C6_7  and  N2_8 
REMARK    5  A    between atoms: C6_7  and  N3_11 
REMARK    6  A    between atoms: N3_11  and  N4_13 
REMARK    7  A    between atoms: C15_38  and  N12_39 
ROOT
HETATM    1  C2  UNL     1      33.618   4.900  10.138  1.00  0.00     0.150 A 
HETATM    2  C3  UNL     1      32.637   4.159  10.742  1.00  0.00     0.059 A 
HETATM    3  C4  UNL     1      31.774   3.756   9.726  1.00  0.00     0.045 A 
HETATM    4  C5  UNL     1      32.268   4.270   8.554  1.00  0.00     0.122 A 
HETATM    5  O2  UNL     1      33.356   4.935   8.857  1.00  0.00    -0.290 OA
ENDROOT
BRANCH   4   6
HETATM    6  C6  UNL     1      31.780   4.168   7.188  1.00  0.00     0.149 C 
BRANCH   6   7
HETATM    7  N2  UNL     1      30.800   3.359   6.887  1.00  0.00    -0.382 N 
ATOM      8  H22 UNL     1      30.764   2.474   7.392  1.00  0.00     0.157 HD
ATOM      9  H21 UNL     1      30.114   3.612   6.175  1.00  0.00     0.157 HD
ENDBRANCH   6   7
BRANCH   6  10
HETATM   10  N3  UNL     1      32.323   4.932   6.129  1.00  0.00    -0.264 N 
ATOM     11  H3  UNL     1      32.964   4.508   5.459  1.00  0.00     0.190 HD
BRANCH  10  12
HETATM   12  N4  UNL     1      31.961   6.291   6.014  1.00  0.00    -0.188 N 
HETATM   13  C7  UNL     1      31.371   7.167   7.012  1.00  0.00     0.310 C 
HETATM   14  N5  UNL     1      30.585   8.079   6.192  1.00  0.00    -0.205 N 
HETATM   15  C8  UNL     1      31.273   8.169   4.954  1.00  0.00     0.708 A 
ATOM     16  H5  UNL     1      29.721   8.553   6.454  1.00  0.00     0.179 HD
HETATM   17  N6  UNL     1      31.257   9.056   3.948  1.00  0.00    -0.164 N 
HETATM   18  N8  UNL     1      32.099   7.088   4.857  1.00  0.00    -0.013 N 
HETATM   19  C9  UNL     1      32.017   8.918   2.857  1.00  0.00     0.194 A 
ATOM     20  H6  UNL     1      30.641   9.867   4.018  1.00  0.00     0.186 HD
HETATM   21  S1  UNL     1      31.958  10.026   1.662  1.00  0.00    -0.040 SA
HETATM   22  N7  UNL     1      32.826   7.863   2.756  1.00  0.00    -0.283 N 
HETATM   23  C10 UNL     1      32.853   6.977   3.745  1.00  0.00     0.364 A 
ATOM     24  H7  UNL     1      33.415   7.739   1.933  1.00  0.00     0.173 HD
HETATM   25  O1  UNL     1      33.613   5.973   3.664  1.00  0.00    -0.244 OA
ENDBRANCH  10  12
ENDBRANCH   6  10
ENDBRANCH   4   6
BRANCH   1  26
HETATM   26  N1  UNL     1      34.743   5.552  10.687  1.00  0.00    -0.330 N 
HETATM   27  C1  UNL     1      34.734   7.026  10.563  1.00  0.00     0.158 C 
BRANCH  26  28
HETATM   28  C11 UNL     1      35.830   4.952  11.342  1.00  0.00     0.069 A 
HETATM   29  C12 UNL     1      36.035   4.846  12.723  1.00  0.00     0.120 A 
HETATM   30  N9  UNL     1      37.155   4.161  12.950  1.00  0.00    -0.349 N 
HETATM   31  C13 UNL     1      37.720   3.800  11.776  1.00  0.00     0.122 A 
ATOM     32  H9  UNL     1      37.530   3.941  13.872  1.00  0.00     0.167 HD
HETATM   33  N10 UNL     1      38.846   3.115  11.481  1.00  0.00    -0.338 N 
HETATM   34  C16 UNL     1      36.893   4.297  10.765  1.00  0.00     0.080 A 
HETATM   35  C14 UNL     1      39.210   2.889  10.217  1.00  0.00     0.183 A 
ATOM     36  H10 UNL     1      39.430   2.764  12.240  1.00  0.00     0.168 HD
HETATM   37  N11 UNL     1      38.450   3.346   9.227  1.00  0.00    -0.338 N 
HETATM   38  C15 UNL     1      37.287   4.053   9.463  1.00  0.00     0.116 A 
ATOM     39  H11 UNL     1      38.735   3.170   8.263  1.00  0.00     0.168 HD
BRANCH  38  40
HETATM   40  N12 UNL     1      36.635   4.472   8.473  1.00  0.00    -0.385 N 
ATOM     41 2H12 UNL     1      37.006   5.176   7.834  1.00  0.00     0.157 HD
ATOM     42 1H12 UNL     1      35.711   4.076   8.300  1.00  0.00     0.157 HD
ENDBRANCH  38  40
ENDBRANCH  26  28
ENDBRANCH   1  26
TORSDOF 7
ENDMDL
MODEL 5
REMARK VINA RESULT: -8.410648915      1.279      2.276
REMARK  7 active torsions:
REMARK  status: ('A' for Active; 'I' for Inactive)
REMARK    1  A    between atoms: N1_2  and  C2_3 
REMARK    2  A    between atoms: N1_2  and  C11_28 
REMARK    3  A    between atoms: C5_6  and  C6_7 
REMARK    4  A    between atoms: C6_7  and  N2_8 
REMARK    5  A    between atoms: C6_7  and  N3_11 
REMARK    6  A    between atoms: N3_11  and  N4_13 
REMARK    7  A    between atoms: C15_38  and  N12_39 
ROOT
HETATM    1  C2  UNL     1      32.700   5.624  10.709  1.00  0.00     0.150 A 
HETATM    2  C3  UNL     1      32.253   5.330  11.969  1.00  0.00     0.059 A 
HETATM    3  C4  UNL     1      30.944   4.875  11.821  1.00  0.00     0.045 A 
HETATM    4  C5  UNL     1      30.657   4.914  10.481  1.00  0.00     0.122 A 
HETATM    5  O2  UNL     1      31.728   5.363   9.873  1.00  0.00    -0.290 OA
ENDROOT
BRANCH   4   6
HETATM    6  C6  UNL     1      29.449   4.556   9.754  1.00  0.00     0.149 C 
BRANCH   6   7
HETATM    7  N2  UNL     1      29.511   3.822   8.675  1.00  0.00    -0.382 N 
ATOM      8  H22 UNL     1      30.367   3.286   8.534  1.00  0.00     0.157 HD
ATOM      9  H21 UNL     1      28.735   3.801   8.013  1.00  0.00     0.157 HD
ENDBRANCH   6   7
BRANCH   6  10
HETATM   10  N3  UNL     1      28.162   4.967  10.171  1.00  0.00    -0.264 N 
ATOM     11  H3  UNL     1      27.968   5.149  11.155  1.00  0.00     0.190 HD
BRANCH  10  12
HETATM   12  N4  UNL     1      27.149   5.121   9.199  1.00  0.00    -0.188 N 
HETATM   13  C7  UNL     1      26.943   6.208   8.259  1.00  0.00     0.310 C 
HETATM   14  N5  UNL     1      25.495   6.207   8.102  1.00  0.00    -0.205 N 
HETATM   15  C8  UNL     1      25.091   4.858   8.294  1.00  0.00     0.708 A 
ATOM     16  H5  UNL     1      24.896   7.006   7.898  1.00  0.00     0.179 HD
HETATM   17  N6  UNL     1      23.991   4.166   7.966  1.00  0.00    -0.164 N 
HETATM   18  N8  UNL     1      26.095   4.214   8.955  1.00  0.00    -0.013 N 
HETATM   19  C9  UNL     1      23.842   2.871   8.264  1.00  0.00     0.194 A 
ATOM     20  H6  UNL     1      23.238   4.645   7.470  1.00  0.00     0.186 HD
HETATM   21  S1  UNL     1      22.483   2.076   7.842  1.00  0.00    -0.040 SA
HETATM   22  N7  UNL     1      24.819   2.236   8.910  1.00  0.00    -0.283 N 
HETATM   23  C10 UNL     1      25.915   2.908   9.242  1.00  0.00     0.364 A 
ATOM     24  H7  UNL     1      24.727   1.248   9.147  1.00  0.00     0.173 HD
HETATM   25  O1  UNL     1      26.848   2.322   9.854  1.00  0.00    -0.244 OA
ENDBRANCH  10  12
ENDBRANCH   6  10
ENDBRANCH   4   6
BRANCH   1  26
HETATM   26  N1  UNL     1      33.946   6.121  10.271  1.00  0.00    -0.330 N 
HETATM   27  C1  UNL     1      34.148   7.571  10.475  1.00  0.00     0.158 C 
BRANCH  26  28
HETATM   28  C11 UNL     1      34.993   5.384   9.696  1.00  0.00     0.069 A 
HETATM   29  C12 UNL     1      35.212   5.142   8.334  1.00  0.00     0.120 A 
HETATM   30  N9  UNL     1      36.341   4.449   8.187  1.00  0.00    -0.349 N 
HETATM   31  C13 UNL     1      36.895   4.209   9.396  1.00  0.00     0.122 A 
ATOM     32  H9  UNL     1      36.728   4.146   7.294  1.00  0.00     0.167 HD
HETATM   33  N10 UNL     1      38.015   3.553   9.768  1.00  0.00    -0.338 N 
HETATM   34  C16 UNL     1      36.052   4.793  10.345  1.00  0.00     0.080 A 
HETATM   35  C14 UNL     1      38.357   3.436  11.054  1.00  0.00     0.183 A 
ATOM     36  H10 UNL     1      38.612   3.138   9.053  1.00  0.00     0.168 HD
HETATM   37  N11 UNL     1      37.579   3.976  11.987  1.00  0.00    -0.338 N 
HETATM   38  C15 UNL     1      36.421   4.660  11.671  1.00  0.00     0.116 A 
ATOM     39  H11 UNL     1      37.845   3.882  12.967  1.00  0.00     0.168 HD
BRANCH  38  40
HETATM   40  N12 UNL     1      35.728   5.122  12.611  1.00  0.00    -0.385 N 
ATOM     41 2H12 UNL     1      34.911   5.711  12.448  1.00  0.00     0.157 HD
ATOM     42 1H12 UNL     1      35.988   4.880  13.568  1.00  0.00     0.157 HD
ENDBRANCH  38  40
ENDBRANCH  26  28
ENDBRANCH   1  26
TORSDOF 7
ENDMDL
