MODEL 1
REMARK VINA RESULT: -7.656229401      0.000      0.000
REMARK  13 active torsions:
REMARK  status: ('A' for Active; 'I' for Inactive)
REMARK    1  A    between atoms: C5_7  and  N2_8 
REMARK    2  A    between atoms: C6_13  and  N4_14 
REMARK    3  A    between atoms: C8_22  and  S1_23 
REMARK    4  A    between atoms: S1_23  and  C9_24 
REMARK    5  A    between atoms: C9_24  and  C10_25 
REMARK       I    between atoms: C10_25  and  N7_27 
REMARK    6  A    between atoms: N7_27  and  C11_29 
REMARK    7  A    between atoms: C11_29  and  C12_30 
REMARK    8  A    between atoms: C11_29  and  C14_39 
REMARK    9  A    between atoms: C12_30  and  O2_31 
REMARK   10  A    between atoms: O2_31  and  C13_32 
REMARK   11  A    between atoms: C13_32  and  N8_33 
REMARK   12  A    between atoms: C13_32  and  O3_37 
REMARK       I    between atoms: C14_39  and  N9_41 
REMARK       I    between atoms: N9_41  and  C15_43 
REMARK   13  A    between atoms: C15_43  and  C16_45 
ROOT
HETATM    1  C1  UNL     1      32.829  63.359   6.374  1.00  0.00     0.104 C 
HETATM    2  C2  UNL     1      32.917  62.391   7.136  1.00  0.00    -0.128 C 
HETATM    3  C3  UNL     1      33.041  61.261   7.990  1.00  0.00     0.108 A 
HETATM    4  N1  UNL     1      33.378  60.030   7.437  1.00  0.00    -0.342 N 
ATOM      5  H1  UNL     1      33.501  59.909   6.432  1.00  0.00     0.167 HD
HETATM    6  C4  UNL     1      33.537  58.994   8.310  1.00  0.00     0.123 A 
HETATM    7  C5  UNL     1      33.873  57.753   7.756  1.00  0.00     0.145 A 
HETATM    8  N3  UNL     1      34.027  56.735   8.617  1.00  0.00    -0.175 N 
ATOM      9  H3  UNL     1      34.268  55.814   8.250  1.00  0.00     0.186 HD
HETATM   10  C6  UNL     1      33.876  56.881   9.938  1.00  0.00     0.679 A 
HETATM   11  N5  UNL     1      33.561  58.064  10.463  1.00  0.00    -0.174 N 
ATOM     12  H5  UNL     1      33.450  58.173  11.472  1.00  0.00     0.186 HD
HETATM   13  C7  UNL     1      33.390  59.124   9.630  1.00  0.00     0.152 A 
HETATM   14  N6  UNL     1      33.061  60.338  10.221  1.00  0.00    -0.332 N 
ATOM     15  H6  UNL     1      32.951  60.448  11.229  1.00  0.00     0.168 HD
HETATM   16  C8  UNL     1      32.894  61.388   9.328  1.00  0.00     0.106 A 
ENDROOT
BRANCH  16  17
HETATM   17  S1  UNL     1      32.366  62.980  10.026  1.00  0.00    -0.100 SA
BRANCH  17  18
HETATM   18  C9  UNL     1      31.088  62.645  11.230  1.00  0.00     0.183 C 
BRANCH  18  19
HETATM   19  C10 UNL     1      29.671  62.585  10.639  1.00  0.00     0.228 C 
HETATM   20  O1  UNL     1      28.727  62.483  11.293  1.00  0.00    -0.273 OA
HETATM   21  N7  UNL     1      29.730  62.684   9.193  1.00  0.00    -0.345 N 
ATOM     22  H7  UNL     1      30.685  62.740   8.839  1.00  0.00     0.163 HD
BRANCH  21  23
HETATM   23  C11 UNL     1      28.769  62.721   8.174  1.00  0.00     0.201 C 
BRANCH  23  24
HETATM   24  C12 UNL     1      28.945  62.190   6.846  1.00  0.00     0.207 C 
BRANCH  24  25
HETATM   25  O2  UNL     1      29.646  60.901   6.969  1.00  0.00    -0.337 OA
BRANCH  25  26
HETATM   26  C13 UNL     1      29.649  59.892   6.210  1.00  0.00     0.464 C 
BRANCH  26  27
HETATM   27  N8  UNL     1      28.696  59.142   5.502  1.00  0.00    -0.029 N 
ATOM     28  H83 UNL     1      27.838  59.674   5.642  1.00  0.00     0.280 HD
ATOM     29  H82 UNL     1      28.959  59.301   4.529  1.00  0.00     0.280 HD
ATOM     30  H81 UNL     1      28.366  58.177   5.493  1.00  0.00     0.280 HD
ENDBRANCH  26  27
BRANCH  26  31
HETATM   31  O3  UNL     1      30.889  59.336   5.940  1.00  0.00    -0.350 OA
ATOM     32  H3  UNL     1      31.550  59.932   5.607  1.00  0.00     0.214 HD
ENDBRANCH  26  31
ENDBRANCH  25  26
ENDBRANCH  24  25
ENDBRANCH  23  24
BRANCH  23  33
HETATM   33  C14 UNL     1      28.621  64.312   8.000  1.00  0.00     0.249 C 
HETATM   34  O4  UNL     1      27.532  64.785   8.208  1.00  0.00    -0.271 OA
HETATM   35  N9  UNL     1      29.820  64.957   7.663  1.00  0.00    -0.295 N 
HETATM   36  C15 UNL     1      29.968  66.370   7.623  1.00  0.00     0.227 C 
ATOM     37  H9  UNL     1      30.630  64.380   7.434  1.00  0.00     0.171 HD
HETATM   38  O5  UNL     1      28.988  67.127   7.656  1.00  0.00    -0.273 OA
BRANCH  36  39
HETATM   39  C16 UNL     1      31.343  66.967   7.560  1.00  0.00     0.070 C 
HETATM   40  C17 UNL     1      31.561  67.957   6.485  1.00  0.00     0.019 C 
HETATM   41  C18 UNL     1      31.636  67.594   8.911  1.00  0.00     0.019 C 
ENDBRANCH  36  39
ENDBRANCH  23  33
ENDBRANCH  21  23
ENDBRANCH  18  19
ENDBRANCH  17  18
ENDBRANCH  16  17
BRANCH   7  42
HETATM   42  N2  UNL     1      34.062  57.646   6.461  1.00  0.00    -0.383 N 
ATOM     43  H22 UNL     1      33.486  58.119   5.764  1.00  0.00     0.157 HD
ATOM     44  H21 UNL     1      34.797  57.035   6.104  1.00  0.00     0.157 HD
ENDBRANCH   7  42
BRANCH  10  45
HETATM   45  N4  UNL     1      34.062  55.807  10.699  1.00  0.00    -0.234 N 
ATOM     46  H42 UNL     1      33.923  54.864  10.337  1.00  0.00     0.174 HD
ATOM     47  H41 UNL     1      34.344  55.959  11.668  1.00  0.00     0.174 HD
ENDBRANCH  10  45
TORSDOF 13
ENDMDL
MODEL 2
REMARK VINA RESULT: -7.229381419      1.784      2.652
REMARK  13 active torsions:
REMARK  status: ('A' for Active; 'I' for Inactive)
REMARK    1  A    between atoms: C5_7  and  N2_8 
REMARK    2  A    between atoms: C6_13  and  N4_14 
REMARK    3  A    between atoms: C8_22  and  S1_23 
REMARK    4  A    between atoms: S1_23  and  C9_24 
REMARK    5  A    between atoms: C9_24  and  C10_25 
REMARK       I    between atoms: C10_25  and  N7_27 
REMARK    6  A    between atoms: N7_27  and  C11_29 
REMARK    7  A    between atoms: C11_29  and  C12_30 
REMARK    8  A    between atoms: C11_29  and  C14_39 
REMARK    9  A    between atoms: C12_30  and  O2_31 
REMARK   10  A    between atoms: O2_31  and  C13_32 
REMARK   11  A    between atoms: C13_32  and  N8_33 
REMARK   12  A    between atoms: C13_32  and  O3_37 
REMARK       I    between atoms: C14_39  and  N9_41 
REMARK       I    between atoms: N9_41  and  C15_43 
REMARK   13  A    between atoms: C15_43  and  C16_45 
ROOT
HETATM    1  C1  UNL     1      31.678  65.473  11.112  1.00  0.00     0.104 C 
HETATM    2  C2  UNL     1      31.936  64.297  10.840  1.00  0.00    -0.128 C 
HETATM    3  C3  UNL     1      32.257  62.954  10.502  1.00  0.00     0.108 A 
HETATM    4  N1  UNL     1      32.734  62.673   9.226  1.00  0.00    -0.342 N 
ATOM      5  H1  UNL     1      32.823  63.400   8.514  1.00  0.00     0.167 HD
HETATM    6  C4  UNL     1      33.078  61.377   8.976  1.00  0.00     0.123 A 
HETATM    7  C5  UNL     1      33.555  61.092   7.690  1.00  0.00     0.145 A 
HETATM    8  N3  UNL     1      33.890  59.816   7.446  1.00  0.00    -0.175 N 
ATOM      9  H3  UNL     1      34.239  59.569   6.519  1.00  0.00     0.186 HD
HETATM   10  C6  UNL     1      33.786  58.855   8.370  1.00  0.00     0.679 A 
HETATM   11  N5  UNL     1      33.336  59.130   9.594  1.00  0.00    -0.174 N 
ATOM     12  H5  UNL     1      33.261  58.395  10.298  1.00  0.00     0.186 HD
HETATM   13  C7  UNL     1      32.979  60.408   9.887  1.00  0.00     0.152 A 
HETATM   14  N6  UNL     1      32.515  60.649  11.174  1.00  0.00    -0.332 N 
ATOM     15  H6  UNL     1      32.440  59.915  11.879  1.00  0.00     0.168 HD
HETATM   16  C8  UNL     1      32.160  61.968  11.423  1.00  0.00     0.106 A 
ENDROOT
BRANCH  16  17
HETATM   17  S1  UNL     1      31.451  62.332  13.056  1.00  0.00    -0.100 SA
BRANCH  17  18
HETATM   18  C9  UNL     1      29.682  62.482  12.855  1.00  0.00     0.183 C 
BRANCH  18  19
HETATM   19  C10 UNL     1      29.127  61.758  11.619  1.00  0.00     0.228 C 
HETATM   20  O1  UNL     1      28.963  60.617  11.586  1.00  0.00    -0.273 OA
HETATM   21  N7  UNL     1      28.852  62.714  10.564  1.00  0.00    -0.345 N 
ATOM     22  H7  UNL     1      29.104  63.669  10.818  1.00  0.00     0.163 HD
BRANCH  21  23
HETATM   23  C11 UNL     1      28.316  62.620   9.272  1.00  0.00     0.201 C 
BRANCH  23  24
HETATM   24  C12 UNL     1      29.001  62.076   8.126  1.00  0.00     0.207 C 
BRANCH  24  25
HETATM   25  O2  UNL     1      28.008  61.905   7.052  1.00  0.00    -0.337 OA
BRANCH  25  26
HETATM   26  C13 UNL     1      28.066  62.204   5.827  1.00  0.00     0.464 C 
BRANCH  26  27
HETATM   27  N8  UNL     1      28.699  61.699   4.679  1.00  0.00    -0.029 N 
ATOM     28  H83 UNL     1      28.696  62.499   4.048  1.00  0.00     0.280 HD
ATOM     29  H82 UNL     1      29.667  61.593   4.982  1.00  0.00     0.280 HD
ATOM     30  H81 UNL     1      28.571  60.910   4.046  1.00  0.00     0.280 HD
ENDBRANCH  26  27
BRANCH  26  31
HETATM   31  O3  UNL     1      27.314  63.297   5.430  1.00  0.00    -0.350 OA
ATOM     32  H3  UNL     1      27.736  63.898   4.827  1.00  0.00     0.214 HD
ENDBRANCH  26  31
ENDBRANCH  25  26
ENDBRANCH  24  25
ENDBRANCH  23  24
BRANCH  23  33
HETATM   33  C14 UNL     1      28.095  64.180   8.957  1.00  0.00     0.249 C 
HETATM   34  O4  UNL     1      27.100  64.692   9.404  1.00  0.00    -0.271 OA
HETATM   35  N9  UNL     1      29.138  64.761   8.221  1.00  0.00    -0.295 N 
HETATM   36  C15 UNL     1      29.242  66.156   7.972  1.00  0.00     0.227 C 
ATOM     37  H9  UNL     1      29.862  64.148   7.844  1.00  0.00     0.171 HD
HETATM   38  O5  UNL     1      28.297  66.927   8.188  1.00  0.00    -0.273 OA
BRANCH  36  39
HETATM   39  C16 UNL     1      30.532  66.720   7.453  1.00  0.00     0.070 C 
HETATM   40  C17 UNL     1      31.116  67.818   8.251  1.00  0.00     0.019 C 
HETATM   41  C18 UNL     1      31.523  65.577   7.338  1.00  0.00     0.019 C 
ENDBRANCH  36  39
ENDBRANCH  23  33
ENDBRANCH  21  23
ENDBRANCH  18  19
ENDBRANCH  17  18
ENDBRANCH  16  17
BRANCH   7  42
HETATM   42  N2  UNL     1      33.693  62.061   6.815  1.00  0.00    -0.383 N 
ATOM     43  H22 UNL     1      34.098  61.933   5.887  1.00  0.00     0.157 HD
ATOM     44  H21 UNL     1      33.419  63.012   7.063  1.00  0.00     0.157 HD
ENDBRANCH   7  42
BRANCH  10  45
HETATM   45  N4  UNL     1      34.156  57.626   8.024  1.00  0.00    -0.234 N 
ATOM     46  H42 UNL     1      33.526  56.997   7.527  1.00  0.00     0.174 HD
ATOM     47  H41 UNL     1      35.098  57.328   8.279  1.00  0.00     0.174 HD
ENDBRANCH  10  45
TORSDOF 13
ENDMDL
MODEL 3
REMARK VINA RESULT: -7.185717736      2.248      4.180
REMARK  13 active torsions:
REMARK  status: ('A' for Active; 'I' for Inactive)
REMARK    1  A    between atoms: C5_7  and  N2_8 
REMARK    2  A    between atoms: C6_13  and  N4_14 
REMARK    3  A    between atoms: C8_22  and  S1_23 
REMARK    4  A    between atoms: S1_23  and  C9_24 
REMARK    5  A    between atoms: C9_24  and  C10_25 
REMARK       I    between atoms: C10_25  and  N7_27 
REMARK    6  A    between atoms: N7_27  and  C11_29 
REMARK    7  A    between atoms: C11_29  and  C12_30 
REMARK    8  A    between atoms: C11_29  and  C14_39 
REMARK    9  A    between atoms: C12_30  and  O2_31 
REMARK   10  A    between atoms: O2_31  and  C13_32 
REMARK   11  A    between atoms: C13_32  and  N8_33 
REMARK   12  A    between atoms: C13_32  and  O3_37 
REMARK       I    between atoms: C14_39  and  N9_41 
REMARK       I    between atoms: N9_41  and  C15_43 
REMARK   13  A    between atoms: C15_43  and  C16_45 
ROOT
HETATM    1  C1  UNL     1      32.828  63.220   6.553  1.00  0.00     0.104 C 
HETATM    2  C2  UNL     1      33.040  62.333   7.386  1.00  0.00    -0.128 C 
HETATM    3  C3  UNL     1      33.274  61.335   8.371  1.00  0.00     0.108 A 
HETATM    4  N1  UNL     1      33.633  61.726   9.657  1.00  0.00    -0.342 N 
ATOM      5  H1  UNL     1      33.771  62.707   9.901  1.00  0.00     0.167 HD
HETATM    6  C4  UNL     1      33.792  60.729  10.574  1.00  0.00     0.123 A 
HETATM    7  C5  UNL     1      34.157  61.120  11.869  1.00  0.00     0.145 A 
HETATM    8  N3  UNL     1      34.314  60.137  12.768  1.00  0.00    -0.175 N 
ATOM      9  H3  UNL     1      34.584  60.383  13.721  1.00  0.00     0.186 HD
HETATM   10  C6  UNL     1      34.131  58.847  12.465  1.00  0.00     0.679 A 
HETATM   11  N5  UNL     1      33.779  58.478  11.234  1.00  0.00    -0.174 N 
ATOM     12  H5  UNL     1      33.636  57.494  11.006  1.00  0.00     0.186 HD
HETATM   13  C7  UNL     1      33.612  59.439  10.287  1.00  0.00     0.152 A 
HETATM   14  N6  UNL     1      33.246  59.009   9.017  1.00  0.00    -0.332 N 
ATOM     15  H6  UNL     1      33.102  58.025   8.789  1.00  0.00     0.168 HD
HETATM   16  C8  UNL     1      33.092  60.026   8.085  1.00  0.00     0.106 A 
ENDROOT
BRANCH  16  17
HETATM   17  S1  UNL     1      32.711  59.525   6.381  1.00  0.00    -0.100 SA
BRANCH  17  18
HETATM   18  C9  UNL     1      31.449  58.261   6.459  1.00  0.00     0.183 C 
BRANCH  18  19
HETATM   19  C10 UNL     1      30.075  58.715   5.944  1.00  0.00     0.228 C 
HETATM   20  O1  UNL     1      29.379  58.027   5.335  1.00  0.00    -0.273 OA
HETATM   21  N7  UNL     1      29.819  60.085   6.348  1.00  0.00    -0.345 N 
ATOM     22  H7  UNL     1      30.598  60.498   6.860  1.00  0.00     0.163 HD
BRANCH  21  23
HETATM   23  C11 UNL     1      28.742  60.967   6.193  1.00  0.00     0.201 C 
BRANCH  23  24
HETATM   24  C12 UNL     1      28.760  62.168   5.397  1.00  0.00     0.207 C 
BRANCH  24  25
HETATM   25  O2  UNL     1      27.436  62.804   5.515  1.00  0.00    -0.337 OA
BRANCH  25  26
HETATM   26  C13 UNL     1      27.074  63.991   5.290  1.00  0.00     0.464 C 
BRANCH  26  27
HETATM   27  N8  UNL     1      26.518  64.706   4.216  1.00  0.00    -0.029 N 
ATOM     28  H83 UNL     1      27.111  64.436   3.432  1.00  0.00     0.280 HD
ATOM     29  H82 UNL     1      25.629  64.230   4.062  1.00  0.00     0.280 HD
ATOM     30  H81 UNL     1      26.294  65.679   4.007  1.00  0.00     0.280 HD
ENDBRANCH  26  27
BRANCH  26  31
HETATM   31  O3  UNL     1      27.210  64.880   6.344  1.00  0.00    -0.350 OA
ATOM     32  H3  UNL     1      27.922  64.705   6.948  1.00  0.00     0.214 HD
ENDBRANCH  26  31
ENDBRANCH  25  26
ENDBRANCH  24  25
ENDBRANCH  23  24
BRANCH  23  33
HETATM   33  C14 UNL     1      28.563  61.446   7.716  1.00  0.00     0.249 C 
HETATM   34  O4  UNL     1      28.064  60.659   8.480  1.00  0.00    -0.271 OA
HETATM   35  N9  UNL     1      29.062  62.733   7.965  1.00  0.00    -0.295 N 
HETATM   36  C15 UNL     1      29.166  63.297   9.266  1.00  0.00     0.227 C 
ATOM     37  H9  UNL     1      29.367  63.294   7.170  1.00  0.00     0.171 HD
HETATM   38  O5  UNL     1      28.607  62.781  10.244  1.00  0.00    -0.273 OA
BRANCH  36  39
HETATM   39  C16 UNL     1      29.989  64.535   9.471  1.00  0.00     0.070 C 
HETATM   40  C17 UNL     1      31.294  64.332  10.131  1.00  0.00     0.019 C 
HETATM   41  C18 UNL     1      30.186  65.187   8.115  1.00  0.00     0.019 C 
ENDBRANCH  36  39
ENDBRANCH  23  33
ENDBRANCH  21  23
ENDBRANCH  18  19
ENDBRANCH  17  18
ENDBRANCH  16  17
BRANCH   7  42
HETATM   42  N2  UNL     1      34.285  62.395  12.154  1.00  0.00    -0.383 N 
ATOM     43  H22 UNL     1      34.901  63.030  11.644  1.00  0.00     0.157 HD
ATOM     44  H21 UNL     1      33.778  62.792  12.945  1.00  0.00     0.157 HD
ENDBRANCH   7  42
BRANCH  10  45
HETATM   45  N4  UNL     1      34.303  57.957  13.437  1.00  0.00    -0.234 N 
ATOM     46  H42 UNL     1      33.686  57.925  14.249  1.00  0.00     0.174 HD
ATOM     47  H41 UNL     1      35.084  57.306  13.348  1.00  0.00     0.174 HD
ENDBRANCH  10  45
TORSDOF 13
ENDMDL
MODEL 4
REMARK VINA RESULT: -7.166130717      3.637      6.200
REMARK  13 active torsions:
REMARK  status: ('A' for Active; 'I' for Inactive)
REMARK    1  A    between atoms: C5_7  and  N2_8 
REMARK    2  A    between atoms: C6_13  and  N4_14 
REMARK    3  A    between atoms: C8_22  and  S1_23 
REMARK    4  A    between atoms: S1_23  and  C9_24 
REMARK    5  A    between atoms: C9_24  and  C10_25 
REMARK       I    between atoms: C10_25  and  N7_27 
REMARK    6  A    between atoms: N7_27  and  C11_29 
REMARK    7  A    between atoms: C11_29  and  C12_30 
REMARK    8  A    between atoms: C11_29  and  C14_39 
REMARK    9  A    between atoms: C12_30  and  O2_31 
REMARK   10  A    between atoms: O2_31  and  C13_32 
REMARK   11  A    between atoms: C13_32  and  N8_33 
REMARK   12  A    between atoms: C13_32  and  O3_37 
REMARK       I    between atoms: C14_39  and  N9_41 
REMARK       I    between atoms: N9_41  and  C15_43 
REMARK   13  A    between atoms: C15_43  and  C16_45 
ROOT
HETATM    1  C1  UNL     1      31.423  64.380   9.313  1.00  0.00     0.104 C 
HETATM    2  C2  UNL     1      31.736  63.308   8.786  1.00  0.00    -0.128 C 
HETATM    3  C3  UNL     1      32.118  62.067   8.207  1.00  0.00     0.108 A 
HETATM    4  N1  UNL     1      33.358  61.525   8.528  1.00  0.00    -0.342 N 
ATOM      5  H1  UNL     1      34.016  62.013   9.136  1.00  0.00     0.167 HD
HETATM    6  C4  UNL     1      33.648  60.307   7.987  1.00  0.00     0.123 A 
HETATM    7  C5  UNL     1      34.898  59.760   8.305  1.00  0.00     0.145 A 
HETATM    8  N3  UNL     1      35.181  58.563   7.770  1.00  0.00    -0.175 N 
ATOM      9  H3  UNL     1      36.084  58.135   7.976  1.00  0.00     0.186 HD
HETATM   10  C6  UNL     1      34.327  57.909   6.976  1.00  0.00     0.679 A 
HETATM   11  N5  UNL     1      33.136  58.429   6.678  1.00  0.00    -0.174 N 
ATOM     12  H5  UNL     1      32.485  57.926   6.075  1.00  0.00     0.186 HD
HETATM   13  C7  UNL     1      32.806  59.643   7.194  1.00  0.00     0.152 A 
HETATM   14  N6  UNL     1      31.556  60.146   6.856  1.00  0.00    -0.332 N 
ATOM     15  H6  UNL     1      30.903  59.643   6.254  1.00  0.00     0.168 HD
HETATM   16  C8  UNL     1      31.267  61.389   7.403  1.00  0.00     0.106 A 
ENDROOT
BRANCH  16  17
HETATM   17  S1  UNL     1      29.689  62.150   6.922  1.00  0.00    -0.100 SA
BRANCH  17  18
HETATM   18  C9  UNL     1      28.417  61.468   7.976  1.00  0.00     0.183 C 
BRANCH  18  19
HETATM   19  C10 UNL     1      28.152  62.286   9.249  1.00  0.00     0.228 C 
HETATM   20  O1  UNL     1      27.970  63.425   9.232  1.00  0.00    -0.273 OA
HETATM   21  N7  UNL     1      28.160  61.417  10.410  1.00  0.00    -0.345 N 
ATOM     22  H7  UNL     1      28.370  60.447  10.177  1.00  0.00     0.163 HD
BRANCH  21  23
HETATM   23  C11 UNL     1      27.943  61.612  11.781  1.00  0.00     0.201 C 
BRANCH  23  24
HETATM   24  C12 UNL     1      28.809  61.142  12.834  1.00  0.00     0.207 C 
BRANCH  24  25
HETATM   25  O2  UNL     1      29.649  60.068  12.277  1.00  0.00    -0.337 OA
BRANCH  25  26
HETATM   26  C13 UNL     1      30.581  59.400  12.804  1.00  0.00     0.464 C 
BRANCH  26  27
HETATM   27  N8  UNL     1      31.082  58.092  12.708  1.00  0.00    -0.029 N 
ATOM     28  H83 UNL     1      31.445  58.056  11.756  1.00  0.00     0.280 HD
ATOM     29  H82 UNL     1      31.904  58.119  13.312  1.00  0.00     0.280 HD
ATOM     30  H81 UNL     1      30.726  57.147  12.851  1.00  0.00     0.280 HD
ENDBRANCH  26  27
BRANCH  26  31
HETATM   31  O3  UNL     1      31.379  60.077  13.711  1.00  0.00    -0.350 OA
ATOM     32  H3  UNL     1      31.079  60.076  14.613  1.00  0.00     0.214 HD
ENDBRANCH  26  31
ENDBRANCH  25  26
ENDBRANCH  24  25
ENDBRANCH  23  24
BRANCH  23  33
HETATM   33  C14 UNL     1      26.561  60.812  11.952  1.00  0.00     0.249 C 
HETATM   34  O4  UNL     1      26.080  60.332  10.957  1.00  0.00    -0.271 OA
HETATM   35  N9  UNL     1      26.109  60.742  13.279  1.00  0.00    -0.295 N 
HETATM   36  C15 UNL     1      25.006  59.948  13.693  1.00  0.00     0.227 C 
ATOM     37  H9  UNL     1      26.600  61.292  13.984  1.00  0.00     0.171 HD
HETATM   38  O5  UNL     1      24.224  59.446  12.874  1.00  0.00    -0.273 OA
BRANCH  36  39
HETATM   39  C16 UNL     1      24.789  59.690  15.155  1.00  0.00     0.070 C 
HETATM   40  C17 UNL     1      24.551  58.280  15.526  1.00  0.00     0.019 C 
HETATM   41  C18 UNL     1      25.994  60.229  15.902  1.00  0.00     0.019 C 
ENDBRANCH  36  39
ENDBRANCH  23  33
ENDBRANCH  21  23
ENDBRANCH  18  19
ENDBRANCH  17  18
ENDBRANCH  16  17
BRANCH   7  42
HETATM   42  N2  UNL     1      35.700  60.401   9.125  1.00  0.00    -0.383 N 
ATOM     43  H22 UNL     1      36.148  59.967   9.932  1.00  0.00     0.157 HD
ATOM     44  H21 UNL     1      35.876  61.396   8.988  1.00  0.00     0.157 HD
ENDBRANCH   7  42
BRANCH  10  45
HETATM   45  N4  UNL     1      34.706  56.724   6.509  1.00  0.00    -0.234 N 
ATOM     46  H42 UNL     1      34.845  55.925   7.127  1.00  0.00     0.174 HD
ATOM     47  H41 UNL     1      34.863  56.641   5.504  1.00  0.00     0.174 HD
ENDBRANCH  10  45
TORSDOF 13
ENDMDL
MODEL 5
REMARK VINA RESULT: -7.150762417      2.127      2.708
REMARK  13 active torsions:
REMARK  status: ('A' for Active; 'I' for Inactive)
REMARK    1  A    between atoms: C5_7  and  N2_8 
REMARK    2  A    between atoms: C6_13  and  N4_14 
REMARK    3  A    between atoms: C8_22  and  S1_23 
REMARK    4  A    between atoms: S1_23  and  C9_24 
REMARK    5  A    between atoms: C9_24  and  C10_25 
REMARK       I    between atoms: C10_25  and  N7_27 
REMARK    6  A    between atoms: N7_27  and  C11_29 
REMARK    7  A    between atoms: C11_29  and  C12_30 
REMARK    8  A    between atoms: C11_29  and  C14_39 
REMARK    9  A    between atoms: C12_30  and  O2_31 
REMARK   10  A    between atoms: O2_31  and  C13_32 
REMARK   11  A    between atoms: C13_32  and  N8_33 
REMARK   12  A    between atoms: C13_32  and  O3_37 
REMARK       I    between atoms: C14_39  and  N9_41 
REMARK       I    between atoms: N9_41  and  C15_43 
REMARK   13  A    between atoms: C15_43  and  C16_45 
ROOT
HETATM    1  C1  UNL     1      33.740  64.140  12.911  1.00  0.00     0.104 C 
HETATM    2  C2  UNL     1      33.592  63.012  12.430  1.00  0.00    -0.128 C 
HETATM    3  C3  UNL     1      33.457  61.713  11.869  1.00  0.00     0.108 A 
HETATM    4  N1  UNL     1      34.340  61.313  10.872  1.00  0.00    -0.342 N 
ATOM      5  H1  UNL     1      35.057  61.940  10.506  1.00  0.00     0.167 HD
HETATM    6  C4  UNL     1      34.198  60.037  10.409  1.00  0.00     0.123 A 
HETATM    7  C5  UNL     1      35.083  59.633   9.402  1.00  0.00     0.145 A 
HETATM    8  N3  UNL     1      34.940  58.378   8.948  1.00  0.00    -0.175 N 
ATOM      9  H3  UNL     1      35.565  58.049   8.211  1.00  0.00     0.186 HD
HETATM   10  C6  UNL     1      34.010  57.543   9.423  1.00  0.00     0.679 A 
HETATM   11  N5  UNL     1      33.172  57.929  10.384  1.00  0.00    -0.174 N 
ATOM     12  H5  UNL     1      32.466  57.288  10.747  1.00  0.00     0.186 HD
HETATM   13  C7  UNL     1      33.276  59.193  10.873  1.00  0.00     0.152 A 
HETATM   14  N6  UNL     1      32.381  59.552  11.873  1.00  0.00    -0.332 N 
ATOM     15  H6  UNL     1      31.675  58.911  12.237  1.00  0.00     0.168 HD
HETATM   16  C8  UNL     1      32.524  60.853  12.337  1.00  0.00     0.106 A 
ENDROOT
BRANCH  16  17
HETATM   17  S1  UNL     1      31.321  61.419  13.575  1.00  0.00    -0.100 SA
BRANCH  17  18
HETATM   18  C9  UNL     1      30.134  62.461  12.738  1.00  0.00     0.183 C 
BRANCH  18  19
HETATM   19  C10 UNL     1      29.306  61.733  11.668  1.00  0.00     0.228 C 
HETATM   20  O1  UNL     1      28.891  60.668  11.818  1.00  0.00    -0.273 OA
HETATM   21  N7  UNL     1      29.141  62.583  10.504  1.00  0.00    -0.345 N 
ATOM     22  H7  UNL     1      29.624  63.476  10.594  1.00  0.00     0.163 HD
BRANCH  21  23
HETATM   23  C11 UNL     1      28.465  62.451   9.283  1.00  0.00     0.201 C 
BRANCH  23  24
HETATM   24  C12 UNL     1      29.016  61.865   8.087  1.00  0.00     0.207 C 
BRANCH  24  25
HETATM   25  O2  UNL     1      27.978  61.917   7.044  1.00  0.00    -0.337 OA
BRANCH  25  26
HETATM   26  C13 UNL     1      28.060  62.209   5.819  1.00  0.00     0.464 C 
BRANCH  26  27
HETATM   27  N8  UNL     1      28.703  61.690   4.684  1.00  0.00    -0.029 N 
ATOM     28  H83 UNL     1      28.780  60.697   4.901  1.00  0.00     0.280 HD
ATOM     29  H82 UNL     1      27.984  61.757   3.965  1.00  0.00     0.280 HD
ATOM     30  H81 UNL     1      29.561  61.877   4.165  1.00  0.00     0.280 HD
ENDBRANCH  26  27
BRANCH  26  31
HETATM   31  O3  UNL     1      27.329  63.311   5.406  1.00  0.00    -0.350 OA
ATOM     32  H3  UNL     1      26.504  63.457   5.854  1.00  0.00     0.214 HD
ENDBRANCH  26  31
ENDBRANCH  25  26
ENDBRANCH  24  25
ENDBRANCH  23  24
BRANCH  23  33
HETATM   33  C14 UNL     1      28.215  64.001   8.944  1.00  0.00     0.249 C 
HETATM   34  O4  UNL     1      27.141  64.460   9.243  1.00  0.00    -0.271 OA
HETATM   35  N9  UNL     1      29.324  64.640   8.370  1.00  0.00    -0.295 N 
HETATM   36  C15 UNL     1      29.394  66.041   8.142  1.00  0.00     0.227 C 
ATOM     37  H9  UNL     1      30.124  64.067   8.101  1.00  0.00     0.171 HD
HETATM   38  O5  UNL     1      28.391  66.763   8.221  1.00  0.00    -0.273 OA
BRANCH  36  39
HETATM   39  C16 UNL     1      30.717  66.672   7.819  1.00  0.00     0.070 C 
HETATM   40  C17 UNL     1      30.658  67.870   6.956  1.00  0.00     0.019 C 
HETATM   41  C18 UNL     1      31.400  67.009   9.131  1.00  0.00     0.019 C 
ENDBRANCH  36  39
ENDBRANCH  23  33
ENDBRANCH  21  23
ENDBRANCH  18  19
ENDBRANCH  17  18
ENDBRANCH  16  17
BRANCH   7  42
HETATM   42  N2  UNL     1      36.018  60.456   8.986  1.00  0.00    -0.383 N 
ATOM     43  H22 UNL     1      35.928  61.042   8.156  1.00  0.00     0.157 HD
ATOM     44  H21 UNL     1      36.908  60.507   9.483  1.00  0.00     0.157 HD
ENDBRANCH   7  42
BRANCH  10  45
HETATM   45  N4  UNL     1      33.964  56.319   8.907  1.00  0.00    -0.234 N 
ATOM     46  H42 UNL     1      34.241  56.133   7.943  1.00  0.00     0.174 HD
ATOM     47  H41 UNL     1      33.633  55.565   9.510  1.00  0.00     0.174 HD
ENDBRANCH  10  45
TORSDOF 13
ENDMDL
