MODEL 1
REMARK VINA RESULT: -8.700930551      0.000      0.000
REMARK  3 active torsions:
REMARK  status: ('A' for Active; 'I' for Inactive)
REMARK    1  A    between atoms: C10_11  and  C11_12 
REMARK    2  A    between atoms: C11_12  and  C12_13 
REMARK    3  A    between atoms: C12_13  and  S1_14 
ROOT
HETATM    1  C1  UNL     1      26.082  17.176  21.216  1.00  0.00     0.010 C 
HETATM    2  C2  UNL     1      26.234  15.966  20.357  1.00  0.00    -0.011 C 
HETATM    3  C3  UNL     1      27.039  16.425  19.112  1.00  0.00     0.005 C 
HETATM    4  C4  UNL     1      27.240  15.007  18.534  1.00  0.00     0.008 C 
HETATM    5  C5  UNL     1      27.739  14.159  19.712  1.00  0.00     0.028 C 
HETATM    6  C6  UNL     1      27.270  15.045  20.866  1.00  0.00     0.037 C 
HETATM    7  C7  UNL     1      27.084  14.159  21.965  1.00  0.00     0.134 C 
HETATM    8  C8  UNL     1      25.819  13.476  21.935  1.00  0.00     0.077 C 
HETATM    9  C9  UNL     1      25.645  12.100  21.326  1.00  0.00     0.136 C 
HETATM   10  O1  UNL     1      24.552  12.065  20.619  1.00  0.00    -0.377 OA
HETATM   11  C10 UNL     1      24.061  11.181  19.786  1.00  0.00     0.157 C 
HETATM   12  C13 UNL     1      24.181  11.542  18.291  1.00  0.00     0.208 A 
HETATM   13  O5  UNL     1      24.170  12.787  17.819  1.00  0.00    -0.346 OA
HETATM   14  C14 UNL     1      25.538  12.193  18.097  1.00  0.00     0.293 A 
HETATM   15  O6  UNL     1      26.020  12.948  19.041  1.00  0.00    -0.347 OA
HETATM   16  C15 UNL     1      27.263  12.737  19.670  1.00  0.00     0.074 C 
HETATM   17  C16 UNL     1      28.160  12.199  18.527  1.00  0.00     0.047 C 
HETATM   18  C17 UNL     1      27.029  11.838  20.735  1.00  0.00     0.019 C 
HETATM   19  C18 UNL     1      27.123  10.392  20.198  1.00  0.00     0.021 C 
HETATM   20  C19 UNL     1      27.807  11.570  21.987  1.00  0.00     0.089 C 
HETATM   21  C20 UNL     1      28.024  12.576  23.024  1.00  0.00     0.228 A 
HETATM   22  O7  UNL     1      27.025  13.273  23.753  1.00  0.00    -0.197 OA
HETATM   23  O8  UNL     1      27.145  14.568  23.327  1.00  0.00    -0.223 OA
HETATM   24  O9  UNL     1      29.140  13.319  23.269  1.00  0.00    -0.336 OA
HETATM   25  C21 UNL     1      28.457  13.599  22.080  1.00  0.00     0.228 A 
ENDROOT
BRANCH  11  26
HETATM   26  C11 UNL     1      22.558  11.126  19.992  1.00  0.00     0.052 C 
BRANCH  26  27
HETATM   27  C12 UNL     1      22.046   9.983  20.772  1.00  0.00     0.168 C 
BRANCH  27  28
HETATM   28  S1  UNL     1      20.320   9.661  20.565  1.00  0.00     0.101 S 
HETATM   29  O2  UNL     1      19.515   9.936  21.770  1.00  0.00    -0.595 OA
HETATM   30  O3  UNL     1      19.804  10.561  19.453  1.00  0.00    -0.595 OA
HETATM   31  O4  UNL     1      20.065   8.061  20.098  1.00  0.00    -0.595 OA
ENDBRANCH  27  28
ENDBRANCH  26  27
ENDBRANCH  11  26
TORSDOF 3
ENDMDL
MODEL 2
REMARK VINA RESULT: -8.649737290      5.182      7.184
REMARK  3 active torsions:
REMARK  status: ('A' for Active; 'I' for Inactive)
REMARK    1  A    between atoms: C10_11  and  C11_12 
REMARK    2  A    between atoms: C11_12  and  C12_13 
REMARK    3  A    between atoms: C12_13  and  S1_14 
ROOT
HETATM    1  C1  UNL     1      18.436  15.536  24.920  1.00  0.00     0.010 C 
HETATM    2  C2  UNL     1      19.575  14.673  24.492  1.00  0.00    -0.011 C 
HETATM    3  C3  UNL     1      20.813  15.606  24.421  1.00  0.00     0.005 C 
HETATM    4  C4  UNL     1      21.840  14.475  24.193  1.00  0.00     0.008 C 
HETATM    5  C5  UNL     1      21.521  13.421  25.262  1.00  0.00     0.028 C 
HETATM    6  C6  UNL     1      20.089  13.838  25.596  1.00  0.00     0.037 C 
HETATM    7  C7  UNL     1      19.455  12.653  26.065  1.00  0.00     0.134 C 
HETATM    8  C8  UNL     1      18.991  11.799  25.004  1.00  0.00     0.077 C 
HETATM    9  C9  UNL     1      19.814  10.651  24.457  1.00  0.00     0.136 C 
HETATM   10  O1  UNL     1      19.739  10.635  23.157  1.00  0.00    -0.377 OA
HETATM   11  C10 UNL     1      20.385   9.961  22.239  1.00  0.00     0.157 C 
HETATM   12  C13 UNL     1      21.456  10.755  21.464  1.00  0.00     0.208 A 
HETATM   13  O5  UNL     1      21.386  12.062  21.219  1.00  0.00    -0.346 OA
HETATM   14  C14 UNL     1      22.151  11.660  22.466  1.00  0.00     0.293 A 
HETATM   15  O6  UNL     1      21.460  12.179  23.438  1.00  0.00    -0.347 OA
HETATM   16  C15 UNL     1      21.762  12.013  24.804  1.00  0.00     0.074 C 
HETATM   17  C16 UNL     1      23.311  11.993  24.834  1.00  0.00     0.047 C 
HETATM   18  C17 UNL     1      21.130  10.816  25.214  1.00  0.00     0.019 C 
HETATM   19  C18 UNL     1      22.074   9.628  24.922  1.00  0.00     0.021 C 
HETATM   20  C19 UNL     1      20.719  10.334  26.572  1.00  0.00     0.089 C 
HETATM   21  C20 UNL     1      19.722  11.017  27.394  1.00  0.00     0.228 A 
HETATM   22  O7  UNL     1      18.374  11.288  27.044  1.00  0.00    -0.197 OA
HETATM   23  O8  UNL     1      18.327  12.651  26.934  1.00  0.00    -0.223 OA
HETATM   24  O9  UNL     1      19.920  11.838  28.464  1.00  0.00    -0.336 OA
HETATM   25  C21 UNL     1      20.334  12.329  27.220  1.00  0.00     0.228 A 
ENDROOT
BRANCH  11  26
HETATM   26  C11 UNL     1      19.398   9.589  21.147  1.00  0.00     0.052 C 
BRANCH  26  27
HETATM   27  C12 UNL     1      19.942   8.834  20.002  1.00  0.00     0.168 C 
BRANCH  27  28
HETATM   28  S1  UNL     1      18.742   7.908  19.090  1.00  0.00     0.101 S 
HETATM   29  O2  UNL     1      18.610   6.508  19.535  1.00  0.00    -0.595 OA
HETATM   30  O3  UNL     1      17.390   8.579  19.277  1.00  0.00    -0.595 OA
HETATM   31  O4  UNL     1      19.106   7.921  17.444  1.00  0.00    -0.595 OA
ENDBRANCH  27  28
ENDBRANCH  26  27
ENDBRANCH  11  26
TORSDOF 3
ENDMDL
MODEL 3
REMARK VINA RESULT: -8.645144667      3.477      7.066
REMARK  3 active torsions:
REMARK  status: ('A' for Active; 'I' for Inactive)
REMARK    1  A    between atoms: C10_11  and  C11_12 
REMARK    2  A    between atoms: C11_12  and  C12_13 
REMARK    3  A    between atoms: C12_13  and  S1_14 
ROOT
HETATM    1  C1  UNL     1      28.171  10.225  19.958  1.00  0.00     0.010 C 
HETATM    2  C2  UNL     1      28.549  11.666  20.039  1.00  0.00    -0.011 C 
HETATM    3  C3  UNL     1      29.767  11.842  19.094  1.00  0.00     0.005 C 
HETATM    4  C4  UNL     1      29.806  13.383  19.186  1.00  0.00     0.008 C 
HETATM    5  C5  UNL     1      28.359  13.837  18.945  1.00  0.00     0.028 C 
HETATM    6  C6  UNL     1      27.637  12.527  19.259  1.00  0.00     0.037 C 
HETATM    7  C7  UNL     1      26.336  12.913  19.690  1.00  0.00     0.134 C 
HETATM    8  C8  UNL     1      26.289  13.306  21.072  1.00  0.00     0.077 C 
HETATM    9  C9  UNL     1      26.416  14.748  21.518  1.00  0.00     0.136 C 
HETATM   10  O1  UNL     1      27.199  14.821  22.557  1.00  0.00    -0.377 OA
HETATM   11  C10 UNL     1      27.740  15.831  23.192  1.00  0.00     0.157 C 
HETATM   12  C13 UNL     1      29.242  16.054  22.924  1.00  0.00     0.208 A 
HETATM   13  O5  UNL     1      30.103  15.079  22.636  1.00  0.00    -0.346 OA
HETATM   14  C14 UNL     1      29.476  15.786  21.448  1.00  0.00     0.293 A 
HETATM   15  O6  UNL     1      28.789  14.853  20.856  1.00  0.00    -0.347 OA
HETATM   16  C15 UNL     1      27.979  15.062  19.722  1.00  0.00     0.074 C 
HETATM   17  C16 UNL     1      28.755  16.132  18.914  1.00  0.00     0.047 C 
HETATM   18  C17 UNL     1      26.711  15.463  20.202  1.00  0.00     0.019 C 
HETATM   19  C18 UNL     1      26.715  16.994  20.406  1.00  0.00     0.021 C 
HETATM   20  C19 UNL     1      25.356  15.413  19.562  1.00  0.00     0.089 C 
HETATM   21  C20 UNL     1      24.699  14.166  19.177  1.00  0.00     0.228 A 
HETATM   22  O7  UNL     1      24.375  13.078  20.030  1.00  0.00    -0.197 OA
HETATM   23  O8  UNL     1      25.193  12.068  19.604  1.00  0.00    -0.223 OA
HETATM   24  O9  UNL     1      24.584  13.613  17.937  1.00  0.00    -0.336 OA
HETATM   25  C21 UNL     1      25.872  13.648  18.483  1.00  0.00     0.228 A 
ENDROOT
BRANCH  11  26
HETATM   26  C11 UNL     1      27.713  15.520  24.678  1.00  0.00     0.052 C 
BRANCH  26  27
HETATM   27  C12 UNL     1      28.106  16.617  25.583  1.00  0.00     0.168 C 
BRANCH  27  28
HETATM   28  S1  UNL     1      29.256  16.157  26.846  1.00  0.00     0.101 S 
HETATM   29  O2  UNL     1      29.256  14.714  27.152  1.00  0.00    -0.595 OA
HETATM   30  O3  UNL     1      30.652  16.525  26.366  1.00  0.00    -0.595 OA
HETATM   31  O4  UNL     1      28.953  17.012  28.267  1.00  0.00    -0.595 OA
ENDBRANCH  27  28
ENDBRANCH  26  27
ENDBRANCH  11  26
TORSDOF 3
ENDMDL
MODEL 4
REMARK VINA RESULT: -8.546249269      2.689      5.873
REMARK  3 active torsions:
REMARK  status: ('A' for Active; 'I' for Inactive)
REMARK    1  A    between atoms: C10_11  and  C11_12 
REMARK    2  A    between atoms: C11_12  and  C12_13 
REMARK    3  A    between atoms: C12_13  and  S1_14 
ROOT
HETATM    1  C1  UNL     1      28.319   9.654  19.910  1.00  0.00     0.010 C 
HETATM    2  C2  UNL     1      28.511  11.120  20.107  1.00  0.00    -0.011 C 
HETATM    3  C3  UNL     1      29.592  11.551  19.080  1.00  0.00     0.005 C 
HETATM    4  C4  UNL     1      29.439  13.067  19.330  1.00  0.00     0.008 C 
HETATM    5  C5  UNL     1      27.929  13.335  19.269  1.00  0.00     0.028 C 
HETATM    6  C6  UNL     1      27.420  11.913  19.507  1.00  0.00     0.037 C 
HETATM    7  C7  UNL     1      26.131  12.072  20.091  1.00  0.00     0.134 C 
HETATM    8  C8  UNL     1      26.176  12.327  21.505  1.00  0.00     0.077 C 
HETATM    9  C9  UNL     1      26.159  13.725  22.087  1.00  0.00     0.136 C 
HETATM   10  O1  UNL     1      27.029  13.811  23.054  1.00  0.00    -0.377 OA
HETATM   11  C10 UNL     1      27.496  14.824  23.740  1.00  0.00     0.157 C 
HETATM   12  C13 UNL     1      28.920  15.278  23.363  1.00  0.00     0.208 A 
HETATM   13  O5  UNL     1      29.866  14.465  22.898  1.00  0.00    -0.346 OA
HETATM   14  C14 UNL     1      29.034  15.183  21.852  1.00  0.00     0.293 A 
HETATM   15  O6  UNL     1      28.417  14.221  21.230  1.00  0.00    -0.347 OA
HETATM   16  C15 UNL     1      27.474  14.418  20.201  1.00  0.00     0.074 C 
HETATM   17  C16 UNL     1      28.017  15.656  19.443  1.00  0.00     0.047 C 
HETATM   18  C17 UNL     1      26.221  14.591  20.832  1.00  0.00     0.019 C 
HETATM   19  C18 UNL     1      26.047  16.083  21.194  1.00  0.00     0.021 C 
HETATM   20  C19 UNL     1      24.826  14.412  20.315  1.00  0.00     0.089 C 
HETATM   21  C20 UNL     1      24.301  13.126  19.862  1.00  0.00     0.228 A 
HETATM   22  O7  UNL     1      24.211  11.930  20.621  1.00  0.00    -0.197 OA
HETATM   23  O8  UNL     1      25.105  11.087  20.020  1.00  0.00    -0.223 OA
HETATM   24  O9  UNL     1      24.131  12.679  18.585  1.00  0.00    -0.336 OA
HETATM   25  C21 UNL     1      25.453  12.843  19.014  1.00  0.00     0.228 A 
ENDROOT
BRANCH  11  26
HETATM   26  C11 UNL     1      27.663  14.378  25.181  1.00  0.00     0.052 C 
BRANCH  26  27
HETATM   27  C12 UNL     1      26.756  14.996  26.167  1.00  0.00     0.168 C 
BRANCH  27  28
HETATM   28  S1  UNL     1      25.077  14.448  26.072  1.00  0.00     0.101 S 
HETATM   29  O2  UNL     1      24.924  13.101  25.490  1.00  0.00    -0.595 OA
HETATM   30  O3  UNL     1      24.517  14.404  27.485  1.00  0.00    -0.595 OA
HETATM   31  O4  UNL     1      24.147  15.533  25.177  1.00  0.00    -0.595 OA
ENDBRANCH  27  28
ENDBRANCH  26  27
ENDBRANCH  11  26
TORSDOF 3
ENDMDL
MODEL 5
REMARK VINA RESULT: -8.482183694      1.119      1.498
REMARK  3 active torsions:
REMARK  status: ('A' for Active; 'I' for Inactive)
REMARK    1  A    between atoms: C10_11  and  C11_12 
REMARK    2  A    between atoms: C11_12  and  C12_13 
REMARK    3  A    between atoms: C12_13  and  S1_14 
ROOT
HETATM    1  C1  UNL     1      25.212  16.663  22.168  1.00  0.00     0.010 C 
HETATM    2  C2  UNL     1      25.366  15.619  21.113  1.00  0.00    -0.011 C 
HETATM    3  C3  UNL     1      25.512  16.386  19.772  1.00  0.00     0.005 C 
HETATM    4  C4  UNL     1      25.867  15.143  18.927  1.00  0.00     0.008 C 
HETATM    5  C5  UNL     1      26.966  14.420  19.718  1.00  0.00     0.028 C 
HETATM    6  C6  UNL     1      26.723  15.038  21.095  1.00  0.00     0.037 C 
HETATM    7  C7  UNL     1      27.192  14.069  22.027  1.00  0.00     0.134 C 
HETATM    8  C8  UNL     1      26.236  13.028  22.292  1.00  0.00     0.077 C 
HETATM    9  C9  UNL     1      26.235  11.709  21.547  1.00  0.00     0.136 C 
HETATM   10  O1  UNL     1      25.014  11.379  21.236  1.00  0.00    -0.377 OA
HETATM   11  C10 UNL     1      24.515  10.442  20.469  1.00  0.00     0.157 C 
HETATM   12  C13 UNL     1      23.986  10.917  19.101  1.00  0.00     0.208 A 
HETATM   13  O5  UNL     1      23.469  12.124  18.877  1.00  0.00    -0.346 OA
HETATM   14  C14 UNL     1      24.952  11.973  18.592  1.00  0.00     0.293 A 
HETATM   15  O6  UNL     1      25.517  12.778  19.444  1.00  0.00    -0.347 OA
HETATM   16  C15 UNL     1      26.911  12.926  19.591  1.00  0.00     0.074 C 
HETATM   17  C16 UNL     1      27.447  12.771  18.145  1.00  0.00     0.047 C 
HETATM   18  C17 UNL     1      27.328  11.932  20.504  1.00  0.00     0.019 C 
HETATM   19  C18 UNL     1      27.610  10.626  19.728  1.00  0.00     0.021 C 
HETATM   20  C19 UNL     1      28.547  11.841  21.373  1.00  0.00     0.089 C 
HETATM   21  C20 UNL     1      28.841  12.795  22.439  1.00  0.00     0.228 A 
HETATM   22  O7  UNL     1      28.022  13.095  23.560  1.00  0.00    -0.197 OA
HETATM   23  O8  UNL     1      27.626  14.387  23.345  1.00  0.00    -0.223 OA
HETATM   24  O9  UNL     1      29.724  13.833  22.433  1.00  0.00    -0.336 OA
HETATM   25  C21 UNL     1      28.611  13.961  21.594  1.00  0.00     0.228 A 
ENDROOT
BRANCH  11  26
HETATM   26  C11 UNL     1      23.262   9.905  21.138  1.00  0.00     0.052 C 
BRANCH  26  27
HETATM   27  C12 UNL     1      22.554  10.832  22.042  1.00  0.00     0.168 C 
BRANCH  27  28
HETATM   28  S1  UNL     1      20.828  11.017  21.707  1.00  0.00     0.101 S 
HETATM   29  O2  UNL     1      20.527  11.350  20.302  1.00  0.00    -0.595 OA
HETATM   30  O3  UNL     1      20.143   9.696  22.023  1.00  0.00    -0.595 OA
HETATM   31  O4  UNL     1      20.153  12.202  22.700  1.00  0.00    -0.595 OA
ENDBRANCH  27  28
ENDBRANCH  26  27
ENDBRANCH  11  26
TORSDOF 3
ENDMDL
