MODEL 1
REMARK VINA RESULT: -9.140453464      0.000      0.000
REMARK  7 active torsions:
REMARK  status: ('A' for Active; 'I' for Inactive)
REMARK    1  A    between atoms: C2_2  and  C4_4 
REMARK    2  A    between atoms: C4_4  and  O2_6 
REMARK    3  A    between atoms: O2_6  and  C5_7 
REMARK    4  A    between atoms: C8_10  and  O3_11 
REMARK    5  A    between atoms: C9_13  and  O4_14 
REMARK    6  A    between atoms: C19_27  and  O7_28 
REMARK    7  A    between atoms: O7_28  and  C20_29 
ROOT
HETATM    1  C5  UNL     1      19.781  10.405  20.492  1.00  0.00     0.166 C 
HETATM    2  C6  UNL     1      21.307  10.310  20.713  1.00  0.00     0.025 C 
HETATM    3  C7  UNL     1      21.941  11.206  19.730  1.00  0.00     0.042 C 
HETATM    4  C8  UNL     1      23.406  11.235  19.612  1.00  0.00     0.156 C 
HETATM    5  C9  UNL     1      24.090  12.525  19.918  1.00  0.00     0.121 A 
HETATM    6  C10 UNL     1      25.169  12.382  21.021  1.00  0.00     0.059 A 
HETATM    7  C11 UNL     1      26.480  13.145  20.765  1.00  0.00     0.016 C 
HETATM    8  C12 UNL     1      23.945  13.132  21.236  1.00  0.00     0.100 A 
HETATM    9  C13 UNL     1      24.159  14.663  21.282  1.00  0.00     0.050 C 
HETATM   10  O5  UNL     1      22.826  12.785  21.860  1.00  0.00    -0.347 OA
HETATM   11  C14 UNL     1      22.766  12.249  23.075  1.00  0.00     0.266 C 
HETATM   12  O6  UNL     1      21.745  12.596  23.919  1.00  0.00    -0.350 OA
HETATM   13  C15 UNL     1      20.453  12.355  23.522  1.00  0.00     0.063 C 
HETATM   14  C16 UNL     1      19.864  13.774  23.349  1.00  0.00     0.046 C 
HETATM   15  C17 UNL     1      19.594  11.750  24.643  1.00  0.00     0.046 C 
HETATM   16  C18 UNL     1      20.369  11.671  22.270  1.00  0.00     0.057 C 
HETATM   17  C19 UNL     1      19.203  10.854  21.845  1.00  0.00     0.169 C 
HETATM   18  C22 UNL     1      21.400  10.539  22.132  1.00  0.00     0.010 C 
HETATM   19  C23 UNL     1      22.638  10.728  22.869  1.00  0.00     0.042 C 
HETATM   20  C24 UNL     1      22.605  10.155  24.299  1.00  0.00     0.015 C 
ENDROOT
BRANCH   1  21
HETATM   21  O2  UNL     1      19.212   9.283  19.970  1.00  0.00    -0.309 OA
BRANCH  21  22
HETATM   22  C4  UNL     1      18.213   9.238  19.014  1.00  0.00     0.288 C 
HETATM   23  O1  UNL     1      18.172  10.253  18.309  1.00  0.00    -0.260 OA
BRANCH  22  24
HETATM   24  C2  UNL     1      17.299   8.114  18.848  1.00  0.00     0.004 C 
HETATM   25  C1  UNL     1      16.027   8.204  19.104  1.00  0.00     0.024 C 
HETATM   26  C3  UNL     1      17.864   6.832  18.369  1.00  0.00     0.054 C 
ENDBRANCH  22  24
ENDBRANCH  21  22
ENDBRANCH   1  21
BRANCH  17  27
HETATM   27  O7  UNL     1      17.977  11.402  21.812  1.00  0.00    -0.313 OA
BRANCH  27  28
HETATM   28  C20 UNL     1      16.751  10.910  22.123  1.00  0.00     0.255 C 
HETATM   29  C21 UNL     1      16.593   9.964  23.244  1.00  0.00     0.126 C 
HETATM   30  O8  UNL     1      15.818  11.318  21.401  1.00  0.00    -0.266 OA
ENDBRANCH  27  28
ENDBRANCH  17  27
BRANCH   4  31
HETATM   31  O3  UNL     1      23.737  10.990  18.241  1.00  0.00    -0.392 OA
ATOM     32  H3  UNL     1      24.291  11.703  17.945  1.00  0.00     0.210 HD
ENDBRANCH   4  31
BRANCH   5  33
HETATM   33  O4  UNL     1      24.470  13.375  18.851  1.00  0.00    -0.384 OA
ATOM     34  H4  UNL     1      25.280  13.866  18.916  1.00  0.00     0.210 HD
ENDBRANCH   5  33
TORSDOF 7
ENDMDL
MODEL 2
REMARK VINA RESULT: -8.548719415      2.245      5.638
REMARK  7 active torsions:
REMARK  status: ('A' for Active; 'I' for Inactive)
REMARK    1  A    between atoms: C2_2  and  C4_4 
REMARK    2  A    between atoms: C4_4  and  O2_6 
REMARK    3  A    between atoms: O2_6  and  C5_7 
REMARK    4  A    between atoms: C8_10  and  O3_11 
REMARK    5  A    between atoms: C9_13  and  O4_14 
REMARK    6  A    between atoms: C19_27  and  O7_28 
REMARK    7  A    between atoms: O7_28  and  C20_29 
ROOT
HETATM    1  C5  UNL     1      18.686  11.671  22.266  1.00  0.00     0.166 C 
HETATM    2  C6  UNL     1      18.782  12.807  23.308  1.00  0.00     0.025 C 
HETATM    3  C7  UNL     1      18.366  12.240  24.603  1.00  0.00     0.042 C 
HETATM    4  C8  UNL     1      18.233  13.119  25.773  1.00  0.00     0.156 C 
HETATM    5  C9  UNL     1      19.126  12.846  26.936  1.00  0.00     0.121 A 
HETATM    6  C10 UNL     1      19.974  14.079  27.341  1.00  0.00     0.059 A 
HETATM    7  C11 UNL     1      20.097  14.328  28.855  1.00  0.00     0.016 C 
HETATM    8  C12 UNL     1      20.574  12.889  26.769  1.00  0.00     0.100 A 
HETATM    9  C13 UNL     1      21.380  12.051  27.791  1.00  0.00     0.050 C 
HETATM   10  O5  UNL     1      20.973  12.642  25.527  1.00  0.00    -0.347 OA
HETATM   11  C14 UNL     1      21.753  13.440  24.805  1.00  0.00     0.266 C 
HETATM   12  O6  UNL     1      22.688  12.895  23.966  1.00  0.00    -0.350 OA
HETATM   13  C15 UNL     1      22.263  12.057  22.964  1.00  0.00     0.063 C 
HETATM   14  C16 UNL     1      22.847  10.686  23.375  1.00  0.00     0.046 C 
HETATM   15  C17 UNL     1      22.953  12.347  21.621  1.00  0.00     0.046 C 
HETATM   16  C18 UNL     1      20.840  11.943  22.892  1.00  0.00     0.057 C 
HETATM   17  C19 UNL     1      20.098  11.550  21.667  1.00  0.00     0.169 C 
HETATM   18  C22 UNL     1      20.120  13.289  23.076  1.00  0.00     0.010 C 
HETATM   19  C23 UNL     1      20.813  14.262  23.904  1.00  0.00     0.042 C 
HETATM   20  C24 UNL     1      21.759  15.187  23.115  1.00  0.00     0.015 C 
ENDROOT
BRANCH   1  21
HETATM   21  O2  UNL     1      17.688  11.822  21.351  1.00  0.00    -0.309 OA
BRANCH  21  22
HETATM   22  C4  UNL     1      16.385  11.376  21.477  1.00  0.00     0.288 C 
HETATM   23  O1  UNL     1      15.548  12.268  21.295  1.00  0.00    -0.260 OA
BRANCH  22  24
HETATM   24  C2  UNL     1      16.025   9.999  21.793  1.00  0.00     0.004 C 
HETATM   25  C1  UNL     1      15.676   9.141  20.880  1.00  0.00     0.024 C 
HETATM   26  C3  UNL     1      16.065   9.586  23.214  1.00  0.00     0.054 C 
ENDBRANCH  22  24
ENDBRANCH  21  22
ENDBRANCH   1  21
BRANCH  17  27
HETATM   27  O7  UNL     1      20.383  10.389  21.054  1.00  0.00    -0.313 OA
BRANCH  27  28
HETATM   28  C20 UNL     1      19.992   9.868  19.863  1.00  0.00     0.255 C 
HETATM   29  C21 UNL     1      20.428  10.493  18.600  1.00  0.00     0.126 C 
HETATM   30  O8  UNL     1      19.261   8.860  19.942  1.00  0.00    -0.266 OA
ENDBRANCH  27  28
ENDBRANCH  17  27
BRANCH   4  31
HETATM   31  O3  UNL     1      16.916  12.940  26.305  1.00  0.00    -0.392 OA
ATOM     32  H3  UNL     1      16.970  12.294  26.999  1.00  0.00     0.210 HD
ENDBRANCH   4  31
BRANCH   5  33
HETATM   33  O4  UNL     1      18.622  12.111  28.036  1.00  0.00    -0.384 OA
ATOM     34  H4  UNL     1      19.197  11.919  28.768  1.00  0.00     0.210 HD
ENDBRANCH   5  33
TORSDOF 7
ENDMDL
MODEL 3
REMARK VINA RESULT: -8.396405448      2.054      5.953
REMARK  7 active torsions:
REMARK  status: ('A' for Active; 'I' for Inactive)
REMARK    1  A    between atoms: C2_2  and  C4_4 
REMARK    2  A    between atoms: C4_4  and  O2_6 
REMARK    3  A    between atoms: O2_6  and  C5_7 
REMARK    4  A    between atoms: C8_10  and  O3_11 
REMARK    5  A    between atoms: C9_13  and  O4_14 
REMARK    6  A    between atoms: C19_27  and  O7_28 
REMARK    7  A    between atoms: O7_28  and  C20_29 
ROOT
HETATM    1  C5  UNL     1      20.069  11.167  21.553  1.00  0.00     0.166 C 
HETATM    2  C6  UNL     1      19.803  11.520  23.033  1.00  0.00     0.025 C 
HETATM    3  C7  UNL     1      20.147  12.942  23.206  1.00  0.00     0.042 C 
HETATM    4  C8  UNL     1      20.115  13.540  24.548  1.00  0.00     0.156 C 
HETATM    5  C9  UNL     1      19.148  14.653  24.776  1.00  0.00     0.121 A 
HETATM    6  C10 UNL     1      18.182  14.373  25.954  1.00  0.00     0.059 A 
HETATM    7  C11 UNL     1      17.912  15.568  26.886  1.00  0.00     0.016 C 
HETATM    8  C12 UNL     1      17.720  14.430  24.580  1.00  0.00     0.100 A 
HETATM    9  C13 UNL     1      16.894  15.698  24.258  1.00  0.00     0.050 C 
HETATM   10  O5  UNL     1      17.448  13.450  23.726  1.00  0.00    -0.347 OA
HETATM   11  C14 UNL     1      16.676  12.402  23.991  1.00  0.00     0.266 C 
HETATM   12  O6  UNL     1      15.858  11.899  23.015  1.00  0.00    -0.350 OA
HETATM   13  C15 UNL     1      16.427  11.448  21.848  1.00  0.00     0.063 C 
HETATM   14  C16 UNL     1      15.912  12.453  20.791  1.00  0.00     0.046 C 
HETATM   15  C17 UNL     1      15.835  10.109  21.382  1.00  0.00     0.046 C 
HETATM   16  C18 UNL     1      17.856  11.497  21.865  1.00  0.00     0.057 C 
HETATM   17  C19 UNL     1      18.726  10.648  21.011  1.00  0.00     0.169 C 
HETATM   18  C22 UNL     1      18.457  11.031  23.200  1.00  0.00     0.010 C 
HETATM   19  C23 UNL     1      17.627  11.252  24.372  1.00  0.00     0.042 C 
HETATM   20  C24 UNL     1      16.687  10.076  24.698  1.00  0.00     0.015 C 
ENDROOT
BRANCH   1  21
HETATM   21  O2  UNL     1      21.128  10.335  21.349  1.00  0.00    -0.309 OA
BRANCH  21  22
HETATM   22  C4  UNL     1      22.454  10.708  21.224  1.00  0.00     0.288 C 
HETATM   23  O1  UNL     1      23.176  10.233  22.108  1.00  0.00    -0.260 OA
BRANCH  22  24
HETATM   24  C2  UNL     1      22.957  11.573  20.164  1.00  0.00     0.004 C 
HETATM   25  C1  UNL     1      22.791  11.300  18.902  1.00  0.00     0.024 C 
HETATM   26  C3  UNL     1      23.681  12.801  20.562  1.00  0.00     0.054 C 
ENDBRANCH  22  24
ENDBRANCH  21  22
ENDBRANCH   1  21
BRANCH  17  27
HETATM   27  O7  UNL     1      18.580  10.668  19.676  1.00  0.00    -0.313 OA
BRANCH  27  28
HETATM   28  C20 UNL     1      18.762   9.715  18.726  1.00  0.00     0.255 C 
HETATM   29  C21 UNL     1      17.950   8.483  18.745  1.00  0.00     0.126 C 
HETATM   30  O8  UNL     1      19.641   9.973  17.880  1.00  0.00    -0.266 OA
ENDBRANCH  27  28
ENDBRANCH  17  27
BRANCH   4  31
HETATM   31  O3  UNL     1      21.392  14.143  24.786  1.00  0.00    -0.392 OA
ATOM     32  H3  UNL     1      21.348  14.590  25.623  1.00  0.00     0.210 HD
ENDBRANCH   4  31
BRANCH   5  33
HETATM   33  O4  UNL     1      19.609  15.991  24.717  1.00  0.00    -0.384 OA
ATOM     34  H4  UNL     1      19.288  16.562  24.029  1.00  0.00     0.210 HD
ENDBRANCH   5  33
TORSDOF 7
ENDMDL
MODEL 4
REMARK VINA RESULT: -8.318674575      2.062      5.741
REMARK  7 active torsions:
REMARK  status: ('A' for Active; 'I' for Inactive)
REMARK    1  A    between atoms: C2_2  and  C4_4 
REMARK    2  A    between atoms: C4_4  and  O2_6 
REMARK    3  A    between atoms: O2_6  and  C5_7 
REMARK    4  A    between atoms: C8_10  and  O3_11 
REMARK    5  A    between atoms: C9_13  and  O4_14 
REMARK    6  A    between atoms: C19_27  and  O7_28 
REMARK    7  A    between atoms: O7_28  and  C20_29 
ROOT
HETATM    1  C5  UNL     1      20.821  11.526  21.690  1.00  0.00     0.166 C 
HETATM    2  C6  UNL     1      20.019  12.207  22.821  1.00  0.00     0.025 C 
HETATM    3  C7  UNL     1      19.898  11.227  23.914  1.00  0.00     0.042 C 
HETATM    4  C8  UNL     1      19.073  11.545  25.088  1.00  0.00     0.156 C 
HETATM    5  C9  UNL     1      19.764  11.617  26.408  1.00  0.00     0.121 A 
HETATM    6  C10 UNL     1      19.551  12.977  27.121  1.00  0.00     0.059 A 
HETATM    7  C11 UNL     1      19.279  12.894  28.633  1.00  0.00     0.016 C 
HETATM    8  C12 UNL     1      20.848  12.571  26.612  1.00  0.00     0.100 A 
HETATM    9  C13 UNL     1      21.857  12.194  27.723  1.00  0.00     0.050 C 
HETATM   10  O5  UNL     1      21.474  12.912  25.492  1.00  0.00    -0.347 OA
HETATM   11  C14 UNL     1      21.643  14.158  25.063  1.00  0.00     0.266 C 
HETATM   12  O6  UNL     1      22.811  14.507  24.438  1.00  0.00    -0.350 OA
HETATM   13  C15 UNL     1      23.167  13.842  23.291  1.00  0.00     0.063 C 
HETATM   14  C16 UNL     1      24.436  13.064  23.710  1.00  0.00     0.046 C 
HETATM   15  C17 UNL     1      23.679  14.789  22.194  1.00  0.00     0.046 C 
HETATM   16  C18 UNL     1      22.180  12.903  22.856  1.00  0.00     0.057 C 
HETATM   17  C19 UNL     1      22.041  12.432  21.454  1.00  0.00     0.169 C 
HETATM   18  C22 UNL     1      20.745  13.442  22.975  1.00  0.00     0.010 C 
HETATM   19  C23 UNL     1      20.527  14.414  24.033  1.00  0.00     0.042 C 
HETATM   20  C24 UNL     1      20.746  15.873  23.591  1.00  0.00     0.015 C 
ENDROOT
BRANCH   1  21
HETATM   21  O2  UNL     1      20.096  11.240  20.572  1.00  0.00    -0.309 OA
BRANCH  21  22
HETATM   22  C4  UNL     1      19.226  10.178  20.407  1.00  0.00     0.288 C 
HETATM   23  O1  UNL     1      19.806   9.098  20.245  1.00  0.00    -0.260 OA
BRANCH  22  24
HETATM   24  C2  UNL     1      17.774  10.308  20.422  1.00  0.00     0.004 C 
HETATM   25  C1  UNL     1      17.174  11.400  20.796  1.00  0.00     0.024 C 
HETATM   26  C3  UNL     1      16.974   9.138  19.993  1.00  0.00     0.054 C 
ENDBRANCH  22  24
ENDBRANCH  21  22
ENDBRANCH   1  21
BRANCH  17  27
HETATM   27  O7  UNL     1      23.087  11.866  20.830  1.00  0.00    -0.313 OA
BRANCH  27  28
HETATM   28  C20 UNL     1      23.598  12.026  19.583  1.00  0.00     0.255 C 
HETATM   29  C21 UNL     1      24.899  12.695  19.393  1.00  0.00     0.126 C 
HETATM   30  O8  UNL     1      22.891  11.572  18.660  1.00  0.00    -0.266 OA
ENDBRANCH  27  28
ENDBRANCH  17  27
BRANCH   4  31
HETATM   31  O3  UNL     1      18.127  10.483  25.255  1.00  0.00    -0.392 OA
ATOM     32  H3  UNL     1      18.615   9.671  25.327  1.00  0.00     0.210 HD
ENDBRANCH   4  31
BRANCH   5  33
HETATM   33  O4  UNL     1      19.713  10.500  27.277  1.00  0.00    -0.384 OA
ATOM     34  H4  UNL     1      20.360   9.811  27.185  1.00  0.00     0.210 HD
ENDBRANCH   5  33
TORSDOF 7
ENDMDL
MODEL 5
REMARK VINA RESULT: -8.288366736      1.277      1.573
REMARK  7 active torsions:
REMARK  status: ('A' for Active; 'I' for Inactive)
REMARK    1  A    between atoms: C2_2  and  C4_4 
REMARK    2  A    between atoms: C4_4  and  O2_6 
REMARK    3  A    between atoms: O2_6  and  C5_7 
REMARK    4  A    between atoms: C8_10  and  O3_11 
REMARK    5  A    between atoms: C9_13  and  O4_14 
REMARK    6  A    between atoms: C19_27  and  O7_28 
REMARK    7  A    between atoms: O7_28  and  C20_29 
ROOT
HETATM    1  C5  UNL     1      19.331  11.237  21.655  1.00  0.00     0.166 C 
HETATM    2  C6  UNL     1      20.828  10.862  21.599  1.00  0.00     0.025 C 
HETATM    3  C7  UNL     1      21.348  11.355  20.312  1.00  0.00     0.042 C 
HETATM    4  C8  UNL     1      22.726  11.036  19.914  1.00  0.00     0.156 C 
HETATM    5  C9  UNL     1      23.666  12.180  19.730  1.00  0.00     0.121 A 
HETATM    6  C10 UNL     1      24.938  12.055  20.606  1.00  0.00     0.059 A 
HETATM    7  C11 UNL     1      26.258  12.435  19.912  1.00  0.00     0.016 C 
HETATM    8  C12 UNL     1      23.941  13.083  20.842  1.00  0.00     0.100 A 
HETATM    9  C13 UNL     1      24.409  14.501  20.438  1.00  0.00     0.050 C 
HETATM   10  O5  UNL     1      22.962  13.137  21.737  1.00  0.00    -0.347 OA
HETATM   11  C14 UNL     1      23.107  12.913  23.038  1.00  0.00     0.266 C 
HETATM   12  O6  UNL     1      22.388  13.654  23.938  1.00  0.00    -0.350 OA
HETATM   13  C15 UNL     1      21.017  13.619  23.872  1.00  0.00     0.063 C 
HETATM   14  C16 UNL     1      20.645  15.057  23.444  1.00  0.00     0.046 C 
HETATM   15  C17 UNL     1      20.363  13.482  25.256  1.00  0.00     0.046 C 
HETATM   16  C18 UNL     1      20.525  12.708  22.887  1.00  0.00     0.057 C 
HETATM   17  C19 UNL     1      19.173  12.092  22.924  1.00  0.00     0.169 C 
HETATM   18  C22 UNL     1      21.294  11.377  22.862  1.00  0.00     0.010 C 
HETATM   19  C23 UNL     1      22.686  11.450  23.273  1.00  0.00     0.042 C 
HETATM   20  C24 UNL     1      22.900  11.232  24.783  1.00  0.00     0.015 C 
ENDROOT
BRANCH   1  21
HETATM   21  O2  UNL     1      18.477  10.180  21.569  1.00  0.00    -0.309 OA
BRANCH  21  22
HETATM   22  C4  UNL     1      17.518   9.976  20.592  1.00  0.00     0.288 C 
HETATM   23  O1  UNL     1      16.492  10.641  20.775  1.00  0.00    -0.260 OA
BRANCH  22  24
HETATM   24  C2  UNL     1      17.691   9.072  19.462  1.00  0.00     0.004 C 
HETATM   25  C1  UNL     1      18.759   9.077  18.719  1.00  0.00     0.024 C 
HETATM   26  C3  UNL     1      16.594   8.123  19.166  1.00  0.00     0.054 C 
ENDBRANCH  22  24
ENDBRANCH  21  22
ENDBRANCH   1  21
BRANCH  17  27
HETATM   27  O7  UNL     1      18.082  12.874  22.980  1.00  0.00    -0.313 OA
BRANCH  27  28
HETATM   28  C20 UNL     1      16.850  12.680  23.516  1.00  0.00     0.255 C 
HETATM   29  C21 UNL     1      16.618  11.573  24.463  1.00  0.00     0.126 C 
HETATM   30  O8  UNL     1      15.979  13.492  23.144  1.00  0.00    -0.266 OA
ENDBRANCH  27  28
ENDBRANCH  17  27
BRANCH   4  31
HETATM   31  O3  UNL     1      22.675  10.425  18.620  1.00  0.00    -0.392 OA
ATOM     32  H3  UNL     1      23.249  10.918  18.045  1.00  0.00     0.210 HD
ENDBRANCH   4  31
BRANCH   5  33
HETATM   33  O4  UNL     1      23.915  12.667  18.424  1.00  0.00    -0.384 OA
ATOM     34  H4  UNL     1      24.810  12.719  18.112  1.00  0.00     0.210 HD
ENDBRANCH   5  33
TORSDOF 7
ENDMDL
