MODEL 1
REMARK VINA RESULT: -8.745429934      0.000      0.000
REMARK  9 active torsions:
REMARK  status: ('A' for Active; 'I' for Inactive)
REMARK    1  A    between atoms: O1_2  and  C2_3 
REMARK    2  A    between atoms: C6_7  and  O2_8 
REMARK    3  A    between atoms: C8_11  and  O3_12 
REMARK    4  A    between atoms: C11_15  and  O4_16 
REMARK    5  A    between atoms: O4_16  and  C12_17 
REMARK    6  A    between atoms: C12_17  and  C13_19 
REMARK    7  A    between atoms: C19_26  and  O6_27 
REMARK    8  A    between atoms: C21_29  and  C22_30 
REMARK    9  A    between atoms: C22_30  and  C23_31 
ROOT
HETATM    1  C2  UNL     1      11.360  90.169  41.351  1.00  0.00     0.078 A 
HETATM    2  C3  UNL     1      12.207  89.148  41.012  1.00  0.00     0.050 A 
HETATM    3  C4  UNL     1      12.313  88.694  39.713  1.00  0.00    -0.015 A 
HETATM    4  C5  UNL     1      13.176  87.647  39.405  1.00  0.00     0.049 A 
HETATM    5  C6  UNL     1      13.295  87.167  38.120  1.00  0.00     0.069 A 
HETATM    6  C7  UNL     1      12.548  87.729  37.120  1.00  0.00     0.074 A 
HETATM    7  C8  UNL     1      11.683  88.782  37.439  1.00  0.00     0.084 A 
HETATM    8  C10 UNL     1      11.555  89.272  38.717  1.00  0.00     0.042 A 
HETATM    9  C11 UNL     1      10.681  90.319  39.036  1.00  0.00     0.102 A 
HETATM   10  C21 UNL     1      10.593  90.753  40.338  1.00  0.00     0.014 A 
ENDROOT
BRANCH   9  11
HETATM   11  O4  UNL     1       9.920  90.906  38.034  1.00  0.00    -0.273 OA
BRANCH  11  12
HETATM   12  C12 UNL     1      10.270  92.143  37.556  1.00  0.00     0.301 C 
HETATM   13  O5  UNL     1      11.354  92.215  36.872  1.00  0.00    -0.259 OA
BRANCH  12  14
HETATM   14  C13 UNL     1       9.553  93.370  37.738  1.00  0.00     0.073 A 
HETATM   15  C14 UNL     1      10.175  94.533  38.171  1.00  0.00     0.022 A 
HETATM   16  C15 UNL     1       9.509  95.727  38.340  1.00  0.00     0.028 A 
HETATM   17  C16 UNL     1       8.144  95.765  38.062  1.00  0.00     0.055 A 
HETATM   18  N1  UNL     1       7.424  96.963  38.222  1.00  0.00    -0.102 NA
HETATM   19  C17 UNL     1       7.496  94.636  37.633  1.00  0.00    -0.003 A 
HETATM   20  C18 UNL     1       6.045  94.633  37.327  1.00  0.00     0.053 C 
HETATM   21  C19 UNL     1       8.214  93.453  37.478  1.00  0.00     0.092 A 
BRANCH  21  22
HETATM   22  O6  UNL     1       7.520  92.347  37.048  1.00  0.00    -0.354 OA
HETATM   23  C20 UNL     1       6.745  91.520  37.907  1.00  0.00     0.210 C 
ENDBRANCH  21  22
ENDBRANCH  12  14
ENDBRANCH  11  12
ENDBRANCH   9  11
BRANCH  10  24
HETATM   24  C22 UNL     1       9.668  91.826  40.796  1.00  0.00     0.072 C 
BRANCH  24  25
HETATM   25  C23 UNL     1      10.377  93.007  41.325  1.00  0.00    -0.020 C 
HETATM   26  C24 UNL     1       9.899  94.153  41.709  1.00  0.00    -0.091 C 
HETATM   27  C25 UNL     1      10.787  95.231  42.215  1.00  0.00     0.042 C 
HETATM   28  C26 UNL     1       8.451  94.432  41.694  1.00  0.00     0.042 C 
ENDBRANCH  24  25
ENDBRANCH  10  24
BRANCH   7  29
HETATM   29  O3  UNL     1      10.964  89.296  36.401  1.00  0.00    -0.355 OA
HETATM   30  C9  UNL     1      10.330  88.499  35.444  1.00  0.00     0.210 C 
ENDBRANCH   7  29
BRANCH   1  31
HETATM   31  O1  UNL     1      11.256  90.626  42.677  1.00  0.00    -0.355 OA
HETATM   32  C1  UNL     1      10.744  89.810  43.697  1.00  0.00     0.210 C 
ENDBRANCH   1  31
BRANCH   5  33
HETATM   33  O2  UNL     1      14.154  86.120  37.791  1.00  0.00    -0.361 OA
ATOM     34  H2  UNL     1      14.314  85.856  36.893  1.00  0.00     0.217 HD
ENDBRANCH   5  33
TORSDOF 9
ENDMDL
MODEL 2
REMARK VINA RESULT: -8.657423153      1.569      2.438
REMARK  9 active torsions:
REMARK  status: ('A' for Active; 'I' for Inactive)
REMARK    1  A    between atoms: O1_2  and  C2_3 
REMARK    2  A    between atoms: C6_7  and  O2_8 
REMARK    3  A    between atoms: C8_11  and  O3_12 
REMARK    4  A    between atoms: C11_15  and  O4_16 
REMARK    5  A    between atoms: O4_16  and  C12_17 
REMARK    6  A    between atoms: C12_17  and  C13_19 
REMARK    7  A    between atoms: C19_26  and  O6_27 
REMARK    8  A    between atoms: C21_29  and  C22_30 
REMARK    9  A    between atoms: C22_30  and  C23_31 
ROOT
HETATM    1  C2  UNL     1      13.141  88.678  40.636  1.00  0.00     0.078 A 
HETATM    2  C3  UNL     1      13.670  87.750  39.779  1.00  0.00     0.050 A 
HETATM    3  C4  UNL     1      13.099  87.488  38.550  1.00  0.00    -0.015 A 
HETATM    4  C5  UNL     1      13.655  86.531  37.708  1.00  0.00     0.049 A 
HETATM    5  C6  UNL     1      13.101  86.243  36.481  1.00  0.00     0.069 A 
HETATM    6  C7  UNL     1      11.976  86.911  36.077  1.00  0.00     0.074 A 
HETATM    7  C8  UNL     1      11.424  87.873  36.930  1.00  0.00     0.084 A 
HETATM    8  C10 UNL     1      11.967  88.172  38.157  1.00  0.00     0.042 A 
HETATM    9  C11 UNL     1      11.407  89.127  39.013  1.00  0.00     0.102 A 
HETATM   10  C21 UNL     1      11.994  89.369  40.234  1.00  0.00     0.014 A 
ENDROOT
BRANCH   9  11
HETATM   11  O4  UNL     1      10.270  89.820  38.618  1.00  0.00    -0.273 OA
BRANCH  11  12
HETATM   12  C12 UNL     1      10.372  91.142  38.267  1.00  0.00     0.301 C 
HETATM   13  O5  UNL     1      11.357  91.466  37.510  1.00  0.00    -0.259 OA
BRANCH  12  14
HETATM   14  C13 UNL     1       9.493  92.206  38.655  1.00  0.00     0.073 A 
HETATM   15  C14 UNL     1       9.789  93.062  39.707  1.00  0.00     0.022 A 
HETATM   16  C15 UNL     1       8.967  94.099  40.090  1.00  0.00     0.028 A 
HETATM   17  C16 UNL     1       7.781  94.294  39.384  1.00  0.00     0.055 A 
HETATM   18  N1  UNL     1       6.911  95.340  39.741  1.00  0.00    -0.102 NA
HETATM   19  C17 UNL     1       7.456  93.467  38.340  1.00  0.00    -0.003 A 
HETATM   20  C18 UNL     1       6.204  93.641  37.563  1.00  0.00     0.053 C 
HETATM   21  C19 UNL     1       8.321  92.433  37.991  1.00  0.00     0.092 A 
BRANCH  21  22
HETATM   22  O6  UNL     1       7.950  91.630  36.939  1.00  0.00    -0.354 OA
HETATM   23  C20 UNL     1       8.375  91.842  35.598  1.00  0.00     0.210 C 
ENDBRANCH  21  22
ENDBRANCH  12  14
ENDBRANCH  11  12
ENDBRANCH   9  11
BRANCH  10  24
HETATM   24  C22 UNL     1      11.460  90.328  41.238  1.00  0.00     0.072 C 
BRANCH  24  25
HETATM   25  C23 UNL     1      10.618  89.679  42.261  1.00  0.00    -0.020 C 
HETATM   26  C24 UNL     1       9.937  90.214  43.231  1.00  0.00    -0.091 C 
HETATM   27  C25 UNL     1       9.144  89.379  44.171  1.00  0.00     0.042 C 
HETATM   28  C26 UNL     1       9.888  91.674  43.429  1.00  0.00     0.042 C 
ENDBRANCH  24  25
ENDBRANCH  10  24
BRANCH   7  29
HETATM   29  O3  UNL     1      10.304  88.500  36.472  1.00  0.00    -0.355 OA
HETATM   30  C9  UNL     1       9.887  88.439  35.140  1.00  0.00     0.210 C 
ENDBRANCH   7  29
BRANCH   1  31
HETATM   31  O1  UNL     1      13.728  88.938  41.887  1.00  0.00    -0.355 OA
HETATM   32  C1  UNL     1      14.348  87.924  42.633  1.00  0.00     0.210 C 
ENDBRANCH   1  31
BRANCH   5  33
HETATM   33  O2  UNL     1      13.644  85.287  35.623  1.00  0.00    -0.361 OA
ATOM     34  H2  UNL     1      13.336  85.171  34.732  1.00  0.00     0.217 HD
ENDBRANCH   5  33
TORSDOF 9
ENDMDL
MODEL 3
REMARK VINA RESULT: -8.501666291      2.758      6.665
REMARK  9 active torsions:
REMARK  status: ('A' for Active; 'I' for Inactive)
REMARK    1  A    between atoms: O1_2  and  C2_3 
REMARK    2  A    between atoms: C6_7  and  O2_8 
REMARK    3  A    between atoms: C8_11  and  O3_12 
REMARK    4  A    between atoms: C11_15  and  O4_16 
REMARK    5  A    between atoms: O4_16  and  C12_17 
REMARK    6  A    between atoms: C12_17  and  C13_19 
REMARK    7  A    between atoms: C19_26  and  O6_27 
REMARK    8  A    between atoms: C21_29  and  C22_30 
REMARK    9  A    between atoms: C22_30  and  C23_31 
ROOT
HETATM    1  C2  UNL     1       7.911  93.908  41.732  1.00  0.00     0.078 A 
HETATM    2  C3  UNL     1       6.914  94.475  40.986  1.00  0.00     0.050 A 
HETATM    3  C4  UNL     1       6.854  94.320  39.615  1.00  0.00    -0.015 A 
HETATM    4  C5  UNL     1       5.833  94.919  38.885  1.00  0.00     0.049 A 
HETATM    5  C6  UNL     1       5.755  94.789  37.517  1.00  0.00     0.069 A 
HETATM    6  C7  UNL     1       6.703  94.055  36.856  1.00  0.00     0.074 A 
HETATM    7  C8  UNL     1       7.726  93.455  37.598  1.00  0.00     0.084 A 
HETATM    8  C10 UNL     1       7.816  93.575  38.965  1.00  0.00     0.042 A 
HETATM    9  C11 UNL     1       8.847  92.983  39.704  1.00  0.00     0.102 A 
HETATM   10  C21 UNL     1       8.884  93.153  41.069  1.00  0.00     0.014 A 
ENDROOT
BRANCH   9  11
HETATM   11  O4  UNL     1       9.813  92.229  39.052  1.00  0.00    -0.273 OA
BRANCH  11  12
HETATM   12  C12 UNL     1       9.753  90.860  39.107  1.00  0.00     0.301 C 
HETATM   13  O5  UNL     1       8.607  90.321  38.897  1.00  0.00    -0.259 OA
BRANCH  12  14
HETATM   14  C13 UNL     1      10.837  89.961  39.373  1.00  0.00     0.073 A 
HETATM   15  C14 UNL     1      11.437  89.875  40.622  1.00  0.00     0.022 A 
HETATM   16  C15 UNL     1      12.471  89.011  40.905  1.00  0.00     0.028 A 
HETATM   17  C16 UNL     1      12.935  88.183  39.884  1.00  0.00     0.055 A 
HETATM   18  N1  UNL     1      13.990  87.285  40.128  1.00  0.00    -0.102 NA
HETATM   19  C17 UNL     1      12.368  88.241  38.638  1.00  0.00    -0.003 A 
HETATM   20  C18 UNL     1      12.832  87.378  37.524  1.00  0.00     0.053 C 
HETATM   21  C19 UNL     1      11.325  89.132  38.402  1.00  0.00     0.092 A 
BRANCH  21  22
HETATM   22  O6  UNL     1      10.790  89.155  37.136  1.00  0.00    -0.354 OA
HETATM   23  C20 UNL     1      11.340  89.907  36.061  1.00  0.00     0.210 C 
ENDBRANCH  21  22
ENDBRANCH  12  14
ENDBRANCH  11  12
ENDBRANCH   9  11
BRANCH  10  24
HETATM   24  C22 UNL     1       9.955  92.607  41.946  1.00  0.00     0.072 C 
BRANCH  24  25
HETATM   25  C23 UNL     1       9.561  91.355  42.620  1.00  0.00    -0.020 C 
HETATM   26  C24 UNL     1       9.709  91.004  43.863  1.00  0.00    -0.091 C 
HETATM   27  C25 UNL     1       9.244  89.681  44.354  1.00  0.00     0.042 C 
HETATM   28  C26 UNL     1      10.315  91.910  44.856  1.00  0.00     0.042 C 
ENDBRANCH  24  25
ENDBRANCH  10  24
BRANCH   7  29
HETATM   29  O3  UNL     1       8.640  92.741  36.882  1.00  0.00    -0.355 OA
HETATM   30  C9  UNL     1       8.313  92.026  35.727  1.00  0.00     0.210 C 
ENDBRANCH   7  29
BRANCH   1  31
HETATM   31  O1  UNL     1       7.966  94.071  43.128  1.00  0.00    -0.355 OA
HETATM   32  C1  UNL     1       6.910  93.664  43.957  1.00  0.00     0.210 C 
ENDBRANCH   1  31
BRANCH   5  33
HETATM   33  O2  UNL     1       4.740  95.381  36.768  1.00  0.00    -0.361 OA
ATOM     34  H2  UNL     1       4.712  96.315  36.598  1.00  0.00     0.217 HD
ENDBRANCH   5  33
TORSDOF 9
ENDMDL
MODEL 4
REMARK VINA RESULT: -8.381998615      2.752      6.612
REMARK  9 active torsions:
REMARK  status: ('A' for Active; 'I' for Inactive)
REMARK    1  A    between atoms: O1_2  and  C2_3 
REMARK    2  A    between atoms: C6_7  and  O2_8 
REMARK    3  A    between atoms: C8_11  and  O3_12 
REMARK    4  A    between atoms: C11_15  and  O4_16 
REMARK    5  A    between atoms: O4_16  and  C12_17 
REMARK    6  A    between atoms: C12_17  and  C13_19 
REMARK    7  A    between atoms: C19_26  and  O6_27 
REMARK    8  A    between atoms: C21_29  and  C22_30 
REMARK    9  A    between atoms: C22_30  and  C23_31 
ROOT
HETATM    1  C2  UNL     1       9.984  94.517  41.126  1.00  0.00     0.078 A 
HETATM    2  C3  UNL     1       9.315  95.654  40.760  1.00  0.00     0.050 A 
HETATM    3  C4  UNL     1       8.612  95.732  39.574  1.00  0.00    -0.015 A 
HETATM    4  C5  UNL     1       7.952  96.907  39.227  1.00  0.00     0.049 A 
HETATM    5  C6  UNL     1       7.252  97.017  38.047  1.00  0.00     0.069 A 
HETATM    6  C7  UNL     1       7.202  95.948  37.192  1.00  0.00     0.074 A 
HETATM    7  C8  UNL     1       7.868  94.771  37.550  1.00  0.00     0.084 A 
HETATM    8  C10 UNL     1       8.570  94.646  38.726  1.00  0.00     0.042 A 
HETATM    9  C11 UNL     1       9.244  93.470  39.077  1.00  0.00     0.102 A 
HETATM   10  C21 UNL     1       9.939  93.417  40.263  1.00  0.00     0.014 A 
ENDROOT
BRANCH   9  11
HETATM   11  O4  UNL     1       9.200  92.374  38.226  1.00  0.00    -0.273 OA
BRANCH  11  12
HETATM   12  C12 UNL     1      10.335  91.990  37.558  1.00  0.00     0.301 C 
HETATM   13  O5  UNL     1      11.041  92.924  37.032  1.00  0.00    -0.259 OA
BRANCH  12  14
HETATM   14  C13 UNL     1      10.821  90.653  37.386  1.00  0.00     0.073 A 
HETATM   15  C14 UNL     1      11.679  90.055  38.299  1.00  0.00     0.022 A 
HETATM   16  C15 UNL     1      12.148  88.767  38.161  1.00  0.00     0.028 A 
HETATM   17  C16 UNL     1      11.740  88.033  37.050  1.00  0.00     0.055 A 
HETATM   18  N1  UNL     1      12.195  86.714  36.869  1.00  0.00    -0.102 NA
HETATM   19  C17 UNL     1      10.894  88.591  36.127  1.00  0.00    -0.003 A 
HETATM   20  C18 UNL     1      10.436  87.844  34.930  1.00  0.00     0.053 C 
HETATM   21  C19 UNL     1      10.447  89.897  36.311  1.00  0.00     0.092 A 
BRANCH  21  22
HETATM   22  O6  UNL     1       9.602  90.413  35.358  1.00  0.00    -0.354 OA
HETATM   23  C20 UNL     1       8.185  90.402  35.472  1.00  0.00     0.210 C 
ENDBRANCH  21  22
ENDBRANCH  12  14
ENDBRANCH  11  12
ENDBRANCH   9  11
BRANCH  10  24
HETATM   24  C22 UNL     1      10.725  92.238  40.714  1.00  0.00     0.072 C 
BRANCH  24  25
HETATM   25  C23 UNL     1      10.037  91.455  41.759  1.00  0.00    -0.020 C 
HETATM   26  C24 UNL     1      10.386  90.333  42.314  1.00  0.00    -0.091 C 
HETATM   27  C25 UNL     1       9.546  89.693  43.360  1.00  0.00     0.042 C 
HETATM   28  C26 UNL     1      11.646  89.653  41.961  1.00  0.00     0.042 C 
ENDBRANCH  24  25
ENDBRANCH  10  24
BRANCH   7  29
HETATM   29  O3  UNL     1       7.784  93.745  36.656  1.00  0.00    -0.355 OA
HETATM   30  C9  UNL     1       6.920  93.761  35.557  1.00  0.00     0.210 C 
ENDBRANCH   7  29
BRANCH   1  31
HETATM   31  O1  UNL     1      10.699  94.445  42.335  1.00  0.00    -0.355 OA
HETATM   32  C1  UNL     1      10.395  95.281  43.420  1.00  0.00     0.210 C 
ENDBRANCH   1  31
BRANCH   5  33
HETATM   33  O2  UNL     1       6.585  98.184  37.681  1.00  0.00    -0.361 OA
ATOM     34  H2  UNL     1       6.134  98.273  36.850  1.00  0.00     0.217 HD
ENDBRANCH   5  33
TORSDOF 9
ENDMDL
MODEL 5
REMARK VINA RESULT: -8.366409349      1.754      2.775
REMARK  9 active torsions:
REMARK  status: ('A' for Active; 'I' for Inactive)
REMARK    1  A    between atoms: O1_2  and  C2_3 
REMARK    2  A    between atoms: C6_7  and  O2_8 
REMARK    3  A    between atoms: C8_11  and  O3_12 
REMARK    4  A    between atoms: C11_15  and  O4_16 
REMARK    5  A    between atoms: O4_16  and  C12_17 
REMARK    6  A    between atoms: C12_17  and  C13_19 
REMARK    7  A    between atoms: C19_26  and  O6_27 
REMARK    8  A    between atoms: C21_29  and  C22_30 
REMARK    9  A    between atoms: C22_30  and  C23_31 
ROOT
HETATM    1  C2  UNL     1      13.122  88.699  40.601  1.00  0.00     0.078 A 
HETATM    2  C3  UNL     1      13.664  87.773  39.751  1.00  0.00     0.050 A 
HETATM    3  C4  UNL     1      13.092  87.487  38.527  1.00  0.00    -0.015 A 
HETATM    4  C5  UNL     1      13.663  86.533  37.692  1.00  0.00     0.049 A 
HETATM    5  C6  UNL     1      13.108  86.221  36.472  1.00  0.00     0.069 A 
HETATM    6  C7  UNL     1      11.968  86.862  36.067  1.00  0.00     0.074 A 
HETATM    7  C8  UNL     1      11.401  87.821  36.913  1.00  0.00     0.084 A 
HETATM    8  C10 UNL     1      11.945  88.144  38.134  1.00  0.00     0.042 A 
HETATM    9  C11 UNL     1      11.370  89.097  38.983  1.00  0.00     0.102 A 
HETATM   10  C21 UNL     1      11.958  89.363  40.198  1.00  0.00     0.014 A 
ENDROOT
BRANCH   9  11
HETATM   11  O4  UNL     1      10.218  89.762  38.587  1.00  0.00    -0.273 OA
BRANCH  11  12
HETATM   12  C12 UNL     1      10.321  90.976  37.956  1.00  0.00     0.301 C 
HETATM   13  O5  UNL     1      11.506  91.389  37.684  1.00  0.00    -0.259 OA
BRANCH  12  14
HETATM   14  C13 UNL     1       9.244  91.836  37.564  1.00  0.00     0.073 A 
HETATM   15  C14 UNL     1       8.803  91.917  36.251  1.00  0.00     0.022 A 
HETATM   16  C15 UNL     1       7.761  92.726  35.852  1.00  0.00     0.028 A 
HETATM   17  C16 UNL     1       7.123  93.500  36.819  1.00  0.00     0.055 A 
HETATM   18  N1  UNL     1       6.055  94.342  36.457  1.00  0.00    -0.102 NA
HETATM   19  C17 UNL     1       7.533  93.447  38.126  1.00  0.00    -0.003 A 
HETATM   20  C18 UNL     1       6.880  94.256  39.185  1.00  0.00     0.053 C 
HETATM   21  C19 UNL     1       8.590  92.613  38.478  1.00  0.00     0.092 A 
BRANCH  21  22
HETATM   22  O6  UNL     1       8.965  92.596  39.801  1.00  0.00    -0.354 OA
HETATM   23  C20 UNL     1       9.863  93.536  40.377  1.00  0.00     0.210 C 
ENDBRANCH  21  22
ENDBRANCH  12  14
ENDBRANCH  11  12
ENDBRANCH   9  11
BRANCH  10  24
HETATM   24  C22 UNL     1      11.411  90.321  41.195  1.00  0.00     0.072 C 
BRANCH  24  25
HETATM   25  C23 UNL     1      10.529  89.677  42.187  1.00  0.00    -0.020 C 
HETATM   26  C24 UNL     1      10.029  90.160  43.285  1.00  0.00    -0.091 C 
HETATM   27  C25 UNL     1       9.154  89.341  44.163  1.00  0.00     0.042 C 
HETATM   28  C26 UNL     1      10.276  91.554  43.701  1.00  0.00     0.042 C 
ENDBRANCH  24  25
ENDBRANCH  10  24
BRANCH   7  29
HETATM   29  O3  UNL     1      10.266  88.421  36.455  1.00  0.00    -0.355 OA
HETATM   30  C9  UNL     1       9.887  88.409  35.110  1.00  0.00     0.210 C 
ENDBRANCH   7  29
BRANCH   1  31
HETATM   31  O1  UNL     1      13.710  88.984  41.846  1.00  0.00    -0.355 OA
HETATM   32  C1  UNL     1      14.166  87.963  42.694  1.00  0.00     0.210 C 
ENDBRANCH   1  31
BRANCH   5  33
HETATM   33  O2  UNL     1      13.665  85.267  35.621  1.00  0.00    -0.361 OA
ATOM     34  H2  UNL     1      14.593  85.249  35.415  1.00  0.00     0.217 HD
ENDBRANCH   5  33
TORSDOF 9
ENDMDL
