MODEL 1
REMARK VINA RESULT: -7.125243500      0.000      0.000
REMARK  6 active torsions:
REMARK  status: ('A' for Active; 'I' for Inactive)
REMARK    1  A    between atoms: C1_2  and  C2_4 
REMARK    2  A    between atoms: C4_7  and  C5_8 
REMARK    3  A    between atoms: C6_9  and  O3_10 
REMARK    4  A    between atoms: C6_9  and  N1_15 
REMARK    5  A    between atoms: O3_10  and  C7_11 
REMARK    6  A    between atoms: C10_19  and  O4_20 
ROOT
HETATM    1  C5  UNL     1       1.574 -10.890  18.798  1.00  0.00     0.076 C 
HETATM    2  C6  UNL     1       1.702 -10.523  20.015  1.00  0.00     0.157 C 
ENDROOT
BRANCH   2   3
HETATM    3  O3  UNL     1       2.519 -11.331  20.842  1.00  0.00    -0.238 OA
BRANCH   3   4
HETATM    4  C7  UNL     1       3.699 -10.921  21.442  1.00  0.00     0.531 C 
HETATM    5  F1  UNL     1       4.670 -11.895  21.495  1.00  0.00    -0.144 F 
HETATM    6  F2  UNL     1       3.485 -10.550  22.777  1.00  0.00    -0.144 F 
HETATM    7  F3  UNL     1       4.247  -9.820  20.802  1.00  0.00    -0.144 F 
ENDBRANCH   3   4
ENDBRANCH   2   3
BRANCH   2   8
HETATM    8  N1  UNL     1       1.166  -9.401  20.728  1.00  0.00    -0.302 N 
HETATM    9  C8  UNL     1       1.520  -8.056  20.328  1.00  0.00     0.207 C 
HETATM   10  S2  UNL     1       1.188  -7.116  21.873  1.00  0.00    -0.141 SA
HETATM   11  C9  UNL     1       0.022  -8.294  22.588  1.00  0.00     0.160 C 
HETATM   12  C10 UNL     1       0.313  -9.511  21.811  1.00  0.00     0.129 C 
BRANCH  12  13
HETATM   13  O4  UNL     1      -0.242 -10.631  22.171  1.00  0.00    -0.349 OA
ATOM     14  H4  UNL     1      -0.527 -10.810  23.059  1.00  0.00     0.219 HD
ENDBRANCH  12  13
ENDBRANCH   2   8
BRANCH   1  15
HETATM   15  C4  UNL     1       0.786 -10.243  17.746  1.00  0.00     0.023 C 
HETATM   16  S1  UNL     1      -0.920  -9.707  17.821  1.00  0.00    -0.127 SA
HETATM   17  C3  UNL     1      -1.185  -9.699  15.996  1.00  0.00     0.100 C 
HETATM   18  C2  UNL     1       0.246  -9.371  15.608  1.00  0.00     0.142 C 
HETATM   19  C11 UNL     1       1.184  -9.973  16.512  1.00  0.00     0.043 C 
HETATM   20 CL1  UNL     1       2.853 -10.347  15.982  1.00  0.00    -0.086 Cl
BRANCH  18  21
HETATM   21  C1  UNL     1       0.447  -7.899  15.569  1.00  0.00     0.183 C 
HETATM   22  O1  UNL     1       0.617  -7.332  14.466  1.00  0.00    -0.647 OA
HETATM   23  O2  UNL     1       0.459  -7.105  16.703  1.00  0.00    -0.647 OA
ENDBRANCH  18  21
ENDBRANCH   1  15
TORSDOF 6
ENDMDL
MODEL 2
REMARK VINA RESULT: -7.012249749      1.119      1.362
REMARK  6 active torsions:
REMARK  status: ('A' for Active; 'I' for Inactive)
REMARK    1  A    between atoms: C1_2  and  C2_4 
REMARK    2  A    between atoms: C4_7  and  C5_8 
REMARK    3  A    between atoms: C6_9  and  O3_10 
REMARK    4  A    between atoms: C6_9  and  N1_15 
REMARK    5  A    between atoms: O3_10  and  C7_11 
REMARK    6  A    between atoms: C10_19  and  O4_20 
ROOT
HETATM    1  C5  UNL     1       1.695 -10.922  18.745  1.00  0.00     0.076 C 
HETATM    2  C6  UNL     1       1.623 -10.791  20.014  1.00  0.00     0.157 C 
ENDROOT
BRANCH   2   3
HETATM    3  O3  UNL     1       2.534 -11.551  20.786  1.00  0.00    -0.238 OA
BRANCH   3   4
HETATM    4  C7  UNL     1       3.664 -11.047  21.411  1.00  0.00     0.531 C 
HETATM    5  F1  UNL     1       4.710 -11.939  21.484  1.00  0.00    -0.144 F 
HETATM    6  F2  UNL     1       3.392 -10.698  22.741  1.00  0.00    -0.144 F 
HETATM    7  F3  UNL     1       4.134  -9.904  20.784  1.00  0.00    -0.144 F 
ENDBRANCH   3   4
ENDBRANCH   2   3
BRANCH   2   8
HETATM    8  N1  UNL     1       0.773  -9.981  20.837  1.00  0.00    -0.302 N 
HETATM    9  C8  UNL     1      -0.296 -10.596  21.594  1.00  0.00     0.207 C 
HETATM   10  S2  UNL     1      -1.422  -9.167  21.862  1.00  0.00    -0.141 SA
HETATM   11  C9  UNL     1      -0.176  -7.877  21.653  1.00  0.00     0.160 C 
HETATM   12  C10 UNL     1       0.898  -8.610  20.960  1.00  0.00     0.129 C 
BRANCH  12  13
HETATM   13  O4  UNL     1       1.913  -7.941  20.497  1.00  0.00    -0.349 OA
ATOM     14  H4  UNL     1       2.296  -7.197  20.946  1.00  0.00     0.219 HD
ENDBRANCH  12  13
ENDBRANCH   2   8
BRANCH   1  15
HETATM   15  C4  UNL     1       0.870 -10.263  17.729  1.00  0.00     0.023 C 
HETATM   16  S1  UNL     1      -0.836  -9.740  17.867  1.00  0.00    -0.127 SA
HETATM   17  C3  UNL     1      -1.160  -9.704  16.051  1.00  0.00     0.100 C 
HETATM   18  C2  UNL     1       0.257  -9.362  15.624  1.00  0.00     0.142 C 
HETATM   19  C11 UNL     1       1.227  -9.972  16.488  1.00  0.00     0.043 C 
HETATM   20 CL1  UNL     1       2.879 -10.327  15.899  1.00  0.00    -0.086 Cl
BRANCH  18  21
HETATM   21  C1  UNL     1       0.448  -7.888  15.602  1.00  0.00     0.183 C 
HETATM   22  O1  UNL     1       0.624  -7.308  14.507  1.00  0.00    -0.647 OA
HETATM   23  O2  UNL     1       0.445  -7.106  16.744  1.00  0.00    -0.647 OA
ENDBRANCH  18  21
ENDBRANCH   1  15
TORSDOF 6
ENDMDL
MODEL 3
REMARK VINA RESULT: -6.750285727      4.513      5.643
REMARK  6 active torsions:
REMARK  status: ('A' for Active; 'I' for Inactive)
REMARK    1  A    between atoms: C1_2  and  C2_4 
REMARK    2  A    between atoms: C4_7  and  C5_8 
REMARK    3  A    between atoms: C6_9  and  O3_10 
REMARK    4  A    between atoms: C6_9  and  N1_15 
REMARK    5  A    between atoms: O3_10  and  C7_11 
REMARK    6  A    between atoms: C10_19  and  O4_20 
ROOT
HETATM    1  C5  UNL     1      -0.136  -9.085  18.052  1.00  0.00     0.076 C 
HETATM    2  C6  UNL     1      -1.390  -9.313  17.972  1.00  0.00     0.157 C 
ENDROOT
BRANCH   2   3
HETATM    3  O3  UNL     1      -2.186  -8.884  19.060  1.00  0.00    -0.238 OA
BRANCH   3   4
HETATM    4  C7  UNL     1      -2.907  -7.700  19.104  1.00  0.00     0.531 C 
HETATM    5  F1  UNL     1      -2.126  -6.569  19.165  1.00  0.00    -0.144 F 
HETATM    6  F2  UNL     1      -3.717  -7.643  20.246  1.00  0.00    -0.144 F 
HETATM    7  F3  UNL     1      -3.746  -7.568  18.009  1.00  0.00    -0.144 F 
ENDBRANCH   3   4
ENDBRANCH   2   3
BRANCH   2   8
HETATM    8  N1  UNL     1      -2.177  -9.934  16.948  1.00  0.00    -0.302 N 
HETATM    9  C8  UNL     1      -2.165  -9.398  15.604  1.00  0.00     0.207 C 
HETATM   10  S2  UNL     1      -3.751 -10.047  14.937  1.00  0.00    -0.141 SA
HETATM   11  C9  UNL     1      -3.906 -11.436  16.080  1.00  0.00     0.160 C 
HETATM   12  C10 UNL     1      -2.980 -11.041  17.156  1.00  0.00     0.129 C 
BRANCH  12  13
HETATM   13  O4  UNL     1      -2.954 -11.745  18.249  1.00  0.00    -0.349 OA
ATOM     14  H4  UNL     1      -2.151 -11.981  18.699  1.00  0.00     0.219 HD
ENDBRANCH  12  13
ENDBRANCH   2   8
BRANCH   1  15
HETATM   15  C4  UNL     1       0.901  -9.431  17.077  1.00  0.00     0.023 C 
HETATM   16  S1  UNL     1       1.875 -10.931  16.992  1.00  0.00    -0.127 SA
HETATM   17  C3  UNL     1       3.247 -10.198  16.002  1.00  0.00     0.100 C 
HETATM   18  C2  UNL     1       2.406  -9.171  15.263  1.00  0.00     0.142 C 
HETATM   19  C11 UNL     1       1.348  -8.668  16.092  1.00  0.00     0.043 C 
HETATM   20 CL1  UNL     1       0.648  -7.047  15.795  1.00  0.00    -0.086 Cl
BRANCH  18  21
HETATM   21  C1  UNL     1       1.845  -9.760  14.019  1.00  0.00     0.183 C 
HETATM   22  O1  UNL     1       2.323 -10.829  13.577  1.00  0.00    -0.647 OA
HETATM   23  O2  UNL     1       0.806  -9.183  13.309  1.00  0.00    -0.647 OA
ENDBRANCH  18  21
ENDBRANCH   1  15
TORSDOF 6
ENDMDL
MODEL 4
REMARK VINA RESULT: -6.643562471      4.438      5.389
REMARK  6 active torsions:
REMARK  status: ('A' for Active; 'I' for Inactive)
REMARK    1  A    between atoms: C1_2  and  C2_4 
REMARK    2  A    between atoms: C4_7  and  C5_8 
REMARK    3  A    between atoms: C6_9  and  O3_10 
REMARK    4  A    between atoms: C6_9  and  N1_15 
REMARK    5  A    between atoms: O3_10  and  C7_11 
REMARK    6  A    between atoms: C10_19  and  O4_20 
ROOT
HETATM    1  C5  UNL     1      -1.209  -8.933  16.748  1.00  0.00     0.076 C 
HETATM    2  C6  UNL     1      -1.555  -8.406  17.859  1.00  0.00     0.157 C 
ENDROOT
BRANCH   2   3
HETATM    3  O3  UNL     1      -2.908  -8.011  17.983  1.00  0.00    -0.238 OA
BRANCH   3   4
HETATM    4  C7  UNL     1      -3.979  -8.620  17.347  1.00  0.00     0.531 C 
HETATM    5  F1  UNL     1      -4.282  -8.081  16.118  1.00  0.00    -0.144 F 
HETATM    6  F2  UNL     1      -5.154  -8.489  18.101  1.00  0.00    -0.144 F 
HETATM    7  F3  UNL     1      -3.766  -9.977  17.167  1.00  0.00    -0.144 F 
ENDBRANCH   3   4
ENDBRANCH   2   3
BRANCH   2   8
HETATM    8  N1  UNL     1      -0.809  -8.138  19.054  1.00  0.00    -0.302 N 
HETATM    9  C8  UNL     1      -0.755  -9.128  20.108  1.00  0.00     0.207 C 
HETATM   10  S2  UNL     1      -0.330  -8.089  21.564  1.00  0.00    -0.141 SA
HETATM   11  C9  UNL     1       0.410  -6.726  20.639  1.00  0.00     0.160 C 
HETATM   12  C10 UNL     1      -0.120  -6.962  19.285  1.00  0.00     0.129 C 
BRANCH  12  13
HETATM   13  O4  UNL     1       0.082  -6.061  18.369  1.00  0.00    -0.349 OA
ATOM     14  H4  UNL     1       0.821  -5.464  18.378  1.00  0.00     0.219 HD
ENDBRANCH  12  13
ENDBRANCH   2   8
BRANCH   1  15
HETATM   15  C4  UNL     1       0.119  -9.416  16.360  1.00  0.00     0.023 C 
HETATM   16  S1  UNL     1       0.909 -10.954  16.823  1.00  0.00    -0.127 SA
HETATM   17  C3  UNL     1       2.630 -10.378  16.494  1.00  0.00     0.100 C 
HETATM   18  C2  UNL     1       2.282  -9.396  15.389  1.00  0.00     0.142 C 
HETATM   19  C11 UNL     1       1.011  -8.772  15.624  1.00  0.00     0.043 C 
HETATM   20 CL1  UNL     1       0.643  -7.162  14.933  1.00  0.00    -0.086 Cl
BRANCH  18  21
HETATM   21  C1  UNL     1       2.277 -10.083  14.070  1.00  0.00     0.183 C 
HETATM   22  O1  UNL     1       2.820 -11.206  13.961  1.00  0.00    -0.647 OA
HETATM   23  O2  UNL     1       1.697  -9.542  12.936  1.00  0.00    -0.647 OA
ENDBRANCH  18  21
ENDBRANCH   1  15
TORSDOF 6
ENDMDL
MODEL 5
REMARK VINA RESULT: -6.593697359      3.242      6.018
REMARK  6 active torsions:
REMARK  status: ('A' for Active; 'I' for Inactive)
REMARK    1  A    between atoms: C1_2  and  C2_4 
REMARK    2  A    between atoms: C4_7  and  C5_8 
REMARK    3  A    between atoms: C6_9  and  O3_10 
REMARK    4  A    between atoms: C6_9  and  N1_15 
REMARK    5  A    between atoms: O3_10  and  C7_11 
REMARK    6  A    between atoms: C10_19  and  O4_20 
ROOT
HETATM    1  C5  UNL     1       1.420  -9.356  17.092  1.00  0.00     0.076 C 
HETATM    2  C6  UNL     1       0.678  -9.671  16.101  1.00  0.00     0.157 C 
ENDROOT
BRANCH   2   3
HETATM    3  O3  UNL     1       1.336 -10.003  14.893  1.00  0.00    -0.238 OA
BRANCH   3   4
HETATM    4  C7  UNL     1       2.698 -10.227  14.761  1.00  0.00     0.531 C 
HETATM    5  F1  UNL     1       3.295 -10.736  15.891  1.00  0.00    -0.144 F 
HETATM    6  F2  UNL     1       3.383  -9.032  14.497  1.00  0.00    -0.144 F 
HETATM    7  F3  UNL     1       2.979 -11.091  13.715  1.00  0.00    -0.144 F 
ENDBRANCH   3   4
ENDBRANCH   2   3
BRANCH   2   8
HETATM    8  N1  UNL     1      -0.747  -9.768  15.976  1.00  0.00    -0.302 N 
HETATM    9  C8  UNL     1      -1.549 -10.126  17.125  1.00  0.00     0.207 C 
HETATM   10  S2  UNL     1      -3.074 -10.766  16.322  1.00  0.00    -0.141 SA
HETATM   11  C9  UNL     1      -2.864  -9.898  14.753  1.00  0.00     0.160 C 
HETATM   12  C10 UNL     1      -1.435  -9.543  14.797  1.00  0.00     0.129 C 
BRANCH  12  13
HETATM   13  O4  UNL     1      -0.883  -9.035  13.735  1.00  0.00    -0.349 OA
ATOM     14  H4  UNL     1      -0.279  -8.302  13.760  1.00  0.00     0.219 HD
ENDBRANCH  12  13
ENDBRANCH   2   8
BRANCH   1  15
HETATM   15  C4  UNL     1       0.996  -8.967  18.440  1.00  0.00     0.023 C 
HETATM   16  S1  UNL     1       0.244  -7.426  18.953  1.00  0.00    -0.127 SA
HETATM   17  C3  UNL     1       0.712  -7.582  20.731  1.00  0.00     0.100 C 
HETATM   18  C2  UNL     1       0.694  -9.100  20.787  1.00  0.00     0.142 C 
HETATM   19  C11 UNL     1       1.136  -9.675  19.549  1.00  0.00     0.043 C 
HETATM   20 CL1  UNL     1       1.856 -11.314  19.508  1.00  0.00    -0.086 Cl
BRANCH  18  21
HETATM   21  C1  UNL     1      -0.670  -9.589  21.120  1.00  0.00     0.183 C 
HETATM   22  O1  UNL     1      -1.393  -8.916  21.888  1.00  0.00    -0.647 OA
HETATM   23  O2  UNL     1      -1.194 -10.769  20.621  1.00  0.00    -0.647 OA
ENDBRANCH  18  21
ENDBRANCH   1  15
TORSDOF 6
ENDMDL
