MODEL 1
REMARK VINA RESULT: -8.037108441      0.000      0.000
REMARK  8 active torsions:
REMARK  status: ('A' for Active; 'I' for Inactive)
REMARK    1  A    between atoms: O1_1  and  C1_3 
REMARK    2  A    between atoms: C4_6  and  N1_7 
REMARK    3  A    between atoms: N1_7  and  C5_8 
REMARK    4  A    between atoms: N3_13  and  C7_14 
REMARK    5  A    between atoms: C11_18  and  N4_19 
REMARK    6  A    between atoms: N4_19  and  C12_21 
REMARK    7  A    between atoms: C12_21  and  C13_22 
REMARK    8  A    between atoms: C13_22  and  N5_23 
ROOT
HETATM    1  C5  UNL     1     -14.167 -37.855  16.923  1.00  0.00     0.270 A 
HETATM    2  N2  UNL     1     -14.033 -38.891  16.051  1.00  0.00    -0.292 N 
ATOM      3  H2  UNL     1     -13.169 -38.994  15.519  1.00  0.00     0.172 HD
HETATM    4  C6  UNL     1     -15.025 -39.778  15.885  1.00  0.00     0.197 A 
HETATM    5  S1  UNL     1     -14.791 -40.995  14.824  1.00  0.00    -0.040 SA
HETATM    6  N3  UNL     1     -16.180 -39.698  16.554  1.00  0.00    -0.153 N 
HETATM    7  C11 UNL     1     -16.321 -38.665  17.428  1.00  0.00     0.686 A 
HETATM    8  N7  UNL     1     -15.334 -37.772  17.602  1.00  0.00    -0.149 N 
ATOM      9  H7  UNL     1     -15.468 -37.008  18.264  1.00  0.00     0.188 HD
ENDROOT
BRANCH   7  10
HETATM   10  N4  UNL     1     -17.398 -38.511  18.118  1.00  0.00    -0.224 N 
ATOM     11  H4  UNL     1     -17.645 -39.255  18.769  1.00  0.00     0.177 HD
BRANCH  10  12
HETATM   12  C12 UNL     1     -18.273 -37.387  18.048  1.00  0.00     0.168 C 
BRANCH  12  13
HETATM   13  C13 UNL     1     -19.692 -37.854  18.257  1.00  0.00     0.292 C 
BRANCH  13  14
HETATM   14  N5  UNL     1     -20.520 -37.618  17.090  1.00  0.00     0.093 N 
HETATM   15  C14 UNL     1     -20.015 -38.461  16.023  1.00  0.00     0.300 C 
HETATM   16  C15 UNL     1     -20.880 -38.385  14.790  1.00  0.00     0.262 C 
HETATM   17  N6  UNL     1     -22.107 -37.654  15.032  1.00  0.00    -0.072 N 
HETATM   18  C16 UNL     1     -22.730 -38.205  16.212  1.00  0.00     0.262 C 
ATOM     19  H62 UNL     1     -21.959 -36.646  15.098  1.00  0.00     0.277 HD
ATOM     20  H61 UNL     1     -22.729 -37.648  14.224  1.00  0.00     0.277 HD
HETATM   21  C17 UNL     1     -21.881 -37.931  17.437  1.00  0.00     0.300 C 
ENDBRANCH  13  14
ENDBRANCH  12  13
ENDBRANCH  10  12
ENDBRANCH   7  10
BRANCH   6  22
HETATM   22  C7  UNL     1     -17.263 -40.616  16.413  1.00  0.00     0.110 C 
HETATM   23  C8  UNL     1     -17.589 -41.075  15.003  1.00  0.00     0.026 C 
HETATM   24  C9  UNL     1     -17.929 -42.441  15.616  1.00  0.00     0.004 C 
HETATM   25  C10 UNL     1     -16.965 -42.070  16.748  1.00  0.00     0.026 C 
ENDBRANCH   6  22
BRANCH   1  26
HETATM   26  N1  UNL     1     -13.288 -37.063  17.079  1.00  0.00    -0.409 NA
BRANCH  26  27
HETATM   27  C4  UNL     1     -12.176 -36.362  17.296  1.00  0.00     0.167 C 
HETATM   28  C3  UNL     1     -12.240 -35.421  18.503  1.00  0.00     0.042 C 
HETATM   29  C2  UNL     1     -11.130 -34.422  18.457  1.00  0.00     0.035 C 
HETATM   30  C1  UNL     1     -11.299 -33.421  17.331  1.00  0.00     0.118 C 
HETATM   31  C19 UNL     1     -12.152 -34.074  16.258  1.00  0.00     0.035 C 
HETATM   32  C18 UNL     1     -11.651 -35.520  16.133  1.00  0.00     0.042 C 
BRANCH  30  33
HETATM   33  O1  UNL     1     -11.919 -32.247  17.749  1.00  0.00    -0.396 OA
ATOM     34  H1  UNL     1     -11.297 -31.589  18.038  1.00  0.00     0.210 HD
ENDBRANCH  30  33
ENDBRANCH  26  27
ENDBRANCH   1  26
TORSDOF 8
ENDMDL
MODEL 2
REMARK VINA RESULT: -7.911042112      2.388      5.230
REMARK  8 active torsions:
REMARK  status: ('A' for Active; 'I' for Inactive)
REMARK    1  A    between atoms: O1_1  and  C1_3 
REMARK    2  A    between atoms: C4_6  and  N1_7 
REMARK    3  A    between atoms: N1_7  and  C5_8 
REMARK    4  A    between atoms: N3_13  and  C7_14 
REMARK    5  A    between atoms: C11_18  and  N4_19 
REMARK    6  A    between atoms: N4_19  and  C12_21 
REMARK    7  A    between atoms: C12_21  and  C13_22 
REMARK    8  A    between atoms: C13_22  and  N5_23 
ROOT
HETATM    1  C5  UNL     1     -14.793 -37.552  17.480  1.00  0.00     0.270 A 
HETATM    2  N2  UNL     1     -15.811 -37.004  18.198  1.00  0.00    -0.292 N 
ATOM      3  H2  UNL     1     -15.606 -36.305  18.913  1.00  0.00     0.172 HD
HETATM    4  C6  UNL     1     -17.081 -37.374  17.976  1.00  0.00     0.197 A 
HETATM    5  S1  UNL     1     -18.248 -36.671  18.873  1.00  0.00    -0.040 SA
HETATM    6  N3  UNL     1     -17.413 -38.282  17.053  1.00  0.00    -0.153 N 
HETATM    7  C11 UNL     1     -16.401 -38.834  16.332  1.00  0.00     0.686 A 
HETATM    8  N7  UNL     1     -15.126 -38.471  16.547  1.00  0.00    -0.149 N 
ATOM      9  H7  UNL     1     -14.388 -38.902  15.990  1.00  0.00     0.188 HD
ENDROOT
BRANCH   7  10
HETATM   10  N4  UNL     1     -16.628 -39.716  15.420  1.00  0.00    -0.224 N 
ATOM     11  H4  UNL     1     -17.574 -39.764  15.044  1.00  0.00     0.177 HD
BRANCH  10  12
HETATM   12  C12 UNL     1     -15.668 -40.629  14.893  1.00  0.00     0.168 C 
BRANCH  12  13
HETATM   13  C13 UNL     1     -16.172 -42.038  15.084  1.00  0.00     0.292 C 
BRANCH  13  14
HETATM   14  N5  UNL     1     -15.218 -42.865  15.799  1.00  0.00     0.093 N 
HETATM   15  C14 UNL     1     -15.966 -43.912  16.468  1.00  0.00     0.300 C 
HETATM   16  C15 UNL     1     -15.057 -44.905  17.147  1.00  0.00     0.262 C 
HETATM   17  N6  UNL     1     -13.666 -44.692  16.802  1.00  0.00    -0.072 N 
HETATM   18  C16 UNL     1     -13.568 -44.622  15.364  1.00  0.00     0.262 C 
ATOM     19  H62 UNL     1     -13.265 -43.875  17.265  1.00  0.00     0.277 HD
ATOM     20  H61 UNL     1     -13.047 -45.395  17.206  1.00  0.00     0.277 HD
HETATM   21  C17 UNL     1     -14.278 -43.389  14.843  1.00  0.00     0.300 C 
ENDBRANCH  13  14
ENDBRANCH  12  13
ENDBRANCH  10  12
ENDBRANCH   7  10
BRANCH   6  22
HETATM   22  C7  UNL     1     -18.748 -38.707  16.779  1.00  0.00     0.110 C 
HETATM   23  C8  UNL     1     -19.853 -38.046  17.583  1.00  0.00     0.026 C 
HETATM   24  C9  UNL     1     -20.715 -38.137  16.316  1.00  0.00     0.004 C 
HETATM   25  C10 UNL     1     -19.399 -38.130  15.532  1.00  0.00     0.026 C 
ENDBRANCH   6  22
BRANCH   1  26
HETATM   26  N1  UNL     1     -13.660 -37.226  17.671  1.00  0.00    -0.409 NA
BRANCH  26  27
HETATM   27  C4  UNL     1     -12.474 -36.649  17.860  1.00  0.00     0.167 C 
HETATM   28  C3  UNL     1     -12.458 -35.559  18.935  1.00  0.00     0.042 C 
HETATM   29  C2  UNL     1     -11.225 -34.723  18.825  1.00  0.00     0.035 C 
HETATM   30  C1  UNL     1     -11.216 -33.864  17.575  1.00  0.00     0.118 C 
HETATM   31  C19 UNL     1     -12.107 -34.538  16.548  1.00  0.00     0.035 C 
HETATM   32  C18 UNL     1     -11.798 -36.040  16.631  1.00  0.00     0.042 C 
BRANCH  30  33
HETATM   33  O1  UNL     1     -11.689 -32.577  17.809  1.00  0.00    -0.396 OA
ATOM     34  H1  UNL     1     -11.612 -32.016  17.046  1.00  0.00     0.210 HD
ENDBRANCH  30  33
ENDBRANCH  26  27
ENDBRANCH   1  26
TORSDOF 8
ENDMDL
MODEL 3
REMARK VINA RESULT: -7.857904171      0.998      1.473
REMARK  8 active torsions:
REMARK  status: ('A' for Active; 'I' for Inactive)
REMARK    1  A    between atoms: O1_1  and  C1_3 
REMARK    2  A    between atoms: C4_6  and  N1_7 
REMARK    3  A    between atoms: N1_7  and  C5_8 
REMARK    4  A    between atoms: N3_13  and  C7_14 
REMARK    5  A    between atoms: C11_18  and  N4_19 
REMARK    6  A    between atoms: N4_19  and  C12_21 
REMARK    7  A    between atoms: C12_21  and  C13_22 
REMARK    8  A    between atoms: C13_22  and  N5_23 
ROOT
HETATM    1  C5  UNL     1     -14.090 -38.403  16.470  1.00  0.00     0.270 A 
HETATM    2  N2  UNL     1     -13.698 -39.193  15.435  1.00  0.00    -0.292 N 
ATOM      3  H2  UNL     1     -12.756 -39.095  15.054  1.00  0.00     0.172 HD
HETATM    4  C6  UNL     1     -14.536 -40.100  14.910  1.00  0.00     0.197 A 
HETATM    5  S1  UNL     1     -13.993 -41.014  13.673  1.00  0.00    -0.040 SA
HETATM    6  N3  UNL     1     -15.780 -40.277  15.367  1.00  0.00    -0.153 N 
HETATM    7  C11 UNL     1     -16.180 -39.490  16.401  1.00  0.00     0.686 A 
HETATM    8  N7  UNL     1     -15.349 -38.579  16.933  1.00  0.00    -0.149 N 
ATOM      9  H7  UNL     1     -15.676 -38.003  17.709  1.00  0.00     0.188 HD
ENDROOT
BRANCH   7  10
HETATM   10  N4  UNL     1     -17.360 -39.592  16.907  1.00  0.00    -0.224 N 
ATOM     11  H4  UNL     1     -17.968 -40.318  16.528  1.00  0.00     0.177 HD
BRANCH  10  12
HETATM   12  C12 UNL     1     -17.888 -38.777  17.951  1.00  0.00     0.168 C 
BRANCH  12  13
HETATM   13  C13 UNL     1     -18.790 -37.728  17.349  1.00  0.00     0.292 C 
BRANCH  13  14
HETATM   14  N5  UNL     1     -20.067 -38.279  16.939  1.00  0.00     0.093 N 
HETATM   15  C14 UNL     1     -21.102 -37.556  17.653  1.00  0.00     0.300 C 
HETATM   16  C15 UNL     1     -22.483 -37.969  17.210  1.00  0.00     0.262 C 
HETATM   17  N6  UNL     1     -22.445 -38.832  16.047  1.00  0.00    -0.072 N 
HETATM   18  C16 UNL     1     -21.621 -38.197  15.047  1.00  0.00     0.262 C 
ATOM     19  H62 UNL     1     -22.137 -39.780  16.269  1.00  0.00     0.277 HD
ATOM     20  H61 UNL     1     -23.375 -39.069  15.701  1.00  0.00     0.277 HD
HETATM   21  C17 UNL     1     -20.180 -38.129  15.512  1.00  0.00     0.300 C 
ENDBRANCH  13  14
ENDBRANCH  12  13
ENDBRANCH  10  12
ENDBRANCH   7  10
BRANCH   6  22
HETATM   22  C7  UNL     1     -16.706 -41.227  14.843  1.00  0.00     0.110 C 
HETATM   23  C8  UNL     1     -17.673 -41.854  15.832  1.00  0.00     0.026 C 
HETATM   24  C9  UNL     1     -18.711 -41.835  14.700  1.00  0.00     0.004 C 
HETATM   25  C10 UNL     1     -17.917 -40.662  14.116  1.00  0.00     0.026 C 
ENDBRANCH   6  22
BRANCH   1  26
HETATM   26  N1  UNL     1     -13.350 -37.595  16.944  1.00  0.00    -0.409 NA
BRANCH  26  27
HETATM   27  C4  UNL     1     -12.362 -36.854  17.443  1.00  0.00     0.167 C 
HETATM   28  C3  UNL     1     -12.773 -35.935  18.597  1.00  0.00     0.042 C 
HETATM   29  C2  UNL     1     -11.733 -34.892  18.842  1.00  0.00     0.035 C 
HETATM   30  C1  UNL     1     -11.649 -33.881  17.716  1.00  0.00     0.118 C 
HETATM   31  C19 UNL     1     -12.168 -34.551  16.457  1.00  0.00     0.035 C 
HETATM   32  C18 UNL     1     -11.591 -35.974  16.458  1.00  0.00     0.042 C 
BRANCH  30  33
HETATM   33  O1  UNL     1     -12.404 -32.739  17.965  1.00  0.00    -0.396 OA
ATOM     34  H1  UNL     1     -11.881 -31.946  17.949  1.00  0.00     0.210 HD
ENDBRANCH  30  33
ENDBRANCH  26  27
ENDBRANCH   1  26
TORSDOF 8
ENDMDL
MODEL 4
REMARK VINA RESULT: -7.806869723      2.246      3.839
REMARK  8 active torsions:
REMARK  status: ('A' for Active; 'I' for Inactive)
REMARK    1  A    between atoms: O1_1  and  C1_3 
REMARK    2  A    between atoms: C4_6  and  N1_7 
REMARK    3  A    between atoms: N1_7  and  C5_8 
REMARK    4  A    between atoms: N3_13  and  C7_14 
REMARK    5  A    between atoms: C11_18  and  N4_19 
REMARK    6  A    between atoms: N4_19  and  C12_21 
REMARK    7  A    between atoms: C12_21  and  C13_22 
REMARK    8  A    between atoms: C13_22  and  N5_23 
ROOT
HETATM    1  C5  UNL     1     -14.813 -37.570  17.527  1.00  0.00     0.270 A 
HETATM    2  N2  UNL     1     -15.843 -37.034  18.237  1.00  0.00    -0.292 N 
ATOM      3  H2  UNL     1     -15.652 -36.331  18.951  1.00  0.00     0.172 HD
HETATM    4  C6  UNL     1     -17.106 -37.421  18.006  1.00  0.00     0.197 A 
HETATM    5  S1  UNL     1     -18.289 -36.732  18.894  1.00  0.00    -0.040 SA
HETATM    6  N3  UNL     1     -17.421 -38.336  17.083  1.00  0.00    -0.153 N 
HETATM    7  C11 UNL     1     -16.396 -38.876  16.370  1.00  0.00     0.686 A 
HETATM    8  N7  UNL     1     -15.127 -38.496  16.594  1.00  0.00    -0.149 N 
ATOM      9  H7  UNL     1     -14.380 -38.918  16.043  1.00  0.00     0.188 HD
ENDROOT
BRANCH   7  10
HETATM   10  N4  UNL     1     -16.605 -39.762  15.460  1.00  0.00    -0.224 N 
ATOM     11  H4  UNL     1     -17.575 -39.965  15.220  1.00  0.00     0.177 HD
BRANCH  10  12
HETATM   12  C12 UNL     1     -15.595 -40.484  14.757  1.00  0.00     0.168 C 
BRANCH  12  13
HETATM   13  C13 UNL     1     -16.074 -40.764  13.354  1.00  0.00     0.292 C 
BRANCH  13  14
HETATM   14  N5  UNL     1     -17.507 -40.583  13.224  1.00  0.00     0.093 N 
HETATM   15  C14 UNL     1     -17.730 -39.655  12.132  1.00  0.00     0.300 C 
HETATM   16  C15 UNL     1     -19.198 -39.487  11.828  1.00  0.00     0.262 C 
HETATM   17  N6  UNL     1     -20.015 -40.436  12.557  1.00  0.00    -0.072 N 
HETATM   18  C16 UNL     1     -19.468 -41.754  12.340  1.00  0.00     0.262 C 
ATOM     19  H62 UNL     1     -20.102 -40.203  13.547  1.00  0.00     0.277 HD
ATOM     20  H61 UNL     1     -21.003 -40.374  12.314  1.00  0.00     0.277 HD
HETATM   21  C17 UNL     1     -18.098 -41.872  12.976  1.00  0.00     0.300 C 
ENDBRANCH  13  14
ENDBRANCH  12  13
ENDBRANCH  10  12
ENDBRANCH   7  10
BRANCH   6  22
HETATM   22  C7  UNL     1     -18.747 -38.778  16.801  1.00  0.00     0.110 C 
HETATM   23  C8  UNL     1     -19.876 -38.043  17.502  1.00  0.00     0.026 C 
HETATM   24  C9  UNL     1     -20.693 -38.246  16.218  1.00  0.00     0.004 C 
HETATM   25  C10 UNL     1     -19.349 -38.315  15.484  1.00  0.00     0.026 C 
ENDBRANCH   6  22
BRANCH   1  26
HETATM   26  N1  UNL     1     -13.686 -37.229  17.725  1.00  0.00    -0.409 NA
BRANCH  26  27
HETATM   27  C4  UNL     1     -12.508 -36.637  17.913  1.00  0.00     0.167 C 
HETATM   28  C3  UNL     1     -12.507 -35.538  18.980  1.00  0.00     0.042 C 
HETATM   29  C2  UNL     1     -11.284 -34.689  18.867  1.00  0.00     0.035 C 
HETATM   30  C1  UNL     1     -11.282 -33.839  17.612  1.00  0.00     0.118 C 
HETATM   31  C19 UNL     1     -12.161 -34.531  16.586  1.00  0.00     0.035 C 
HETATM   32  C18 UNL     1     -11.835 -36.029  16.681  1.00  0.00     0.042 C 
BRANCH  30  33
HETATM   33  O1  UNL     1     -11.771 -32.556  17.835  1.00  0.00    -0.396 OA
ATOM     34  H1  UNL     1     -11.079 -31.922  17.981  1.00  0.00     0.210 HD
ENDBRANCH  30  33
ENDBRANCH  26  27
ENDBRANCH   1  26
TORSDOF 8
ENDMDL
MODEL 5
REMARK VINA RESULT: -7.736175549      2.459      5.483
REMARK  8 active torsions:
REMARK  status: ('A' for Active; 'I' for Inactive)
REMARK    1  A    between atoms: O1_1  and  C1_3 
REMARK    2  A    between atoms: C4_6  and  N1_7 
REMARK    3  A    between atoms: N1_7  and  C5_8 
REMARK    4  A    between atoms: N3_13  and  C7_14 
REMARK    5  A    between atoms: C11_18  and  N4_19 
REMARK    6  A    between atoms: N4_19  and  C12_21 
REMARK    7  A    between atoms: C12_21  and  C13_22 
REMARK    8  A    between atoms: C13_22  and  N5_23 
ROOT
HETATM    1  C5  UNL     1     -14.739 -37.565  17.545  1.00  0.00     0.270 A 
HETATM    2  N2  UNL     1     -15.780 -37.031  18.239  1.00  0.00    -0.292 N 
ATOM      3  H2  UNL     1     -15.600 -36.330  18.959  1.00  0.00     0.172 HD
HETATM    4  C6  UNL     1     -17.040 -37.416  17.987  1.00  0.00     0.197 A 
HETATM    5  S1  UNL     1     -18.236 -36.729  18.858  1.00  0.00    -0.040 SA
HETATM    6  N3  UNL     1     -17.339 -38.327  17.056  1.00  0.00    -0.153 N 
HETATM    7  C11 UNL     1     -16.304 -38.866  16.358  1.00  0.00     0.686 A 
HETATM    8  N7  UNL     1     -15.039 -38.487  16.603  1.00  0.00    -0.149 N 
ATOM      9  H7  UNL     1     -14.283 -38.908  16.063  1.00  0.00     0.188 HD
ENDROOT
BRANCH   7  10
HETATM   10  N4  UNL     1     -16.498 -39.749  15.441  1.00  0.00    -0.224 N 
ATOM     11  H4  UNL     1     -17.311 -39.623  14.837  1.00  0.00     0.177 HD
BRANCH  10  12
HETATM   12  C12 UNL     1     -15.674 -40.887  15.197  1.00  0.00     0.168 C 
BRANCH  12  13
HETATM   13  C13 UNL     1     -15.082 -40.780  13.813  1.00  0.00     0.292 C 
BRANCH  13  14
HETATM   14  N5  UNL     1     -13.633 -40.808  13.839  1.00  0.00     0.093 N 
HETATM   15  C14 UNL     1     -13.206 -41.935  13.031  1.00  0.00     0.300 C 
HETATM   16  C15 UNL     1     -11.706 -41.989  12.890  1.00  0.00     0.262 C 
HETATM   17  N6  UNL     1     -11.068 -40.800  13.418  1.00  0.00    -0.072 N 
HETATM   18  C16 UNL     1     -11.720 -39.649  12.840  1.00  0.00     0.262 C 
ATOM     19  H62 UNL     1     -11.059 -40.778  14.438  1.00  0.00     0.277 HD
ATOM     20  H61 UNL     1     -10.059 -40.796  13.272  1.00  0.00     0.277 HD
HETATM   21  C17 UNL     1     -13.153 -39.553  13.323  1.00  0.00     0.300 C 
ENDBRANCH  13  14
ENDBRANCH  12  13
ENDBRANCH  10  12
ENDBRANCH   7  10
BRANCH   6  22
HETATM   22  C7  UNL     1     -18.662 -38.768  16.751  1.00  0.00     0.110 C 
HETATM   23  C8  UNL     1     -19.795 -38.113  17.520  1.00  0.00     0.026 C 
HETATM   24  C9  UNL     1     -20.622 -38.223  16.232  1.00  0.00     0.004 C 
HETATM   25  C10 UNL     1     -19.286 -38.209  15.482  1.00  0.00     0.026 C 
ENDBRANCH   6  22
BRANCH   1  26
HETATM   26  N1  UNL     1     -13.615 -37.225  17.762  1.00  0.00    -0.409 NA
BRANCH  26  27
HETATM   27  C4  UNL     1     -12.426 -36.645  17.918  1.00  0.00     0.167 C 
HETATM   28  C3  UNL     1     -12.387 -35.544  18.981  1.00  0.00     0.042 C 
HETATM   29  C2  UNL     1     -11.158 -34.708  18.835  1.00  0.00     0.035 C 
HETATM   30  C1  UNL     1     -11.179 -33.862  17.577  1.00  0.00     0.118 C 
HETATM   31  C19 UNL     1     -12.091 -34.547  16.576  1.00  0.00     0.035 C 
HETATM   32  C18 UNL     1     -11.779 -36.048  16.668  1.00  0.00     0.042 C 
BRANCH  30  33
HETATM   33  O1  UNL     1     -11.649 -32.572  17.808  1.00  0.00    -0.396 OA
ATOM     34  H1  UNL     1     -12.198 -32.252  17.103  1.00  0.00     0.210 HD
ENDBRANCH  30  33
ENDBRANCH  26  27
ENDBRANCH   1  26
TORSDOF 8
ENDMDL
