MODEL 1
REMARK VINA RESULT: -6.635602282      0.000      0.000
REMARK  9 active torsions:
REMARK  status: ('A' for Active; 'I' for Inactive)
REMARK    1  A    between atoms: C2_2  and  C3_3 
REMARK    2  A    between atoms: C5_7  and  N2_8 
REMARK    3  A    between atoms: N2_8  and  C6_10 
REMARK    4  A    between atoms: C6_10  and  C7_11 
REMARK    5  A    between atoms: C7_11  and  C8_12 
REMARK    6  A    between atoms: N3_15  and  C11_16 
REMARK    7  A    between atoms: C11_16  and  C12_17 
REMARK    8  A    between atoms: C12_17  and  O1_18 
REMARK    9  A    between atoms: C15_23  and  N5_24 
ROOT
HETATM    1  C3  UNL     1      28.159   8.958 -34.394  1.00  0.00     0.023 A 
HETATM    2  C4  UNL     1      27.432   8.781 -35.546  1.00  0.00     0.121 A 
HETATM    3  N1  UNL     1      27.585   7.609 -36.230  1.00  0.00    -0.201 N 
ATOM      4  H1  UNL     1      27.047   7.477 -37.087  1.00  0.00     0.183 HD
HETATM    5  C5  UNL     1      28.399   6.627 -35.841  1.00  0.00     0.679 A 
HETATM    6  N4  UNL     1      29.102   6.807 -34.719  1.00  0.00    -0.176 N 
ATOM      7  H4  UNL     1      29.730   6.068 -34.404  1.00  0.00     0.186 HD
HETATM    8  C15 UNL     1      29.006   7.929 -33.996  1.00  0.00     0.126 A 
ENDROOT
BRANCH   5   9
HETATM    9  N2  UNL     1      28.458   5.567 -36.572  1.00  0.00    -0.226 N 
ATOM     10  H2  UNL     1      28.044   4.687 -36.265  1.00  0.00     0.177 HD
BRANCH   9  11
HETATM   11  C6  UNL     1      29.135   5.676 -37.841  1.00  0.00     0.142 C 
BRANCH  11  12
HETATM   12  C7  UNL     1      30.193   4.607 -38.013  1.00  0.00     0.060 C 
BRANCH  12  13
HETATM   13  C8  UNL     1      31.479   5.293 -38.304  1.00  0.00    -0.040 A 
HETATM   14  C9  UNL     1      32.388   4.934 -39.305  1.00  0.00     0.025 A 
HETATM   15  C10 UNL     1      33.437   5.815 -39.240  1.00  0.00     0.091 A 
HETATM   16  N3  UNL     1      33.230   6.700 -38.254  1.00  0.00    -0.364 N 
HETATM   17  C14 UNL     1      32.050   6.387 -37.689  1.00  0.00     0.097 A 
BRANCH  16  18
HETATM   18  C11 UNL     1      34.112   7.817 -37.846  1.00  0.00     0.154 C 
BRANCH  18  19
HETATM   19  C12 UNL     1      33.942   8.128 -36.401  1.00  0.00     0.187 C 
BRANCH  19  20
HETATM   20  O1  UNL     1      34.838   7.426 -35.632  1.00  0.00    -0.394 OA
HETATM   21  C13 UNL     1      34.527   7.479 -34.307  1.00  0.00     0.201 C 
ENDBRANCH  19  20
ENDBRANCH  18  19
ENDBRANCH  16  18
ENDBRANCH  12  13
ENDBRANCH  11  12
ENDBRANCH   9  11
ENDBRANCH   5   9
BRANCH   8  22
HETATM   22  N5  UNL     1      29.688   8.081 -32.924  1.00  0.00    -0.384 N 
ATOM     23  H52 UNL     1      29.757   8.993 -32.471  1.00  0.00     0.157 HD
ATOM     24  H51 UNL     1      30.164   7.269 -32.532  1.00  0.00     0.157 HD
ENDBRANCH   8  22
BRANCH   1  25
HETATM   25  C2  UNL     1      28.061  10.172 -33.599  1.00  0.00     0.006 C 
HETATM   26  C1  UNL     1      28.585  11.315 -33.947  1.00  0.00     0.012 C 
ENDBRANCH   1  25
TORSDOF 9
ENDMDL
MODEL 2
REMARK VINA RESULT: -6.564096250      0.550      1.445
REMARK  9 active torsions:
REMARK  status: ('A' for Active; 'I' for Inactive)
REMARK    1  A    between atoms: C2_2  and  C3_3 
REMARK    2  A    between atoms: C5_7  and  N2_8 
REMARK    3  A    between atoms: N2_8  and  C6_10 
REMARK    4  A    between atoms: C6_10  and  C7_11 
REMARK    5  A    between atoms: C7_11  and  C8_12 
REMARK    6  A    between atoms: N3_15  and  C11_16 
REMARK    7  A    between atoms: C11_16  and  C12_17 
REMARK    8  A    between atoms: C12_17  and  O1_18 
REMARK    9  A    between atoms: C15_23  and  N5_24 
ROOT
HETATM    1  C3  UNL     1      28.105   9.071 -34.540  1.00  0.00     0.023 A 
HETATM    2  C4  UNL     1      29.161   8.232 -34.277  1.00  0.00     0.121 A 
HETATM    3  N1  UNL     1      29.254   7.071 -34.991  1.00  0.00    -0.201 N 
ATOM      4  H1  UNL     1      30.036   6.447 -34.796  1.00  0.00     0.183 HD
HETATM    5  C5  UNL     1      28.379   6.709 -35.930  1.00  0.00     0.679 A 
HETATM    6  N4  UNL     1      27.355   7.532 -36.179  1.00  0.00    -0.176 N 
ATOM      7  H4  UNL     1      26.675   7.273 -36.894  1.00  0.00     0.186 HD
HETATM    8  C15 UNL     1      27.197   8.685 -35.520  1.00  0.00     0.126 A 
ENDROOT
BRANCH   5   9
HETATM    9  N2  UNL     1      28.573   5.589 -36.536  1.00  0.00    -0.226 N 
ATOM     10  H2  UNL     1      28.321   4.701 -36.104  1.00  0.00     0.177 HD
BRANCH   9  11
HETATM   11  C6  UNL     1      29.162   5.643 -37.853  1.00  0.00     0.142 C 
BRANCH  11  12
HETATM   12  C7  UNL     1      30.220   4.578 -38.044  1.00  0.00     0.060 C 
BRANCH  12  13
HETATM   13  C8  UNL     1      31.503   5.270 -38.338  1.00  0.00    -0.040 A 
HETATM   14  C9  UNL     1      32.422   4.901 -39.326  1.00  0.00     0.025 A 
HETATM   15  C10 UNL     1      33.463   5.793 -39.268  1.00  0.00     0.091 A 
HETATM   16  N3  UNL     1      33.241   6.693 -38.300  1.00  0.00    -0.364 N 
HETATM   17  C14 UNL     1      32.059   6.380 -37.738  1.00  0.00     0.097 A 
BRANCH  16  18
HETATM   18  C11 UNL     1      34.111   7.825 -37.905  1.00  0.00     0.154 C 
BRANCH  18  19
HETATM   19  C12 UNL     1      33.947   8.142 -36.461  1.00  0.00     0.187 C 
BRANCH  19  20
HETATM   20  O1  UNL     1      34.856   7.455 -35.694  1.00  0.00    -0.394 OA
HETATM   21  C13 UNL     1      34.557   7.515 -34.367  1.00  0.00     0.201 C 
ENDBRANCH  19  20
ENDBRANCH  18  19
ENDBRANCH  16  18
ENDBRANCH  12  13
ENDBRANCH  11  12
ENDBRANCH   9  11
ENDBRANCH   5   9
BRANCH   8  22
HETATM   22  N5  UNL     1      26.210   9.459 -35.775  1.00  0.00    -0.384 N 
ATOM     23  H52 UNL     1      26.355  10.364 -36.222  1.00  0.00     0.157 HD
ATOM     24  H51 UNL     1      25.272   9.149 -35.519  1.00  0.00     0.157 HD
ENDBRANCH   8  22
BRANCH   1  25
HETATM   25  C2  UNL     1      27.924  10.328 -33.830  1.00  0.00     0.006 C 
HETATM   26  C1  UNL     1      28.852  11.235 -33.704  1.00  0.00     0.012 C 
ENDBRANCH   1  25
TORSDOF 9
ENDMDL
MODEL 3
REMARK VINA RESULT: -6.490268474      1.367      1.605
REMARK  9 active torsions:
REMARK  status: ('A' for Active; 'I' for Inactive)
REMARK    1  A    between atoms: C2_2  and  C3_3 
REMARK    2  A    between atoms: C5_7  and  N2_8 
REMARK    3  A    between atoms: N2_8  and  C6_10 
REMARK    4  A    between atoms: C6_10  and  C7_11 
REMARK    5  A    between atoms: C7_11  and  C8_12 
REMARK    6  A    between atoms: N3_15  and  C11_16 
REMARK    7  A    between atoms: C11_16  and  C12_17 
REMARK    8  A    between atoms: C12_17  and  O1_18 
REMARK    9  A    between atoms: C15_23  and  N5_24 
ROOT
HETATM    1  C3  UNL     1      28.172   8.997 -34.329  1.00  0.00     0.023 A 
HETATM    2  C4  UNL     1      27.428   8.812 -35.470  1.00  0.00     0.121 A 
HETATM    3  N1  UNL     1      27.556   7.627 -36.137  1.00  0.00    -0.201 N 
ATOM      4  H1  UNL     1      27.007   7.490 -36.985  1.00  0.00     0.183 HD
HETATM    5  C5  UNL     1      28.360   6.640 -35.742  1.00  0.00     0.679 A 
HETATM    6  N4  UNL     1      29.080   6.828 -34.631  1.00  0.00    -0.176 N 
ATOM      7  H4  UNL     1      29.700   6.084 -34.312  1.00  0.00     0.186 HD
HETATM    8  C15 UNL     1      29.009   7.962 -33.925  1.00  0.00     0.126 A 
ENDROOT
BRANCH   5   9
HETATM    9  N2  UNL     1      28.395   5.568 -36.456  1.00  0.00    -0.226 N 
ATOM     10  H2  UNL     1      28.135   4.662 -36.066  1.00  0.00     0.177 HD
BRANCH   9  11
HETATM   11  C6  UNL     1      28.818   5.701 -37.829  1.00  0.00     0.142 C 
BRANCH  11  12
HETATM   12  C7  UNL     1      30.277   5.339 -38.010  1.00  0.00     0.060 C 
BRANCH  12  13
HETATM   13  C8  UNL     1      31.083   6.526 -37.621  1.00  0.00    -0.040 A 
HETATM   14  C9  UNL     1      30.987   7.801 -38.187  1.00  0.00     0.025 A 
HETATM   15  C10 UNL     1      31.898   8.602 -37.548  1.00  0.00     0.091 A 
HETATM   16  N3  UNL     1      32.555   7.895 -36.618  1.00  0.00    -0.364 N 
HETATM   17  C14 UNL     1      32.064   6.643 -36.660  1.00  0.00     0.097 A 
BRANCH  16  18
HETATM   18  C11 UNL     1      33.618   8.375 -35.705  1.00  0.00     0.154 C 
BRANCH  18  19
HETATM   19  C12 UNL     1      33.033   8.983 -34.480  1.00  0.00     0.187 C 
BRANCH  19  20
HETATM   20  O1  UNL     1      32.741   8.027 -33.539  1.00  0.00    -0.394 OA
HETATM   21  C13 UNL     1      33.684   7.045 -33.496  1.00  0.00     0.201 C 
ENDBRANCH  19  20
ENDBRANCH  18  19
ENDBRANCH  16  18
ENDBRANCH  12  13
ENDBRANCH  11  12
ENDBRANCH   9  11
ENDBRANCH   5   9
BRANCH   8  22
HETATM   22  N5  UNL     1      29.706   8.121 -32.864  1.00  0.00    -0.384 N 
ATOM     23  H52 UNL     1      30.378   8.884 -32.788  1.00  0.00     0.157 HD
ATOM     24  H51 UNL     1      29.575   7.465 -32.094  1.00  0.00     0.157 HD
ENDBRANCH   8  22
BRANCH   1  25
HETATM   25  C2  UNL     1      28.102  10.225 -33.553  1.00  0.00     0.006 C 
HETATM   26  C1  UNL     1      28.550  11.377 -33.970  1.00  0.00     0.012 C 
ENDBRANCH   1  25
TORSDOF 9
ENDMDL
MODEL 4
REMARK VINA RESULT: -6.430219971      1.578      2.352
REMARK  9 active torsions:
REMARK  status: ('A' for Active; 'I' for Inactive)
REMARK    1  A    between atoms: C2_2  and  C3_3 
REMARK    2  A    between atoms: C5_7  and  N2_8 
REMARK    3  A    between atoms: N2_8  and  C6_10 
REMARK    4  A    between atoms: C6_10  and  C7_11 
REMARK    5  A    between atoms: C7_11  and  C8_12 
REMARK    6  A    between atoms: N3_15  and  C11_16 
REMARK    7  A    between atoms: C11_16  and  C12_17 
REMARK    8  A    between atoms: C12_17  and  O1_18 
REMARK    9  A    between atoms: C15_23  and  N5_24 
ROOT
HETATM    1  C3  UNL     1      28.050   9.142 -34.453  1.00  0.00     0.023 A 
HETATM    2  C4  UNL     1      29.088   8.294 -34.152  1.00  0.00     0.121 A 
HETATM    3  N1  UNL     1      29.190   7.127 -34.855  1.00  0.00    -0.201 N 
ATOM      4  H1  UNL     1      29.959   6.496 -34.631  1.00  0.00     0.183 HD
HETATM    5  C5  UNL     1      28.340   6.767 -35.818  1.00  0.00     0.679 A 
HETATM    6  N4  UNL     1      27.334   7.599 -36.104  1.00  0.00    -0.176 N 
ATOM      7  H4  UNL     1      26.673   7.342 -36.837  1.00  0.00     0.186 HD
HETATM    8  C15 UNL     1      27.168   8.758 -35.458  1.00  0.00     0.126 A 
ENDROOT
BRANCH   5   9
HETATM    9  N2  UNL     1      28.541   5.641 -36.410  1.00  0.00    -0.226 N 
ATOM     10  H2  UNL     1      28.402   4.754 -35.925  1.00  0.00     0.177 HD
BRANCH   9  11
HETATM   11  C6  UNL     1      28.971   5.684 -37.787  1.00  0.00     0.142 C 
BRANCH  11  12
HETATM   12  C7  UNL     1      30.430   5.313 -37.937  1.00  0.00     0.060 C 
BRANCH  12  13
HETATM   13  C8  UNL     1      31.234   6.523 -37.619  1.00  0.00    -0.040 A 
HETATM   14  C9  UNL     1      31.148   7.756 -38.276  1.00  0.00     0.025 A 
HETATM   15  C10 UNL     1      32.053   8.599 -37.681  1.00  0.00     0.091 A 
HETATM   16  N3  UNL     1      32.694   7.958 -36.694  1.00  0.00    -0.364 N 
HETATM   17  C14 UNL     1      32.202   6.706 -36.655  1.00  0.00     0.097 A 
BRANCH  16  18
HETATM   18  C11 UNL     1      33.746   8.499 -35.801  1.00  0.00     0.154 C 
BRANCH  18  19
HETATM   19  C12 UNL     1      33.145   9.249 -34.666  1.00  0.00     0.187 C 
BRANCH  19  20
HETATM   20  O1  UNL     1      33.615  10.538 -34.618  1.00  0.00    -0.394 OA
HETATM   21  C13 UNL     1      32.807  11.404 -35.289  1.00  0.00     0.201 C 
ENDBRANCH  19  20
ENDBRANCH  18  19
ENDBRANCH  16  18
ENDBRANCH  12  13
ENDBRANCH  11  12
ENDBRANCH   9  11
ENDBRANCH   5   9
BRANCH   8  22
HETATM   22  N5  UNL     1      26.197   9.540 -35.749  1.00  0.00    -0.384 N 
ATOM     23  H52 UNL     1      25.424   9.680 -35.098  1.00  0.00     0.157 HD
ATOM     24  H51 UNL     1      26.213  10.021 -36.648  1.00  0.00     0.157 HD
ENDBRANCH   8  22
BRANCH   1  25
HETATM   25  C2  UNL     1      27.860  10.406 -33.759  1.00  0.00     0.006 C 
HETATM   26  C1  UNL     1      28.792  11.308 -33.618  1.00  0.00     0.012 C 
ENDBRANCH   1  25
TORSDOF 9
ENDMDL
MODEL 5
REMARK VINA RESULT: -6.416196019      1.588      1.971
REMARK  9 active torsions:
REMARK  status: ('A' for Active; 'I' for Inactive)
REMARK    1  A    between atoms: C2_2  and  C3_3 
REMARK    2  A    between atoms: C5_7  and  N2_8 
REMARK    3  A    between atoms: N2_8  and  C6_10 
REMARK    4  A    between atoms: C6_10  and  C7_11 
REMARK    5  A    between atoms: C7_11  and  C8_12 
REMARK    6  A    between atoms: N3_15  and  C11_16 
REMARK    7  A    between atoms: C11_16  and  C12_17 
REMARK    8  A    between atoms: C12_17  and  O1_18 
REMARK    9  A    between atoms: C15_23  and  N5_24 
ROOT
HETATM    1  C3  UNL     1      28.126   8.987 -34.326  1.00  0.00     0.023 A 
HETATM    2  C4  UNL     1      27.400   8.806 -35.478  1.00  0.00     0.121 A 
HETATM    3  N1  UNL     1      27.567   7.640 -36.168  1.00  0.00    -0.201 N 
ATOM      4  H1  UNL     1      27.030   7.505 -37.025  1.00  0.00     0.183 HD
HETATM    5  C5  UNL     1      28.394   6.666 -35.785  1.00  0.00     0.679 A 
HETATM    6  N4  UNL     1      29.096   6.850 -34.663  1.00  0.00    -0.176 N 
ATOM      7  H4  UNL     1      29.734   6.118 -34.352  1.00  0.00     0.186 HD
HETATM    8  C15 UNL     1      28.987   7.967 -33.934  1.00  0.00     0.126 A 
ENDROOT
BRANCH   5   9
HETATM    9  N2  UNL     1      28.466   5.611 -36.520  1.00  0.00    -0.226 N 
ATOM     10  H2  UNL     1      28.091   4.717 -36.204  1.00  0.00     0.177 HD
BRANCH   9  11
HETATM   11  C6  UNL     1      29.098   5.745 -37.811  1.00  0.00     0.142 C 
BRANCH  11  12
HETATM   12  C7  UNL     1      30.568   5.388 -37.761  1.00  0.00     0.060 C 
BRANCH  12  13
HETATM   13  C8  UNL     1      31.327   6.645 -37.529  1.00  0.00    -0.040 A 
HETATM   14  C9  UNL     1      31.209   7.820 -38.280  1.00  0.00     0.025 A 
HETATM   15  C10 UNL     1      32.076   8.737 -37.742  1.00  0.00     0.091 A 
HETATM   16  N3  UNL     1      32.726   8.196 -36.702  1.00  0.00    -0.364 N 
HETATM   17  C14 UNL     1      32.275   6.935 -36.572  1.00  0.00     0.097 A 
BRANCH  16  18
HETATM   18  C11 UNL     1      33.746   8.840 -35.843  1.00  0.00     0.154 C 
BRANCH  18  19
HETATM   19  C12 UNL     1      33.107   9.607 -34.741  1.00  0.00     0.187 C 
BRANCH  19  20
HETATM   20  O1  UNL     1      33.520  10.916 -34.740  1.00  0.00    -0.394 OA
HETATM   21  C13 UNL     1      32.647  11.730 -35.396  1.00  0.00     0.201 C 
ENDBRANCH  19  20
ENDBRANCH  18  19
ENDBRANCH  16  18
ENDBRANCH  12  13
ENDBRANCH  11  12
ENDBRANCH   9  11
ENDBRANCH   5   9
BRANCH   8  22
HETATM   22  N5  UNL     1      29.668   8.123 -32.862  1.00  0.00    -0.384 N 
ATOM     23  H52 UNL     1      29.962   7.319 -32.306  1.00  0.00     0.157 HD
ATOM     24  H51 UNL     1      29.911   9.071 -32.575  1.00  0.00     0.157 HD
ENDBRANCH   8  22
BRANCH   1  25
HETATM   25  C2  UNL     1      28.014  10.196 -33.525  1.00  0.00     0.006 C 
HETATM   26  C1  UNL     1      28.537  11.343 -33.860  1.00  0.00     0.012 C 
ENDBRANCH   1  25
TORSDOF 9
ENDMDL
