MODEL 1
REMARK VINA RESULT: -6.214915067      0.000      0.000
REMARK  7 active torsions:
REMARK  status: ('A' for Active; 'I' for Inactive)
REMARK    1  A    between atoms: C2_2  and  C3_3 
REMARK    2  A    between atoms: C4_4  and  C5_5 
REMARK    3  A    between atoms: C5_5  and  C6_8 
REMARK    4  A    between atoms: C7_9  and  C8_10 
REMARK    5  A    between atoms: C8_10  and  C10_18 
REMARK    6  A    between atoms: N1_11  and  N2_13 
REMARK    7  A    between atoms: C12_22  and  N6_23 
ROOT
HETATM    1  C8  UNL     1      -2.865 -15.724  -9.991  1.00  0.00     0.130 C 
HETATM    2  N1  UNL     1      -1.658 -15.316  -9.825  1.00  0.00    -0.288 N 
ATOM      3  H1  UNL     1      -1.430 -14.817  -8.966  1.00  0.00     0.188 HD
ENDROOT
BRANCH   1   4
HETATM    4  C7  UNL     1      -3.173 -16.423 -11.201  1.00  0.00    -0.042 C 
HETATM    5  C6  UNL     1      -3.423 -17.002 -12.228  1.00  0.00    -0.062 C 
BRANCH   5   6
HETATM    6  C5  UNL     1      -3.711 -17.717 -13.521  1.00  0.00     0.156 C 
HETATM    7 BR1  UNL     1      -5.461 -17.252 -14.089  1.00  0.00    -0.054 Br
HETATM    8 BR2  UNL     1      -2.500 -16.922 -14.877  1.00  0.00    -0.054 Br
BRANCH   6   9
HETATM    9  C4  UNL     1      -3.354 -19.105 -13.300  1.00  0.00     0.015 C 
HETATM   10  C3  UNL     1      -4.089 -20.303 -13.597  1.00  0.00    -0.028 C 
BRANCH  10  11
HETATM   11  C2  UNL     1      -4.554 -20.726 -14.936  1.00  0.00     0.022 C 
HETATM   12  C1  UNL     1      -5.992 -20.948 -15.180  1.00  0.00     0.009 C 
ENDBRANCH  10  11
ENDBRANCH   6   9
ENDBRANCH   5   6
ENDBRANCH   1   4
BRANCH   1  13
HETATM   13  C10 UNL     1      -3.834 -15.451  -8.945  1.00  0.00     0.102 A 
HETATM   14  C11 UNL     1      -5.168 -15.206  -9.190  1.00  0.00     0.139 A 
HETATM   15  N5  UNL     1      -5.811 -14.988  -8.010  1.00  0.00    -0.200 N 
HETATM   16  C12 UNL     1      -4.881 -15.098  -7.053  1.00  0.00     0.676 A 
ATOM     17  H5  UNL     1      -6.802 -14.783  -7.880  1.00  0.00     0.183 HD
HETATM   18  N7  UNL     1      -3.678 -15.380  -7.617  1.00  0.00    -0.188 N 
ATOM     19  H7  UNL     1      -2.802 -15.514  -7.114  1.00  0.00     0.184 HD
BRANCH  16  20
HETATM   20  N6  UNL     1      -5.070 -14.963  -5.784  1.00  0.00    -0.234 N 
ATOM     21  H62 UNL     1      -4.604 -15.527  -5.074  1.00  0.00     0.174 HD
ATOM     22  H61 UNL     1      -5.693 -14.292  -5.333  1.00  0.00     0.174 HD
ENDBRANCH  16  20
ENDBRANCH   1  13
BRANCH   2  23
HETATM   23  N2  UNL     1      -0.643 -15.521 -10.762  1.00  0.00    -0.275 N 
HETATM   24  C9  UNL     1      -0.428 -14.663 -11.693  1.00  0.00     0.215 C 
HETATM   25  N3  UNL     1      -1.171 -13.475 -11.851  1.00  0.00    -0.065 NA
HETATM   26  N4  UNL     1       0.632 -14.951 -12.611  1.00  0.00    -0.065 NA
ATOM     27  H2  UNL     1      -0.067 -16.360 -10.706  1.00  0.00     0.189 HD
ENDBRANCH   2  23
TORSDOF 7
ENDMDL
MODEL 2
REMARK VINA RESULT: -6.145270625      1.122      1.496
REMARK  7 active torsions:
REMARK  status: ('A' for Active; 'I' for Inactive)
REMARK    1  A    between atoms: C2_2  and  C3_3 
REMARK    2  A    between atoms: C4_4  and  C5_5 
REMARK    3  A    between atoms: C5_5  and  C6_8 
REMARK    4  A    between atoms: C7_9  and  C8_10 
REMARK    5  A    between atoms: C8_10  and  C10_18 
REMARK    6  A    between atoms: N1_11  and  N2_13 
REMARK    7  A    between atoms: C12_22  and  N6_23 
ROOT
HETATM    1  C8  UNL     1      -2.882 -15.706  -9.982  1.00  0.00     0.130 C 
HETATM    2  N1  UNL     1      -1.676 -15.295  -9.824  1.00  0.00    -0.288 N 
ATOM      3  H1  UNL     1      -1.443 -14.797  -8.965  1.00  0.00     0.188 HD
ENDROOT
BRANCH   1   4
HETATM    4  C7  UNL     1      -3.196 -16.403 -11.191  1.00  0.00    -0.042 C 
HETATM    5  C6  UNL     1      -3.455 -16.978 -12.218  1.00  0.00    -0.062 C 
BRANCH   5   6
HETATM    6  C5  UNL     1      -3.760 -17.681 -13.515  1.00  0.00     0.156 C 
HETATM    7 BR1  UNL     1      -2.494 -17.124 -14.814  1.00  0.00    -0.054 Br
HETATM    8 BR2  UNL     1      -3.374 -19.603 -13.208  1.00  0.00    -0.054 Br
BRANCH   6   9
HETATM    9  C4  UNL     1      -5.180 -17.498 -13.746  1.00  0.00     0.015 C 
HETATM   10  C3  UNL     1      -5.931 -17.574 -14.969  1.00  0.00    -0.028 C 
BRANCH  10  11
HETATM   11  C2  UNL     1      -6.026 -18.753 -15.857  1.00  0.00     0.022 C 
HETATM   12  C1  UNL     1      -6.522 -20.038 -15.325  1.00  0.00     0.009 C 
ENDBRANCH  10  11
ENDBRANCH   6   9
ENDBRANCH   5   6
ENDBRANCH   1   4
BRANCH   1  13
HETATM   13  C10 UNL     1      -3.845 -15.438  -8.930  1.00  0.00     0.102 A 
HETATM   14  C11 UNL     1      -5.183 -15.199  -9.166  1.00  0.00     0.139 A 
HETATM   15  N5  UNL     1      -5.818 -14.984  -7.981  1.00  0.00    -0.200 N 
HETATM   16  C12 UNL     1      -4.881 -15.089  -7.030  1.00  0.00     0.676 A 
ATOM     17  H5  UNL     1      -6.809 -14.783  -7.844  1.00  0.00     0.183 HD
HETATM   18  N7  UNL     1      -3.681 -15.365  -7.603  1.00  0.00    -0.188 N 
ATOM     19  H7  UNL     1      -2.800 -15.495  -7.105  1.00  0.00     0.184 HD
BRANCH  16  20
HETATM   20  N6  UNL     1      -5.062 -14.955  -5.760  1.00  0.00    -0.234 N 
ATOM     21  H62 UNL     1      -5.963 -15.071  -5.296  1.00  0.00     0.174 HD
ATOM     22  H61 UNL     1      -4.349 -14.720  -5.070  1.00  0.00     0.174 HD
ENDBRANCH  16  20
ENDBRANCH   1  13
BRANCH   2  23
HETATM   23  N2  UNL     1      -0.666 -15.495 -10.767  1.00  0.00    -0.275 N 
HETATM   24  C9  UNL     1      -0.466 -14.640 -11.703  1.00  0.00     0.215 C 
HETATM   25  N3  UNL     1      -1.221 -13.460 -11.862  1.00  0.00    -0.065 NA
HETATM   26  N4  UNL     1       0.590 -14.923 -12.628  1.00  0.00    -0.065 NA
ATOM     27  H2  UNL     1      -0.082 -16.329 -10.711  1.00  0.00     0.189 HD
ENDBRANCH   2  23
TORSDOF 7
ENDMDL
MODEL 3
REMARK VINA RESULT: -6.084530410      1.477      2.456
REMARK  7 active torsions:
REMARK  status: ('A' for Active; 'I' for Inactive)
REMARK    1  A    between atoms: C2_2  and  C3_3 
REMARK    2  A    between atoms: C4_4  and  C5_5 
REMARK    3  A    between atoms: C5_5  and  C6_8 
REMARK    4  A    between atoms: C7_9  and  C8_10 
REMARK    5  A    between atoms: C8_10  and  C10_18 
REMARK    6  A    between atoms: N1_11  and  N2_13 
REMARK    7  A    between atoms: C12_22  and  N6_23 
ROOT
HETATM    1  C8  UNL     1      -2.815 -15.760 -10.224  1.00  0.00     0.130 C 
HETATM    2  N1  UNL     1      -1.660 -15.209 -10.112  1.00  0.00    -0.288 N 
ATOM      3  H1  UNL     1      -1.462 -14.669  -9.270  1.00  0.00     0.188 HD
ENDROOT
BRANCH   1   4
HETATM    4  C7  UNL     1      -3.082 -16.516 -11.409  1.00  0.00    -0.042 C 
HETATM    5  C6  UNL     1      -3.298 -17.142 -12.416  1.00  0.00    -0.062 C 
BRANCH   5   6
HETATM    6  C5  UNL     1      -3.543 -17.916 -13.684  1.00  0.00     0.156 C 
HETATM    7 BR1  UNL     1      -2.144 -17.528 -14.906  1.00  0.00    -0.054 Br
HETATM    8 BR2  UNL     1      -3.309 -19.831 -13.220  1.00  0.00    -0.054 Br
BRANCH   6   9
HETATM    9  C4  UNL     1      -4.925 -17.666 -14.045  1.00  0.00     0.015 C 
HETATM   10  C3  UNL     1      -5.647 -16.425 -14.119  1.00  0.00    -0.028 C 
BRANCH  10  11
HETATM   11  C2  UNL     1      -5.304 -15.272 -14.980  1.00  0.00     0.022 C 
HETATM   12  C1  UNL     1      -4.380 -14.233 -14.486  1.00  0.00     0.009 C 
ENDBRANCH  10  11
ENDBRANCH   6   9
ENDBRANCH   5   6
ENDBRANCH   1   4
BRANCH   1  13
HETATM   13  C10 UNL     1      -3.771 -15.581  -9.146  1.00  0.00     0.102 A 
HETATM   14  C11 UNL     1      -5.136 -15.659  -9.320  1.00  0.00     0.139 A 
HETATM   15  N5  UNL     1      -5.756 -15.447  -8.126  1.00  0.00    -0.200 N 
HETATM   16  C12 UNL     1      -4.781 -15.242  -7.231  1.00  0.00     0.676 A 
ATOM     17  H5  UNL     1      -6.760 -15.446  -7.948  1.00  0.00     0.183 HD
HETATM   18  N7  UNL     1      -3.573 -15.322  -7.847  1.00  0.00    -0.188 N 
ATOM     19  H7  UNL     1      -2.667 -15.205  -7.396  1.00  0.00     0.184 HD
BRANCH  16  20
HETATM   20  N6  UNL     1      -4.936 -15.002  -5.973  1.00  0.00    -0.234 N 
ATOM     21  H62 UNL     1      -4.223 -14.576  -5.381  1.00  0.00     0.174 HD
ATOM     22  H61 UNL     1      -5.769 -15.202  -5.418  1.00  0.00     0.174 HD
ENDBRANCH  16  20
ENDBRANCH   1  13
BRANCH   2  23
HETATM   23  N2  UNL     1      -0.663 -15.312 -11.083  1.00  0.00    -0.275 N 
HETATM   24  C9  UNL     1      -0.524 -14.402 -11.979  1.00  0.00     0.215 C 
HETATM   25  N3  UNL     1      -1.338 -13.254 -12.062  1.00  0.00    -0.065 NA
HETATM   26  N4  UNL     1       0.524 -14.587 -12.937  1.00  0.00    -0.065 NA
ATOM     27  H2  UNL     1      -0.038 -16.119 -11.081  1.00  0.00     0.189 HD
ENDBRANCH   2  23
TORSDOF 7
ENDMDL
MODEL 4
REMARK VINA RESULT: -5.997354502      1.568      2.525
REMARK  7 active torsions:
REMARK  status: ('A' for Active; 'I' for Inactive)
REMARK    1  A    between atoms: C2_2  and  C3_3 
REMARK    2  A    between atoms: C4_4  and  C5_5 
REMARK    3  A    between atoms: C5_5  and  C6_8 
REMARK    4  A    between atoms: C7_9  and  C8_10 
REMARK    5  A    between atoms: C8_10  and  C10_18 
REMARK    6  A    between atoms: N1_11  and  N2_13 
REMARK    7  A    between atoms: C12_22  and  N6_23 
ROOT
HETATM    1  C8  UNL     1      -2.851 -15.591 -10.337  1.00  0.00     0.130 C 
HETATM    2  N1  UNL     1      -1.747 -14.937 -10.288  1.00  0.00    -0.288 N 
ATOM      3  H1  UNL     1      -1.561 -14.363  -9.466  1.00  0.00     0.188 HD
ENDROOT
BRANCH   1   4
HETATM    4  C7  UNL     1      -3.102 -16.393 -11.495  1.00  0.00    -0.042 C 
HETATM    5  C6  UNL     1      -3.305 -17.057 -12.480  1.00  0.00    -0.062 C 
BRANCH   5   6
HETATM    6  C5  UNL     1      -3.539 -17.874 -13.723  1.00  0.00     0.156 C 
HETATM    7 BR1  UNL     1      -3.410 -19.712 -13.268  1.00  0.00    -0.054 Br
HETATM    8 BR2  UNL     1      -5.440 -17.598 -14.220  1.00  0.00    -0.054 Br
BRANCH   6   9
HETATM    9  C4  UNL     1      -2.680 -17.306 -14.744  1.00  0.00     0.015 C 
HETATM   10  C3  UNL     1      -1.291 -16.941 -14.679  1.00  0.00    -0.028 C 
BRANCH  10  11
HETATM   11  C2  UNL     1      -0.169 -17.851 -14.361  1.00  0.00     0.022 C 
HETATM   12  C1  UNL     1       0.395 -17.877 -12.998  1.00  0.00     0.009 C 
ENDBRANCH  10  11
ENDBRANCH   6   9
ENDBRANCH   5   6
ENDBRANCH   1   4
BRANCH   1  13
HETATM   13  C10 UNL     1      -3.771 -15.476  -9.220  1.00  0.00     0.102 A 
HETATM   14  C11 UNL     1      -5.142 -15.530  -9.354  1.00  0.00     0.139 A 
HETATM   15  N5  UNL     1      -5.721 -15.393  -8.129  1.00  0.00    -0.200 N 
HETATM   16  C12 UNL     1      -4.716 -15.256  -7.255  1.00  0.00     0.676 A 
ATOM     17  H5  UNL     1      -6.719 -15.394  -7.919  1.00  0.00     0.183 HD
HETATM   18  N7  UNL     1      -3.529 -15.306  -7.914  1.00  0.00    -0.188 N 
ATOM     19  H7  UNL     1      -2.607 -15.227  -7.485  1.00  0.00     0.184 HD
BRANCH  16  20
HETATM   20  N6  UNL     1      -4.829 -15.099  -5.979  1.00  0.00    -0.234 N 
ATOM     21  H62 UNL     1      -5.664 -15.340  -5.446  1.00  0.00     0.174 HD
ATOM     22  H61 UNL     1      -4.118 -14.724  -5.351  1.00  0.00     0.174 HD
ENDBRANCH  16  20
ENDBRANCH   1  13
BRANCH   2  23
HETATM   23  N2  UNL     1      -0.789 -14.971 -11.303  1.00  0.00    -0.275 N 
HETATM   24  C9  UNL     1      -0.709 -14.019 -12.161  1.00  0.00     0.215 C 
HETATM   25  N3  UNL     1      -1.553 -12.890 -12.159  1.00  0.00    -0.065 NA
HETATM   26  N4  UNL     1       0.302 -14.134 -13.167  1.00  0.00    -0.065 NA
ATOM     27  H2  UNL     1      -0.146 -15.760 -11.362  1.00  0.00     0.189 HD
ENDBRANCH   2  23
TORSDOF 7
ENDMDL
MODEL 5
REMARK VINA RESULT: -5.982762357      1.809      2.680
REMARK  7 active torsions:
REMARK  status: ('A' for Active; 'I' for Inactive)
REMARK    1  A    between atoms: C2_2  and  C3_3 
REMARK    2  A    between atoms: C4_4  and  C5_5 
REMARK    3  A    between atoms: C5_5  and  C6_8 
REMARK    4  A    between atoms: C7_9  and  C8_10 
REMARK    5  A    between atoms: C8_10  and  C10_18 
REMARK    6  A    between atoms: N1_11  and  N2_13 
REMARK    7  A    between atoms: C12_22  and  N6_23 
ROOT
HETATM    1  C8  UNL     1      -2.398 -16.250 -10.921  1.00  0.00     0.130 C 
HETATM    2  N1  UNL     1      -1.164 -15.906 -10.830  1.00  0.00    -0.288 N 
ATOM      3  H1  UNL     1      -0.866 -15.388 -10.004  1.00  0.00     0.188 HD
ENDROOT
BRANCH   1   4
HETATM    4  C7  UNL     1      -2.804 -16.978 -12.084  1.00  0.00    -0.042 C 
HETATM    5  C6  UNL     1      -3.162 -17.584 -13.062  1.00  0.00    -0.062 C 
BRANCH   5   6
HETATM    6  C5  UNL     1      -3.628 -18.323 -14.289  1.00  0.00     0.156 C 
HETATM    7 BR1  UNL     1      -2.449 -17.917 -15.719  1.00  0.00    -0.054 Br
HETATM    8 BR2  UNL     1      -3.344 -20.251 -13.916  1.00  0.00    -0.054 Br
BRANCH   6   9
HETATM    9  C4  UNL     1      -5.047 -18.051 -14.405  1.00  0.00     0.015 C 
HETATM   10  C3  UNL     1      -5.759 -16.807 -14.296  1.00  0.00    -0.028 C 
BRANCH  10  11
HETATM   11  C2  UNL     1      -5.548 -15.611 -15.141  1.00  0.00     0.022 C 
HETATM   12  C1  UNL     1      -4.693 -14.509 -14.657  1.00  0.00     0.009 C 
ENDBRANCH  10  11
ENDBRANCH   6   9
ENDBRANCH   5   6
ENDBRANCH   1   4
BRANCH   1  13
HETATM   13  C10 UNL     1      -3.297 -15.879  -9.844  1.00  0.00     0.102 A 
HETATM   14  C11 UNL     1      -4.653 -15.695 -10.014  1.00  0.00     0.139 A 
HETATM   15  N5  UNL     1      -5.215 -15.356  -8.821  1.00  0.00    -0.200 N 
HETATM   16  C12 UNL     1      -4.216 -15.332  -7.930  1.00  0.00     0.676 A 
ATOM     17  H5  UNL     1      -6.200 -15.160  -8.641  1.00  0.00     0.183 HD
HETATM   18  N7  UNL     1      -3.048 -15.650  -8.548  1.00  0.00    -0.188 N 
ATOM     19  H7  UNL     1      -2.134 -15.704  -8.099  1.00  0.00     0.184 HD
BRANCH  16  20
HETATM   20  N6  UNL     1      -4.317 -15.054  -6.675  1.00  0.00    -0.234 N 
ATOM     21  H62 UNL     1      -3.993 -15.667  -5.927  1.00  0.00     0.174 HD
ATOM     22  H61 UNL     1      -4.723 -14.209  -6.274  1.00  0.00     0.174 HD
ENDBRANCH  16  20
ENDBRANCH   1  13
BRANCH   2  23
HETATM   23  N2  UNL     1      -0.209 -16.207 -11.804  1.00  0.00    -0.275 N 
HETATM   24  C9  UNL     1       1.023 -15.888 -11.633  1.00  0.00     0.215 C 
HETATM   25  N3  UNL     1       1.510 -15.227 -10.487  1.00  0.00    -0.065 NA
HETATM   26  N4  UNL     1       1.935 -16.233 -12.681  1.00  0.00    -0.065 NA
ATOM     27  H2  UNL     1      -0.494 -16.685 -12.658  1.00  0.00     0.189 HD
ENDBRANCH   2  23
TORSDOF 7
ENDMDL
