MODEL 1
REMARK VINA RESULT: -6.116900480      0.000      0.000
REMARK  4 active torsions:
REMARK  status: ('A' for Active; 'I' for Inactive)
REMARK       I    between atoms: C1_2  and  N1_3 
REMARK       I    between atoms: C1_2  and  N5_16 
REMARK    1  A    between atoms: N5_16  and  C6_18 
REMARK    2  A    between atoms: C6_18  and  C7_19 
REMARK    3  A    between atoms: C6_18  and  C8_21 
REMARK    4  A    between atoms: C8_21  and  C9_22 
ROOT
HETATM    1  O1  UNL     1      -6.352 -15.510  -8.783  1.00  0.00    -0.246 OA
HETATM    2  C1  UNL     1      -5.186 -15.019  -8.607  1.00  0.00     0.334 C 
HETATM    3  N1  UNL     1      -4.433 -14.636  -9.747  1.00  0.00    -0.141 N 
ATOM      4  H1  UNL     1      -4.474 -13.676 -10.091  1.00  0.00     0.189 HD
HETATM    5  C2  UNL     1      -3.696 -15.510 -10.345  1.00  0.00     0.684 C 
HETATM    6  N2  UNL     1      -3.668 -16.844  -9.826  1.00  0.00    -0.224 N 
ATOM      7  H2  UNL     1      -4.389 -17.039  -9.130  1.00  0.00     0.177 HD
HETATM    8  C3  UNL     1      -2.805 -17.956 -10.111  1.00  0.00     0.157 C 
HETATM    9  C4  UNL     1      -2.620 -18.204 -11.588  1.00  0.00     0.142 C 
HETATM   10  N3  UNL     1      -1.823 -17.187 -12.223  1.00  0.00    -0.365 N 
ATOM     11  H3  UNL     1      -1.009 -17.534 -12.732  1.00  0.00     0.161 HD
HETATM   12  C5  UNL     1      -1.993 -15.766 -12.252  1.00  0.00     0.186 C 
HETATM   13  S1  UNL     1      -1.029 -14.886 -13.215  1.00  0.00    -0.040 SA
HETATM   14  N4  UNL     1      -2.966 -15.063 -11.481  1.00  0.00    -0.166 N 
ATOM     15  H4  UNL     1      -3.164 -14.109 -11.785  1.00  0.00     0.186 HD
HETATM   16  N5  UNL     1      -4.691 -14.876  -7.280  1.00  0.00    -0.337 N 
ATOM     17  H5  UNL     1      -3.761 -14.485  -7.132  1.00  0.00     0.164 HD
ENDROOT
BRANCH  16  18
HETATM   18  C6  UNL     1      -5.485 -15.277  -6.135  1.00  0.00     0.096 C 
BRANCH  18  19
HETATM   19  C7  UNL     1      -4.554 -15.744  -5.023  1.00  0.00     0.110 C 
HETATM   20 BR1  UNL     1      -3.502 -14.272  -4.398  1.00  0.00    -0.094 Br
ENDBRANCH  18  19
BRANCH  18  21
HETATM   21  C8  UNL     1      -6.258 -14.085  -5.621  1.00  0.00     0.037 C 
BRANCH  21  22
HETATM   22  C9  UNL     1      -7.337 -14.495  -4.664  1.00  0.00     0.087 C 
HETATM   23 BR2  UNL     1      -6.881 -13.961  -2.850  1.00  0.00    -0.096 Br
ENDBRANCH  21  22
ENDBRANCH  18  21
ENDBRANCH  16  18
TORSDOF 4
ENDMDL
MODEL 2
REMARK VINA RESULT: -5.511363469      4.551      6.206
REMARK  4 active torsions:
REMARK  status: ('A' for Active; 'I' for Inactive)
REMARK       I    between atoms: C1_2  and  N1_3 
REMARK       I    between atoms: C1_2  and  N5_16 
REMARK    1  A    between atoms: N5_16  and  C6_18 
REMARK    2  A    between atoms: C6_18  and  C7_19 
REMARK    3  A    between atoms: C6_18  and  C8_21 
REMARK    4  A    between atoms: C8_21  and  C9_22 
ROOT
HETATM    1  O1  UNL     1      -1.693 -13.717 -11.424  1.00  0.00    -0.246 OA
HETATM    2  C1  UNL     1      -2.816 -14.006 -11.957  1.00  0.00     0.334 C 
HETATM    3  N1  UNL     1      -3.006 -13.720 -13.335  1.00  0.00    -0.141 N 
ATOM      4  H1  UNL     1      -2.811 -14.432 -14.038  1.00  0.00     0.189 HD
HETATM    5  C2  UNL     1      -3.427 -12.553 -13.689  1.00  0.00     0.684 C 
HETATM    6  N2  UNL     1      -3.689 -11.586 -12.667  1.00  0.00    -0.224 N 
ATOM      7  H2  UNL     1      -3.337 -11.844 -11.744  1.00  0.00     0.177 HD
HETATM    8  C3  UNL     1      -4.360 -10.317 -12.710  1.00  0.00     0.157 C 
HETATM    9  C4  UNL     1      -3.900  -9.436 -13.846  1.00  0.00     0.142 C 
HETATM   10  N3  UNL     1      -4.338  -9.918 -15.130  1.00  0.00    -0.365 N 
ATOM     11  H3  UNL     1      -4.861  -9.241 -15.687  1.00  0.00     0.161 HD
HETATM   12  C5  UNL     1      -4.155 -11.196 -15.747  1.00  0.00     0.186 C 
HETATM   13  S1  UNL     1      -4.605 -11.386 -17.293  1.00  0.00    -0.040 SA
HETATM   14  N4  UNL     1      -3.597 -12.330 -15.084  1.00  0.00    -0.166 N 
ATOM     15  H4  UNL     1      -3.277 -13.083 -15.693  1.00  0.00     0.186 HD
HETATM   16  N5  UNL     1      -3.829 -14.601 -11.153  1.00  0.00    -0.337 N 
ATOM     17  H5  UNL     1      -4.729 -14.835 -11.573  1.00  0.00     0.164 HD
ENDROOT
BRANCH  16  18
HETATM   18  C6  UNL     1      -3.604 -14.881  -9.748  1.00  0.00     0.096 C 
BRANCH  18  19
HETATM   19  C7  UNL     1      -4.948 -14.935  -9.032  1.00  0.00     0.110 C 
HETATM   20 BR1  UNL     1      -4.670 -15.104  -7.145  1.00  0.00    -0.094 Br
ENDBRANCH  18  19
BRANCH  18  21
HETATM   21  C8  UNL     1      -2.950 -16.235  -9.608  1.00  0.00     0.037 C 
BRANCH  21  22
HETATM   22  C9  UNL     1      -3.785 -17.320 -10.221  1.00  0.00     0.087 C 
HETATM   23 BR2  UNL     1      -2.729 -18.368 -11.475  1.00  0.00    -0.096 Br
ENDBRANCH  21  22
ENDBRANCH  18  21
ENDBRANCH  16  18
TORSDOF 4
ENDMDL
MODEL 3
REMARK VINA RESULT: -5.374630613      3.597      4.662
REMARK  4 active torsions:
REMARK  status: ('A' for Active; 'I' for Inactive)
REMARK       I    between atoms: C1_2  and  N1_3 
REMARK       I    between atoms: C1_2  and  N5_16 
REMARK    1  A    between atoms: N5_16  and  C6_18 
REMARK    2  A    between atoms: C6_18  and  C7_19 
REMARK    3  A    between atoms: C6_18  and  C8_21 
REMARK    4  A    between atoms: C8_21  and  C9_22 
ROOT
HETATM    1  O1  UNL     1      -1.920 -14.053 -11.479  1.00  0.00    -0.246 OA
HETATM    2  C1  UNL     1      -1.342 -14.883 -10.700  1.00  0.00     0.334 C 
HETATM    3  N1  UNL     1       0.057 -15.080 -10.837  1.00  0.00    -0.141 N 
ATOM      4  H1  UNL     1       0.710 -14.534 -10.275  1.00  0.00     0.189 HD
HETATM    5  C2  UNL     1       0.496 -15.954 -11.679  1.00  0.00     0.684 C 
HETATM    6  N2  UNL     1      -0.457 -16.697 -12.446  1.00  0.00    -0.224 N 
ATOM      7  H2  UNL     1      -1.410 -16.335 -12.397  1.00  0.00     0.177 HD
HETATM    8  C3  UNL     1      -0.309 -17.862 -13.272  1.00  0.00     0.157 C 
HETATM    9  C4  UNL     1       0.845 -17.766 -14.240  1.00  0.00     0.142 C 
HETATM   10  N3  UNL     1       2.124 -17.845 -13.583  1.00  0.00    -0.365 N 
ATOM     11  H3  UNL     1       2.744 -18.574 -13.936  1.00  0.00     0.161 HD
HETATM   12  C5  UNL     1       2.660 -17.062 -12.512  1.00  0.00     0.186 C 
HETATM   13  S1  UNL     1       4.217 -17.263 -12.104  1.00  0.00    -0.040 SA
HETATM   14  N4  UNL     1       1.908 -16.103 -11.769  1.00  0.00    -0.166 N 
ATOM     15  H4  UNL     1       2.458 -15.434 -11.229  1.00  0.00     0.186 HD
HETATM   16  N5  UNL     1      -2.120 -15.576  -9.729  1.00  0.00    -0.337 N 
ATOM     17  H5  UNL     1      -1.664 -16.240  -9.104  1.00  0.00     0.164 HD
ENDROOT
BRANCH  16  18
HETATM   18  C6  UNL     1      -3.548 -15.352  -9.614  1.00  0.00     0.096 C 
BRANCH  18  19
HETATM   19  C7  UNL     1      -4.285 -16.478 -10.327  1.00  0.00     0.110 C 
HETATM   20 BR1  UNL     1      -3.179 -18.039 -10.393  1.00  0.00    -0.094 Br
ENDBRANCH  18  19
BRANCH  18  21
HETATM   21  C8  UNL     1      -3.942 -15.391  -8.156  1.00  0.00     0.037 C 
BRANCH  21  22
HETATM   22  C9  UNL     1      -5.393 -15.060  -7.966  1.00  0.00     0.087 C 
HETATM   23 BR2  UNL     1      -5.779 -14.740  -6.086  1.00  0.00    -0.096 Br
ENDBRANCH  21  22
ENDBRANCH  18  21
ENDBRANCH  16  18
TORSDOF 4
ENDMDL
MODEL 4
REMARK VINA RESULT: -5.353054916      4.749      6.447
REMARK  4 active torsions:
REMARK  status: ('A' for Active; 'I' for Inactive)
REMARK       I    between atoms: C1_2  and  N1_3 
REMARK       I    between atoms: C1_2  and  N5_16 
REMARK    1  A    between atoms: N5_16  and  C6_18 
REMARK    2  A    between atoms: C6_18  and  C7_19 
REMARK    3  A    between atoms: C6_18  and  C8_21 
REMARK    4  A    between atoms: C8_21  and  C9_22 
ROOT
HETATM    1  O1  UNL     1      -3.545 -14.553 -12.859  1.00  0.00    -0.246 OA
HETATM    2  C1  UNL     1      -2.872 -13.826 -12.054  1.00  0.00     0.334 C 
HETATM    3  N1  UNL     1      -2.994 -12.415 -12.152  1.00  0.00    -0.141 N 
ATOM      4  H1  UNL     1      -3.676 -11.918 -11.580  1.00  0.00     0.189 HD
HETATM    5  C2  UNL     1      -2.235 -11.767 -12.970  1.00  0.00     0.684 C 
HETATM    6  N2  UNL     1      -1.290 -12.507 -13.751  1.00  0.00    -0.224 N 
ATOM      7  H2  UNL     1      -1.429 -13.517 -13.732  1.00  0.00     0.177 HD
HETATM    8  C3  UNL     1      -0.182 -12.078 -14.557  1.00  0.00     0.157 C 
HETATM    9  C4  UNL     1      -0.529 -10.947 -15.496  1.00  0.00     0.142 C 
HETATM   10  N3  UNL     1      -0.744  -9.703 -14.805  1.00  0.00    -0.365 N 
ATOM     11  H3  UNL     1      -0.171  -8.924 -15.133  1.00  0.00     0.161 HD
HETATM   12  C5  UNL     1      -1.636  -9.386 -13.731  1.00  0.00     0.186 C 
HETATM   13  S1  UNL     1      -1.793  -7.837 -13.280  1.00  0.00    -0.040 SA
HETATM   14  N4  UNL     1      -2.406 -10.356 -13.021  1.00  0.00    -0.166 N 
ATOM     15  H4  UNL     1      -3.186  -9.986 -12.476  1.00  0.00     0.186 HD
HETATM   16  N5  UNL     1      -2.029 -14.455 -11.094  1.00  0.00    -0.337 N 
ATOM     17  H5  UNL     1      -1.489 -13.880 -10.449  1.00  0.00     0.164 HD
ENDROOT
BRANCH  16  18
HETATM   18  C6  UNL     1      -1.926 -15.900 -11.019  1.00  0.00     0.096 C 
BRANCH  18  19
HETATM   19  C7  UNL     1      -0.454 -16.290 -10.970  1.00  0.00     0.110 C 
HETATM   20 BR1  UNL     1       0.454 -15.591 -12.503  1.00  0.00    -0.094 Br
ENDBRANCH  18  19
BRANCH  18  21
HETATM   21  C8  UNL     1      -2.575 -16.380  -9.743  1.00  0.00     0.037 C 
BRANCH  21  22
HETATM   22  C9  UNL     1      -4.062 -16.507  -9.891  1.00  0.00     0.087 C 
HETATM   23 BR2  UNL     1      -4.974 -15.172  -8.810  1.00  0.00    -0.096 Br
ENDBRANCH  21  22
ENDBRANCH  18  21
ENDBRANCH  16  18
TORSDOF 4
ENDMDL
MODEL 5
REMARK VINA RESULT: -5.351940189      4.382      7.145
REMARK  4 active torsions:
REMARK  status: ('A' for Active; 'I' for Inactive)
REMARK       I    between atoms: C1_2  and  N1_3 
REMARK       I    between atoms: C1_2  and  N5_16 
REMARK    1  A    between atoms: N5_16  and  C6_18 
REMARK    2  A    between atoms: C6_18  and  C7_19 
REMARK    3  A    between atoms: C6_18  and  C8_21 
REMARK    4  A    between atoms: C8_21  and  C9_22 
ROOT
HETATM    1  O1  UNL     1      -3.866 -16.791 -10.422  1.00  0.00    -0.246 OA
HETATM    2  C1  UNL     1      -3.274 -15.797  -9.882  1.00  0.00     0.334 C 
HETATM    3  N1  UNL     1      -3.175 -15.755  -8.466  1.00  0.00    -0.141 N 
ATOM      4  H1  UNL     1      -2.353 -16.134  -7.997  1.00  0.00     0.189 HD
HETATM    5  C2  UNL     1      -4.134 -15.232  -7.778  1.00  0.00     0.684 C 
HETATM    6  N2  UNL     1      -5.267 -14.710  -8.480  1.00  0.00    -0.224 N 
ATOM      7  H2  UNL     1      -5.307 -14.968  -9.466  1.00  0.00     0.177 HD
HETATM    8  C3  UNL     1      -6.359 -13.887  -8.040  1.00  0.00     0.157 C 
HETATM    9  C4  UNL     1      -6.995 -14.371  -6.760  1.00  0.00     0.142 C 
HETATM   10  N3  UNL     1      -6.146 -14.175  -5.614  1.00  0.00    -0.365 N 
ATOM     11  H3  UNL     1      -6.569 -13.645  -4.851  1.00  0.00     0.161 HD
HETATM   12  C5  UNL     1      -4.802 -14.607  -5.376  1.00  0.00     0.186 C 
HETATM   13  S1  UNL     1      -4.165 -14.395  -3.900  1.00  0.00    -0.040 SA
HETATM   14  N4  UNL     1      -3.974 -15.220  -6.364  1.00  0.00    -0.166 N 
ATOM     15  H4  UNL     1      -3.157 -15.716  -6.009  1.00  0.00     0.186 HD
HETATM   16  N5  UNL     1      -2.739 -14.775 -10.716  1.00  0.00    -0.337 N 
ATOM     17  H5  UNL     1      -2.265 -13.979 -10.291  1.00  0.00     0.164 HD
ENDROOT
BRANCH  16  18
HETATM   18  C6  UNL     1      -2.856 -14.848 -12.160  1.00  0.00     0.096 C 
BRANCH  18  19
HETATM   19  C7  UNL     1      -2.998 -13.437 -12.718  1.00  0.00     0.110 C 
HETATM   20 BR1  UNL     1      -3.764 -13.508 -14.471  1.00  0.00    -0.094 Br
ENDBRANCH  18  19
BRANCH  18  21
HETATM   21  C8  UNL     1      -1.593 -15.446 -12.733  1.00  0.00     0.037 C 
BRANCH  21  22
HETATM   22  C9  UNL     1      -0.379 -14.657 -12.344  1.00  0.00     0.087 C 
HETATM   23 BR2  UNL     1       0.748 -15.686 -11.138  1.00  0.00    -0.096 Br
ENDBRANCH  21  22
ENDBRANCH  18  21
ENDBRANCH  16  18
TORSDOF 4
ENDMDL
