MODEL 1
REMARK VINA RESULT: -5.545267134      0.000      0.000
REMARK  5 active torsions:
REMARK  status: ('A' for Active; 'I' for Inactive)
REMARK    1  A    between atoms: C2_5  and  N3_6 
REMARK    2  A    between atoms: C5_9  and  N4_10 
REMARK       I    between atoms: N4_10  and  C6_12 
REMARK       I    between atoms: C6_12  and  N5_14 
REMARK    3  A    between atoms: N5_14  and  N6_16 
REMARK       I    between atoms: C7_18  and  N8_20 
REMARK    4  A    between atoms: N8_20  and  N9_22 
REMARK    5  A    between atoms: C8_25  and  N10_26 
ROOT
HETATM    1  N1  UNL     1       1.703  28.978  22.906  1.00  0.00    -0.172 NA
HETATM    2  C1  UNL     1       1.323  28.788  24.001  1.00  0.00     0.182 C 
HETATM    3  N2  UNL     1       0.871  28.554  25.304  1.00  0.00    -0.290 N 
ATOM      4  H2  UNL     1       1.501  28.232  26.039  1.00  0.00     0.178 HD
HETATM    5  C2  UNL     1      -0.391  28.767  25.533  1.00  0.00     0.188 C 
ENDROOT
BRANCH   5   6
HETATM    6  N3  UNL     1      -0.945  28.553  26.842  1.00  0.00    -0.374 N 
HETATM    7  C3  UNL     1      -2.341  28.239  26.988  1.00  0.00     0.125 C 
HETATM    8  C4  UNL     1      -2.571  27.258  28.146  1.00  0.00     0.047 C 
HETATM    9  C5  UNL     1      -1.227  26.623  28.427  1.00  0.00     0.119 C 
HETATM   10  C8  UNL     1      -0.347  27.664  29.035  1.00  0.00     0.224 C 
HETATM   11  C9  UNL     1      -0.019  28.674  27.952  1.00  0.00     0.158 C 
BRANCH   9  12
HETATM   12  N4  UNL     1      -1.342  25.426  29.222  1.00  0.00    -0.335 N 
HETATM   13  C6  UNL     1      -0.791  24.183  28.877  1.00  0.00     0.335 C 
HETATM   14  O1  UNL     1      -0.147  24.067  27.809  1.00  0.00    -0.246 OA
HETATM   15  N5  UNL     1      -0.949  23.068  29.711  1.00  0.00    -0.249 N 
ATOM     16  H5  UNL     1      -1.474  23.163  30.580  1.00  0.00     0.192 HD
ATOM     17  H4  UNL     1      -1.861  25.487  30.098  1.00  0.00     0.164 HD
BRANCH  15  18
HETATM   18  N6  UNL     1      -0.406  21.835  29.375  1.00  0.00    -0.268 N 
HETATM   19  C7  UNL     1      -0.607  20.766  30.082  1.00  0.00     0.221 C 
HETATM   20  N7  UNL     1      -1.413  20.888  31.234  1.00  0.00    -0.061 NA
HETATM   21  N8  UNL     1      -0.053  19.511  29.737  1.00  0.00    -0.279 N 
ATOM     22  H8  UNL     1      -0.614  18.672  29.885  1.00  0.00     0.189 HD
ATOM     23  H6  UNL     1       0.174  21.767  28.539  1.00  0.00     0.190 HD
BRANCH  21  24
HETATM   24  N9  UNL     1       1.242  19.368  29.198  1.00  0.00    -0.343 N 
ATOM     25  H92 UNL     1       1.915  18.813  29.727  1.00  0.00     0.176 HD
ATOM     26  H91 UNL     1       1.523  19.793  28.314  1.00  0.00     0.176 HD
ENDBRANCH  21  24
ENDBRANCH  15  18
ENDBRANCH   9  12
BRANCH  10  27
HETATM   27  N10 UNL     1      -1.066  28.412  30.066  1.00  0.00    -0.071 N 
ATOM     28 3H10 UNL     1      -1.559  27.791  30.708  1.00  0.00     0.274 HD
ATOM     29 2H10 UNL     1      -0.428  28.846  30.732  1.00  0.00     0.274 HD
ATOM     30 1H10 UNL     1      -1.694  29.095  29.643  1.00  0.00     0.274 HD
ENDBRANCH  10  27
ENDBRANCH   5   6
TORSDOF 5
ENDMDL
MODEL 2
REMARK VINA RESULT: -5.263576669      1.991      7.583
REMARK  5 active torsions:
REMARK  status: ('A' for Active; 'I' for Inactive)
REMARK    1  A    between atoms: C2_5  and  N3_6 
REMARK    2  A    between atoms: C5_9  and  N4_10 
REMARK       I    between atoms: N4_10  and  C6_12 
REMARK       I    between atoms: C6_12  and  N5_14 
REMARK    3  A    between atoms: N5_14  and  N6_16 
REMARK       I    between atoms: C7_18  and  N8_20 
REMARK    4  A    between atoms: N8_20  and  N9_22 
REMARK    5  A    between atoms: C8_25  and  N10_26 
ROOT
HETATM    1  N1  UNL     1       3.665  18.862  27.091  1.00  0.00    -0.172 NA
HETATM    2  C1  UNL     1       2.873  19.516  27.661  1.00  0.00     0.182 C 
HETATM    3  N2  UNL     1       1.935  20.300  28.341  1.00  0.00    -0.290 N 
ATOM      4  H2  UNL     1       1.355  20.982  27.853  1.00  0.00     0.178 HD
HETATM    5  C2  UNL     1       1.840  20.117  29.625  1.00  0.00     0.188 C 
ENDROOT
BRANCH   5   6
HETATM    6  N3  UNL     1       0.904  20.878  30.406  1.00  0.00    -0.374 N 
HETATM    7  C3  UNL     1       1.381  21.798  31.404  1.00  0.00     0.125 C 
HETATM    8  C4  UNL     1       0.484  23.040  31.490  1.00  0.00     0.047 C 
HETATM    9  C5  UNL     1      -0.309  23.070  30.201  1.00  0.00     0.119 C 
HETATM   10  C8  UNL     1      -1.287  21.943  30.238  1.00  0.00     0.224 C 
HETATM   11  C9  UNL     1      -0.500  20.653  30.115  1.00  0.00     0.158 C 
BRANCH   9  12
HETATM   12  N4  UNL     1      -0.917  24.355  29.962  1.00  0.00    -0.335 N 
HETATM   13  C6  UNL     1      -0.829  25.067  28.757  1.00  0.00     0.335 C 
HETATM   14  O1  UNL     1      -0.184  24.584  27.798  1.00  0.00    -0.246 OA
HETATM   15  N5  UNL     1      -1.453  26.314  28.609  1.00  0.00    -0.249 N 
ATOM     16  H5  UNL     1      -1.977  26.707  29.390  1.00  0.00     0.192 HD
ATOM     17  H4  UNL     1      -1.449  24.777  30.724  1.00  0.00     0.164 HD
BRANCH  15  18
HETATM   18  N6  UNL     1      -1.370  27.024  27.418  1.00  0.00    -0.268 N 
HETATM   19  C7  UNL     1      -0.673  28.111  27.300  1.00  0.00     0.221 C 
HETATM   20  N7  UNL     1       0.019  28.571  28.440  1.00  0.00    -0.061 NA
HETATM   21  N8  UNL     1      -0.590  28.833  26.085  1.00  0.00    -0.279 N 
ATOM     22  H8  UNL     1       0.302  29.258  25.830  1.00  0.00     0.189 HD
ATOM     23  H6  UNL     1      -1.877  26.676  26.605  1.00  0.00     0.190 HD
BRANCH  21  24
HETATM   24  N9  UNL     1      -1.686  28.989  25.212  1.00  0.00    -0.343 N 
ATOM     25  H92 UNL     1      -2.522  29.443  25.581  1.00  0.00     0.176 HD
ATOM     26  H91 UNL     1      -1.671  28.671  24.243  1.00  0.00     0.176 HD
ENDBRANCH  21  24
ENDBRANCH  15  18
ENDBRANCH   9  12
BRANCH  10  27
HETATM   27  N10 UNL     1      -1.951  21.877  31.539  1.00  0.00    -0.071 N 
ATOM     28 3H10 UNL     1      -2.508  21.027  31.635  1.00  0.00     0.274 HD
ATOM     29 2H10 UNL     1      -1.287  21.711  32.294  1.00  0.00     0.274 HD
ATOM     30 1H10 UNL     1      -2.508  22.715  31.702  1.00  0.00     0.274 HD
ENDBRANCH  10  27
ENDBRANCH   5   6
TORSDOF 5
ENDMDL
MODEL 3
REMARK VINA RESULT: -5.163286021      2.025      2.470
REMARK  5 active torsions:
REMARK  status: ('A' for Active; 'I' for Inactive)
REMARK    1  A    between atoms: C2_5  and  N3_6 
REMARK    2  A    between atoms: C5_9  and  N4_10 
REMARK       I    between atoms: N4_10  and  C6_12 
REMARK       I    between atoms: C6_12  and  N5_14 
REMARK    3  A    between atoms: N5_14  and  N6_16 
REMARK       I    between atoms: C7_18  and  N8_20 
REMARK    4  A    between atoms: N8_20  and  N9_22 
REMARK    5  A    between atoms: C8_25  and  N10_26 
ROOT
HETATM    1  N1  UNL     1       0.426  27.855  23.407  1.00  0.00    -0.172 NA
HETATM    2  C1  UNL     1       0.429  27.856  24.582  1.00  0.00     0.182 C 
HETATM    3  N2  UNL     1       0.440  27.857  25.980  1.00  0.00    -0.290 N 
ATOM      4  H2  UNL     1       0.605  28.711  26.513  1.00  0.00     0.178 HD
HETATM    5  C2  UNL     1       0.229  26.716  26.568  1.00  0.00     0.188 C 
ENDROOT
BRANCH   5   6
HETATM    6  N3  UNL     1       0.222  26.621  28.002  1.00  0.00    -0.374 N 
HETATM    7  C3  UNL     1      -1.003  26.325  28.697  1.00  0.00     0.125 C 
HETATM    8  C4  UNL     1      -0.744  25.452  29.932  1.00  0.00     0.047 C 
HETATM    9  C5  UNL     1       0.625  24.840  29.730  1.00  0.00     0.119 C 
HETATM   10  C8  UNL     1       1.638  25.929  29.867  1.00  0.00     0.224 C 
HETATM   11  C9  UNL     1       1.497  26.837  28.660  1.00  0.00     0.158 C 
BRANCH   9  12
HETATM   12  N4  UNL     1       0.859  23.719  30.605  1.00  0.00    -0.335 N 
HETATM   13  C6  UNL     1       0.772  22.374  30.219  1.00  0.00     0.335 C 
HETATM   14  O1  UNL     1       0.471  22.087  29.037  1.00  0.00    -0.246 OA
HETATM   15  N5  UNL     1       1.017  21.343  31.137  1.00  0.00    -0.249 N 
ATOM     16  H5  UNL     1       1.262  21.577  32.099  1.00  0.00     0.192 HD
ATOM     17  H4  UNL     1       1.105  23.919  31.575  1.00  0.00     0.164 HD
BRANCH  15  18
HETATM   18  N6  UNL     1       0.933  20.009  30.761  1.00  0.00    -0.268 N 
HETATM   19  C7  UNL     1      -0.145  19.305  30.919  1.00  0.00     0.221 C 
HETATM   20  N7  UNL     1      -1.262  19.942  31.499  1.00  0.00    -0.061 NA
HETATM   21  N8  UNL     1      -0.228  17.946  30.534  1.00  0.00    -0.279 N 
ATOM     22  H8  UNL     1      -1.099  17.606  30.127  1.00  0.00     0.189 HD
ATOM     23  H6  UNL     1       1.751  19.566  30.344  1.00  0.00     0.190 HD
BRANCH  21  24
HETATM   24  N9  UNL     1       0.841  17.039  30.690  1.00  0.00    -0.343 N 
ATOM     25  H92 UNL     1       0.661  16.183  31.214  1.00  0.00     0.176 HD
ATOM     26  H91 UNL     1       1.770  17.208  30.304  1.00  0.00     0.176 HD
ENDBRANCH  21  24
ENDBRANCH  15  18
ENDBRANCH   9  12
BRANCH  10  27
HETATM   27  N10 UNL     1       1.342  26.767  31.028  1.00  0.00    -0.071 N 
ATOM     28 3H10 UNL     1       2.191  27.165  31.432  1.00  0.00     0.274 HD
ATOM     29 2H10 UNL     1       0.879  27.635  30.759  1.00  0.00     0.274 HD
ATOM     30 1H10 UNL     1       0.801  26.248  31.719  1.00  0.00     0.274 HD
ENDBRANCH  10  27
ENDBRANCH   5   6
TORSDOF 5
ENDMDL
MODEL 4
REMARK VINA RESULT: -5.143893564      2.007      2.405
REMARK  5 active torsions:
REMARK  status: ('A' for Active; 'I' for Inactive)
REMARK    1  A    between atoms: C2_5  and  N3_6 
REMARK    2  A    between atoms: C5_9  and  N4_10 
REMARK       I    between atoms: N4_10  and  C6_12 
REMARK       I    between atoms: C6_12  and  N5_14 
REMARK    3  A    between atoms: N5_14  and  N6_16 
REMARK       I    between atoms: C7_18  and  N8_20 
REMARK    4  A    between atoms: N8_20  and  N9_22 
REMARK    5  A    between atoms: C8_25  and  N10_26 
ROOT
HETATM    1  N1  UNL     1       0.313  27.822  22.920  1.00  0.00    -0.172 NA
HETATM    2  C1  UNL     1       0.562  27.894  24.065  1.00  0.00     0.182 C 
HETATM    3  N2  UNL     1       0.865  27.976  25.428  1.00  0.00    -0.290 N 
ATOM      4  H2  UNL     1       1.562  28.631  25.783  1.00  0.00     0.178 HD
HETATM    5  C2  UNL     1       0.215  27.176  26.222  1.00  0.00     0.188 C 
ENDROOT
BRANCH   5   6
HETATM    6  N3  UNL     1       0.460  27.189  27.637  1.00  0.00    -0.374 N 
HETATM    7  C3  UNL     1      -0.646  27.198  28.558  1.00  0.00     0.125 C 
HETATM    8  C4  UNL     1      -0.326  26.383  29.818  1.00  0.00     0.047 C 
HETATM    9  C5  UNL     1       0.844  25.495  29.454  1.00  0.00     0.119 C 
HETATM   10  C8  UNL     1       2.048  26.364  29.298  1.00  0.00     0.224 C 
HETATM   11  C9  UNL     1       1.853  27.191  28.042  1.00  0.00     0.158 C 
BRANCH   9  12
HETATM   12  N4  UNL     1       1.027  24.417  30.393  1.00  0.00    -0.335 N 
HETATM   13  C6  UNL     1       0.671  23.082  30.154  1.00  0.00     0.335 C 
HETATM   14  O1  UNL     1       0.155  22.766  29.057  1.00  0.00    -0.246 OA
HETATM   15  N5  UNL     1       0.885  22.094  31.124  1.00  0.00    -0.249 N 
ATOM     16  H5  UNL     1       1.305  22.352  32.018  1.00  0.00     0.192 HD
ATOM     17  H4  UNL     1       1.444  24.642  31.297  1.00  0.00     0.164 HD
BRANCH  15  18
HETATM   18  N6  UNL     1       0.536  20.770  30.894  1.00  0.00    -0.268 N 
HETATM   19  C7  UNL     1       1.390  19.882  30.488  1.00  0.00     0.221 C 
HETATM   20  N7  UNL     1       2.720  20.303  30.280  1.00  0.00    -0.061 NA
HETATM   21  N8  UNL     1       1.031  18.533  30.254  1.00  0.00    -0.279 N 
ATOM     22  H8  UNL     1       1.694  17.800  30.508  1.00  0.00     0.189 HD
ATOM     23  H6  UNL     1      -0.431  20.485  31.049  1.00  0.00     0.190 HD
BRANCH  21  24
HETATM   24  N9  UNL     1      -0.203  18.157  29.685  1.00  0.00    -0.343 N 
ATOM     25  H92 UNL     1      -1.032  18.214  30.277  1.00  0.00     0.176 HD
ATOM     26  H91 UNL     1      -0.293  17.837  28.721  1.00  0.00     0.176 HD
ENDBRANCH  21  24
ENDBRANCH  15  18
ENDBRANCH   9  12
BRANCH  10  27
HETATM   27  N10 UNL     1       2.136  27.328  30.395  1.00  0.00    -0.071 N 
ATOM     28 3H10 UNL     1       1.721  28.225  30.143  1.00  0.00     0.274 HD
ATOM     29 2H10 UNL     1       1.515  27.081  31.165  1.00  0.00     0.274 HD
ATOM     30 1H10 UNL     1       3.102  27.431  30.707  1.00  0.00     0.274 HD
ENDBRANCH  10  27
ENDBRANCH   5   6
TORSDOF 5
ENDMDL
MODEL 5
REMARK VINA RESULT: -4.952395620      1.906      7.159
REMARK  5 active torsions:
REMARK  status: ('A' for Active; 'I' for Inactive)
REMARK    1  A    between atoms: C2_5  and  N3_6 
REMARK    2  A    between atoms: C5_9  and  N4_10 
REMARK       I    between atoms: N4_10  and  C6_12 
REMARK       I    between atoms: C6_12  and  N5_14 
REMARK    3  A    between atoms: N5_14  and  N6_16 
REMARK       I    between atoms: C7_18  and  N8_20 
REMARK    4  A    between atoms: N8_20  and  N9_22 
REMARK    5  A    between atoms: C8_25  and  N10_26 
ROOT
HETATM    1  N1  UNL     1      -0.912  20.431  30.434  1.00  0.00    -0.172 NA
HETATM    2  C1  UNL     1      -0.894  21.589  30.238  1.00  0.00     0.182 C 
HETATM    3  N2  UNL     1      -0.865  22.967  30.003  1.00  0.00    -0.290 N 
ATOM      4  H2  UNL     1      -0.941  23.351  29.061  1.00  0.00     0.178 HD
HETATM    5  C2  UNL     1      -0.735  23.737  31.044  1.00  0.00     0.188 C 
ENDROOT
BRANCH   5   6
HETATM    6  N3  UNL     1      -0.695  25.166  30.899  1.00  0.00    -0.374 N 
HETATM    7  C3  UNL     1       0.540  25.874  31.106  1.00  0.00     0.125 C 
HETATM    8  C4  UNL     1       0.661  27.070  30.152  1.00  0.00     0.047 C 
HETATM    9  C5  UNL     1      -0.331  26.816  29.038  1.00  0.00     0.119 C 
HETATM   10  C8  UNL     1      -1.705  26.973  29.604  1.00  0.00     0.224 C 
HETATM   11  C9  UNL     1      -1.948  25.804  30.540  1.00  0.00     0.158 C 
BRANCH   9  12
HETATM   12  N4  UNL     1      -0.084  27.644  27.884  1.00  0.00    -0.335 N 
HETATM   13  C6  UNL     1       0.151  27.157  26.590  1.00  0.00     0.335 C 
HETATM   14  O1  UNL     1       0.154  25.922  26.384  1.00  0.00    -0.246 OA
HETATM   15  N5  UNL     1       0.383  28.035  25.521  1.00  0.00    -0.249 N 
ATOM     16  H5  UNL     1       0.381  29.041  25.690  1.00  0.00     0.192 HD
ATOM     17  H4  UNL     1      -0.078  28.655  28.019  1.00  0.00     0.164 HD
BRANCH  15  18
HETATM   18  N6  UNL     1       0.615  27.560  24.237  1.00  0.00    -0.268 N 
HETATM   19  C7  UNL     1      -0.086  27.938  23.214  1.00  0.00     0.221 C 
HETATM   20  N7  UNL     1      -1.122  28.869  23.441  1.00  0.00    -0.061 NA
HETATM   21  N8  UNL     1       0.153  27.453  21.907  1.00  0.00    -0.279 N 
ATOM     22  H8  UNL     1       0.058  28.097  21.122  1.00  0.00     0.189 HD
ATOM     23  H6  UNL     1       1.368  26.887  24.094  1.00  0.00     0.190 HD
BRANCH  21  24
HETATM   24  N9  UNL     1       0.519  26.117  21.641  1.00  0.00    -0.343 N 
ATOM     25  H92 UNL     1       0.610  25.486  22.438  1.00  0.00     0.176 HD
ATOM     26  H91 UNL     1       0.690  25.767  20.699  1.00  0.00     0.176 HD
ENDBRANCH  21  24
ENDBRANCH  15  18
ENDBRANCH   9  12
BRANCH  10  27
HETATM   27  N10 UNL     1      -1.787  28.170  30.439  1.00  0.00    -0.071 N 
ATOM     28 3H10 UNL     1      -0.957  28.281  31.022  1.00  0.00     0.274 HD
ATOM     29 2H10 UNL     1      -1.701  29.023  29.886  1.00  0.00     0.274 HD
ATOM     30 1H10 UNL     1      -2.642  28.164  30.994  1.00  0.00     0.274 HD
ENDBRANCH  10  27
ENDBRANCH   5   6
TORSDOF 5
ENDMDL
