MODEL 1
REMARK VINA RESULT: -5.393982536      0.000      0.000
REMARK  4 active torsions:
REMARK  status: ('A' for Active; 'I' for Inactive)
REMARK    1  A    between atoms: C3_3  and  O1_4 
REMARK    2  A    between atoms: C4_6  and  C5_7 
REMARK    3  A    between atoms: C6_12  and  C8_14 
REMARK    4  A    between atoms: C9_17  and  N1_19 
REMARK       I    between atoms: N1_19  and  C11_21 
ROOT
HETATM    1  C1  UNL     1     -32.783 -21.238 -19.552  1.00  0.00     0.100 C 
HETATM    2  C2  UNL     1     -33.177 -21.771 -18.523  1.00  0.00    -0.144 C 
HETATM    3  C3  UNL     1     -33.633 -22.371 -17.284  1.00  0.00     0.176 C 
HETATM    4  C4  UNL     1     -34.445 -23.596 -17.489  1.00  0.00     0.309 C 
HETATM    5  O4  UNL     1     -34.542 -24.360 -16.294  1.00  0.00    -0.219 OA
HETATM    6  O5  UNL     1     -34.357 -23.504 -15.315  1.00  0.00    -0.215 OA
HETATM    7  C6  UNL     1     -32.947 -23.372 -15.189  1.00  0.00     0.208 C 
HETATM    8  C7  UNL     1     -32.447 -24.808 -15.148  1.00  0.00     0.064 C 
HETATM    9  C9  UNL     1     -32.427 -22.611 -16.349  1.00  0.00     0.119 C 
HETATM   10  C10 UNL     1     -31.452 -23.532 -17.116  1.00  0.00     0.047 C 
ENDROOT
BRANCH   3  11
HETATM   11  O1  UNL     1     -34.522 -21.488 -16.622  1.00  0.00    -0.373 OA
ATOM     12  H1  UNL     1     -34.629 -21.758 -15.718  1.00  0.00     0.212 HD
ENDBRANCH   3  11
BRANCH   4  13
HETATM   13  C5  UNL     1     -34.167 -24.445 -18.635  1.00  0.00     0.210 C 
HETATM   14  O2  UNL     1     -33.753 -25.623 -18.468  1.00  0.00    -0.646 OA
HETATM   15  O3  UNL     1     -34.326 -24.052 -19.947  1.00  0.00    -0.646 OA
ENDBRANCH   4  13
BRANCH   9  16
HETATM   16  N1  UNL     1     -31.702 -21.468 -16.002  1.00  0.00    -0.329 N 
HETATM   17  C11 UNL     1     -30.613 -20.766 -16.516  1.00  0.00     0.329 C 
HETATM   18  N2  UNL     1     -30.051 -19.573 -15.933  1.00  0.00    -0.040 NA
HETATM   19  O8  UNL     1     -30.015 -21.109 -17.540  1.00  0.00    -0.251 OA
ATOM     20  H1  UNL     1     -32.064 -21.034 -15.153  1.00  0.00     0.165 HD
ENDBRANCH   9  16
BRANCH   7  21
HETATM   21  C8  UNL     1     -32.721 -22.826 -13.847  1.00  0.00     0.215 C 
HETATM   22  O6  UNL     1     -31.562 -22.737 -13.348  1.00  0.00    -0.646 OA
HETATM   23  O7  UNL     1     -33.753 -22.361 -13.004  1.00  0.00    -0.646 OA
ENDBRANCH   7  21
TORSDOF 4
ENDMDL
MODEL 2
REMARK VINA RESULT: -4.341485588      1.875      4.310
REMARK  4 active torsions:
REMARK  status: ('A' for Active; 'I' for Inactive)
REMARK    1  A    between atoms: C3_3  and  O1_4 
REMARK    2  A    between atoms: C4_6  and  C5_7 
REMARK    3  A    between atoms: C6_12  and  C8_14 
REMARK    4  A    between atoms: C9_17  and  N1_19 
REMARK       I    between atoms: N1_19  and  C11_21 
ROOT
HETATM    1  C1  UNL     1     -30.210 -21.743 -14.943  1.00  0.00     0.100 C 
HETATM    2  C2  UNL     1     -31.015 -22.462 -15.521  1.00  0.00    -0.144 C 
HETATM    3  C3  UNL     1     -31.940 -23.324 -16.231  1.00  0.00     0.176 C 
HETATM    4  C4  UNL     1     -33.212 -23.547 -15.499  1.00  0.00     0.309 C 
HETATM    5  O4  UNL     1     -34.224 -24.053 -16.361  1.00  0.00    -0.219 OA
HETATM    6  O5  UNL     1     -33.583 -24.646 -17.343  1.00  0.00    -0.215 OA
HETATM    7  C6  UNL     1     -33.240 -23.610 -18.253  1.00  0.00     0.208 C 
HETATM    8  C7  UNL     1     -34.542 -22.846 -18.446  1.00  0.00     0.064 C 
HETATM    9  C9  UNL     1     -32.166 -22.780 -17.659  1.00  0.00     0.119 C 
HETATM   10  C10 UNL     1     -32.715 -21.344 -17.500  1.00  0.00     0.047 C 
ENDROOT
BRANCH   3  11
HETATM   11  O1  UNL     1     -31.390 -24.625 -16.349  1.00  0.00    -0.373 OA
ATOM     12  H1  UNL     1     -30.592 -24.590 -16.864  1.00  0.00     0.212 HD
ENDBRANCH   3  11
BRANCH   4  13
HETATM   13  C5  UNL     1     -33.729 -22.494 -14.643  1.00  0.00     0.210 C 
HETATM   14  O2  UNL     1     -34.542 -21.646 -15.099  1.00  0.00    -0.646 OA
HETATM   15  O3  UNL     1     -33.391 -22.338 -13.316  1.00  0.00    -0.646 OA
ENDBRANCH   4  13
BRANCH   9  16
HETATM   16  N1  UNL     1     -31.019 -22.680 -18.450  1.00  0.00    -0.329 N 
HETATM   17  C11 UNL     1     -30.095 -21.687 -18.771  1.00  0.00     0.329 C 
HETATM   18  N2  UNL     1     -28.964 -21.866 -19.648  1.00  0.00    -0.040 NA
HETATM   19  O8  UNL     1     -30.161 -20.538 -18.326  1.00  0.00    -0.251 OA
ATOM     20  H1  UNL     1     -30.800 -23.563 -18.912  1.00  0.00     0.165 HD
ENDBRANCH   9  16
BRANCH   7  21
HETATM   21  C8  UNL     1     -32.970 -24.279 -19.529  1.00  0.00     0.215 C 
HETATM   22  O6  UNL     1     -32.313 -23.717 -20.453  1.00  0.00    -0.646 OA
HETATM   23  O7  UNL     1     -33.409 -25.584 -19.841  1.00  0.00    -0.646 OA
ENDBRANCH   7  21
TORSDOF 4
ENDMDL
MODEL 3
REMARK VINA RESULT: -3.964360214      2.058      4.744
REMARK  4 active torsions:
REMARK  status: ('A' for Active; 'I' for Inactive)
REMARK    1  A    between atoms: C3_3  and  O1_4 
REMARK    2  A    between atoms: C4_6  and  C5_7 
REMARK    3  A    between atoms: C6_12  and  C8_14 
REMARK    4  A    between atoms: C9_17  and  N1_19 
REMARK       I    between atoms: N1_19  and  C11_21 
ROOT
HETATM    1  C1  UNL     1     -34.465 -25.692 -15.185  1.00  0.00     0.100 C 
HETATM    2  C2  UNL     1     -34.043 -24.585 -15.491  1.00  0.00    -0.144 C 
HETATM    3  C3  UNL     1     -33.551 -23.280 -15.890  1.00  0.00     0.176 C 
HETATM    4  C4  UNL     1     -33.306 -22.370 -14.744  1.00  0.00     0.309 C 
HETATM    5  O4  UNL     1     -32.478 -21.276 -15.118  1.00  0.00    -0.219 OA
HETATM    6  O5  UNL     1     -32.645 -21.138 -16.414  1.00  0.00    -0.215 OA
HETATM    7  C6  UNL     1     -31.769 -22.085 -17.012  1.00  0.00     0.208 C 
HETATM    8  C7  UNL     1     -30.439 -21.848 -16.311  1.00  0.00     0.064 C 
HETATM    9  C9  UNL     1     -32.305 -23.448 -16.789  1.00  0.00     0.119 C 
HETATM   10  C10 UNL     1     -31.265 -24.232 -15.957  1.00  0.00     0.047 C 
ENDROOT
BRANCH   3  11
HETATM   11  O1  UNL     1     -34.540 -22.606 -16.648  1.00  0.00    -0.373 OA
ATOM     12  H1  UNL     1     -34.140 -21.901 -17.144  1.00  0.00     0.212 HD
ENDBRANCH   3  11
BRANCH   4  13
HETATM   13  C5  UNL     1     -32.890 -22.932 -13.471  1.00  0.00     0.210 C 
HETATM   14  O2  UNL     1     -33.750 -23.255 -12.607  1.00  0.00    -0.646 OA
HETATM   15  O3  UNL     1     -31.577 -23.154 -13.113  1.00  0.00    -0.646 OA
ENDBRANCH   4  13
BRANCH   9  16
HETATM   16  N1  UNL     1     -32.508 -24.180 -17.962  1.00  0.00    -0.329 N 
HETATM   17  C11 UNL     1     -33.494 -24.264 -18.943  1.00  0.00     0.329 C 
HETATM   18  N2  UNL     1     -33.445 -25.140 -20.088  1.00  0.00    -0.040 NA
HETATM   19  O8  UNL     1     -34.524 -23.583 -18.923  1.00  0.00    -0.251 OA
ATOM     20  H1  UNL     1     -31.734 -24.817 -18.148  1.00  0.00     0.165 HD
ENDBRANCH   9  16
BRANCH   7  21
HETATM   21  C8  UNL     1     -31.584 -21.633 -18.394  1.00  0.00     0.215 C 
HETATM   22  O6  UNL     1     -30.458 -21.680 -18.968  1.00  0.00    -0.646 OA
HETATM   23  O7  UNL     1     -32.623 -21.111 -19.196  1.00  0.00    -0.646 OA
ENDBRANCH   7  21
TORSDOF 4
ENDMDL
MODEL 4
REMARK VINA RESULT: -3.928293251      2.291      5.098
REMARK  4 active torsions:
REMARK  status: ('A' for Active; 'I' for Inactive)
REMARK    1  A    between atoms: C3_3  and  O1_4 
REMARK    2  A    between atoms: C4_6  and  C5_7 
REMARK    3  A    between atoms: C6_12  and  C8_14 
REMARK    4  A    between atoms: C9_17  and  N1_19 
REMARK       I    between atoms: N1_19  and  C11_21 
ROOT
HETATM    1  C1  UNL     1     -32.189 -22.493 -14.131  1.00  0.00     0.100 C 
HETATM    2  C2  UNL     1     -32.415 -22.306 -15.319  1.00  0.00    -0.144 C 
HETATM    3  C3  UNL     1     -32.714 -22.107 -16.724  1.00  0.00     0.176 C 
HETATM    4  C4  UNL     1     -31.882 -21.054 -17.357  1.00  0.00     0.309 C 
HETATM    5  O4  UNL     1     -31.916 -21.149 -18.776  1.00  0.00    -0.219 OA
HETATM    6  O5  UNL     1     -33.046 -21.756 -19.058  1.00  0.00    -0.215 OA
HETATM    7  C6  UNL     1     -32.779 -23.144 -18.910  1.00  0.00     0.208 C 
HETATM    8  C7  UNL     1     -31.496 -23.356 -19.701  1.00  0.00     0.064 C 
HETATM    9  C9  UNL     1     -32.628 -23.457 -17.470  1.00  0.00     0.119 C 
HETATM   10  C10 UNL     1     -31.194 -23.990 -17.252  1.00  0.00     0.047 C 
ENDROOT
BRANCH   3  11
HETATM   11  O1  UNL     1     -34.037 -21.619 -16.867  1.00  0.00    -0.373 OA
ATOM     12  H1  UNL     1     -34.585 -21.969 -16.174  1.00  0.00     0.212 HD
ENDBRANCH   3  11
BRANCH   4  13
HETATM   13  C5  UNL     1     -30.528 -20.839 -16.877  1.00  0.00     0.210 C 
HETATM   14  O2  UNL     1     -29.554 -20.892 -17.675  1.00  0.00    -0.646 OA
HETATM   15  O3  UNL     1     -30.205 -20.569 -15.564  1.00  0.00    -0.646 OA
ENDBRANCH   4  13
BRANCH   9  16
HETATM   16  N1  UNL     1     -33.495 -24.451 -17.009  1.00  0.00    -0.329 N 
HETATM   17  C11 UNL     1     -33.467 -25.442 -16.029  1.00  0.00     0.329 C 
HETATM   18  N2  UNL     1     -34.542 -26.366 -15.760  1.00  0.00    -0.040 NA
HETATM   19  O8  UNL     1     -32.500 -25.626 -15.286  1.00  0.00    -0.251 OA
ATOM     20  H1  UNL     1     -34.376 -24.452 -17.522  1.00  0.00     0.165 HD
ENDBRANCH   9  16
BRANCH   7  21
HETATM   21  C8  UNL     1     -33.835 -23.832 -19.660  1.00  0.00     0.215 C 
HETATM   22  O6  UNL     1     -34.542 -23.232 -20.520  1.00  0.00    -0.646 OA
HETATM   23  O7  UNL     1     -34.155 -25.196 -19.494  1.00  0.00    -0.646 OA
ENDBRANCH   7  21
TORSDOF 4
ENDMDL
MODEL 5
REMARK VINA RESULT: -3.783164117      2.162      4.336
REMARK  4 active torsions:
REMARK  status: ('A' for Active; 'I' for Inactive)
REMARK    1  A    between atoms: C3_3  and  O1_4 
REMARK    2  A    between atoms: C4_6  and  C5_7 
REMARK    3  A    between atoms: C6_12  and  C8_14 
REMARK    4  A    between atoms: C9_17  and  N1_19 
REMARK       I    between atoms: N1_19  and  C11_21 
ROOT
HETATM    1  C1  UNL     1     -30.607 -21.902 -19.187  1.00  0.00     0.100 C 
HETATM    2  C2  UNL     1     -30.936 -22.358 -18.100  1.00  0.00    -0.144 C 
HETATM    3  C3  UNL     1     -31.339 -22.930 -16.830  1.00  0.00     0.176 C 
HETATM    4  C4  UNL     1     -30.790 -22.203 -15.658  1.00  0.00     0.309 C 
HETATM    5  O4  UNL     1     -31.495 -22.530 -14.467  1.00  0.00    -0.219 OA
HETATM    6  O5  UNL     1     -32.013 -23.718 -14.683  1.00  0.00    -0.215 OA
HETATM    7  C6  UNL     1     -33.216 -23.483 -15.404  1.00  0.00     0.208 C 
HETATM    8  C7  UNL     1     -33.918 -22.398 -14.599  1.00  0.00     0.064 C 
HETATM    9  C9  UNL     1     -32.878 -23.054 -16.781  1.00  0.00     0.119 C 
HETATM   10  C10 UNL     1     -33.441 -21.628 -16.980  1.00  0.00     0.047 C 
ENDROOT
BRANCH   3  11
HETATM   11  O1  UNL     1     -30.799 -24.234 -16.698  1.00  0.00    -0.373 OA
ATOM     12  H1  UNL     1     -31.141 -24.645 -15.913  1.00  0.00     0.212 HD
ENDBRANCH   3  11
BRANCH   4  13
HETATM   13  C5  UNL     1     -30.562 -20.772 -15.758  1.00  0.00     0.210 C 
HETATM   14  O2  UNL     1     -31.387 -19.960 -15.258  1.00  0.00    -0.646 OA
HETATM   15  O3  UNL     1     -29.472 -20.202 -16.380  1.00  0.00    -0.646 OA
ENDBRANCH   4  13
BRANCH   9  16
HETATM   16  N1  UNL     1     -33.447 -23.848 -17.781  1.00  0.00    -0.329 N 
HETATM   17  C11 UNL     1     -33.993 -23.642 -19.047  1.00  0.00     0.329 C 
HETATM   18  N2  UNL     1     -34.528 -24.681 -19.892  1.00  0.00    -0.040 NA
HETATM   19  O8  UNL     1     -34.073 -22.528 -19.572  1.00  0.00    -0.251 OA
ATOM     20  H1  UNL     1     -33.467 -24.832 -17.516  1.00  0.00     0.165 HD
ENDBRANCH   9  16
BRANCH   7  21
HETATM   21  C8  UNL     1     -34.021 -24.697 -15.236  1.00  0.00     0.215 C 
HETATM   22  O6  UNL     1     -34.542 -25.005 -14.125  1.00  0.00    -0.646 OA
HETATM   23  O7  UNL     1     -34.281 -25.617 -16.274  1.00  0.00    -0.646 OA
ENDBRANCH   7  21
TORSDOF 4
ENDMDL
