MODEL 1
REMARK VINA RESULT: -4.989806896      0.000      0.000
REMARK  0 active torsions:
REMARK  status: ('A' for Active; 'I' for Inactive)
ROOT
HETATM    1  C1  UNL     1       1.962   9.875   2.204  1.00  0.00     0.005 C 
HETATM    2  C2  UNL     1       3.219  10.185   1.365  1.00  0.00     0.005 C 
HETATM    3  C3  UNL     1       3.297   8.907   0.581  1.00  0.00    -0.014 C 
HETATM    4  C4  UNL     1       1.840   8.775   0.107  1.00  0.00     0.009 C 
HETATM    5  C5  UNL     1       1.582   8.567   1.582  1.00  0.00    -0.014 C 
HETATM    6  C6  UNL     1       2.944   7.856   1.592  1.00  0.00     0.009 C 
ENDROOT
TORSDOF 0
ENDMDL
MODEL 2
REMARK VINA RESULT: -4.988965055      0.021      1.889
REMARK  0 active torsions:
REMARK  status: ('A' for Active; 'I' for Inactive)
ROOT
HETATM    1  C1  UNL     1       3.224  10.178   1.363  1.00  0.00     0.005 C 
HETATM    2  C2  UNL     1       1.955   9.889   2.192  1.00  0.00     0.005 C 
HETATM    3  C3  UNL     1       1.574   8.572   1.581  1.00  0.00    -0.014 C 
HETATM    4  C4  UNL     1       2.925   7.840   1.616  1.00  0.00     0.009 C 
HETATM    5  C5  UNL     1       3.303   8.893   0.599  1.00  0.00    -0.014 C 
HETATM    6  C6  UNL     1       1.848   8.772   0.120  1.00  0.00     0.009 C 
ENDROOT
TORSDOF 0
ENDMDL
MODEL 3
REMARK VINA RESULT: -4.902535311      0.616      1.222
REMARK  0 active torsions:
REMARK  status: ('A' for Active; 'I' for Inactive)
ROOT
HETATM    1  C1  UNL     1       1.733   8.542   2.335  1.00  0.00     0.005 C 
HETATM    2  C2  UNL     1       1.859  10.057   2.071  1.00  0.00     0.005 C 
HETATM    3  C3  UNL     1       2.688  10.006   0.821  1.00  0.00    -0.014 C 
HETATM    4  C4  UNL     1       1.915   8.955   0.009  1.00  0.00     0.009 C 
HETATM    5  C5  UNL     1       2.406   8.031   1.100  1.00  0.00    -0.014 C 
HETATM    6  C6  UNL     1       3.670   8.906   1.098  1.00  0.00     0.009 C 
ENDROOT
TORSDOF 0
ENDMDL
MODEL 4
REMARK VINA RESULT: -4.776860433      0.702      1.907
REMARK  0 active torsions:
REMARK  status: ('A' for Active; 'I' for Inactive)
ROOT
HETATM    1  C1  UNL     1       4.074   9.004   0.755  1.00  0.00     0.005 C 
HETATM    2  C2  UNL     1       3.268  10.188   1.326  1.00  0.00     0.005 C 
HETATM    3  C3  UNL     1       1.915   9.539   1.387  1.00  0.00    -0.014 C 
HETATM    4  C4  UNL     1       2.269   8.208   2.069  1.00  0.00     0.009 C 
HETATM    5  C5  UNL     1       3.001   7.960   0.770  1.00  0.00    -0.014 C 
HETATM    6  C6  UNL     1       1.852   8.743   0.118  1.00  0.00     0.009 C 
ENDROOT
TORSDOF 0
ENDMDL
MODEL 5
REMARK VINA RESULT: -4.763418430      0.689      1.158
REMARK  0 active torsions:
REMARK  status: ('A' for Active; 'I' for Inactive)
ROOT
HETATM    1  C1  UNL     1       3.272  10.198   1.360  1.00  0.00     0.005 C 
HETATM    2  C2  UNL     1       4.073   9.000   0.811  1.00  0.00     0.005 C 
HETATM    3  C3  UNL     1       2.973   7.978   0.786  1.00  0.00    -0.014 C 
HETATM    4  C4  UNL     1       1.856   8.778   0.097  1.00  0.00     0.009 C 
HETATM    5  C5  UNL     1       1.907   9.583   1.375  1.00  0.00    -0.014 C 
HETATM    6  C6  UNL     1       2.222   8.242   2.057  1.00  0.00     0.009 C 
ENDROOT
TORSDOF 0
ENDMDL
