MODEL 1
REMARK VINA RESULT: -4.523288602      0.000      0.000
REMARK  3 active torsions:
REMARK  status: ('A' for Active; 'I' for Inactive)
REMARK    1  A    between atoms: C2_2  and  N1_5 
REMARK    2  A    between atoms: N1_5  and  C5_6 
REMARK    3  A    between atoms: N1_5  and  C9_10 
ROOT
HETATM    1  N1  UNL     1      12.199  13.166  39.947  1.00  0.00    -0.395 N 
ENDROOT
BRANCH   1   2
HETATM    2  C2  UNL     1      12.604  14.454  39.619  1.00  0.00     0.018 C 
HETATM    3  C1  UNL     1      12.046  15.536  40.556  1.00  0.00     0.037 C 
HETATM    4  C3  UNL     1      14.114  14.616  39.675  1.00  0.00     0.037 C 
HETATM    5  C4  UNL     1      12.255  14.935  38.225  1.00  0.00     0.037 C 
ENDBRANCH   1   2
BRANCH   1   6
HETATM    6  C5  UNL     1      12.608  12.748  41.246  1.00  0.00     0.080 C 
HETATM    7  C6  UNL     1      13.346  11.509  41.512  1.00  0.00     0.025 C 
HETATM    8  C7  UNL     1      12.645  11.501  42.896  1.00  0.00     0.004 C 
HETATM    9  C8  UNL     1      11.492  12.119  42.107  1.00  0.00     0.025 C 
ENDBRANCH   1   6
BRANCH   1  10
HETATM   10  C9  UNL     1      10.999  12.594  39.620  1.00  0.00     0.107 C 
HETATM   11  C10 UNL     1       9.764  13.401  39.381  1.00  0.00     0.054 C 
HETATM   12  C11 UNL     1       8.772  12.255  39.214  1.00  0.00     0.234 C 
HETATM   13  N2  UNL     1       9.541  11.128  38.701  1.00  0.00    -0.073 N 
HETATM   14  C12 UNL     1      10.885  11.689  38.416  1.00  0.00     0.257 C 
ATOM     15  H22 UNL     1       9.552  10.317  39.319  1.00  0.00     0.277 HD
ATOM     16  H21 UNL     1       9.108  10.660  37.905  1.00  0.00     0.277 HD
ENDBRANCH   1  10
TORSDOF 3
ENDMDL
MODEL 2
REMARK VINA RESULT: -4.359613191      5.729      8.164
REMARK  3 active torsions:
REMARK  status: ('A' for Active; 'I' for Inactive)
REMARK    1  A    between atoms: C2_2  and  N1_5 
REMARK    2  A    between atoms: N1_5  and  C5_6 
REMARK    3  A    between atoms: N1_5  and  C9_10 
ROOT
HETATM    1  N1  UNL     1      10.707  11.709  47.137  1.00  0.00    -0.395 N 
ENDROOT
BRANCH   1   2
HETATM    2  C2  UNL     1      10.048  12.614  47.959  1.00  0.00     0.018 C 
HETATM    3  C1  UNL     1      10.990  13.511  48.777  1.00  0.00     0.037 C 
HETATM    4  C3  UNL     1       9.165  13.571  47.174  1.00  0.00     0.037 C 
HETATM    5  C4  UNL     1       9.096  12.024  48.981  1.00  0.00     0.037 C 
ENDBRANCH   1   2
BRANCH   1   6
HETATM    6  C5  UNL     1      11.669  12.312  46.275  1.00  0.00     0.080 C 
HETATM    7  C6  UNL     1      11.324  13.055  45.059  1.00  0.00     0.025 C 
HETATM    8  C7  UNL     1      12.692  12.585  44.498  1.00  0.00     0.004 C 
HETATM    9  C8  UNL     1      12.388  11.334  45.322  1.00  0.00     0.025 C 
ENDBRANCH   1   6
BRANCH   1  10
HETATM   10  C9  UNL     1      11.110  10.449  47.489  1.00  0.00     0.107 C 
HETATM   11  C10 UNL     1      11.146   9.986  48.911  1.00  0.00     0.054 C 
HETATM   12  C11 UNL     1      11.788   8.621  48.688  1.00  0.00     0.234 C 
HETATM   13  N2  UNL     1      11.409   8.211  47.343  1.00  0.00    -0.073 N 
HETATM   14  C12 UNL     1      10.430   9.235  46.899  1.00  0.00     0.257 C 
ATOM     15  H22 UNL     1      12.198   8.088  46.708  1.00  0.00     0.277 HD
ATOM     16  H21 UNL     1      11.063   7.253  47.283  1.00  0.00     0.277 HD
ENDBRANCH   1  10
TORSDOF 3
ENDMDL
MODEL 3
REMARK VINA RESULT: -4.194873996      2.300      4.181
REMARK  3 active torsions:
REMARK  status: ('A' for Active; 'I' for Inactive)
REMARK    1  A    between atoms: C2_2  and  N1_5 
REMARK    2  A    between atoms: N1_5  and  C5_6 
REMARK    3  A    between atoms: N1_5  and  C9_10 
ROOT
HETATM    1  N1  UNL     1      13.379  15.181  40.157  1.00  0.00    -0.395 N 
ENDROOT
BRANCH   1   2
HETATM    2  C2  UNL     1      12.918  16.465  40.420  1.00  0.00     0.018 C 
HETATM    3  C1  UNL     1      12.066  17.062  39.289  1.00  0.00     0.037 C 
HETATM    4  C3  UNL     1      12.036  16.520  41.657  1.00  0.00     0.037 C 
HETATM    5  C4  UNL     1      13.975  17.515  40.701  1.00  0.00     0.037 C 
ENDBRANCH   1   2
BRANCH   1   6
HETATM    6  C5  UNL     1      12.414  14.162  40.405  1.00  0.00     0.080 C 
HETATM    7  C6  UNL     1      12.743  12.838  40.941  1.00  0.00     0.025 C 
HETATM    8  C7  UNL     1      11.519  12.316  40.143  1.00  0.00     0.004 C 
HETATM    9  C8  UNL     1      11.942  13.398  39.150  1.00  0.00     0.025 C 
ENDBRANCH   1   6
BRANCH   1  10
HETATM   10  C9  UNL     1      14.198  14.818  39.122  1.00  0.00     0.107 C 
HETATM   11  C10 UNL     1      14.348  15.649  37.888  1.00  0.00     0.054 C 
HETATM   12  C11 UNL     1      15.229  14.700  37.082  1.00  0.00     0.234 C 
HETATM   13  N2  UNL     1      15.982  13.922  38.057  1.00  0.00    -0.073 N 
HETATM   14  C12 UNL     1      15.665  14.549  39.365  1.00  0.00     0.257 C 
ATOM     15  H22 UNL     1      15.796  12.920  38.021  1.00  0.00     0.277 HD
ATOM     16  H21 UNL     1      16.980  13.861  37.857  1.00  0.00     0.277 HD
ENDBRANCH   1  10
TORSDOF 3
ENDMDL
MODEL 4
REMARK VINA RESULT: -4.165860956      4.731      6.604
REMARK  3 active torsions:
REMARK  status: ('A' for Active; 'I' for Inactive)
REMARK    1  A    between atoms: C2_2  and  N1_5 
REMARK    2  A    between atoms: N1_5  and  C5_6 
REMARK    3  A    between atoms: N1_5  and  C9_10 
ROOT
HETATM    1  N1  UNL     1      10.645  13.559  45.292  1.00  0.00    -0.395 N 
ENDROOT
BRANCH   1   2
HETATM    2  C2  UNL     1      10.316  14.906  45.193  1.00  0.00     0.018 C 
HETATM    3  C1  UNL     1      11.509  15.812  44.855  1.00  0.00     0.037 C 
HETATM    4  C3  UNL     1       9.291  15.171  44.103  1.00  0.00     0.037 C 
HETATM    5  C4  UNL     1       9.688  15.537  46.421  1.00  0.00     0.037 C 
ENDBRANCH   1   2
BRANCH   1   6
HETATM    6  C5  UNL     1      11.658  13.147  44.380  1.00  0.00     0.080 C 
HETATM    7  C6  UNL     1      11.385  12.567  43.062  1.00  0.00     0.025 C 
HETATM    8  C7  UNL     1      12.718  11.791  43.233  1.00  0.00     0.004 C 
HETATM    9  C8  UNL     1      12.309  11.786  44.705  1.00  0.00     0.025 C 
ENDBRANCH   1   6
BRANCH   1  10
HETATM   10  C9  UNL     1      10.726  12.835  46.452  1.00  0.00     0.107 C 
HETATM   11  C10 UNL     1      11.563  13.271  47.612  1.00  0.00     0.054 C 
HETATM   12  C11 UNL     1      11.375  12.045  48.499  1.00  0.00     0.234 C 
HETATM   13  N2  UNL     1      10.075  11.489  48.149  1.00  0.00    -0.073 N 
HETATM   14  C12 UNL     1       9.476  12.484  47.224  1.00  0.00     0.257 C 
ATOM     15  H22 UNL     1      10.116  10.543  47.770  1.00  0.00     0.277 HD
ATOM     16  H21 UNL     1       9.489  11.264  48.953  1.00  0.00     0.277 HD
ENDBRANCH   1  10
TORSDOF 3
ENDMDL
MODEL 5
REMARK VINA RESULT: -4.154943446      2.527      3.632
REMARK  3 active torsions:
REMARK  status: ('A' for Active; 'I' for Inactive)
REMARK    1  A    between atoms: C2_2  and  N1_5 
REMARK    2  A    between atoms: N1_5  and  C5_6 
REMARK    3  A    between atoms: N1_5  and  C9_10 
ROOT
HETATM    1  N1  UNL     1      11.420  13.919  43.242  1.00  0.00    -0.395 N 
ENDROOT
BRANCH   1   2
HETATM    2  C2  UNL     1      10.673  15.064  43.487  1.00  0.00     0.018 C 
HETATM    3  C1  UNL     1       9.374  14.803  44.264  1.00  0.00     0.037 C 
HETATM    4  C3  UNL     1      11.436  16.085  44.317  1.00  0.00     0.037 C 
HETATM    5  C4  UNL     1      10.242  15.859  42.270  1.00  0.00     0.037 C 
ENDBRANCH   1   2
BRANCH   1   6
HETATM    6  C5  UNL     1      11.453  13.009  44.339  1.00  0.00     0.080 C 
HETATM    7  C6  UNL     1      12.487  13.019  45.378  1.00  0.00     0.025 C 
HETATM    8  C7  UNL     1      12.244  11.491  45.500  1.00  0.00     0.004 C 
HETATM    9  C8  UNL     1      11.987  11.602  43.998  1.00  0.00     0.025 C 
ENDBRANCH   1   6
BRANCH   1  10
HETATM   10  C9  UNL     1      11.478  13.235  42.057  1.00  0.00     0.107 C 
HETATM   11  C10 UNL     1      10.257  12.916  41.255  1.00  0.00     0.054 C 
HETATM   12  C11 UNL     1      10.912  12.059  40.177  1.00  0.00     0.234 C 
HETATM   13  N2  UNL     1      12.285  12.532  40.064  1.00  0.00    -0.073 N 
HETATM   14  C12 UNL     1      12.339  13.742  40.923  1.00  0.00     0.257 C 
ATOM     15  H22 UNL     1      12.987  11.829  40.294  1.00  0.00     0.277 HD
ATOM     16  H21 UNL     1      12.591  12.691  39.104  1.00  0.00     0.277 HD
ENDBRANCH   1  10
TORSDOF 3
ENDMDL
