MODEL 1
REMARK VINA RESULT: -6.626018139      0.000      0.000
REMARK  8 active torsions:
REMARK  status: ('A' for Active; 'I' for Inactive)
REMARK    1  A    between atoms: C2_2  and  C3_3 
REMARK    2  A    between atoms: C3_3  and  O1_4 
REMARK    3  A    between atoms: O1_4  and  C4_5 
REMARK    4  A    between atoms: C6_9  and  N2_10 
REMARK    5  A    between atoms: N2_10  and  C7_12 
REMARK    6  A    between atoms: C13_22  and  N4_23 
REMARK    7  A    between atoms: N4_23  and  C14_25 
REMARK    8  A    between atoms: C15_26  and  C16_27 
ROOT
HETATM    1  C4  UNL     1       3.238  18.280  -0.939  1.00  0.00     0.129 A 
HETATM    2  C5  UNL     1       4.270  18.347  -0.041  1.00  0.00     0.146 A 
HETATM    3  N1  UNL     1       4.242  19.155   1.043  1.00  0.00    -0.199 N 
ATOM      4  H1  UNL     1       5.035  19.170   1.685  1.00  0.00     0.183 HD
HETATM    5  C6  UNL     1       3.178  19.936   1.280  1.00  0.00     0.684 A 
HETATM    6  N3  UNL     1       2.162  19.877   0.406  1.00  0.00    -0.174 N 
ATOM      7  H3  UNL     1       1.352  20.471   0.585  1.00  0.00     0.186 HD
HETATM    8  C13 UNL     1       2.129  19.105  -0.678  1.00  0.00     0.156 A 
ENDROOT
BRANCH   8   9
HETATM    9  N4  UNL     1       1.119  19.094  -1.477  1.00  0.00    -0.346 N 
ATOM     10  H4  UNL     1       0.767  18.172  -1.733  1.00  0.00     0.167 HD
BRANCH   9  11
HETATM   11  C14 UNL     1       0.433  20.198  -2.049  1.00  0.00     0.001 C 
HETATM   12  C15 UNL     1      -0.559  20.903  -1.257  1.00  0.00     0.039 C 
HETATM   13  C20 UNL     1      -1.457  21.738  -2.179  1.00  0.00     0.011 C 
HETATM   14  C21 UNL     1      -0.535  22.308  -3.253  1.00  0.00     0.002 C 
HETATM   15  C22 UNL     1      -0.346  21.163  -4.235  1.00  0.00     0.015 C 
HETATM   16  C23 UNL     1       0.055  19.921  -3.519  1.00  0.00    -0.009 C 
HETATM   17  C24 UNL     1      -0.853  18.785  -3.739  1.00  0.00     0.021 C 
HETATM   18  C25 UNL     1       1.394  19.491  -4.165  1.00  0.00     0.021 C 
BRANCH  12  19
HETATM   19  C16 UNL     1      -1.430  20.291  -0.259  1.00  0.00    -0.043 C 
HETATM   20  C17 UNL     1      -1.218  20.645   1.182  1.00  0.00     0.015 C 
HETATM   21  C18 UNL     1      -2.883  20.748  -0.541  1.00  0.00     0.015 C 
HETATM   22  C19 UNL     1      -1.568  18.785  -0.302  1.00  0.00     0.015 C 
ENDBRANCH  12  19
ENDBRANCH   9  11
ENDBRANCH   8   9
BRANCH   1  23
HETATM   23  O1  UNL     1       3.188  17.520  -2.014  1.00  0.00    -0.341 OA
BRANCH  23  24
HETATM   24  C3  UNL     1       3.635  16.379  -2.505  1.00  0.00     0.244 C 
BRANCH  24  25
HETATM   25  C2  UNL     1       2.715  15.425  -3.225  1.00  0.00     0.187 C 
HETATM   26  C1  UNL     1       1.277  15.796  -3.282  1.00  0.00     0.081 C 
HETATM   27  O2  UNL     1       2.927  14.083  -2.821  1.00  0.00    -0.329 OA
HETATM   28  C26 UNL     1       3.844  13.946  -3.864  1.00  0.00     0.345 C 
HETATM   29  O3  UNL     1       3.199  15.027  -4.463  1.00  0.00    -0.329 OA
ENDBRANCH  24  25
ENDBRANCH  23  24
ENDBRANCH   1  23
BRANCH   5  30
HETATM   30  N2  UNL     1       3.106  20.715   2.289  1.00  0.00    -0.190 N 
ATOM     31  H2  UNL     1       3.340  20.331   3.204  1.00  0.00     0.184 HD
BRANCH  30  32
HETATM   32  C7  UNL     1       2.725  22.065   2.222  1.00  0.00     0.071 A 
HETATM   33  C8  UNL     1       3.304  22.932   1.319  1.00  0.00     0.033 A 
HETATM   34  C9  UNL     1       2.894  24.251   1.293  1.00  0.00     0.026 A 
HETATM   35  C10 UNL     1       1.910  24.716   2.161  1.00  0.00     0.035 A 
HETATM   36 CL1  UNL     1       1.377  26.391   2.141  1.00  0.00    -0.084 Cl
HETATM   37  C11 UNL     1       1.332  23.847   3.063  1.00  0.00     0.050 A 
HETATM   38  C12 UNL     1       1.747  22.521   3.086  1.00  0.00     0.062 A 
HETATM   39 CL2  UNL     1       1.028  21.411   4.219  1.00  0.00    -0.082 Cl
ENDBRANCH  30  32
ENDBRANCH   5  30
TORSDOF 8
ENDMDL
MODEL 2
REMARK VINA RESULT: -6.507037129      1.716      2.779
REMARK  8 active torsions:
REMARK  status: ('A' for Active; 'I' for Inactive)
REMARK    1  A    between atoms: C2_2  and  C3_3 
REMARK    2  A    between atoms: C3_3  and  O1_4 
REMARK    3  A    between atoms: O1_4  and  C4_5 
REMARK    4  A    between atoms: C6_9  and  N2_10 
REMARK    5  A    between atoms: N2_10  and  C7_12 
REMARK    6  A    between atoms: C13_22  and  N4_23 
REMARK    7  A    between atoms: N4_23  and  C14_25 
REMARK    8  A    between atoms: C15_26  and  C16_27 
ROOT
HETATM    1  C4  UNL     1       2.719  19.965   0.235  1.00  0.00     0.129 A 
HETATM    2  C5  UNL     1       3.520  20.413   1.253  1.00  0.00     0.146 A 
HETATM    3  N1  UNL     1       3.356  21.626   1.829  1.00  0.00    -0.199 N 
ATOM      4  H1  UNL     1       3.978  21.916   2.584  1.00  0.00     0.183 HD
HETATM    5  C6  UNL     1       2.383  22.449   1.413  1.00  0.00     0.684 A 
HETATM    6  N3  UNL     1       1.594  22.019   0.417  1.00  0.00    -0.174 N 
ATOM      7  H3  UNL     1       0.853  22.645   0.100  1.00  0.00     0.186 HD
HETATM    8  C13 UNL     1       1.703  20.839  -0.190  1.00  0.00     0.156 A 
ENDROOT
BRANCH   8   9
HETATM    9  N4  UNL     1       0.909  20.486  -1.141  1.00  0.00    -0.346 N 
ATOM     10  H4  UNL     1       1.292  19.820  -1.813  1.00  0.00     0.167 HD
BRANCH   9  11
HETATM   11  C14 UNL     1      -0.428  20.902  -1.377  1.00  0.00     0.001 C 
HETATM   12  C15 UNL     1      -1.518  20.172  -0.754  1.00  0.00     0.039 C 
HETATM   13  C20 UNL     1      -2.833  20.498  -1.471  1.00  0.00     0.011 C 
HETATM   14  C21 UNL     1      -2.769  21.986  -1.802  1.00  0.00     0.002 C 
HETATM   15  C22 UNL     1      -1.904  22.059  -3.051  1.00  0.00     0.015 C 
HETATM   16  C23 UNL     1      -0.636  21.303  -2.852  1.00  0.00    -0.009 C 
HETATM   17  C24 UNL     1      -0.416  20.235  -3.839  1.00  0.00     0.021 C 
HETATM   18  C25 UNL     1       0.495  22.327  -3.115  1.00  0.00     0.021 C 
BRANCH  12  19
HETATM   19  C16 UNL     1      -1.525  18.737  -0.487  1.00  0.00    -0.043 C 
HETATM   20  C17 UNL     1      -0.626  18.210   0.591  1.00  0.00     0.015 C 
HETATM   21  C18 UNL     1      -2.944  18.344  -0.006  1.00  0.00     0.015 C 
HETATM   22  C19 UNL     1      -1.337  17.818  -1.673  1.00  0.00     0.015 C 
ENDBRANCH  12  19
ENDBRANCH   9  11
ENDBRANCH   8   9
BRANCH   1  23
HETATM   23  O1  UNL     1       2.812  18.801  -0.375  1.00  0.00    -0.341 OA
BRANCH  23  24
HETATM   24  C3  UNL     1       3.685  17.987  -0.940  1.00  0.00     0.244 C 
BRANCH  24  25
HETATM   25  C2  UNL     1       3.471  17.460  -2.335  1.00  0.00     0.187 C 
HETATM   26  C1  UNL     1       2.089  17.538  -2.877  1.00  0.00     0.081 C 
HETATM   27  O2  UNL     1       4.066  16.185  -2.514  1.00  0.00    -0.329 OA
HETATM   28  C26 UNL     1       5.225  16.822  -2.960  1.00  0.00     0.345 C 
HETATM   29  O3  UNL     1       4.413  17.919  -3.245  1.00  0.00    -0.329 OA
ENDBRANCH  24  25
ENDBRANCH  23  24
ENDBRANCH   1  23
BRANCH   5  30
HETATM   30  N2  UNL     1       2.191  23.602   1.926  1.00  0.00    -0.190 N 
ATOM     31  H2  UNL     1       2.705  24.390   1.532  1.00  0.00     0.184 HD
BRANCH  30  32
HETATM   32  C7  UNL     1       1.317  23.857   2.996  1.00  0.00     0.071 A 
HETATM   33  C8  UNL     1       0.849  22.839   3.801  1.00  0.00     0.033 A 
HETATM   34  C9  UNL     1      -0.009  23.142   4.841  1.00  0.00     0.026 A 
HETATM   35  C10 UNL     1      -0.405  24.453   5.088  1.00  0.00     0.035 A 
HETATM   36 CL1  UNL     1      -1.495  24.856   6.406  1.00  0.00    -0.084 Cl
HETATM   37  C11 UNL     1       0.065  25.469   4.282  1.00  0.00     0.050 A 
HETATM   38  C12 UNL     1       0.927  25.161   3.236  1.00  0.00     0.062 A 
HETATM   39 CL2  UNL     1       1.529  26.432   2.210  1.00  0.00    -0.082 Cl
ENDBRANCH  30  32
ENDBRANCH   5  30
TORSDOF 8
ENDMDL
MODEL 3
REMARK VINA RESULT: -6.488409474      0.805      1.070
REMARK  8 active torsions:
REMARK  status: ('A' for Active; 'I' for Inactive)
REMARK    1  A    between atoms: C2_2  and  C3_3 
REMARK    2  A    between atoms: C3_3  and  O1_4 
REMARK    3  A    between atoms: O1_4  and  C4_5 
REMARK    4  A    between atoms: C6_9  and  N2_10 
REMARK    5  A    between atoms: N2_10  and  C7_12 
REMARK    6  A    between atoms: C13_22  and  N4_23 
REMARK    7  A    between atoms: N4_23  and  C14_25 
REMARK    8  A    between atoms: C15_26  and  C16_27 
ROOT
HETATM    1  C4  UNL     1       3.204  18.292  -0.948  1.00  0.00     0.129 A 
HETATM    2  C5  UNL     1       4.246  18.355  -0.060  1.00  0.00     0.146 A 
HETATM    3  N1  UNL     1       4.237  19.172   1.017  1.00  0.00    -0.199 N 
ATOM      4  H1  UNL     1       5.037  19.183   1.651  1.00  0.00     0.183 HD
HETATM    5  C6  UNL     1       3.185  19.966   1.258  1.00  0.00     0.684 A 
HETATM    6  N3  UNL     1       2.159  19.911   0.395  1.00  0.00    -0.174 N 
ATOM      7  H3  UNL     1       1.358  20.516   0.577  1.00  0.00     0.186 HD
HETATM    8  C13 UNL     1       2.107  19.131  -0.682  1.00  0.00     0.156 A 
ENDROOT
BRANCH   8   9
HETATM    9  N4  UNL     1       1.089  19.125  -1.471  1.00  0.00    -0.346 N 
ATOM     10  H4  UNL     1       0.723  18.204  -1.715  1.00  0.00     0.167 HD
BRANCH   9  11
HETATM   11  C14 UNL     1       0.410  20.231  -2.047  1.00  0.00     0.001 C 
HETATM   12  C15 UNL     1      -0.593  20.932  -1.264  1.00  0.00     0.039 C 
HETATM   13  C20 UNL     1      -1.479  21.771  -2.193  1.00  0.00     0.011 C 
HETATM   14  C21 UNL     1      -0.543  22.347  -3.252  1.00  0.00     0.002 C 
HETATM   15  C22 UNL     1      -0.341  21.207  -4.238  1.00  0.00     0.015 C 
HETATM   16  C23 UNL     1       0.051  19.961  -3.523  1.00  0.00    -0.009 C 
HETATM   17  C24 UNL     1      -0.854  18.826  -3.760  1.00  0.00     0.021 C 
HETATM   18  C25 UNL     1       1.398  19.535  -4.153  1.00  0.00     0.021 C 
BRANCH  12  19
HETATM   19  C16 UNL     1      -1.476  20.315  -0.280  1.00  0.00    -0.043 C 
HETATM   20  C17 UNL     1      -1.273  20.650   1.167  1.00  0.00     0.015 C 
HETATM   21  C18 UNL     1      -2.923  20.787  -0.567  1.00  0.00     0.015 C 
HETATM   22  C19 UNL     1      -1.626  18.811  -0.342  1.00  0.00     0.015 C 
ENDBRANCH  12  19
ENDBRANCH   9  11
ENDBRANCH   8   9
BRANCH   1  23
HETATM   23  O1  UNL     1       3.135  17.524  -2.017  1.00  0.00    -0.341 OA
BRANCH  23  24
HETATM   24  C3  UNL     1       2.980  16.267  -2.388  1.00  0.00     0.244 C 
BRANCH  24  25
HETATM   25  C2  UNL     1       1.609  15.685  -2.621  1.00  0.00     0.187 C 
HETATM   26  C1  UNL     1       1.062  15.790  -3.999  1.00  0.00     0.081 C 
HETATM   27  O2  UNL     1       0.687  16.093  -1.625  1.00  0.00    -0.329 OA
HETATM   28  C26 UNL     1       1.019  14.952  -0.893  1.00  0.00     0.345 C 
HETATM   29  O3  UNL     1       1.459  14.408  -2.098  1.00  0.00    -0.329 OA
ENDBRANCH  24  25
ENDBRANCH  23  24
ENDBRANCH   1  23
BRANCH   5  30
HETATM   30  N2  UNL     1       3.131  20.754   2.262  1.00  0.00    -0.190 N 
ATOM     31  H2  UNL     1       3.382  20.378   3.175  1.00  0.00     0.184 HD
BRANCH  30  32
HETATM   32  C7  UNL     1       2.748  22.104   2.190  1.00  0.00     0.071 A 
HETATM   33  C8  UNL     1       3.318  22.965   1.276  1.00  0.00     0.033 A 
HETATM   34  C9  UNL     1       2.907  24.284   1.246  1.00  0.00     0.026 A 
HETATM   35  C10 UNL     1       1.932  24.754   2.120  1.00  0.00     0.035 A 
HETATM   36 CL1  UNL     1       1.398  26.428   2.095  1.00  0.00    -0.084 Cl
HETATM   37  C11 UNL     1       1.363  23.890   3.033  1.00  0.00     0.050 A 
HETATM   38  C12 UNL     1       1.779  22.564   3.061  1.00  0.00     0.062 A 
HETATM   39 CL2  UNL     1       1.073  21.461   4.208  1.00  0.00    -0.082 Cl
ENDBRANCH  30  32
ENDBRANCH   5  30
TORSDOF 8
ENDMDL
MODEL 4
REMARK VINA RESULT: -6.335144957      1.331      2.254
REMARK  8 active torsions:
REMARK  status: ('A' for Active; 'I' for Inactive)
REMARK    1  A    between atoms: C2_2  and  C3_3 
REMARK    2  A    between atoms: C3_3  and  O1_4 
REMARK    3  A    between atoms: O1_4  and  C4_5 
REMARK    4  A    between atoms: C6_9  and  N2_10 
REMARK    5  A    between atoms: N2_10  and  C7_12 
REMARK    6  A    between atoms: C13_22  and  N4_23 
REMARK    7  A    between atoms: N4_23  and  C14_25 
REMARK    8  A    between atoms: C15_26  and  C16_27 
ROOT
HETATM    1  C4  UNL     1       3.307  18.267  -0.755  1.00  0.00     0.129 A 
HETATM    2  C5  UNL     1       4.329  18.605   0.094  1.00  0.00     0.146 A 
HETATM    3  N1  UNL     1       4.150  19.414   1.163  1.00  0.00    -0.199 N 
ATOM      4  H1  UNL     1       4.942  19.637   1.767  1.00  0.00     0.183 HD
HETATM    5  C6  UNL     1       2.940  19.923   1.434  1.00  0.00     0.684 A 
HETATM    6  N3  UNL     1       1.934  19.598   0.609  1.00  0.00    -0.174 N 
ATOM      7  H3  UNL     1       1.013  19.985   0.815  1.00  0.00     0.186 HD
HETATM    8  C13 UNL     1       2.044  18.809  -0.458  1.00  0.00     0.156 A 
ENDROOT
BRANCH   8   9
HETATM    9  N4  UNL     1       1.035  18.534  -1.209  1.00  0.00    -0.346 N 
ATOM     10  H4  UNL     1       0.289  17.995  -0.769  1.00  0.00     0.167 HD
BRANCH   9  11
HETATM   11  C14 UNL     1       0.825  18.882  -2.570  1.00  0.00     0.001 C 
HETATM   12  C15 UNL     1       0.648  20.280  -2.924  1.00  0.00     0.039 C 
HETATM   13  C20 UNL     1       0.016  20.383  -4.318  1.00  0.00     0.011 C 
HETATM   14  C21 UNL     1       0.660  19.277  -5.149  1.00  0.00     0.002 C 
HETATM   15  C22 UNL     1      -0.088  18.016  -4.746  1.00  0.00     0.015 C 
HETATM   16  C23 UNL     1      -0.124  17.882  -3.263  1.00  0.00    -0.009 C 
HETATM   17  C24 UNL     1      -1.481  17.800  -2.703  1.00  0.00     0.021 C 
HETATM   18  C25 UNL     1       0.516  16.506  -2.962  1.00  0.00     0.021 C 
BRANCH  12  19
HETATM   19  C16 UNL     1      -0.001  21.285  -2.089  1.00  0.00    -0.043 C 
HETATM   20  C17 UNL     1       0.864  22.257  -1.345  1.00  0.00     0.015 C 
HETATM   21  C18 UNL     1      -0.865  22.187  -3.005  1.00  0.00     0.015 C 
HETATM   22  C19 UNL     1      -1.025  20.789  -1.092  1.00  0.00     0.015 C 
ENDBRANCH  12  19
ENDBRANCH   9  11
ENDBRANCH   8   9
BRANCH   1  23
HETATM   23  O1  UNL     1       3.398  17.487  -1.813  1.00  0.00    -0.341 OA
BRANCH  23  24
HETATM   24  C3  UNL     1       4.092  17.313  -2.922  1.00  0.00     0.244 C 
BRANCH  24  25
HETATM   25  C2  UNL     1       5.392  16.550  -2.919  1.00  0.00     0.187 C 
HETATM   26  C1  UNL     1       5.486  15.390  -1.995  1.00  0.00     0.081 C 
HETATM   27  O2  UNL     1       6.512  17.417  -2.838  1.00  0.00    -0.329 OA
HETATM   28  C26 UNL     1       6.558  17.438  -4.233  1.00  0.00     0.345 C 
HETATM   29  O3  UNL     1       5.849  16.239  -4.192  1.00  0.00    -0.329 OA
ENDBRANCH  24  25
ENDBRANCH  23  24
ENDBRANCH   1  23
BRANCH   5  30
HETATM   30  N2  UNL     1       2.724  20.690   2.431  1.00  0.00    -0.190 N 
ATOM     31  H2  UNL     1       2.757  20.279   3.364  1.00  0.00     0.184 HD
BRANCH  30  32
HETATM   32  C7  UNL     1       2.443  22.063   2.329  1.00  0.00     0.071 A 
HETATM   33  C8  UNL     1       3.084  22.861   1.404  1.00  0.00     0.033 A 
HETATM   34  C9  UNL     1       2.773  24.206   1.343  1.00  0.00     0.026 A 
HETATM   35  C10 UNL     1       1.826  24.765   2.197  1.00  0.00     0.035 A 
HETATM   36 CL1  UNL     1       1.418  26.473   2.133  1.00  0.00    -0.084 Cl
HETATM   37  C11 UNL     1       1.186  23.964   3.121  1.00  0.00     0.050 A 
HETATM   38  C12 UNL     1       1.502  22.612   3.179  1.00  0.00     0.062 A 
HETATM   39 CL2  UNL     1       0.704  21.588   4.340  1.00  0.00    -0.082 Cl
ENDBRANCH  30  32
ENDBRANCH   5  30
TORSDOF 8
ENDMDL
MODEL 5
REMARK VINA RESULT: -6.332665354      0.908      1.576
REMARK  8 active torsions:
REMARK  status: ('A' for Active; 'I' for Inactive)
REMARK    1  A    between atoms: C2_2  and  C3_3 
REMARK    2  A    between atoms: C3_3  and  O1_4 
REMARK    3  A    between atoms: O1_4  and  C4_5 
REMARK    4  A    between atoms: C6_9  and  N2_10 
REMARK    5  A    between atoms: N2_10  and  C7_12 
REMARK    6  A    between atoms: C13_22  and  N4_23 
REMARK    7  A    between atoms: N4_23  and  C14_25 
REMARK    8  A    between atoms: C15_26  and  C16_27 
ROOT
HETATM    1  C4  UNL     1       3.282  18.241  -0.746  1.00  0.00     0.129 A 
HETATM    2  C5  UNL     1       4.352  18.406   0.093  1.00  0.00     0.146 A 
HETATM    3  N1  UNL     1       4.512  19.506   0.862  1.00  0.00    -0.199 N 
ATOM      4  H1  UNL     1       5.326  19.584   1.473  1.00  0.00     0.183 HD
HETATM    5  C6  UNL     1       3.608  20.495   0.829  1.00  0.00     0.684 A 
HETATM    6  N3  UNL     1       2.556  20.343   0.010  1.00  0.00    -0.174 N 
ATOM      7  H3  UNL     1       1.868  21.095  -0.016  1.00  0.00     0.186 HD
HETATM    8  C13 UNL     1       2.342  19.286  -0.771  1.00  0.00     0.156 A 
ENDROOT
BRANCH   8   9
HETATM    9  N4  UNL     1       1.308  19.202  -1.534  1.00  0.00    -0.346 N 
ATOM     10  H4  UNL     1       0.997  18.255  -1.754  1.00  0.00     0.167 HD
BRANCH   9  11
HETATM   11  C14 UNL     1       0.545  20.252  -2.110  1.00  0.00     0.001 C 
HETATM   12  C15 UNL     1      -0.413  20.967  -1.284  1.00  0.00     0.039 C 
HETATM   13  C20 UNL     1      -1.402  21.723  -2.179  1.00  0.00     0.011 C 
HETATM   14  C21 UNL     1      -0.578  22.265  -3.344  1.00  0.00     0.002 C 
HETATM   15  C22 UNL     1      -0.420  21.076  -4.280  1.00  0.00     0.015 C 
HETATM   16  C23 UNL     1       0.074  19.887  -3.533  1.00  0.00    -0.009 C 
HETATM   17  C24 UNL     1      -0.807  18.712  -3.629  1.00  0.00     0.021 C 
HETATM   18  C25 UNL     1       1.378  19.465  -4.251  1.00  0.00     0.021 C 
BRANCH  12  19
HETATM   19  C16 UNL     1      -1.189  20.380  -0.196  1.00  0.00    -0.043 C 
HETATM   20  C17 UNL     1      -0.890  20.819   1.206  1.00  0.00     0.015 C 
HETATM   21  C18 UNL     1      -2.673  20.774  -0.397  1.00  0.00     0.015 C 
HETATM   22  C19 UNL     1      -1.275  18.871  -0.152  1.00  0.00     0.015 C 
ENDBRANCH  12  19
ENDBRANCH   9  11
ENDBRANCH   8   9
BRANCH   1  23
HETATM   23  O1  UNL     1       3.054  17.202  -1.524  1.00  0.00    -0.341 OA
BRANCH  23  24
HETATM   24  C3  UNL     1       3.548  16.545  -2.557  1.00  0.00     0.244 C 
BRANCH  24  25
HETATM   25  C2  UNL     1       2.752  15.470  -3.253  1.00  0.00     0.187 C 
HETATM   26  C1  UNL     1       1.283  15.675  -3.340  1.00  0.00     0.081 C 
HETATM   27  O2  UNL     1       3.107  14.175  -2.797  1.00  0.00    -0.329 OA
HETATM   28  C26 UNL     1       4.049  14.105  -3.824  1.00  0.00     0.345 C 
HETATM   29  O3  UNL     1       3.297  15.085  -4.469  1.00  0.00    -0.329 OA
ENDBRANCH  24  25
ENDBRANCH  23  24
ENDBRANCH   1  23
BRANCH   5  30
HETATM   30  N2  UNL     1       3.716  21.552   1.537  1.00  0.00    -0.190 N 
ATOM     31  H2  UNL     1       4.531  22.145   1.385  1.00  0.00     0.184 HD
BRANCH  30  32
HETATM   32  C7  UNL     1       2.786  21.952   2.511  1.00  0.00     0.071 A 
HETATM   33  C8  UNL     1       2.515  21.165   3.612  1.00  0.00     0.033 A 
HETATM   34  C9  UNL     1       1.591  21.603   4.541  1.00  0.00     0.026 A 
HETATM   35  C10 UNL     1       0.934  22.820   4.384  1.00  0.00     0.035 A 
HETATM   36 CL1  UNL     1      -0.243  23.392   5.557  1.00  0.00    -0.084 Cl
HETATM   37  C11 UNL     1       1.207  23.604   3.283  1.00  0.00     0.050 A 
HETATM   38  C12 UNL     1       2.136  23.161   2.349  1.00  0.00     0.062 A 
HETATM   39 CL2  UNL     1       2.492  24.138   0.953  1.00  0.00    -0.082 Cl
ENDBRANCH  30  32
ENDBRANCH   5  30
TORSDOF 8
ENDMDL
