MODEL 1
REMARK VINA RESULT: -6.803647277      0.000      0.000
REMARK  6 active torsions:
REMARK  status: ('A' for Active; 'I' for Inactive)
REMARK    1  A    between atoms: N1_5  and  C5_6 
REMARK    2  A    between atoms: C7_10  and  C8_11 
REMARK       I    between atoms: C8_11  and  N3_13 
REMARK    3  A    between atoms: N3_13  and  C9_15 
REMARK    4  A    between atoms: C17_24  and  C18_25 
REMARK    5  A    between atoms: C18_25  and  C19_26 
REMARK    6  A    between atoms: C26_33  and  O2_34 
ROOT
HETATM    1  C5  UNL     1      -0.459  21.922   6.865  1.00  0.00     0.128 A 
HETATM    2  N2  UNL     1      -0.723  23.173   6.473  1.00  0.00    -0.340 N 
ATOM      3  H2  UNL     1      -1.373  23.728   7.030  1.00  0.00     0.167 HD
HETATM    4  C6  UNL     1      -0.174  23.742   5.378  1.00  0.00     0.063 A 
HETATM    5  C7  UNL     1      -0.535  25.027   5.118  1.00  0.00     0.059 A 
HETATM    6  C15 UNL     1       0.025  25.633   4.005  1.00  0.00     0.020 A 
HETATM    7  C16 UNL     1       0.913  24.946   3.200  1.00  0.00     0.009 A 
HETATM    8  C17 UNL     1       1.296  23.644   3.440  1.00  0.00    -0.042 A 
HETATM    9  C25 UNL     1       0.724  23.053   4.562  1.00  0.00     0.033 A 
HETATM   10  C26 UNL     1       1.001  21.770   4.958  1.00  0.00     0.104 A 
HETATM   11  C27 UNL     1       0.417  21.203   6.099  1.00  0.00     0.112 A 
HETATM   12 CL1  UNL     1       0.826  19.574   6.526  1.00  0.00    -0.077 Cl
ENDROOT
BRANCH   5  13
HETATM   13  C8  UNL     1      -1.473  25.725   5.982  1.00  0.00     0.254 C 
HETATM   14  O1  UNL     1      -2.691  25.452   5.896  1.00  0.00    -0.268 OA
HETATM   15  N3  UNL     1      -1.028  26.681   6.896  1.00  0.00    -0.352 N 
ATOM     16  H3  UNL     1      -0.027  26.872   6.934  1.00  0.00     0.163 HD
BRANCH  15  17
HETATM   17  C9  UNL     1      -1.891  27.421   7.794  1.00  0.00     0.087 C 
HETATM   18  C10 UNL     1      -1.739  28.904   7.568  1.00  0.00     0.044 C 
HETATM   19  C11 UNL     1      -2.642  29.665   8.469  1.00  0.00     0.118 C 
HETATM   20  N4  UNL     1      -3.034  28.991   9.656  1.00  0.00    -0.416 N 
HETATM   21  C12 UNL     1      -3.742  29.772  10.603  1.00  0.00     0.143 C 
HETATM   22  C13 UNL     1      -2.088  28.075  10.202  1.00  0.00     0.118 C 
HETATM   23  C14 UNL     1      -1.466  27.149   9.221  1.00  0.00     0.044 C 
ENDBRANCH  15  17
ENDBRANCH   5  13
BRANCH   1  24
HETATM   24  N1  UNL     1      -1.107  21.406   8.056  1.00  0.00    -0.366 N 
HETATM   25  C4  UNL     1      -2.405  20.805   7.916  1.00  0.00     0.125 C 
HETATM   26  C3  UNL     1      -2.525  19.600   8.796  1.00  0.00     0.024 C 
HETATM   27  C2  UNL     1      -2.164  19.906  10.234  1.00  0.00    -0.015 C 
HETATM   28  C1  UNL     1      -2.199  18.595  10.996  1.00  0.00     0.010 C 
HETATM   29  C29 UNL     1      -0.753  20.453  10.326  1.00  0.00     0.024 C 
HETATM   30  C28 UNL     1      -0.479  21.517   9.333  1.00  0.00     0.125 C 
ENDBRANCH   1  24
BRANCH   8  31
HETATM   31  C18 UNL     1       2.227  22.885   2.609  1.00  0.00     0.044 C 
BRANCH  31  32
HETATM   32  C19 UNL     1       1.763  22.754   1.161  1.00  0.00    -0.007 C 
HETATM   33  C20 UNL     1       0.488  22.005   0.998  1.00  0.00     0.005 C 
HETATM   34  C21 UNL     1       0.770  20.702   0.286  1.00  0.00     0.001 C 
HETATM   35  C22 UNL     1       2.228  20.479   0.494  1.00  0.00     0.005 C 
HETATM   36  C23 UNL     1       2.786  21.881   0.422  1.00  0.00    -0.014 C 
HETATM   37  C24 UNL     1       4.124  21.905   1.074  1.00  0.00     0.010 C 
ENDBRANCH  31  32
ENDBRANCH   8  31
BRANCH  10  38
HETATM   38  O2  UNL     1       1.860  20.995   4.252  1.00  0.00    -0.358 OA
ATOM     39  H2  UNL     1       1.539  20.309   3.679  1.00  0.00     0.217 HD
ENDBRANCH  10  38
TORSDOF 6
ENDMDL
MODEL 2
REMARK VINA RESULT: -6.679139847      6.434     11.116
REMARK  6 active torsions:
REMARK  status: ('A' for Active; 'I' for Inactive)
REMARK    1  A    between atoms: N1_5  and  C5_6 
REMARK    2  A    between atoms: C7_10  and  C8_11 
REMARK       I    between atoms: C8_11  and  N3_13 
REMARK    3  A    between atoms: N3_13  and  C9_15 
REMARK    4  A    between atoms: C17_24  and  C18_25 
REMARK    5  A    between atoms: C18_25  and  C19_26 
REMARK    6  A    between atoms: C26_33  and  O2_34 
ROOT
HETATM    1  C5  UNL     1       5.689  18.151   4.348  1.00  0.00     0.128 A 
HETATM    2  N2  UNL     1       6.219  18.891   3.367  1.00  0.00    -0.340 N 
ATOM      3  H2  UNL     1       7.150  18.648   3.027  1.00  0.00     0.167 HD
HETATM    4  C6  UNL     1       5.587  19.942   2.804  1.00  0.00     0.063 A 
HETATM    5  C7  UNL     1       6.254  20.588   1.810  1.00  0.00     0.059 A 
HETATM    6  C15 UNL     1       5.619  21.663   1.211  1.00  0.00     0.020 A 
HETATM    7  C16 UNL     1       4.358  22.054   1.618  1.00  0.00     0.009 A 
HETATM    8  C17 UNL     1       3.660  21.419   2.622  1.00  0.00    -0.042 A 
HETATM    9  C25 UNL     1       4.313  20.341   3.211  1.00  0.00     0.033 A 
HETATM   10  C26 UNL     1       3.763  19.587   4.215  1.00  0.00     0.104 A 
HETATM   11  C27 UNL     1       4.441  18.500   4.784  1.00  0.00     0.112 A 
HETATM   12 CL1  UNL     1       3.668  17.601   6.047  1.00  0.00    -0.077 Cl
ENDROOT
BRANCH   5  13
HETATM   13  C8  UNL     1       7.581  20.155   1.403  1.00  0.00     0.254 C 
HETATM   14  O1  UNL     1       8.492  20.115   2.261  1.00  0.00    -0.268 OA
HETATM   15  N3  UNL     1       7.840  19.788   0.082  1.00  0.00    -0.352 N 
ATOM     16  H3  UNL     1       7.068  19.835  -0.583  1.00  0.00     0.163 HD
BRANCH  15  17
HETATM   17  C9  UNL     1       9.129  19.344  -0.409  1.00  0.00     0.087 C 
HETATM   18  C10 UNL     1       9.538  20.147  -1.618  1.00  0.00     0.044 C 
HETATM   19  C11 UNL     1      10.871  19.713  -2.107  1.00  0.00     0.118 C 
HETATM   20  N4  UNL     1      11.250  18.389  -1.760  1.00  0.00    -0.416 N 
HETATM   21  C12 UNL     1      12.432  17.905  -2.374  1.00  0.00     0.143 C 
HETATM   22  C13 UNL     1      10.191  17.442  -1.640  1.00  0.00     0.118 C 
HETATM   23  C14 UNL     1       9.016  17.903  -0.856  1.00  0.00     0.044 C 
ENDBRANCH  15  17
ENDBRANCH   5  13
BRANCH   1  24
HETATM   24  N1  UNL     1       6.456  17.044   4.888  1.00  0.00    -0.366 N 
HETATM   25  C4  UNL     1       7.358  17.309   5.975  1.00  0.00     0.125 C 
HETATM   26  C3  UNL     1       7.323  16.191   6.972  1.00  0.00     0.024 C 
HETATM   27  C2  UNL     1       7.554  14.843   6.323  1.00  0.00    -0.015 C 
HETATM   28  C1  UNL     1       7.372  13.789   7.399  1.00  0.00     0.010 C 
HETATM   29  C29 UNL     1       6.520  14.584   5.246  1.00  0.00     0.024 C 
HETATM   30  C28 UNL     1       6.334  15.734   4.333  1.00  0.00     0.125 C 
ENDBRANCH   1  24
BRANCH   8  31
HETATM   31  C18 UNL     1       2.329  21.806   3.082  1.00  0.00     0.044 C 
BRANCH  31  32
HETATM   32  C19 UNL     1       1.602  22.720   2.099  1.00  0.00    -0.007 C 
HETATM   33  C20 UNL     1       2.434  23.840   1.584  1.00  0.00     0.005 C 
HETATM   34  C21 UNL     1       1.886  25.146   2.114  1.00  0.00     0.001 C 
HETATM   35  C22 UNL     1       1.082  24.749   3.304  1.00  0.00     0.005 C 
HETATM   36  C23 UNL     1       0.482  23.432   2.869  1.00  0.00    -0.014 C 
HETATM   37  C24 UNL     1       0.052  22.672   4.074  1.00  0.00     0.010 C 
ENDBRANCH  31  32
ENDBRANCH   8  31
BRANCH  10  38
HETATM   38  O2  UNL     1       2.528  19.868   4.698  1.00  0.00    -0.358 OA
ATOM     39  H2  UNL     1       1.758  19.435   4.350  1.00  0.00     0.217 HD
ENDBRANCH  10  38
TORSDOF 6
ENDMDL
MODEL 3
REMARK VINA RESULT: -6.672488698      3.901      7.197
REMARK  6 active torsions:
REMARK  status: ('A' for Active; 'I' for Inactive)
REMARK    1  A    between atoms: N1_5  and  C5_6 
REMARK    2  A    between atoms: C7_10  and  C8_11 
REMARK       I    between atoms: C8_11  and  N3_13 
REMARK    3  A    between atoms: N3_13  and  C9_15 
REMARK    4  A    between atoms: C17_24  and  C18_25 
REMARK    5  A    between atoms: C18_25  and  C19_26 
REMARK    6  A    between atoms: C26_33  and  O2_34 
ROOT
HETATM    1  C5  UNL     1       3.713  20.212   1.754  1.00  0.00     0.128 A 
HETATM    2  N2  UNL     1       2.524  20.812   1.885  1.00  0.00    -0.340 N 
ATOM      3  H2  UNL     1       2.344  21.347   2.735  1.00  0.00     0.167 HD
HETATM    4  C6  UNL     1       1.551  20.749   0.952  1.00  0.00     0.063 A 
HETATM    5  C7  UNL     1       0.402  21.422   1.228  1.00  0.00     0.059 A 
HETATM    6  C15 UNL     1      -0.606  21.378   0.279  1.00  0.00     0.020 A 
HETATM    7  C16 UNL     1      -0.437  20.673  -0.897  1.00  0.00     0.009 A 
HETATM    8  C17 UNL     1       0.715  19.982  -1.203  1.00  0.00    -0.042 A 
HETATM    9  C25 UNL     1       1.716  20.039  -0.238  1.00  0.00     0.033 A 
HETATM   10  C26 UNL     1       2.932  19.421  -0.381  1.00  0.00     0.104 A 
HETATM   11  C27 UNL     1       3.926  19.503   0.604  1.00  0.00     0.112 A 
HETATM   12 CL1  UNL     1       5.434  18.693   0.339  1.00  0.00    -0.077 Cl
ENDROOT
BRANCH   5  13
HETATM   13  C8  UNL     1       0.252  22.154   2.476  1.00  0.00     0.254 C 
HETATM   14  O1  UNL     1       0.776  23.286   2.578  1.00  0.00    -0.268 OA
HETATM   15  N3  UNL     1      -0.464  21.610   3.543  1.00  0.00    -0.352 N 
ATOM     16  H3  UNL     1      -0.875  20.685   3.416  1.00  0.00     0.163 HD
BRANCH  15  17
HETATM   17  C9  UNL     1      -0.663  22.268   4.818  1.00  0.00     0.087 C 
HETATM   18  C10 UNL     1       0.432  21.890   5.783  1.00  0.00     0.044 C 
HETATM   19  C11 UNL     1       0.245  22.584   7.083  1.00  0.00     0.118 C 
HETATM   20  N4  UNL     1      -1.083  22.993   7.374  1.00  0.00    -0.416 N 
HETATM   21  C12 UNL     1      -1.303  23.489   8.683  1.00  0.00     0.143 C 
HETATM   22  C13 UNL     1      -2.124  22.174   6.847  1.00  0.00     0.118 C 
HETATM   23  C14 UNL     1      -1.966  21.789   5.421  1.00  0.00     0.044 C 
ENDBRANCH  15  17
ENDBRANCH   5  13
BRANCH   1  24
HETATM   24  N1  UNL     1       4.688  20.340   2.820  1.00  0.00    -0.366 N 
HETATM   25  C4  UNL     1       4.684  19.354   3.866  1.00  0.00     0.125 C 
HETATM   26  C3  UNL     1       6.084  19.006   4.267  1.00  0.00     0.024 C 
HETATM   27  C2  UNL     1       6.900  20.234   4.610  1.00  0.00    -0.015 C 
HETATM   28  C1  UNL     1       8.321  19.771   4.874  1.00  0.00     0.010 C 
HETATM   29  C29 UNL     1       6.941  21.194   3.438  1.00  0.00     0.024 C 
HETATM   30  C28 UNL     1       5.608  21.432   2.839  1.00  0.00     0.125 C 
ENDBRANCH   1  24
BRANCH   8  31
HETATM   31  C18 UNL     1       0.928  19.224  -2.432  1.00  0.00     0.044 C 
BRANCH  31  32
HETATM   32  C19 UNL     1      -0.375  18.842  -3.130  1.00  0.00    -0.007 C 
HETATM   33  C20 UNL     1      -0.776  17.424  -2.934  1.00  0.00     0.005 C 
HETATM   34  C21 UNL     1      -0.678  16.697  -4.256  1.00  0.00     0.001 C 
HETATM   35  C22 UNL     1       0.239  17.542  -5.071  1.00  0.00     0.005 C 
HETATM   36  C23 UNL     1      -0.139  18.941  -4.642  1.00  0.00    -0.014 C 
HETATM   37  C24 UNL     1       0.973  19.870  -4.981  1.00  0.00     0.010 C 
ENDBRANCH  31  32
ENDBRANCH   8  31
BRANCH  10  38
HETATM   38  O2  UNL     1       3.220  18.703  -1.493  1.00  0.00    -0.358 OA
ATOM     39  H2  UNL     1       2.683  17.961  -1.746  1.00  0.00     0.217 HD
ENDBRANCH  10  38
TORSDOF 6
ENDMDL
MODEL 4
REMARK VINA RESULT: -6.502191971      2.137      2.363
REMARK  6 active torsions:
REMARK  status: ('A' for Active; 'I' for Inactive)
REMARK    1  A    between atoms: N1_5  and  C5_6 
REMARK    2  A    between atoms: C7_10  and  C8_11 
REMARK       I    between atoms: C8_11  and  N3_13 
REMARK    3  A    between atoms: N3_13  and  C9_15 
REMARK    4  A    between atoms: C17_24  and  C18_25 
REMARK    5  A    between atoms: C18_25  and  C19_26 
REMARK    6  A    between atoms: C26_33  and  O2_34 
ROOT
HETATM    1  C5  UNL     1      -1.036  22.848   6.823  1.00  0.00     0.128 A 
HETATM    2  N2  UNL     1      -0.986  24.052   6.242  1.00  0.00    -0.340 N 
ATOM      3  H2  UNL     1      -1.547  24.805   6.641  1.00  0.00     0.167 HD
HETATM    4  C6  UNL     1      -0.233  24.324   5.155  1.00  0.00     0.063 A 
HETATM    5  C7  UNL     1      -0.282  25.601   4.688  1.00  0.00     0.059 A 
HETATM    6  C15 UNL     1       0.492  25.904   3.580  1.00  0.00     0.020 A 
HETATM    7  C16 UNL     1       1.277  24.936   2.982  1.00  0.00     0.009 A 
HETATM    8  C17 UNL     1       1.345  23.636   3.433  1.00  0.00    -0.042 A 
HETATM    9  C25 UNL     1       0.563  23.352   4.548  1.00  0.00     0.033 A 
HETATM   10  C26 UNL     1       0.518  22.114   5.138  1.00  0.00     0.104 A 
HETATM   11  C27 UNL     1      -0.273  21.858   6.266  1.00  0.00     0.112 A 
HETATM   12 CL1  UNL     1      -0.266  20.265   6.948  1.00  0.00    -0.077 Cl
ENDROOT
BRANCH   5  13
HETATM   13  C8  UNL     1      -1.119  26.597   5.337  1.00  0.00     0.254 C 
HETATM   14  O1  UNL     1      -0.939  26.837   6.552  1.00  0.00    -0.268 OA
HETATM   15  N3  UNL     1      -2.105  27.277   4.622  1.00  0.00    -0.352 N 
ATOM     16  H3  UNL     1      -2.217  27.051   3.634  1.00  0.00     0.163 HD
BRANCH  15  17
HETATM   17  C9  UNL     1      -2.981  28.283   5.188  1.00  0.00     0.087 C 
HETATM   18  C10 UNL     1      -4.301  28.303   4.459  1.00  0.00     0.044 C 
HETATM   19  C11 UNL     1      -5.211  29.315   5.054  1.00  0.00     0.118 C 
HETATM   20  N4  UNL     1      -4.575  30.375   5.753  1.00  0.00    -0.416 N 
HETATM   21  C12 UNL     1      -5.420  31.437   6.164  1.00  0.00     0.143 C 
HETATM   22  C13 UNL     1      -3.291  30.766   5.273  1.00  0.00     0.118 C 
HETATM   23  C14 UNL     1      -2.353  29.647   4.996  1.00  0.00     0.044 C 
ENDBRANCH  15  17
ENDBRANCH   5  13
BRANCH   1  24
HETATM   24  N1  UNL     1      -1.882  22.661   7.986  1.00  0.00    -0.366 N 
HETATM   25  C4  UNL     1      -3.293  22.482   7.777  1.00  0.00     0.125 C 
HETATM   26  C3  UNL     1      -3.838  21.453   8.718  1.00  0.00     0.024 C 
HETATM   27  C2  UNL     1      -3.485  21.754  10.158  1.00  0.00    -0.015 C 
HETATM   28  C1  UNL     1      -3.976  20.588  10.996  1.00  0.00     0.010 C 
HETATM   29  C29 UNL     1      -1.981  21.844  10.332  1.00  0.00     0.024 C 
HETATM   30  C28 UNL     1      -1.328  22.682   9.301  1.00  0.00     0.125 C 
ENDBRANCH   1  24
BRANCH   8  31
HETATM   31  C18 UNL     1       2.159  22.587   2.825  1.00  0.00     0.044 C 
BRANCH  31  32
HETATM   32  C19 UNL     1       2.305  22.747   1.314  1.00  0.00    -0.007 C 
HETATM   33  C20 UNL     1       1.206  22.123   0.529  1.00  0.00     0.005 C 
HETATM   34  C21 UNL     1       1.761  20.952  -0.250  1.00  0.00     0.001 C 
HETATM   35  C22 UNL     1       3.023  20.604   0.462  1.00  0.00     0.005 C 
HETATM   36  C23 UNL     1       3.547  21.958   0.881  1.00  0.00    -0.014 C 
HETATM   37  C24 UNL     1       4.520  21.780   1.993  1.00  0.00     0.010 C 
ENDBRANCH  31  32
ENDBRANCH   8  31
BRANCH  10  38
HETATM   38  O2  UNL     1       1.248  21.084   4.646  1.00  0.00    -0.358 OA
ATOM     39  H2  UNL     1       1.601  21.114   3.764  1.00  0.00     0.217 HD
ENDBRANCH  10  38
TORSDOF 6
ENDMDL
MODEL 5
REMARK VINA RESULT: -6.371180500      6.613     11.751
REMARK  6 active torsions:
REMARK  status: ('A' for Active; 'I' for Inactive)
REMARK    1  A    between atoms: N1_5  and  C5_6 
REMARK    2  A    between atoms: C7_10  and  C8_11 
REMARK       I    between atoms: C8_11  and  N3_13 
REMARK    3  A    between atoms: N3_13  and  C9_15 
REMARK    4  A    between atoms: C17_24  and  C18_25 
REMARK    5  A    between atoms: C18_25  and  C19_26 
REMARK    6  A    between atoms: C26_33  and  O2_34 
ROOT
HETATM    1  C5  UNL     1       4.112  19.604   4.050  1.00  0.00     0.128 A 
HETATM    2  N2  UNL     1       5.421  19.346   3.948  1.00  0.00    -0.340 N 
ATOM      3  H2  UNL     1       5.949  19.809   3.209  1.00  0.00     0.167 HD
HETATM    4  C6  UNL     1       6.080  18.504   4.773  1.00  0.00     0.063 A 
HETATM    5  C7  UNL     1       7.413  18.355   4.546  1.00  0.00     0.059 A 
HETATM    6  C15 UNL     1       8.111  17.504   5.387  1.00  0.00     0.020 A 
HETATM    7  C16 UNL     1       7.465  16.838   6.412  1.00  0.00     0.009 A 
HETATM    8  C17 UNL     1       6.116  16.970   6.663  1.00  0.00    -0.042 A 
HETATM    9  C25 UNL     1       5.433  17.830   5.809  1.00  0.00     0.033 A 
HETATM   10  C26 UNL     1       4.091  18.090   5.921  1.00  0.00     0.104 A 
HETATM   11  C27 UNL     1       3.430  18.968   5.051  1.00  0.00     0.112 A 
HETATM   12 CL1  UNL     1       1.733  19.239   5.268  1.00  0.00    -0.077 Cl
ENDROOT
BRANCH   5  13
HETATM   13  C8  UNL     1       8.066  19.068   3.460  1.00  0.00     0.254 C 
HETATM   14  O1  UNL     1       8.249  20.301   3.571  1.00  0.00    -0.268 OA
HETATM   15  N3  UNL     1       8.484  18.393   2.312  1.00  0.00    -0.352 N 
ATOM     16  H3  UNL     1       8.315  17.388   2.264  1.00  0.00     0.163 HD
BRANCH  15  17
HETATM   17  C9  UNL     1       9.141  19.022   1.185  1.00  0.00     0.087 C 
HETATM   18  C10 UNL     1       8.139  19.766   0.338  1.00  0.00     0.044 C 
HETATM   19  C11 UNL     1       8.814  20.434  -0.804  1.00  0.00     0.118 C 
HETATM   20  N4  UNL     1      10.053  19.866  -1.202  1.00  0.00    -0.416 N 
HETATM   21  C12 UNL     1      10.611  20.380  -2.399  1.00  0.00     0.143 C 
HETATM   22  C13 UNL     1      10.188  18.459  -1.018  1.00  0.00     0.118 C 
HETATM   23  C14 UNL     1       9.747  17.949   0.306  1.00  0.00     0.044 C 
ENDBRANCH  15  17
ENDBRANCH   5  13
BRANCH   1  24
HETATM   24  N1  UNL     1       3.500  20.522   3.109  1.00  0.00    -0.366 N 
HETATM   25  C4  UNL     1       2.253  21.137   3.474  1.00  0.00     0.125 C 
HETATM   26  C3  UNL     1       2.223  22.568   3.032  1.00  0.00     0.024 C 
HETATM   27  C2  UNL     1       2.551  22.717   1.562  1.00  0.00    -0.015 C 
HETATM   28  C1  UNL     1       2.615  24.203   1.263  1.00  0.00     0.010 C 
HETATM   29  C29 UNL     1       3.915  22.128   1.256  1.00  0.00     0.024 C 
HETATM   30  C28 UNL     1       4.110  20.784   1.845  1.00  0.00     0.125 C 
ENDBRANCH   1  24
BRANCH   8  31
HETATM   31  C18 UNL     1       5.399  16.280   7.732  1.00  0.00     0.044 C 
BRANCH  31  32
HETATM   32  C19 UNL     1       6.327  15.729   8.812  1.00  0.00    -0.007 C 
HETATM   33  C20 UNL     1       6.930  14.411   8.478  1.00  0.00     0.005 C 
HETATM   34  C21 UNL     1       6.373  13.362   9.414  1.00  0.00     0.001 C 
HETATM   35  C22 UNL     1       5.110  13.965   9.928  1.00  0.00     0.005 C 
HETATM   36  C23 UNL     1       5.472  15.427  10.049  1.00  0.00    -0.014 C 
HETATM   37  C24 UNL     1       4.222  16.235  10.084  1.00  0.00     0.010 C 
ENDBRANCH  31  32
ENDBRANCH   8  31
BRANCH  10  38
HETATM   38  O2  UNL     1       3.348  17.500   6.889  1.00  0.00    -0.358 OA
ATOM     39  H2  UNL     1       2.682  16.860   6.669  1.00  0.00     0.217 HD
ENDBRANCH  10  38
TORSDOF 6
ENDMDL
