MODEL 1
REMARK VINA RESULT: -7.680476525      0.000      0.000
REMARK  6 active torsions:
REMARK  status: ('A' for Active; 'I' for Inactive)
REMARK    1  A    between atoms: O1_2  and  C2_3 
REMARK    2  A    between atoms: C5_7  and  N1_8 
REMARK    3  A    between atoms: N1_8  and  S1_10 
REMARK    4  A    between atoms: S1_10  and  C6_13 
REMARK    5  A    between atoms: C8_17  and  N3_18 
REMARK    6  A    between atoms: N3_18  and  C9_20 
ROOT
HETATM    1  C6  UNL     1       6.916  20.425   2.323  1.00  0.00     0.097 A 
HETATM    2  C7  UNL     1       6.434  21.267   3.301  1.00  0.00     0.115 A 
HETATM    3  N2  UNL     1       5.100  21.555   3.378  1.00  0.00    -0.349 N 
ATOM      4  H2  UNL     1       4.761  22.180   4.109  1.00  0.00     0.166 HD
HETATM    5  C8  UNL     1       4.231  21.025   2.505  1.00  0.00     0.127 A 
HETATM    6  C15 UNL     1       4.685  20.180   1.516  1.00  0.00     0.079 A 
HETATM    7 CL4  UNL     1       3.518  19.512   0.398  1.00  0.00    -0.080 Cl
HETATM    8  C16 UNL     1       6.050  19.867   1.413  1.00  0.00     0.054 A 
ENDROOT
BRANCH   1   9
HETATM    9  S1  UNL     1       8.631  20.045   2.211  1.00  0.00     0.264 S 
HETATM   10  O2  UNL     1       8.788  18.563   2.101  1.00  0.00    -0.200 OA
HETATM   11  O3  UNL     1       9.326  20.450   3.502  1.00  0.00    -0.200 OA
BRANCH   9  12
HETATM   12  N1  UNL     1       9.356  20.917   0.944  1.00  0.00    -0.279 N 
ATOM     13  H1  UNL     1       9.761  21.829   1.157  1.00  0.00     0.179 HD
BRANCH  12  14
HETATM   14  C5  UNL     1       9.426  20.449  -0.383  1.00  0.00     0.066 A 
HETATM   15  C4  UNL     1      10.168  21.188  -1.323  1.00  0.00     0.064 A 
HETATM   16  C3  UNL     1      10.277  20.763  -2.626  1.00  0.00     0.064 A 
HETATM   17 CL1  UNL     1      10.951  22.680  -0.775  1.00  0.00    -0.082 Cl
HETATM   18  C2  UNL     1       9.685  19.612  -3.091  1.00  0.00     0.091 A 
HETATM   19  C18 UNL     1       8.960  18.887  -2.174  1.00  0.00     0.069 A 
HETATM   20  C17 UNL     1       8.835  19.302  -0.844  1.00  0.00     0.058 A 
HETATM   21 CL5  UNL     1       8.182  17.407  -2.722  1.00  0.00    -0.081 Cl
BRANCH  18  22
HETATM   22  O1  UNL     1       9.833  19.236  -4.414  1.00  0.00    -0.354 OA
HETATM   23  C1  UNL     1      11.010  19.597  -5.110  1.00  0.00     0.210 C 
ENDBRANCH  18  22
ENDBRANCH  12  14
ENDBRANCH   9  12
ENDBRANCH   1   9
BRANCH   5  24
HETATM   24  N3  UNL     1       2.994  21.295   2.579  1.00  0.00    -0.339 N 
ATOM     25  H3  UNL     1       2.362  20.505   2.717  1.00  0.00     0.167 HD
BRANCH  24  26
HETATM   26  C9  UNL     1       2.405  22.560   2.492  1.00  0.00     0.074 A 
HETATM   27  C10 UNL     1       1.577  23.027   3.495  1.00  0.00     0.058 A 
HETATM   28  C11 UNL     1       0.990  24.267   3.427  1.00  0.00     0.058 A 
HETATM   29 CL2  UNL     1      -0.061  24.813   4.741  1.00  0.00    -0.082 Cl
HETATM   30  C12 UNL     1       1.232  25.074   2.326  1.00  0.00     0.058 A 
HETATM   31 CL3  UNL     1       0.489  26.676   2.215  1.00  0.00    -0.082 Cl
HETATM   32  C13 UNL     1       2.055  24.628   1.316  1.00  0.00     0.070 A 
HETATM   33  C14 UNL     1       2.634  23.381   1.401  1.00  0.00     0.144 A 
HETATM   34  F1  UNL     1       3.442  22.988   0.370  1.00  0.00    -0.204 F 
ENDBRANCH  24  26
ENDBRANCH   5  24
TORSDOF 6
ENDMDL
MODEL 2
REMARK VINA RESULT: -7.400272541      1.165      1.657
REMARK  6 active torsions:
REMARK  status: ('A' for Active; 'I' for Inactive)
REMARK    1  A    between atoms: O1_2  and  C2_3 
REMARK    2  A    between atoms: C5_7  and  N1_8 
REMARK    3  A    between atoms: N1_8  and  S1_10 
REMARK    4  A    between atoms: S1_10  and  C6_13 
REMARK    5  A    between atoms: C8_17  and  N3_18 
REMARK    6  A    between atoms: N3_18  and  C9_20 
ROOT
HETATM    1  C6  UNL     1       6.982  20.369   2.338  1.00  0.00     0.097 A 
HETATM    2  C7  UNL     1       6.387  21.147   3.307  1.00  0.00     0.115 A 
HETATM    3  N2  UNL     1       5.025  21.252   3.380  1.00  0.00    -0.349 N 
ATOM      4  H2  UNL     1       4.603  21.832   4.104  1.00  0.00     0.166 HD
HETATM    5  C8  UNL     1       4.239  20.601   2.510  1.00  0.00     0.127 A 
HETATM    6  C15 UNL     1       4.806  19.816   1.531  1.00  0.00     0.079 A 
HETATM    7 CL4  UNL     1       3.744  18.984   0.418  1.00  0.00    -0.080 Cl
HETATM    8  C16 UNL     1       6.202  19.690   1.433  1.00  0.00     0.054 A 
ENDROOT
BRANCH   1   9
HETATM    9  S1  UNL     1       8.733  20.225   2.232  1.00  0.00     0.264 S 
HETATM   10  O2  UNL     1       9.095  18.775   2.224  1.00  0.00    -0.200 OA
HETATM   11  O3  UNL     1       9.367  20.813   3.484  1.00  0.00    -0.200 OA
BRANCH   9  12
HETATM   12  N1  UNL     1       9.325  21.098   0.899  1.00  0.00    -0.279 N 
ATOM     13  H1  UNL     1       9.639  22.056   1.051  1.00  0.00     0.179 HD
BRANCH  12  14
HETATM   14  C5  UNL     1       9.407  20.569  -0.404  1.00  0.00     0.066 A 
HETATM   15  C4  UNL     1      10.184  21.245  -1.362  1.00  0.00     0.064 A 
HETATM   16  C3  UNL     1      10.305  20.758  -2.642  1.00  0.00     0.064 A 
HETATM   17 CL1  UNL     1      10.998  22.738  -0.866  1.00  0.00    -0.082 Cl
HETATM   18  C2  UNL     1       9.691  19.604  -3.067  1.00  0.00     0.091 A 
HETATM   19  C18 UNL     1       8.930  18.940  -2.133  1.00  0.00     0.069 A 
HETATM   20  C17 UNL     1       8.793  19.417  -0.825  1.00  0.00     0.058 A 
HETATM   21 CL5  UNL     1       8.123  17.457  -2.628  1.00  0.00    -0.081 Cl
BRANCH  18  22
HETATM   22  O1  UNL     1       9.852  19.164  -4.369  1.00  0.00    -0.354 OA
HETATM   23  C1  UNL     1      10.992  19.570  -5.102  1.00  0.00     0.210 C 
ENDBRANCH  18  22
ENDBRANCH  12  14
ENDBRANCH   9  12
ENDBRANCH   1   9
BRANCH   5  24
HETATM   24  N3  UNL     1       2.977  20.700   2.580  1.00  0.00    -0.339 N 
ATOM     25  H3  UNL     1       2.438  19.880   2.301  1.00  0.00     0.167 HD
BRANCH  24  26
HETATM   26  C9  UNL     1       2.246  21.817   2.999  1.00  0.00     0.074 A 
HETATM   27  C10 UNL     1       2.269  22.991   2.273  1.00  0.00     0.058 A 
HETATM   28  C11 UNL     1       1.558  24.099   2.668  1.00  0.00     0.058 A 
HETATM   29 CL2  UNL     1       1.625  25.576   1.699  1.00  0.00    -0.082 Cl
HETATM   30  C12 UNL     1       0.796  24.039   3.824  1.00  0.00     0.058 A 
HETATM   31 CL3  UNL     1      -0.131  25.450   4.355  1.00  0.00    -0.082 Cl
HETATM   32  C13 UNL     1       0.758  22.876   4.562  1.00  0.00     0.070 A 
HETATM   33  C14 UNL     1       1.478  21.777   4.151  1.00  0.00     0.144 A 
HETATM   34  F1  UNL     1       1.406  20.650   4.921  1.00  0.00    -0.204 F 
ENDBRANCH  24  26
ENDBRANCH   5  24
TORSDOF 6
ENDMDL
MODEL 3
REMARK VINA RESULT: -7.271719056      1.525      2.451
REMARK  6 active torsions:
REMARK  status: ('A' for Active; 'I' for Inactive)
REMARK    1  A    between atoms: O1_2  and  C2_3 
REMARK    2  A    between atoms: C5_7  and  N1_8 
REMARK    3  A    between atoms: N1_8  and  S1_10 
REMARK    4  A    between atoms: S1_10  and  C6_13 
REMARK    5  A    between atoms: C8_17  and  N3_18 
REMARK    6  A    between atoms: N3_18  and  C9_20 
ROOT
HETATM    1  C6  UNL     1       6.588  19.554   2.323  1.00  0.00     0.097 A 
HETATM    2  C7  UNL     1       6.599  20.902   2.605  1.00  0.00     0.115 A 
HETATM    3  N2  UNL     1       5.597  21.718   2.157  1.00  0.00    -0.349 N 
ATOM      4  H2  UNL     1       5.623  22.713   2.376  1.00  0.00     0.166 HD
HETATM    5  C8  UNL     1       4.581  21.224   1.434  1.00  0.00     0.127 A 
HETATM    6  C15 UNL     1       4.544  19.880   1.137  1.00  0.00     0.079 A 
HETATM    7 CL4  UNL     1       3.200  19.278   0.192  1.00  0.00    -0.080 Cl
HETATM    8  C16 UNL     1       5.559  19.018   1.584  1.00  0.00     0.054 A 
ENDROOT
BRANCH   1   9
HETATM    9  S1  UNL     1       7.870  18.491   2.892  1.00  0.00     0.264 S 
HETATM   10  O2  UNL     1       7.373  17.083   2.868  1.00  0.00    -0.200 OA
HETATM   11  O3  UNL     1       8.181  18.806   4.349  1.00  0.00    -0.200 OA
BRANCH   9  12
HETATM   12  N1  UNL     1       9.295  18.742   2.000  1.00  0.00    -0.279 N 
ATOM     13  H1  UNL     1      10.187  18.708   2.494  1.00  0.00     0.179 HD
BRANCH  12  14
HETATM   14  C5  UNL     1       9.311  18.995   0.614  1.00  0.00     0.066 A 
HETATM   15  C4  UNL     1       9.366  17.905  -0.273  1.00  0.00     0.064 A 
HETATM   16  C3  UNL     1       9.369  18.102  -1.634  1.00  0.00     0.064 A 
HETATM   17 CL1  UNL     1       9.432  16.275   0.419  1.00  0.00    -0.082 Cl
HETATM   18  C2  UNL     1       9.318  19.349  -2.210  1.00  0.00     0.091 A 
HETATM   19  C18 UNL     1       9.264  20.418  -1.346  1.00  0.00     0.069 A 
HETATM   20  C17 UNL     1       9.261  20.240   0.042  1.00  0.00     0.058 A 
HETATM   21 CL5  UNL     1       9.199  22.035  -2.036  1.00  0.00    -0.081 Cl
BRANCH  18  22
HETATM   22  O1  UNL     1       9.323  19.483  -3.588  1.00  0.00    -0.354 OA
HETATM   23  C1  UNL     1      10.558  19.528  -4.275  1.00  0.00     0.210 C 
ENDBRANCH  18  22
ENDBRANCH  12  14
ENDBRANCH   9  12
ENDBRANCH   1   9
BRANCH   5  24
HETATM   24  N3  UNL     1       3.654  21.983   1.021  1.00  0.00    -0.339 N 
ATOM     25  H3  UNL     1       3.556  22.075   0.009  1.00  0.00     0.167 HD
BRANCH  24  26
HETATM   26  C9  UNL     1       2.751  22.709   1.805  1.00  0.00     0.074 A 
HETATM   27  C10 UNL     1       2.473  24.032   1.523  1.00  0.00     0.058 A 
HETATM   28  C11 UNL     1       1.589  24.761   2.282  1.00  0.00     0.058 A 
HETATM   29 CL2  UNL     1       1.270  26.452   1.875  1.00  0.00    -0.082 Cl
HETATM   30  C12 UNL     1       0.959  24.157   3.359  1.00  0.00     0.058 A 
HETATM   31 CL3  UNL     1      -0.184  25.072   4.352  1.00  0.00    -0.082 Cl
HETATM   32  C13 UNL     1       1.222  22.838   3.656  1.00  0.00     0.070 A 
HETATM   33  C14 UNL     1       2.111  22.123   2.884  1.00  0.00     0.144 A 
HETATM   34  F1  UNL     1       2.337  20.818   3.224  1.00  0.00    -0.204 F 
ENDBRANCH  24  26
ENDBRANCH   5  24
TORSDOF 6
ENDMDL
MODEL 4
REMARK VINA RESULT: -7.238384342      1.459      2.395
REMARK  6 active torsions:
REMARK  status: ('A' for Active; 'I' for Inactive)
REMARK    1  A    between atoms: O1_2  and  C2_3 
REMARK    2  A    between atoms: C5_7  and  N1_8 
REMARK    3  A    between atoms: N1_8  and  S1_10 
REMARK    4  A    between atoms: S1_10  and  C6_13 
REMARK    5  A    between atoms: C8_17  and  N3_18 
REMARK    6  A    between atoms: N3_18  and  C9_20 
ROOT
HETATM    1  C6  UNL     1       5.967  19.829   2.049  1.00  0.00     0.097 A 
HETATM    2  C7  UNL     1       5.917  21.165   2.379  1.00  0.00     0.115 A 
HETATM    3  N2  UNL     1       4.887  21.953   1.945  1.00  0.00    -0.349 N 
ATOM      4  H2  UNL     1       4.867  22.940   2.198  1.00  0.00     0.166 HD
HETATM    5  C8  UNL     1       3.904  21.443   1.189  1.00  0.00     0.127 A 
HETATM    6  C15 UNL     1       3.928  20.110   0.844  1.00  0.00     0.079 A 
HETATM    7 CL4  UNL     1       2.625  19.486  -0.143  1.00  0.00    -0.080 Cl
HETATM    8  C16 UNL     1       4.974  19.277   1.276  1.00  0.00     0.054 A 
ENDROOT
BRANCH   1   9
HETATM    9  S1  UNL     1       7.287  18.802   2.601  1.00  0.00     0.264 S 
HETATM   10  O2  UNL     1       6.755  17.839   3.611  1.00  0.00    -0.200 OA
HETATM   11  O3  UNL     1       8.320  19.651   3.327  1.00  0.00    -0.200 OA
BRANCH   9  12
HETATM   12  N1  UNL     1       8.065  18.068   1.280  1.00  0.00    -0.279 N 
ATOM     13  H1  UNL     1       8.193  17.056   1.298  1.00  0.00     0.179 HD
BRANCH  12  14
HETATM   14  C5  UNL     1       8.542  18.781   0.162  1.00  0.00     0.066 A 
HETATM   15  C4  UNL     1       8.315  18.256  -1.123  1.00  0.00     0.064 A 
HETATM   16  C3  UNL     1       8.748  18.923  -2.244  1.00  0.00     0.064 A 
HETATM   17 CL1  UNL     1       7.456  16.711  -1.249  1.00  0.00    -0.082 Cl
HETATM   18  C2  UNL     1       9.417  20.123  -2.190  1.00  0.00     0.091 A 
HETATM   19  C18 UNL     1       9.641  20.640  -0.934  1.00  0.00     0.069 A 
HETATM   20  C17 UNL     1       9.209  19.977   0.219  1.00  0.00     0.058 A 
HETATM   21 CL5  UNL     1      10.495  22.173  -0.813  1.00  0.00    -0.081 Cl
BRANCH  18  22
HETATM   22  O1  UNL     1       9.828  20.748  -3.354  1.00  0.00    -0.354 OA
HETATM   23  C1  UNL     1      10.658  20.048  -4.260  1.00  0.00     0.210 C 
ENDBRANCH  18  22
ENDBRANCH  12  14
ENDBRANCH   9  12
ENDBRANCH   1   9
BRANCH   5  24
HETATM   24  N3  UNL     1       2.950  22.177   0.787  1.00  0.00    -0.339 N 
ATOM     25  H3  UNL     1       2.772  22.184  -0.217  1.00  0.00     0.167 HD
BRANCH  24  26
HETATM   26  C9  UNL     1       2.117  22.976   1.578  1.00  0.00     0.074 A 
HETATM   27  C10 UNL     1       1.060  22.425   2.275  1.00  0.00     0.058 A 
HETATM   28  C11 UNL     1       0.231  23.193   3.056  1.00  0.00     0.058 A 
HETATM   29 CL2  UNL     1      -1.107  22.434   3.927  1.00  0.00    -0.082 Cl
HETATM   30  C12 UNL     1       0.459  24.557   3.150  1.00  0.00     0.058 A 
HETATM   31 CL3  UNL     1      -0.591  25.570   4.151  1.00  0.00    -0.082 Cl
HETATM   32  C13 UNL     1       1.510  25.127   2.464  1.00  0.00     0.070 A 
HETATM   33  C14 UNL     1       2.329  24.340   1.685  1.00  0.00     0.144 A 
HETATM   34  F1  UNL     1       3.355  24.956   1.025  1.00  0.00    -0.204 F 
ENDBRANCH  24  26
ENDBRANCH   5  24
TORSDOF 6
ENDMDL
MODEL 5
REMARK VINA RESULT: -7.209252709      1.738      2.511
REMARK  6 active torsions:
REMARK  status: ('A' for Active; 'I' for Inactive)
REMARK    1  A    between atoms: O1_2  and  C2_3 
REMARK    2  A    between atoms: C5_7  and  N1_8 
REMARK    3  A    between atoms: N1_8  and  S1_10 
REMARK    4  A    between atoms: S1_10  and  C6_13 
REMARK    5  A    between atoms: C8_17  and  N3_18 
REMARK    6  A    between atoms: N3_18  and  C9_20 
ROOT
HETATM    1  C6  UNL     1       6.751  19.953   3.697  1.00  0.00     0.097 A 
HETATM    2  C7  UNL     1       6.439  21.248   3.351  1.00  0.00     0.115 A 
HETATM    3  N2  UNL     1       5.159  21.593   3.017  1.00  0.00    -0.349 N 
ATOM      4  H2  UNL     1       4.947  22.558   2.763  1.00  0.00     0.166 HD
HETATM    5  C8  UNL     1       4.178  20.678   3.019  1.00  0.00     0.127 A 
HETATM    6  C15 UNL     1       4.461  19.374   3.361  1.00  0.00     0.079 A 
HETATM    7 CL4  UNL     1       3.153  18.213   3.350  1.00  0.00    -0.080 Cl
HETATM    8  C16 UNL     1       5.767  18.992   3.709  1.00  0.00     0.054 A 
ENDROOT
BRANCH   1   9
HETATM    9  S1  UNL     1       8.394  19.494   4.130  1.00  0.00     0.264 S 
HETATM   10  O2  UNL     1       8.369  18.817   5.461  1.00  0.00    -0.200 OA
HETATM   11  O3  UNL     1       9.240  20.746   4.308  1.00  0.00    -0.200 OA
BRANCH   9  12
HETATM   12  N1  UNL     1       9.102  18.569   2.891  1.00  0.00    -0.279 N 
ATOM     13  H1  UNL     1       9.666  17.761   3.155  1.00  0.00     0.179 HD
BRANCH  12  14
HETATM   14  C5  UNL     1       8.953  18.859   1.521  1.00  0.00     0.066 A 
HETATM   15  C4  UNL     1       8.232  17.960   0.713  1.00  0.00     0.064 A 
HETATM   16  C3  UNL     1       8.048  18.208  -0.626  1.00  0.00     0.064 A 
HETATM   17 CL1  UNL     1       7.574  16.503   1.477  1.00  0.00    -0.082 Cl
HETATM   18  C2  UNL     1       8.541  19.326  -1.257  1.00  0.00     0.091 A 
HETATM   19  C18 UNL     1       9.246  20.207  -0.470  1.00  0.00     0.069 A 
HETATM   20  C17 UNL     1       9.447  19.974   0.895  1.00  0.00     0.058 A 
HETATM   21 CL5  UNL     1       9.899  21.653  -1.231  1.00  0.00    -0.081 Cl
BRANCH  18  22
HETATM   22  O1  UNL     1       8.321  19.520  -2.609  1.00  0.00    -0.354 OA
HETATM   23  C1  UNL     1       8.895  18.624  -3.540  1.00  0.00     0.210 C 
ENDBRANCH  18  22
ENDBRANCH  12  14
ENDBRANCH   9  12
ENDBRANCH   1   9
BRANCH   5  24
HETATM   24  N3  UNL     1       2.992  21.001   2.708  1.00  0.00    -0.339 N 
ATOM     25  H3  UNL     1       2.328  20.236   2.587  1.00  0.00     0.167 HD
BRANCH  24  26
HETATM   26  C9  UNL     1       2.499  22.295   2.514  1.00  0.00     0.074 A 
HETATM   27  C10 UNL     1       1.690  22.894   3.461  1.00  0.00     0.058 A 
HETATM   28  C11 UNL     1       1.197  24.165   3.289  1.00  0.00     0.058 A 
HETATM   29 CL2  UNL     1       0.166  24.882   4.534  1.00  0.00    -0.082 Cl
HETATM   30  C12 UNL     1       1.516  24.867   2.138  1.00  0.00     0.058 A 
HETATM   31 CL3  UNL     1       0.895  26.506   1.891  1.00  0.00    -0.082 Cl
HETATM   32  C13 UNL     1       2.322  24.288   1.181  1.00  0.00     0.070 A 
HETATM   33  C14 UNL     1       2.807  23.013   1.372  1.00  0.00     0.144 A 
HETATM   34  F1  UNL     1       3.601  22.487   0.391  1.00  0.00    -0.204 F 
ENDBRANCH  24  26
ENDBRANCH   5  24
TORSDOF 6
ENDMDL
