MODEL 1
REMARK VINA RESULT: -5.795517591      0.000      0.000
REMARK  4 active torsions:
REMARK  status: ('A' for Active; 'I' for Inactive)
REMARK    1  A    between atoms: C2_2  and  C3_3 
REMARK    2  A    between atoms: C3_3  and  N1_5 
REMARK    3  A    between atoms: C7_8  and  O1_9 
REMARK    4  A    between atoms: N2_11  and  N3_12 
ROOT
HETATM    1  N1  UNL     1     -32.015  -8.199  13.677  1.00  0.00    -0.177 N 
HETATM    2  C5  UNL     1     -32.075  -7.339  12.653  1.00  0.00     0.079 A 
HETATM    3  C6  UNL     1     -33.046  -7.451  11.561  1.00  0.00     0.074 C 
HETATM    4  C7  UNL     1     -31.093  -6.352  12.798  1.00  0.00     0.203 A 
HETATM    5  N2  UNL     1     -30.453  -6.661  13.940  1.00  0.00    -0.062 N 
HETATM    6  C11 UNL     1     -31.011  -7.770  14.463  1.00  0.00     0.702 A 
HETATM    7  N4  UNL     1     -30.588  -8.298  15.575  1.00  0.00    -0.233 N 
ATOM      8  H41 UNL     1     -29.826  -7.972  16.170  1.00  0.00     0.174 HD
ATOM      9  H42 UNL     1     -31.010  -9.137  15.971  1.00  0.00     0.174 HD
ENDROOT
BRANCH   5  10
HETATM   10  N3  UNL     1     -29.393  -5.924  14.456  1.00  0.00    -0.286 N 
HETATM   11  C8  UNL     1     -28.170  -6.094  14.147  1.00  0.00    -0.003 C 
HETATM   12  C9  UNL     1     -27.126  -5.256  14.753  1.00  0.00     0.064 C 
HETATM   13  C10 UNL     1     -27.806  -7.136  13.175  1.00  0.00     0.064 C 
ATOM     14  H3  UNL     1     -29.611  -5.193  15.133  1.00  0.00     0.187 HD
ENDBRANCH   5  10
BRANCH   4  15
HETATM   15  O1  UNL     1     -30.871  -5.301  11.916  1.00  0.00    -0.343 OA
ATOM     16  H1  UNL     1     -30.023  -4.930  11.704  1.00  0.00     0.219 HD
ENDBRANCH   4  15
BRANCH   1  17
HETATM   17  C3  UNL     1     -32.786  -9.360  13.992  1.00  0.00     0.103 C 
HETATM   18  C4  UNL     1     -34.239  -9.148  14.179  1.00  0.00     0.033 C 
BRANCH  17  19
HETATM   19  C2  UNL     1     -32.600 -10.408  12.910  1.00  0.00     0.021 C 
HETATM   20  C1  UNL     1     -31.276 -11.130  13.066  1.00  0.00     0.007 C 
ENDBRANCH  17  19
ENDBRANCH   1  17
TORSDOF 4
ENDMDL
MODEL 2
REMARK VINA RESULT: -5.641386265      1.809      2.691
REMARK  4 active torsions:
REMARK  status: ('A' for Active; 'I' for Inactive)
REMARK    1  A    between atoms: C2_2  and  C3_3 
REMARK    2  A    between atoms: C3_3  and  N1_5 
REMARK    3  A    between atoms: C7_8  and  O1_9 
REMARK    4  A    between atoms: N2_11  and  N3_12 
ROOT
HETATM    1  N1  UNL     1     -31.443  -8.233  13.760  1.00  0.00    -0.177 N 
HETATM    2  C5  UNL     1     -30.574  -9.205  14.060  1.00  0.00     0.079 A 
HETATM    3  C6  UNL     1     -30.873 -10.631  13.905  1.00  0.00     0.074 C 
HETATM    4  C7  UNL     1     -29.377  -8.650  14.527  1.00  0.00     0.203 A 
HETATM    5  N2  UNL     1     -29.571  -7.320  14.493  1.00  0.00    -0.062 N 
HETATM    6  C11 UNL     1     -30.812  -7.076  14.031  1.00  0.00     0.702 A 
HETATM    7  N4  UNL     1     -31.272  -5.866  13.892  1.00  0.00    -0.233 N 
ATOM      8  H41 UNL     1     -30.794  -4.989  14.098  1.00  0.00     0.174 HD
ATOM      9  H42 UNL     1     -32.212  -5.680  13.542  1.00  0.00     0.174 HD
ENDROOT
BRANCH   5  10
HETATM   10  N3  UNL     1     -28.614  -6.388  14.881  1.00  0.00    -0.286 N 
HETATM   11  C8  UNL     1     -27.747  -5.872  14.107  1.00  0.00    -0.003 C 
HETATM   12  C9  UNL     1     -26.779  -4.893  14.622  1.00  0.00     0.064 C 
HETATM   13  C10 UNL     1     -27.718  -6.260  12.689  1.00  0.00     0.064 C 
ATOM     14  H3  UNL     1     -28.607  -6.097  15.859  1.00  0.00     0.187 HD
ENDBRANCH   5  10
BRANCH   4  15
HETATM   15  O1  UNL     1     -28.258  -9.371  14.930  1.00  0.00    -0.343 OA
ATOM     16  H1  UNL     1     -27.447  -8.995  15.250  1.00  0.00     0.219 HD
ENDBRANCH   4  15
BRANCH   1  17
HETATM   17  C3  UNL     1     -32.779  -8.272  13.254  1.00  0.00     0.103 C 
HETATM   18  C4  UNL     1     -32.947  -8.848  11.900  1.00  0.00     0.033 C 
BRANCH  17  19
HETATM   19  C2  UNL     1     -33.667  -9.048  14.209  1.00  0.00     0.021 C 
HETATM   20  C1  UNL     1     -34.958  -9.474  13.537  1.00  0.00     0.007 C 
ENDBRANCH  17  19
ENDBRANCH   1  17
TORSDOF 4
ENDMDL
MODEL 3
REMARK VINA RESULT: -5.305685763      1.719      2.389
REMARK  4 active torsions:
REMARK  status: ('A' for Active; 'I' for Inactive)
REMARK    1  A    between atoms: C2_2  and  C3_3 
REMARK    2  A    between atoms: C3_3  and  N1_5 
REMARK    3  A    between atoms: C7_8  and  O1_9 
REMARK    4  A    between atoms: N2_11  and  N3_12 
ROOT
HETATM    1  N1  UNL     1     -31.658  -7.872  12.881  1.00  0.00    -0.177 N 
HETATM    2  C5  UNL     1     -30.738  -8.712  12.391  1.00  0.00     0.079 A 
HETATM    3  C6  UNL     1     -31.059 -10.041  11.863  1.00  0.00     0.074 C 
HETATM    4  C7  UNL     1     -29.469  -8.129  12.465  1.00  0.00     0.203 A 
HETATM    5  N2  UNL     1     -29.671  -6.918  13.015  1.00  0.00    -0.062 N 
HETATM    6  C11 UNL     1     -30.986  -6.770  13.262  1.00  0.00     0.702 A 
HETATM    7  N4  UNL     1     -31.472  -5.686  13.797  1.00  0.00    -0.233 N 
ATOM      8  H41 UNL     1     -30.962  -4.851  14.085  1.00  0.00     0.174 HD
ATOM      9  H42 UNL     1     -32.468  -5.574  13.984  1.00  0.00     0.174 HD
ENDROOT
BRANCH   5  10
HETATM   10  N3  UNL     1     -28.655  -6.003  13.268  1.00  0.00    -0.286 N 
HETATM   11  C8  UNL     1     -27.879  -6.037  14.276  1.00  0.00    -0.003 C 
HETATM   12  C9  UNL     1     -26.834  -5.018  14.446  1.00  0.00     0.064 C 
HETATM   13  C10 UNL     1     -28.034  -7.107  15.273  1.00  0.00     0.064 C 
ATOM     14  H3  UNL     1     -28.521  -5.248  12.595  1.00  0.00     0.187 HD
ENDBRANCH   5  10
BRANCH   4  15
HETATM   15  O1  UNL     1     -28.284  -8.722  12.045  1.00  0.00    -0.343 OA
ATOM     16  H1  UNL     1     -27.591  -8.287  11.563  1.00  0.00     0.219 HD
ENDBRANCH   4  15
BRANCH   1  17
HETATM   17  C3  UNL     1     -33.075  -7.990  13.027  1.00  0.00     0.103 C 
HETATM   18  C4  UNL     1     -33.829  -8.349  11.805  1.00  0.00     0.033 C 
BRANCH  17  19
HETATM   19  C2  UNL     1     -33.396  -9.017  14.097  1.00  0.00     0.021 C 
HETATM   20  C1  UNL     1     -34.862  -9.403  14.066  1.00  0.00     0.007 C 
ENDBRANCH  17  19
ENDBRANCH   1  17
TORSDOF 4
ENDMDL
MODEL 4
REMARK VINA RESULT: -5.296793582      1.746      2.785
REMARK  4 active torsions:
REMARK  status: ('A' for Active; 'I' for Inactive)
REMARK    1  A    between atoms: C2_2  and  C3_3 
REMARK    2  A    between atoms: C3_3  and  N1_5 
REMARK    3  A    between atoms: C7_8  and  O1_9 
REMARK    4  A    between atoms: N2_11  and  N3_12 
ROOT
HETATM    1  N1  UNL     1     -31.464  -7.664  12.714  1.00  0.00    -0.177 N 
HETATM    2  C5  UNL     1     -31.453  -8.271  13.907  1.00  0.00     0.079 A 
HETATM    3  C6  UNL     1     -32.298  -9.423  14.234  1.00  0.00     0.074 C 
HETATM    4  C7  UNL     1     -30.534  -7.644  14.755  1.00  0.00     0.203 A 
HETATM    5  N2  UNL     1     -30.004  -6.648  14.023  1.00  0.00    -0.062 N 
HETATM    6  C11 UNL     1     -30.566  -6.666  12.799  1.00  0.00     0.702 A 
HETATM    7  N4  UNL     1     -30.240  -5.807  11.876  1.00  0.00    -0.233 N 
ATOM      8  H41 UNL     1     -29.559  -5.051  11.941  1.00  0.00     0.174 HD
ATOM      9  H42 UNL     1     -30.665  -5.821  10.949  1.00  0.00     0.174 HD
ENDROOT
BRANCH   5  10
HETATM   10  N3  UNL     1     -29.036  -5.769  14.496  1.00  0.00    -0.286 N 
HETATM   11  C8  UNL     1     -27.780  -5.950  14.399  1.00  0.00    -0.003 C 
HETATM   12  C9  UNL     1     -26.842  -4.954  14.935  1.00  0.00     0.064 C 
HETATM   13  C10 UNL     1     -27.271  -7.165  13.745  1.00  0.00     0.064 C 
ATOM     14  H3  UNL     1     -29.356  -4.917  14.956  1.00  0.00     0.187 HD
ENDBRANCH   5  10
BRANCH   4  15
HETATM   15  O1  UNL     1     -30.266  -8.014  16.068  1.00  0.00    -0.343 OA
ATOM     16  H1  UNL     1     -29.870  -8.834  16.339  1.00  0.00     0.219 HD
ENDBRANCH   4  15
BRANCH   1  17
HETATM   17  C3  UNL     1     -32.213  -7.917  11.523  1.00  0.00     0.103 C 
HETATM   18  C4  UNL     1     -31.838  -9.130  10.762  1.00  0.00     0.033 C 
BRANCH  17  19
HETATM   19  C2  UNL     1     -33.690  -8.009  11.857  1.00  0.00     0.021 C 
HETATM   20  C1  UNL     1     -34.369  -9.098  11.049  1.00  0.00     0.007 C 
ENDBRANCH  17  19
ENDBRANCH   1  17
TORSDOF 4
ENDMDL
MODEL 5
REMARK VINA RESULT: -5.291037480      1.992      5.340
REMARK  4 active torsions:
REMARK  status: ('A' for Active; 'I' for Inactive)
REMARK    1  A    between atoms: C2_2  and  C3_3 
REMARK    2  A    between atoms: C3_3  and  N1_5 
REMARK    3  A    between atoms: C7_8  and  O1_9 
REMARK    4  A    between atoms: N2_11  and  N3_12 
ROOT
HETATM    1  N1  UNL     1     -28.703  -6.961  14.010  1.00  0.00    -0.177 N 
HETATM    2  C5  UNL     1     -28.356  -8.238  14.212  1.00  0.00     0.079 A 
HETATM    3  C6  UNL     1     -26.973  -8.720  14.134  1.00  0.00     0.074 C 
HETATM    4  C7  UNL     1     -29.490  -9.004  14.501  1.00  0.00     0.203 A 
HETATM    5  N2  UNL     1     -30.517  -8.137  14.461  1.00  0.00    -0.062 N 
HETATM    6  C11 UNL     1     -30.039  -6.913  14.166  1.00  0.00     0.702 A 
HETATM    7  N4  UNL     1     -30.816  -5.874  14.063  1.00  0.00    -0.233 N 
ATOM      8  H41 UNL     1     -31.828  -5.837  14.182  1.00  0.00     0.174 HD
ATOM      9  H42 UNL     1     -30.454  -4.947  13.840  1.00  0.00     0.174 HD
ENDROOT
BRANCH   5  10
HETATM   10  N3  UNL     1     -31.841  -8.494  14.694  1.00  0.00    -0.286 N 
HETATM   11  C8  UNL     1     -32.658  -8.882  13.798  1.00  0.00    -0.003 C 
HETATM   12  C9  UNL     1     -34.039  -9.237  14.155  1.00  0.00     0.064 C 
HETATM   13  C10 UNL     1     -32.211  -8.974  12.401  1.00  0.00     0.064 C 
ATOM     14  H3  UNL     1     -32.183  -8.441  15.653  1.00  0.00     0.187 HD
ENDBRANCH   5  10
BRANCH   4  15
HETATM   15  O1  UNL     1     -29.495 -10.369  14.764  1.00  0.00    -0.343 OA
ATOM     16  H1  UNL     1     -30.011 -11.017  14.300  1.00  0.00     0.219 HD
ENDBRANCH   4  15
BRANCH   1  17
HETATM   17  C3  UNL     1     -27.930  -5.802  13.692  1.00  0.00     0.103 C 
HETATM   18  C4  UNL     1     -26.987  -5.340  14.735  1.00  0.00     0.033 C 
BRANCH  17  19
HETATM   19  C2  UNL     1     -27.141  -6.046  12.419  1.00  0.00     0.021 C 
HETATM   20  C1  UNL     1     -28.043  -6.026  11.200  1.00  0.00     0.007 C 
ENDBRANCH  17  19
ENDBRANCH   1  17
TORSDOF 4
ENDMDL
