MODEL 1
REMARK VINA RESULT: -7.035794000      0.000      0.000
REMARK  1 active torsions:
REMARK  status: ('A' for Active; 'I' for Inactive)
REMARK    1  A    between atoms: N1_7  and  C7_8 
ROOT
HETATM    1  C7  UNL     1      -8.535   9.078  10.212  1.00  0.00     0.092 C 
HETATM    2  C8  UNL     1      -8.703   9.864   8.915  1.00  0.00     0.009 C 
HETATM    3  C9  UNL     1      -9.178   8.860   7.866  1.00  0.00     0.011 C 
HETATM    4  C10 UNL     1     -10.432   8.155   8.309  1.00  0.00    -0.013 C 
HETATM    5  C11 UNL     1     -11.527   9.222   8.382  1.00  0.00     0.009 C 
HETATM    6  C12 UNL     1     -11.112  10.262   9.383  1.00  0.00    -0.013 C 
HETATM    7  C13 UNL     1      -9.799  10.892   9.014  1.00  0.00     0.011 C 
HETATM    8  C14 UNL     1     -10.941   9.623  10.738  1.00  0.00     0.011 C 
HETATM    9  C15 UNL     1      -9.869   8.581  10.681  1.00  0.00     0.009 C 
HETATM   10  C16 UNL     1     -10.332   7.531   9.660  1.00  0.00     0.011 C 
ENDROOT
BRANCH   1  11
HETATM   11  N1  UNL     1      -7.691   9.607  11.158  1.00  0.00    -0.383 N 
HETATM   12  C3  UNL     1      -6.368   9.954  10.850  1.00  0.00     0.084 C 
HETATM   13  C2  UNL     1      -6.231  11.455  10.979  1.00  0.00     0.026 C 
HETATM   14  C4  UNL     1      -5.686   9.518  12.166  1.00  0.00     0.035 C 
HETATM   15  C1  UNL     1      -6.490  11.678  12.478  1.00  0.00     0.012 C 
HETATM   16  C5  UNL     1      -6.670  10.299  13.057  1.00  0.00     0.026 C 
HETATM   17  C6  UNL     1      -7.991   9.773  12.498  1.00  0.00     0.064 C 
ENDBRANCH   1  11
TORSDOF 1
ENDMDL
MODEL 2
REMARK VINA RESULT: -6.914782275      0.883      2.550
REMARK  1 active torsions:
REMARK  status: ('A' for Active; 'I' for Inactive)
REMARK    1  A    between atoms: N1_7  and  C7_8 
ROOT
HETATM    1  C7  UNL     1      -9.171  10.563  10.301  1.00  0.00     0.092 C 
HETATM    2  C8  UNL     1     -10.080   9.572  11.023  1.00  0.00     0.009 C 
HETATM    3  C9  UNL     1     -11.511   9.980  10.681  1.00  0.00     0.011 C 
HETATM    4  C10 UNL     1     -11.730  10.022   9.192  1.00  0.00    -0.013 C 
HETATM    5  C11 UNL     1     -11.581   8.582   8.692  1.00  0.00     0.009 C 
HETATM    6  C12 UNL     1     -10.195   8.105   9.019  1.00  0.00    -0.013 C 
HETATM    7  C13 UNL     1      -9.922   8.171  10.495  1.00  0.00     0.011 C 
HETATM    8  C14 UNL     1      -9.179   8.985   8.333  1.00  0.00     0.011 C 
HETATM    9  C15 UNL     1      -9.312  10.394   8.819  1.00  0.00     0.009 C 
HETATM   10  C16 UNL     1     -10.732  10.851   8.456  1.00  0.00     0.011 C 
ENDROOT
BRANCH   1  11
HETATM   11  N1  UNL     1      -7.900  10.723  10.799  1.00  0.00    -0.383 N 
HETATM   12  C3  UNL     1      -7.574  10.349  12.110  1.00  0.00     0.084 C 
HETATM   13  C2  UNL     1      -6.591   9.201  12.044  1.00  0.00     0.026 C 
HETATM   14  C4  UNL     1      -6.604  11.499  12.460  1.00  0.00     0.035 C 
HETATM   15  C1  UNL     1      -5.372   9.854  11.372  1.00  0.00     0.012 C 
HETATM   16  C5  UNL     1      -5.748  11.302  11.195  1.00  0.00     0.026 C 
HETATM   17  C6  UNL     1      -6.849  11.329  10.136  1.00  0.00     0.064 C 
ENDBRANCH   1  11
TORSDOF 1
ENDMDL
MODEL 3
REMARK VINA RESULT: -6.813634649      1.044      1.954
REMARK  1 active torsions:
REMARK  status: ('A' for Active; 'I' for Inactive)
REMARK    1  A    between atoms: N1_7  and  C7_8 
ROOT
HETATM    1  C7  UNL     1      -9.298   9.050  11.033  1.00  0.00     0.092 C 
HETATM    2  C8  UNL     1      -9.427   8.331   9.693  1.00  0.00     0.009 C 
HETATM    3  C9  UNL     1     -10.398   7.175   9.921  1.00  0.00     0.011 C 
HETATM    4  C10 UNL     1     -11.712   7.661  10.472  1.00  0.00    -0.013 C 
HETATM    5  C11 UNL     1     -12.348   8.522   9.378  1.00  0.00     0.009 C 
HETATM    6  C12 UNL     1     -11.429   9.672   9.083  1.00  0.00    -0.013 C 
HETATM    7  C13 UNL     1     -10.073   9.198   8.645  1.00  0.00     0.011 C 
HETATM    8  C14 UNL     1     -11.237  10.502  10.328  1.00  0.00     0.011 C 
HETATM    9  C15 UNL     1     -10.611   9.671  11.404  1.00  0.00     0.009 C 
HETATM   10  C16 UNL     1     -11.581   8.516  11.687  1.00  0.00     0.011 C 
ENDROOT
BRANCH   1  11
HETATM   11  N1  UNL     1      -8.166   9.802  11.232  1.00  0.00    -0.383 N 
HETATM   12  C3  UNL     1      -7.338   9.601  12.346  1.00  0.00     0.084 C 
HETATM   13  C2  UNL     1      -6.001   9.091  11.855  1.00  0.00     0.026 C 
HETATM   14  C4  UNL     1      -6.961  11.071  12.640  1.00  0.00     0.035 C 
HETATM   15  C1  UNL     1      -5.481  10.279  11.030  1.00  0.00     0.012 C 
HETATM   16  C5  UNL     1      -6.521  11.357  11.193  1.00  0.00     0.026 C 
HETATM   17  C6  UNL     1      -7.762  10.867  10.448  1.00  0.00     0.064 C 
ENDBRANCH   1  11
TORSDOF 1
ENDMDL
MODEL 4
REMARK VINA RESULT: -6.809427784      0.787      1.494
REMARK  1 active torsions:
REMARK  status: ('A' for Active; 'I' for Inactive)
REMARK    1  A    between atoms: N1_7  and  C7_8 
ROOT
HETATM    1  C7  UNL     1      -8.778   9.230  10.021  1.00  0.00     0.092 C 
HETATM    2  C8  UNL     1      -9.429   9.887   8.807  1.00  0.00     0.009 C 
HETATM    3  C9  UNL     1     -10.110   8.763   8.028  1.00  0.00     0.011 C 
HETATM    4  C10 UNL     1     -11.081   8.005   8.895  1.00  0.00    -0.013 C 
HETATM    5  C11 UNL     1     -12.196   8.989   9.259  1.00  0.00     0.009 C 
HETATM    6  C12 UNL     1     -11.590  10.139  10.010  1.00  0.00    -0.013 C 
HETATM    7  C13 UNL     1     -10.533  10.833   9.199  1.00  0.00     0.011 C 
HETATM    8  C14 UNL     1     -10.932   9.634  11.270  1.00  0.00     0.011 C 
HETATM    9  C15 UNL     1      -9.836   8.676  10.926  1.00  0.00     0.009 C 
HETATM   10  C16 UNL     1     -10.493   7.510  10.173  1.00  0.00     0.011 C 
ENDROOT
BRANCH   1  11
HETATM   11  N1  UNL     1      -7.734   9.902  10.609  1.00  0.00    -0.383 N 
HETATM   12  C3  UNL     1      -7.356   9.651  11.936  1.00  0.00     0.084 C 
HETATM   13  C2  UNL     1      -5.970   9.044  11.926  1.00  0.00     0.026 C 
HETATM   14  C4  UNL     1      -7.002  11.092  12.367  1.00  0.00     0.035 C 
HETATM   15  C1  UNL     1      -5.117  10.185  11.350  1.00  0.00     0.012 C 
HETATM   16  C5  UNL     1      -6.072  11.336  11.164  1.00  0.00     0.026 C 
HETATM   17  C6  UNL     1      -7.012  10.929  10.030  1.00  0.00     0.064 C 
ENDBRANCH   1  11
TORSDOF 1
ENDMDL
MODEL 5
REMARK VINA RESULT: -6.442210542      0.754      2.140
REMARK  1 active torsions:
REMARK  status: ('A' for Active; 'I' for Inactive)
REMARK    1  A    between atoms: N1_7  and  C7_8 
ROOT
HETATM    1  C7  UNL     1      -9.378  10.157  10.277  1.00  0.00     0.092 C 
HETATM    2  C8  UNL     1     -10.485   9.129  10.498  1.00  0.00     0.009 C 
HETATM    3  C9  UNL     1     -11.753   9.733   9.897  1.00  0.00     0.011 C 
HETATM    4  C10 UNL     1     -11.554  10.102   8.451  1.00  0.00    -0.013 C 
HETATM    5  C11 UNL     1     -11.326   8.789   7.697  1.00  0.00     0.009 C 
HETATM    6  C12 UNL     1     -10.101   8.125   8.256  1.00  0.00    -0.013 C 
HETATM    7  C13 UNL     1     -10.239   7.859   9.728  1.00  0.00     0.011 C 
HETATM    8  C14 UNL     1      -8.905   9.027   8.072  1.00  0.00     0.011 C 
HETATM    9  C15 UNL     1      -9.115  10.312   8.809  1.00  0.00     0.009 C 
HETATM   10  C16 UNL     1     -10.365  10.967   8.204  1.00  0.00     0.011 C 
ENDROOT
BRANCH   1  11
HETATM   11  N1  UNL     1      -8.287  10.090  11.109  1.00  0.00    -0.383 N 
HETATM   12  C3  UNL     1      -6.990  10.340  10.640  1.00  0.00     0.084 C 
HETATM   13  C2  UNL     1      -6.478  11.595  11.311  1.00  0.00     0.026 C 
HETATM   14  C4  UNL     1      -6.223   9.278  11.459  1.00  0.00     0.035 C 
HETATM   15  C1  UNL     1      -6.423  11.176  12.789  1.00  0.00     0.012 C 
HETATM   16  C5  UNL     1      -6.829   9.725  12.802  1.00  0.00     0.026 C 
HETATM   17  C6  UNL     1      -8.312   9.695  12.434  1.00  0.00     0.064 C 
ENDBRANCH   1  11
TORSDOF 1
ENDMDL
