MODEL 1
REMARK VINA RESULT: -6.636645923      0.000      0.000
REMARK  1 active torsions:
REMARK  status: ('A' for Active; 'I' for Inactive)
REMARK       I    between atoms: C1_2  and  N2_4 
REMARK    1  A    between atoms: N2_4  and  N3_6 
ROOT
HETATM    1  N3  UNL     1     -20.345 -19.341 -22.588  1.00  0.00    -0.134 N 
HETATM    2  N4  UNL     1     -20.447 -20.632 -22.328  1.00  0.00    -0.225 N 
ATOM      3  H4  UNL     1     -20.970 -21.302 -22.892  1.00  0.00     0.194 HD
HETATM    4  C2  UNL     1     -19.750 -20.937 -21.193  1.00  0.00     0.344 A 
HETATM    5  O2  UNL     1     -19.620 -22.056 -20.645  1.00  0.00    -0.245 OA
HETATM    6  N5  UNL     1     -19.199 -19.804 -20.734  1.00  0.00    -0.257 N 
ATOM      7  H5  UNL     1     -18.617 -19.695 -19.903  1.00  0.00     0.175 HD
HETATM    8  C3  UNL     1     -19.569 -18.849 -21.589  1.00  0.00     0.365 A 
HETATM    9  O3  UNL     1     -19.246 -17.635 -21.493  1.00  0.00    -0.243 OA
ENDROOT
BRANCH   1  10
HETATM   10  N2  UNL     1     -20.893 -18.603 -23.637  1.00  0.00    -0.228 N 
HETATM   11  C1  UNL     1     -21.918 -19.050 -24.484  1.00  0.00     0.348 C 
HETATM   12  N1  UNL     1     -22.382 -18.186 -25.519  1.00  0.00    -0.038 NA
HETATM   13  O1  UNL     1     -22.488 -20.167 -24.425  1.00  0.00    -0.249 OA
ATOM     14  H2  UNL     1     -20.520 -17.668 -23.801  1.00  0.00     0.193 HD
ENDBRANCH   1  10
TORSDOF 1
ENDMDL
MODEL 2
REMARK VINA RESULT: -6.529483688      2.038      4.388
REMARK  1 active torsions:
REMARK  status: ('A' for Active; 'I' for Inactive)
REMARK       I    between atoms: C1_2  and  N2_4 
REMARK    1  A    between atoms: N2_4  and  N3_6 
ROOT
HETATM    1  N3  UNL     1     -20.084 -18.052 -23.712  1.00  0.00    -0.134 N 
HETATM    2  N4  UNL     1     -21.174 -18.769 -23.511  1.00  0.00    -0.225 N 
ATOM      3  H4  UNL     1     -21.582 -18.968 -22.599  1.00  0.00     0.194 HD
HETATM    4  C2  UNL     1     -21.674 -19.206 -24.707  1.00  0.00     0.344 A 
HETATM    5  O2  UNL     1     -22.692 -19.907 -24.907  1.00  0.00    -0.245 OA
HETATM    6  N5  UNL     1     -20.871 -18.747 -25.678  1.00  0.00    -0.257 N 
ATOM      7  H5  UNL     1     -20.971 -18.898 -26.681  1.00  0.00     0.175 HD
HETATM    8  C3  UNL     1     -19.915 -18.052 -25.060  1.00  0.00     0.365 A 
HETATM    9  O3  UNL     1     -18.965 -17.463 -25.641  1.00  0.00    -0.243 OA
ENDROOT
BRANCH   1  10
HETATM   10  N2  UNL     1     -19.257 -17.418 -22.785  1.00  0.00    -0.228 N 
HETATM   11  C1  UNL     1     -18.477 -18.077 -21.823  1.00  0.00     0.348 C 
HETATM   12  N1  UNL     1     -17.676 -17.299 -20.936  1.00  0.00    -0.038 NA
HETATM   13  O1  UNL     1     -18.407 -19.318 -21.656  1.00  0.00    -0.249 OA
ATOM     14  H2  UNL     1     -19.217 -16.399 -22.807  1.00  0.00     0.193 HD
ENDBRANCH   1  10
TORSDOF 1
ENDMDL
MODEL 3
REMARK VINA RESULT: -6.509761474      2.425      2.914
REMARK  1 active torsions:
REMARK  status: ('A' for Active; 'I' for Inactive)
REMARK       I    between atoms: C1_2  and  N2_4 
REMARK    1  A    between atoms: N2_4  and  N3_6 
ROOT
HETATM    1  N3  UNL     1     -19.676 -18.716 -23.357  1.00  0.00    -0.134 N 
HETATM    2  N4  UNL     1     -19.395 -18.526 -22.082  1.00  0.00    -0.225 N 
ATOM      3  H4  UNL     1     -19.872 -18.981 -21.304  1.00  0.00     0.194 HD
HETATM    4  C2  UNL     1     -18.371 -17.628 -21.957  1.00  0.00     0.344 A 
HETATM    5  O2  UNL     1     -17.839 -17.208 -20.904  1.00  0.00    -0.245 OA
HETATM    6  N5  UNL     1     -18.006 -17.250 -23.190  1.00  0.00    -0.257 N 
ATOM      7  H5  UNL     1     -17.270 -16.589 -23.439  1.00  0.00     0.175 HD
HETATM    8  C3  UNL     1     -18.806 -17.916 -24.025  1.00  0.00     0.365 A 
HETATM    9  O3  UNL     1     -18.768 -17.825 -25.281  1.00  0.00    -0.243 OA
ENDROOT
BRANCH   1  10
HETATM   10  N2  UNL     1     -20.641 -19.539 -23.938  1.00  0.00    -0.228 N 
HETATM   11  C1  UNL     1     -21.788 -19.085 -24.606  1.00  0.00     0.348 C 
HETATM   12  N1  UNL     1     -22.691 -20.043 -25.153  1.00  0.00    -0.038 NA
HETATM   13  O1  UNL     1     -22.114 -17.886 -24.777  1.00  0.00    -0.249 OA
ATOM     14  H2  UNL     1     -20.501 -20.548 -23.873  1.00  0.00     0.193 HD
ENDBRANCH   1  10
TORSDOF 1
ENDMDL
MODEL 4
REMARK VINA RESULT: -6.421881488      1.784      2.755
REMARK  1 active torsions:
REMARK  status: ('A' for Active; 'I' for Inactive)
REMARK       I    between atoms: C1_2  and  N2_4 
REMARK    1  A    between atoms: N2_4  and  N3_6 
ROOT
HETATM    1  N3  UNL     1     -19.935 -18.569 -22.864  1.00  0.00    -0.134 N 
HETATM    2  N4  UNL     1     -19.313 -17.470 -22.480  1.00  0.00    -0.225 N 
ATOM      3  H4  UNL     1     -19.566 -16.525 -22.768  1.00  0.00     0.194 HD
HETATM    4  C2  UNL     1     -18.279 -17.785 -21.642  1.00  0.00     0.344 A 
HETATM    5  O2  UNL     1     -17.473 -17.005 -21.085  1.00  0.00    -0.245 OA
HETATM    6  N5  UNL     1     -18.259 -19.118 -21.502  1.00  0.00    -0.257 N 
ATOM      7  H5  UNL     1     -17.607 -19.667 -20.941  1.00  0.00     0.175 HD
HETATM    8  C3  UNL     1     -19.265 -19.577 -22.247  1.00  0.00     0.365 A 
HETATM    9  O3  UNL     1     -19.570 -20.793 -22.372  1.00  0.00    -0.243 OA
ENDROOT
BRANCH   1  10
HETATM   10  N2  UNL     1     -21.034 -18.716 -23.710  1.00  0.00    -0.228 N 
HETATM   11  C1  UNL     1     -21.087 -18.273 -25.040  1.00  0.00     0.348 C 
HETATM   12  N1  UNL     1     -22.280 -18.491 -25.791  1.00  0.00    -0.038 NA
HETATM   13  O1  UNL     1     -20.166 -17.687 -25.659  1.00  0.00    -0.249 OA
ATOM     14  H2  UNL     1     -21.861 -19.180 -23.333  1.00  0.00     0.193 HD
ENDBRANCH   1  10
TORSDOF 1
ENDMDL
MODEL 5
REMARK VINA RESULT: -6.420654853      2.092      4.491
REMARK  1 active torsions:
REMARK  status: ('A' for Active; 'I' for Inactive)
REMARK       I    between atoms: C1_2  and  N2_4 
REMARK    1  A    between atoms: N2_4  and  N3_6 
ROOT
HETATM    1  N3  UNL     1     -19.815 -18.196 -23.554  1.00  0.00    -0.134 N 
HETATM    2  N4  UNL     1     -20.660 -17.573 -24.354  1.00  0.00    -0.225 N 
ATOM      3  H4  UNL     1     -20.625 -16.580 -24.582  1.00  0.00     0.194 HD
HETATM    4  C2  UNL     1     -21.590 -18.455 -24.831  1.00  0.00     0.344 A 
HETATM    5  O2  UNL     1     -22.542 -18.225 -25.612  1.00  0.00    -0.245 OA
HETATM    6  N5  UNL     1     -21.315 -19.660 -24.312  1.00  0.00    -0.257 N 
ATOM      7  H5  UNL     1     -21.822 -20.530 -24.473  1.00  0.00     0.175 HD
HETATM    8  C3  UNL     1     -20.239 -19.486 -23.542  1.00  0.00     0.365 A 
HETATM    9  O3  UNL     1     -19.676 -20.397 -22.879  1.00  0.00    -0.243 OA
ENDROOT
BRANCH   1  10
HETATM   10  N2  UNL     1     -18.721 -17.688 -22.854  1.00  0.00    -0.228 N 
HETATM   11  C1  UNL     1     -18.635 -17.592 -21.457  1.00  0.00     0.348 C 
HETATM   12  N1  UNL     1     -17.451 -17.050 -20.876  1.00  0.00    -0.038 NA
HETATM   13  O1  UNL     1     -19.519 -17.944 -20.640  1.00  0.00    -0.249 OA
ATOM     14  H2  UNL     1     -17.922 -17.362 -23.400  1.00  0.00     0.193 HD
ENDBRANCH   1  10
TORSDOF 1
ENDMDL
