MODEL 1
REMARK VINA RESULT: -7.754468555      0.000      0.000
REMARK  1 active torsions:
REMARK  status: ('A' for Active; 'I' for Inactive)
REMARK    1  A    between atoms: N1_1  and  C1_4 
ROOT
HETATM    1  C1  UNL     1      19.796 -18.885  21.407  1.00  0.00     0.700 A 
HETATM    2  N2  UNL     1      18.653 -18.333  20.895  1.00  0.00    -0.186 N 
ATOM      3  H2  UNL     1      18.459 -18.389  19.895  1.00  0.00     0.185 HD
HETATM    4  C2  UNL     1      17.791 -17.717  21.718  1.00  0.00     0.200 A 
HETATM    5  N3  UNL     1      18.075 -17.656  23.038  1.00  0.00    -0.332 N 
ATOM      6  H3  UNL     1      17.420 -17.187  23.662  1.00  0.00     0.168 HD
HETATM    7  C3  UNL     1      19.194 -18.195  23.553  1.00  0.00     0.215 A 
HETATM    8  C4  UNL     1      19.487 -18.136  24.899  1.00  0.00     0.296 A 
HETATM    9  O1  UNL     1      18.638 -17.540  25.637  1.00  0.00    -0.264 OA
HETATM   10  N4  UNL     1      20.607 -18.674  25.405  1.00  0.00    -0.271 N 
ATOM     11  H4  UNL     1      20.804 -18.618  26.404  1.00  0.00     0.174 HD
HETATM   12  C5  UNL     1      21.461 -19.287  24.575  1.00  0.00     0.342 A 
HETATM   13  O2  UNL     1      22.516 -19.798  25.031  1.00  0.00    -0.245 OA
HETATM   14  N5  UNL     1      21.155 -19.335  23.253  1.00  0.00    -0.228 N 
ATOM     15  H5  UNL     1      21.813 -19.804  22.631  1.00  0.00     0.193 HD
HETATM   16  N6  UNL     1      20.074 -18.822  22.720  1.00  0.00    -0.060 N 
ENDROOT
BRANCH   1  17
HETATM   17  N1  UNL     1      20.596 -19.461  20.611  1.00  0.00    -0.233 N 
ATOM     18  H12 UNL     1      20.643 -19.175  19.634  1.00  0.00     0.174 HD
ATOM     19  H11 UNL     1      21.183 -20.212  20.973  1.00  0.00     0.174 HD
ENDBRANCH   1  17
TORSDOF 1
ENDMDL
MODEL 2
REMARK VINA RESULT: -7.405966143      1.275      2.762
REMARK  1 active torsions:
REMARK  status: ('A' for Active; 'I' for Inactive)
REMARK    1  A    between atoms: N1_1  and  C1_4 
ROOT
HETATM    1  C1  UNL     1      18.871 -18.209  22.253  1.00  0.00     0.700 A 
HETATM    2  N2  UNL     1      18.892 -19.027  21.156  1.00  0.00    -0.186 N 
ATOM      3  H2  UNL     1      18.258 -18.856  20.376  1.00  0.00     0.185 HD
HETATM    4  C2  UNL     1      19.754 -20.055  21.114  1.00  0.00     0.200 A 
HETATM    5  N3  UNL     1      20.581 -20.258  22.163  1.00  0.00    -0.332 N 
ATOM      6  H3  UNL     1      21.235 -21.040  22.132  1.00  0.00     0.168 HD
HETATM    7  C3  UNL     1      20.569 -19.462  23.247  1.00  0.00     0.215 A 
HETATM    8  C4  UNL     1      21.412 -19.665  24.319  1.00  0.00     0.296 A 
HETATM    9  O1  UNL     1      22.210 -20.653  24.232  1.00  0.00    -0.264 OA
HETATM   10  N4  UNL     1      21.393 -18.867  25.397  1.00  0.00    -0.271 N 
ATOM     11  H4  UNL     1      22.026 -19.037  26.179  1.00  0.00     0.174 HD
HETATM   12  C5  UNL     1      20.530 -17.844  25.428  1.00  0.00     0.342 A 
HETATM   13  O2  UNL     1      20.498 -17.084  26.431  1.00  0.00    -0.245 OA
HETATM   14  N5  UNL     1      19.708 -17.659  24.363  1.00  0.00    -0.228 N 
ATOM     15  H5  UNL     1      19.055 -16.877  24.399  1.00  0.00     0.193 HD
HETATM   16  N6  UNL     1      19.695 -18.416  23.293  1.00  0.00    -0.060 N 
ENDROOT
BRANCH   1  17
HETATM   17  N1  UNL     1      18.049 -17.245  22.270  1.00  0.00    -0.233 N 
ATOM     18  H12 UNL     1      17.057 -17.412  22.099  1.00  0.00     0.174 HD
ATOM     19  H11 UNL     1      18.405 -16.308  22.456  1.00  0.00     0.174 HD
ENDBRANCH   1  17
TORSDOF 1
ENDMDL
MODEL 3
REMARK VINA RESULT: -7.237816568      2.130      4.473
REMARK  1 active torsions:
REMARK  status: ('A' for Active; 'I' for Inactive)
REMARK    1  A    between atoms: N1_1  and  C1_4 
ROOT
HETATM    1  C1  UNL     1      20.449 -18.267  24.794  1.00  0.00     0.700 A 
HETATM    2  N2  UNL     1      21.477 -19.061  25.225  1.00  0.00    -0.186 N 
ATOM      3  H2  UNL     1      21.990 -18.821  26.074  1.00  0.00     0.185 HD
HETATM    4  C2  UNL     1      21.806 -20.156  24.524  1.00  0.00     0.200 A 
HETATM    5  N3  UNL     1      21.110 -20.448  23.402  1.00  0.00    -0.332 N 
ATOM      6  H3  UNL     1      21.360 -21.279  22.868  1.00  0.00     0.168 HD
HETATM    7  C3  UNL     1      20.098 -19.675  22.968  1.00  0.00     0.215 A 
HETATM    8  C4  UNL     1      19.385 -19.970  21.825  1.00  0.00     0.296 A 
HETATM    9  O1  UNL     1      19.736 -21.019  21.195  1.00  0.00    -0.264 OA
HETATM   10  N4  UNL     1      18.378 -19.194  21.398  1.00  0.00    -0.271 N 
ATOM     11  H4  UNL     1      17.865 -19.430  20.549  1.00  0.00     0.174 HD
HETATM   12  C5  UNL     1      18.058 -18.103  22.106  1.00  0.00     0.342 A 
HETATM   13  O2  UNL     1      17.117 -17.363  21.721  1.00  0.00    -0.245 OA
HETATM   14  N5  UNL     1      18.771 -17.830  23.229  1.00  0.00    -0.228 N 
ATOM     15  H5  UNL     1      18.519 -16.996  23.759  1.00  0.00     0.193 HD
HETATM   16  N6  UNL     1      19.761 -18.561  23.679  1.00  0.00    -0.060 N 
ENDROOT
BRANCH   1  17
HETATM   17  N1  UNL     1      20.158 -17.238  25.473  1.00  0.00    -0.233 N 
ATOM     18  H12 UNL     1      19.183 -17.001  25.656  1.00  0.00     0.174 HD
ATOM     19  H11 UNL     1      20.919 -16.658  25.826  1.00  0.00     0.174 HD
ENDBRANCH   1  17
TORSDOF 1
ENDMDL
MODEL 4
REMARK VINA RESULT: -7.228449382      1.765      2.931
REMARK  1 active torsions:
REMARK  status: ('A' for Active; 'I' for Inactive)
REMARK    1  A    between atoms: N1_1  and  C1_4 
ROOT
HETATM    1  C1  UNL     1      20.577 -20.214  23.043  1.00  0.00     0.700 A 
HETATM    2  N2  UNL     1      20.502 -20.760  21.791  1.00  0.00    -0.186 N 
ATOM      3  H2  UNL     1      21.144 -21.504  21.515  1.00  0.00     0.185 HD
HETATM    4  C2  UNL     1      19.578 -20.311  20.928  1.00  0.00     0.200 A 
HETATM    5  N3  UNL     1      18.742 -19.324  21.321  1.00  0.00    -0.332 N 
ATOM      6  H3  UNL     1      18.040 -18.981  20.665  1.00  0.00     0.168 HD
HETATM    7  C3  UNL     1      18.806 -18.779  22.549  1.00  0.00     0.215 A 
HETATM    8  C4  UNL     1      17.955 -17.773  22.953  1.00  0.00     0.296 A 
HETATM    9  O1  UNL     1      17.097 -17.381  22.098  1.00  0.00    -0.264 OA
HETATM   10  N4  UNL     1      18.026 -17.234  24.179  1.00  0.00    -0.271 N 
ATOM     11  H4  UNL     1      17.386 -16.490  24.457  1.00  0.00     0.174 HD
HETATM   12  C5  UNL     1      18.952 -17.690  25.033  1.00  0.00     0.342 A 
HETATM   13  O2  UNL     1      19.034 -17.197  26.187  1.00  0.00    -0.245 OA
HETATM   14  N5  UNL     1      19.781 -18.682  24.616  1.00  0.00    -0.228 N 
ATOM     15  H5  UNL     1      20.482 -19.021  25.274  1.00  0.00     0.193 HD
HETATM   16  N6  UNL     1      19.745 -19.233  23.428  1.00  0.00    -0.060 N 
ENDROOT
BRANCH   1  17
HETATM   17  N1  UNL     1      21.458 -20.655  23.840  1.00  0.00    -0.233 N 
ATOM     18  H12 UNL     1      22.215 -21.244  23.495  1.00  0.00     0.174 HD
ATOM     19  H11 UNL     1      21.387 -20.407  24.827  1.00  0.00     0.174 HD
ENDBRANCH   1  17
TORSDOF 1
ENDMDL
MODEL 5
REMARK VINA RESULT: -7.021631340      2.354      3.751
REMARK  1 active torsions:
REMARK  status: ('A' for Active; 'I' for Inactive)
REMARK    1  A    between atoms: N1_1  and  C1_4 
ROOT
HETATM    1  C1  UNL     1      20.432 -19.557  23.715  1.00  0.00     0.700 A 
HETATM    2  N2  UNL     1      19.976 -18.961  24.860  1.00  0.00    -0.186 N 
ATOM      3  H2  UNL     1      20.372 -19.217  25.765  1.00  0.00     0.185 HD
HETATM    4  C2  UNL     1      19.005 -18.039  24.784  1.00  0.00     0.200 A 
HETATM    5  N3  UNL     1      18.499 -17.721  23.571  1.00  0.00    -0.332 N 
ATOM      6  H3  UNL     1      17.760 -17.021  23.513  1.00  0.00     0.168 HD
HETATM    7  C3  UNL     1      18.938 -18.299  22.439  1.00  0.00     0.215 A 
HETATM    8  C4  UNL     1      18.424 -17.977  21.201  1.00  0.00     0.296 A 
HETATM    9  O1  UNL     1      17.505 -17.098  21.182  1.00  0.00    -0.264 OA
HETATM   10  N4  UNL     1      18.868 -18.559  20.077  1.00  0.00    -0.271 N 
ATOM     11  H4  UNL     1      18.473 -18.306  19.171  1.00  0.00     0.174 HD
HETATM   12  C5  UNL     1      19.838 -19.479  20.164  1.00  0.00     0.342 A 
HETATM   13  O2  UNL     1      20.266 -20.035  19.121  1.00  0.00    -0.245 OA
HETATM   14  N5  UNL     1      20.331 -19.782  21.392  1.00  0.00    -0.228 N 
ATOM     15  H5  UNL     1      21.069 -20.483  21.446  1.00  0.00     0.193 HD
HETATM   16  N6  UNL     1      19.926 -19.238  22.513  1.00  0.00    -0.060 N 
ENDROOT
BRANCH   1  17
HETATM   17  N1  UNL     1      21.350 -20.425  23.813  1.00  0.00    -0.233 N 
ATOM     18  H12 UNL     1      22.214 -20.207  24.309  1.00  0.00     0.174 HD
ATOM     19  H11 UNL     1      21.201 -21.338  23.383  1.00  0.00     0.174 HD
ENDBRANCH   1  17
TORSDOF 1
ENDMDL
