MODEL 1
REMARK VINA RESULT: -7.383261830      0.000      0.000
REMARK  6 active torsions:
REMARK  status: ('A' for Active; 'I' for Inactive)
REMARK    1  A    between atoms: C1_2  and  C2_3 
REMARK       I    between atoms: C1_2  and  N2_16 
REMARK    2  A    between atoms: C2_3  and  O2_4 
REMARK    3  A    between atoms: O2_4  and  C3_5 
REMARK    4  A    between atoms: C3_5  and  C4_7 
REMARK    5  A    between atoms: C7_10  and  N1_11 
REMARK    6  A    between atoms: N2_16  and  C10_18 
ROOT
HETATM    1  C2  UNL     1      -0.772  -1.910  24.819  1.00  0.00     0.282 C 
ENDROOT
BRANCH   1   2
HETATM    2  C1  UNL     1       0.195  -2.730  24.070  1.00  0.00     0.247 C 
HETATM    3  O1  UNL     1       1.394  -2.734  24.436  1.00  0.00    -0.271 OA
HETATM    4  N2  UNL     1      -0.138  -3.524  22.951  1.00  0.00    -0.305 N 
ATOM      5  H2  UNL     1      -0.214  -3.126  22.016  1.00  0.00     0.171 HD
BRANCH   4   6
HETATM    6  C10 UNL     1      -0.346  -4.803  23.173  1.00  0.00     0.153 A 
HETATM    7  N3  UNL     1      -0.442  -5.456  24.333  1.00  0.00    -0.343 N 
HETATM    8  C11 UNL     1      -0.653  -6.739  24.313  1.00  0.00     0.140 A 
ATOM      9  H3  UNL     1      -0.353  -4.958  25.218  1.00  0.00     0.167 HD
HETATM   10  C12 UNL     1      -0.768  -7.361  23.103  1.00  0.00     0.176 A 
HETATM   11  F1  UNL     1      -0.990  -8.701  22.874  1.00  0.00    -0.197 F 
HETATM   12  S1  UNL     1      -0.565  -6.061  22.016  1.00  0.00    -0.022 SA
ENDBRANCH   4   6
ENDBRANCH   1   2
BRANCH   1  13
HETATM   13  O2  UNL     1      -2.070  -2.032  24.312  1.00  0.00    -0.308 OA
BRANCH  13  14
HETATM   14  C3  UNL     1      -2.709  -1.027  23.639  1.00  0.00     0.293 C 
HETATM   15  O3  UNL     1      -2.967   0.050  24.228  1.00  0.00    -0.259 OA
BRANCH  14  16
HETATM   16  C4  UNL     1      -3.110  -1.169  22.220  1.00  0.00     0.039 A 
HETATM   17  C5  UNL     1      -2.867  -2.320  21.527  1.00  0.00     0.020 A 
HETATM   18  C6  UNL     1      -3.251  -2.424  20.211  1.00  0.00     0.037 A 
HETATM   19  C7  UNL     1      -3.885  -1.402  19.540  1.00  0.00     0.102 A 
HETATM   20  C8  UNL     1      -4.124  -0.243  20.254  1.00  0.00     0.037 A 
HETATM   21  C9  UNL     1      -3.742  -0.136  21.572  1.00  0.00     0.020 A 
BRANCH  19  22
HETATM   22  N1  UNL     1      -4.270  -1.540  18.179  1.00  0.00    -0.116 N 
HETATM   23  O4  UNL     1      -3.772  -2.422  17.469  1.00  0.00    -0.532 OA
HETATM   24  O5  UNL     1      -5.193  -0.696  17.659  1.00  0.00    -0.532 OA
ENDBRANCH  19  22
ENDBRANCH  14  16
ENDBRANCH  13  14
ENDBRANCH   1  13
TORSDOF 6
ENDMDL
MODEL 2
REMARK VINA RESULT: -7.131919996      4.655      8.390
REMARK  6 active torsions:
REMARK  status: ('A' for Active; 'I' for Inactive)
REMARK    1  A    between atoms: C1_2  and  C2_3 
REMARK       I    between atoms: C1_2  and  N2_16 
REMARK    2  A    between atoms: C2_3  and  O2_4 
REMARK    3  A    between atoms: O2_4  and  C3_5 
REMARK    4  A    between atoms: C3_5  and  C4_7 
REMARK    5  A    between atoms: C7_10  and  N1_11 
REMARK    6  A    between atoms: N2_16  and  C10_18 
ROOT
HETATM    1  C2  UNL     1      -4.971  -0.957  17.736  1.00  0.00     0.282 C 
ENDROOT
BRANCH   1   2
HETATM    2  C1  UNL     1      -5.822  -1.952  17.060  1.00  0.00     0.247 C 
HETATM    3  O1  UNL     1      -7.066  -1.866  17.187  1.00  0.00    -0.271 OA
HETATM    4  N2  UNL     1      -5.328  -3.011  16.269  1.00  0.00    -0.305 N 
ATOM      5  H2  UNL     1      -4.996  -3.880  16.686  1.00  0.00     0.171 HD
BRANCH   4   6
HETATM    6  C10 UNL     1      -5.316  -2.824  14.968  1.00  0.00     0.153 A 
HETATM    7  N3  UNL     1      -6.220  -2.221  14.192  1.00  0.00    -0.343 N 
HETATM    8  C11 UNL     1      -5.997  -2.151  12.912  1.00  0.00     0.140 A 
ATOM      9  H3  UNL     1      -7.068  -1.823  14.595  1.00  0.00     0.167 HD
HETATM   10  C12 UNL     1      -4.847  -2.697  12.421  1.00  0.00     0.176 A 
HETATM   11  F1  UNL     1      -4.434  -2.725  11.107  1.00  0.00    -0.197 F 
HETATM   12  S1  UNL     1      -4.110  -3.304  13.836  1.00  0.00    -0.022 SA
ENDBRANCH   4   6
ENDBRANCH   1   2
BRANCH   1  13
HETATM   13  O2  UNL     1      -4.843  -1.217  19.104  1.00  0.00    -0.308 OA
BRANCH  13  14
HETATM   14  C3  UNL     1      -3.872  -2.029  19.625  1.00  0.00     0.293 C 
HETATM   15  O3  UNL     1      -3.416  -2.972  18.937  1.00  0.00    -0.259 OA
BRANCH  14  16
HETATM   16  C4  UNL     1      -3.335  -1.826  20.991  1.00  0.00     0.039 A 
HETATM   17  C5  UNL     1      -3.799  -0.824  21.793  1.00  0.00     0.020 A 
HETATM   18  C6  UNL     1      -3.282  -0.660  23.056  1.00  0.00     0.037 A 
HETATM   19  C7  UNL     1      -2.297  -1.476  23.566  1.00  0.00     0.102 A 
HETATM   20  C8  UNL     1      -1.837  -2.485  22.743  1.00  0.00     0.037 A 
HETATM   21  C9  UNL     1      -2.353  -2.653  21.478  1.00  0.00     0.020 A 
BRANCH  19  22
HETATM   22  N1  UNL     1      -1.783  -1.280  24.877  1.00  0.00    -0.116 N 
HETATM   23  O4  UNL     1      -0.733  -0.652  25.057  1.00  0.00    -0.532 OA
HETATM   24  O5  UNL     1      -2.455  -1.790  25.938  1.00  0.00    -0.532 OA
ENDBRANCH  19  22
ENDBRANCH  14  16
ENDBRANCH  13  14
ENDBRANCH   1  13
TORSDOF 6
ENDMDL
MODEL 3
REMARK VINA RESULT: -7.092292005      3.602      6.350
REMARK  6 active torsions:
REMARK  status: ('A' for Active; 'I' for Inactive)
REMARK    1  A    between atoms: C1_2  and  C2_3 
REMARK       I    between atoms: C1_2  and  N2_16 
REMARK    2  A    between atoms: C2_3  and  O2_4 
REMARK    3  A    between atoms: O2_4  and  C3_5 
REMARK    4  A    between atoms: C3_5  and  C4_7 
REMARK    5  A    between atoms: C7_10  and  N1_11 
REMARK    6  A    between atoms: N2_16  and  C10_18 
ROOT
HETATM    1  C2  UNL     1      -1.380  -6.020  20.933  1.00  0.00     0.282 C 
ENDROOT
BRANCH   1   2
HETATM    2  C1  UNL     1      -2.715  -5.467  20.651  1.00  0.00     0.247 C 
HETATM    3  O1  UNL     1      -3.687  -5.859  21.338  1.00  0.00    -0.271 OA
HETATM    4  N2  UNL     1      -2.982  -4.511  19.647  1.00  0.00    -0.305 N 
ATOM      5  H2  UNL     1      -3.114  -4.782  18.673  1.00  0.00     0.171 HD
BRANCH   4   6
HETATM    6  C10 UNL     1      -3.052  -3.255  20.027  1.00  0.00     0.153 A 
HETATM    7  N3  UNL     1      -2.553  -2.673  21.120  1.00  0.00    -0.343 N 
HETATM    8  C11 UNL     1      -2.748  -1.398  21.293  1.00  0.00     0.140 A 
ATOM      9  H3  UNL     1      -2.030  -3.217  21.805  1.00  0.00     0.167 HD
HETATM   10  C12 UNL     1      -3.454  -0.714  20.347  1.00  0.00     0.176 A 
HETATM   11  F1  UNL     1      -3.764   0.629  20.350  1.00  0.00    -0.197 F 
HETATM   12  S1  UNL     1      -3.822  -1.942  19.221  1.00  0.00    -0.022 SA
ENDBRANCH   4   6
ENDBRANCH   1   2
BRANCH   1  13
HETATM   13  O2  UNL     1      -1.355  -6.752  22.125  1.00  0.00    -0.308 OA
BRANCH  13  14
HETATM   14  C3  UNL     1      -0.745  -6.306  23.266  1.00  0.00     0.293 C 
HETATM   15  O3  UNL     1      -0.060  -7.098  23.955  1.00  0.00    -0.259 OA
BRANCH  14  16
HETATM   16  C4  UNL     1      -0.869  -4.901  23.719  1.00  0.00     0.039 A 
HETATM   17  C5  UNL     1       0.172  -4.025  23.603  1.00  0.00     0.020 A 
HETATM   18  C6  UNL     1       0.027  -2.726  24.031  1.00  0.00     0.037 A 
HETATM   19  C7  UNL     1      -1.142  -2.253  24.584  1.00  0.00     0.102 A 
HETATM   20  C8  UNL     1      -2.186  -3.150  24.695  1.00  0.00     0.037 A 
HETATM   21  C9  UNL     1      -2.046  -4.451  24.266  1.00  0.00     0.020 A 
BRANCH  19  22
HETATM   22  N1  UNL     1      -1.259  -0.904  25.017  1.00  0.00    -0.116 N 
HETATM   23  O4  UNL     1      -2.302  -0.267  24.826  1.00  0.00    -0.532 OA
HETATM   24  O5  UNL     1      -0.213  -0.314  25.645  1.00  0.00    -0.532 OA
ENDBRANCH  19  22
ENDBRANCH  14  16
ENDBRANCH  13  14
ENDBRANCH   1  13
TORSDOF 6
ENDMDL
MODEL 4
REMARK VINA RESULT: -7.081209875      3.663      6.112
REMARK  6 active torsions:
REMARK  status: ('A' for Active; 'I' for Inactive)
REMARK    1  A    between atoms: C1_2  and  C2_3 
REMARK       I    between atoms: C1_2  and  N2_16 
REMARK    2  A    between atoms: C2_3  and  O2_4 
REMARK    3  A    between atoms: O2_4  and  C3_5 
REMARK    4  A    between atoms: C3_5  and  C4_7 
REMARK    5  A    between atoms: C7_10  and  N1_11 
REMARK    6  A    between atoms: N2_16  and  C10_18 
ROOT
HETATM    1  C2  UNL     1      -3.859  -1.300  25.622  1.00  0.00     0.282 C 
ENDROOT
BRANCH   1   2
HETATM    2  C1  UNL     1      -3.018  -0.526  24.693  1.00  0.00     0.247 C 
HETATM    3  O1  UNL     1      -1.800  -0.387  24.956  1.00  0.00    -0.271 OA
HETATM    4  N2  UNL     1      -3.493   0.080  23.510  1.00  0.00    -0.305 N 
ATOM      5  H2  UNL     1      -3.957   0.987  23.523  1.00  0.00     0.171 HD
BRANCH   4   6
HETATM    6  C10 UNL     1      -3.309  -0.583  22.390  1.00  0.00     0.153 A 
HETATM    7  N3  UNL     1      -2.592  -1.687  22.168  1.00  0.00    -0.343 N 
HETATM    8  C11 UNL     1      -2.552  -2.174  20.962  1.00  0.00     0.140 A 
ATOM      9  H3  UNL     1      -2.085  -2.139  22.929  1.00  0.00     0.167 HD
HETATM   10  C12 UNL     1      -3.247  -1.534  19.978  1.00  0.00     0.176 A 
HETATM   11  F1  UNL     1      -3.329  -1.890  18.650  1.00  0.00    -0.197 F 
HETATM   12  S1  UNL     1      -3.948  -0.230  20.829  1.00  0.00    -0.022 SA
ENDBRANCH   4   6
ENDBRANCH   1   2
BRANCH   1  13
HETATM   13  O2  UNL     1      -3.528  -2.659  25.621  1.00  0.00    -0.308 OA
BRANCH  13  14
HETATM   14  C3  UNL     1      -3.871  -3.514  24.608  1.00  0.00     0.293 C 
HETATM   15  O3  UNL     1      -4.939  -3.332  23.977  1.00  0.00    -0.259 OA
BRANCH  14  16
HETATM   16  C4  UNL     1      -3.011  -4.659  24.229  1.00  0.00     0.039 A 
HETATM   17  C5  UNL     1      -3.550  -5.862  23.871  1.00  0.00     0.020 A 
HETATM   18  C6  UNL     1      -2.727  -6.906  23.523  1.00  0.00     0.037 A 
HETATM   19  C7  UNL     1      -1.354  -6.799  23.515  1.00  0.00     0.102 A 
HETATM   20  C8  UNL     1      -0.823  -5.576  23.879  1.00  0.00     0.037 A 
HETATM   21  C9  UNL     1      -1.644  -4.527  24.227  1.00  0.00     0.020 A 
BRANCH  19  22
HETATM   22  N1  UNL     1      -0.530  -7.898  23.150  1.00  0.00    -0.116 N 
HETATM   23  O4  UNL     1       0.695  -7.765  23.052  1.00  0.00    -0.532 OA
HETATM   24  O5  UNL     1      -1.099  -9.104  22.907  1.00  0.00    -0.532 OA
ENDBRANCH  19  22
ENDBRANCH  14  16
ENDBRANCH  13  14
ENDBRANCH   1  13
TORSDOF 6
ENDMDL
MODEL 5
REMARK VINA RESULT: -7.075842542      3.391      5.742
REMARK  6 active torsions:
REMARK  status: ('A' for Active; 'I' for Inactive)
REMARK    1  A    between atoms: C1_2  and  C2_3 
REMARK       I    between atoms: C1_2  and  N2_16 
REMARK    2  A    between atoms: C2_3  and  O2_4 
REMARK    3  A    between atoms: O2_4  and  C3_5 
REMARK    4  A    between atoms: C3_5  and  C4_7 
REMARK    5  A    between atoms: C7_10  and  N1_11 
REMARK    6  A    between atoms: N2_16  and  C10_18 
ROOT
HETATM    1  C2  UNL     1      -3.169  -0.250  25.045  1.00  0.00     0.282 C 
ENDROOT
BRANCH   1   2
HETATM    2  C1  UNL     1      -4.129   0.220  24.031  1.00  0.00     0.247 C 
HETATM    3  O1  UNL     1      -4.300   1.454  23.890  1.00  0.00    -0.271 OA
HETATM    4  N2  UNL     1      -4.882  -0.633  23.195  1.00  0.00    -0.305 N 
ATOM      5  H2  UNL     1      -5.747  -1.068  23.516  1.00  0.00     0.171 HD
BRANCH   4   6
HETATM    6  C10 UNL     1      -4.415  -0.839  21.984  1.00  0.00     0.153 A 
HETATM    7  N3  UNL     1      -3.449  -0.192  21.329  1.00  0.00    -0.343 N 
HETATM    8  C11 UNL     1      -3.150  -0.574  20.121  1.00  0.00     0.140 A 
ATOM      9  H3  UNL     1      -2.956   0.586  21.765  1.00  0.00     0.167 HD
HETATM   10  C12 UNL     1      -3.837  -1.621  19.581  1.00  0.00     0.176 A 
HETATM   11  F1  UNL     1      -3.669  -2.169  18.328  1.00  0.00    -0.197 F 
HETATM   12  S1  UNL     1      -4.910  -2.031  20.843  1.00  0.00    -0.022 SA
ENDBRANCH   4   6
ENDBRANCH   1   2
BRANCH   1  13
HETATM   13  O2  UNL     1      -2.782  -1.576  24.826  1.00  0.00    -0.308 OA
BRANCH  13  14
HETATM   14  C3  UNL     1      -1.528  -1.932  24.407  1.00  0.00     0.293 C 
HETATM   15  O3  UNL     1      -0.548  -1.203  24.691  1.00  0.00    -0.259 OA
BRANCH  14  16
HETATM   16  C4  UNL     1      -1.288  -3.165  23.622  1.00  0.00     0.039 A 
HETATM   17  C5  UNL     1      -0.671  -4.249  24.176  1.00  0.00     0.020 A 
HETATM   18  C6  UNL     1      -0.462  -5.380  23.423  1.00  0.00     0.037 A 
HETATM   19  C7  UNL     1      -0.853  -5.477  22.106  1.00  0.00     0.102 A 
HETATM   20  C8  UNL     1      -1.475  -4.373  21.558  1.00  0.00     0.037 A 
HETATM   21  C9  UNL     1      -1.688  -3.238  22.309  1.00  0.00     0.020 A 
BRANCH  19  22
HETATM   22  N1  UNL     1      -0.622  -6.661  21.354  1.00  0.00    -0.116 N 
HETATM   23  O4  UNL     1      -0.166  -7.675  21.896  1.00  0.00    -0.532 OA
HETATM   24  O5  UNL     1      -0.908  -6.675  20.029  1.00  0.00    -0.532 OA
ENDBRANCH  19  22
ENDBRANCH  14  16
ENDBRANCH  13  14
ENDBRANCH   1  13
TORSDOF 6
ENDMDL
