MODEL 1
REMARK VINA RESULT: -7.509080178      0.000      0.000
REMARK  6 active torsions:
REMARK  status: ('A' for Active; 'I' for Inactive)
REMARK       I    between atoms: C2_2  and  N1_4 
REMARK    1  A    between atoms: N1_4  and  C3_6 
REMARK    2  A    between atoms: C3_6  and  C4_7 
REMARK    3  A    between atoms: C7_10  and  N2_11 
REMARK       I    between atoms: N2_11  and  C8_13 
REMARK       I    between atoms: C8_13  and  N3_15 
REMARK    4  A    between atoms: N3_15  and  C9_17 
REMARK    5  A    between atoms: C13_21  and  O3_22 
REMARK    6  A    between atoms: C23_33  and  O4_34 
ROOT
HETATM    1  C9  UNL     1       3.627  38.897  26.038  1.00  0.00     0.091 C 
HETATM    2  C10 UNL     1       3.019  39.566  27.261  1.00  0.00     0.031 C 
HETATM    3  C11 UNL     1       2.579  38.414  28.109  1.00  0.00    -0.002 C 
HETATM    4  C12 UNL     1       2.364  38.765  29.549  1.00  0.00     0.037 C 
HETATM    5  C13 UNL     1       2.041  37.494  30.278  1.00  0.00     0.118 C 
HETATM    6  C14 UNL     1       1.978  36.290  29.435  1.00  0.00     0.032 C 
HETATM    7  C15 UNL     1       1.298  36.396  28.117  1.00  0.00     0.012 C 
HETATM    8  C16 UNL     1       1.368  37.777  27.480  1.00  0.00    -0.036 C 
HETATM    9  C17 UNL     1       0.160  38.524  28.081  1.00  0.00     0.016 C 
HETATM   10  C18 UNL     1       1.317  37.818  26.009  1.00  0.00     0.000 C 
HETATM   11  C19 UNL     1       0.686  36.560  25.380  1.00  0.00     0.007 C 
HETATM   12  C20 UNL     1       0.735  36.816  23.864  1.00  0.00     0.012 C 
HETATM   13  C21 UNL     1       2.179  36.562  23.448  1.00  0.00    -0.014 C 
HETATM   14  C22 UNL     1       2.314  37.124  22.046  1.00  0.00     0.018 C 
HETATM   15  C23 UNL     1       2.515  35.100  23.462  1.00  0.00     0.126 C 
HETATM   16  C24 UNL     1       3.576  34.849  24.483  1.00  0.00     0.033 C 
HETATM   17  C25 UNL     1       3.923  36.186  25.114  1.00  0.00     0.008 C 
HETATM   18  C26 UNL     1       3.153  37.206  24.371  1.00  0.00     0.003 C 
HETATM   19  C27 UNL     1       2.510  38.286  25.252  1.00  0.00     0.018 C 
ENDROOT
BRANCH   1  20
HETATM   20  N3  UNL     1       4.336  39.915  25.316  1.00  0.00    -0.338 N 
HETATM   21  C8  UNL     1       5.696  39.766  24.944  1.00  0.00     0.316 C 
HETATM   22  N2  UNL     1       6.406  40.772  24.231  1.00  0.00    -0.339 N 
HETATM   23  O2  UNL     1       6.283  38.702  25.264  1.00  0.00    -0.247 OA
ATOM     24  H2  UNL     1       5.922  41.634  23.976  1.00  0.00     0.164 HD
ATOM     25  H3  UNL     1       3.846  40.773  25.063  1.00  0.00     0.164 HD
BRANCH  22  26
HETATM   26  C7  UNL     1       7.796  40.608  23.857  1.00  0.00     0.086 C 
HETATM   27  C6  UNL     1       7.846  40.141  22.433  1.00  0.00     0.026 C 
HETATM   28  C5  UNL     1       9.258  39.723  22.081  1.00  0.00     0.008 C 
HETATM   29  C4  UNL     1      10.261  40.566  22.827  1.00  0.00     0.003 C 
HETATM   30  C29 UNL     1       9.691  41.965  22.948  1.00  0.00     0.008 C 
HETATM   31  C28 UNL     1       8.509  41.965  23.888  1.00  0.00     0.026 C 
BRANCH  29  32
HETATM   32  C3  UNL     1      11.567  40.574  22.059  1.00  0.00     0.127 C 
BRANCH  32  33
HETATM   33  N1  UNL     1      11.392  40.945  20.683  1.00  0.00    -0.361 N 
HETATM   34  C2  UNL     1      12.031  42.094  20.177  1.00  0.00     0.213 C 
HETATM   35  C1  UNL     1      11.825  42.452  18.738  1.00  0.00     0.117 C 
HETATM   36  O1  UNL     1      12.770  42.827  20.904  1.00  0.00    -0.274 OA
ATOM     37  H1  UNL     1      10.805  40.376  20.073  1.00  0.00     0.162 HD
ENDBRANCH  32  33
ENDBRANCH  29  32
ENDBRANCH  22  26
ENDBRANCH   1  20
BRANCH   5  38
HETATM   38  O3  UNL     1       3.075  37.297  31.228  1.00  0.00    -0.396 OA
ATOM     39  H3  UNL     1       3.347  36.391  31.149  1.00  0.00     0.210 HD
ENDBRANCH   5  38
BRANCH  15  40
HETATM   40  O4  UNL     1       3.028  34.757  22.212  1.00  0.00    -0.395 OA
ATOM     41  H4  UNL     1       3.489  35.511  21.862  1.00  0.00     0.210 HD
ENDBRANCH  15  40
TORSDOF 6
ENDMDL
MODEL 2
REMARK VINA RESULT: -7.486877755      3.266      4.095
REMARK  6 active torsions:
REMARK  status: ('A' for Active; 'I' for Inactive)
REMARK       I    between atoms: C2_2  and  N1_4 
REMARK    1  A    between atoms: N1_4  and  C3_6 
REMARK    2  A    between atoms: C3_6  and  C4_7 
REMARK    3  A    between atoms: C7_10  and  N2_11 
REMARK       I    between atoms: N2_11  and  C8_13 
REMARK       I    between atoms: C8_13  and  N3_15 
REMARK    4  A    between atoms: N3_15  and  C9_17 
REMARK    5  A    between atoms: C13_21  and  O3_22 
REMARK    6  A    between atoms: C23_33  and  O4_34 
ROOT
HETATM    1  C9  UNL     1       5.711  39.402  24.898  1.00  0.00     0.091 C 
HETATM    2  C10 UNL     1       6.306  39.887  26.211  1.00  0.00     0.031 C 
HETATM    3  C11 UNL     1       6.577  38.622  26.964  1.00  0.00    -0.002 C 
HETATM    4  C12 UNL     1       7.564  38.777  28.079  1.00  0.00     0.037 C 
HETATM    5  C13 UNL     1       7.809  37.413  28.654  1.00  0.00     0.118 C 
HETATM    6  C14 UNL     1       7.030  36.327  28.039  1.00  0.00     0.032 C 
HETATM    7  C15 UNL     1       5.598  36.583  27.735  1.00  0.00     0.012 C 
HETATM    8  C16 UNL     1       5.268  38.036  27.424  1.00  0.00    -0.036 C 
HETATM    9  C17 UNL     1       5.010  38.663  28.809  1.00  0.00     0.016 C 
HETATM   10  C18 UNL     1       4.118  38.266  26.534  1.00  0.00     0.000 C 
HETATM   11  C19 UNL     1       3.132  37.083  26.484  1.00  0.00     0.007 C 
HETATM   12  C20 UNL     1       2.029  37.534  25.512  1.00  0.00     0.012 C 
HETATM   13  C21 UNL     1       2.619  37.379  24.115  1.00  0.00    -0.014 C 
HETATM   14  C22 UNL     1       1.684  38.123  23.182  1.00  0.00     0.018 C 
HETATM   15  C23 UNL     1       2.729  35.938  23.712  1.00  0.00     0.126 C 
HETATM   16  C24 UNL     1       4.168  35.589  23.521  1.00  0.00     0.033 C 
HETATM   17  C25 UNL     1       4.979  36.843  23.798  1.00  0.00     0.008 C 
HETATM   18  C26 UNL     1       4.001  37.928  24.024  1.00  0.00     0.003 C 
HETATM   19  C27 UNL     1       4.345  38.864  25.190  1.00  0.00     0.018 C 
ENDROOT
BRANCH   1  20
HETATM   20  N3  UNL     1       5.698  40.525  24.006  1.00  0.00    -0.338 N 
HETATM   21  C8  UNL     1       6.344  40.492  22.744  1.00  0.00     0.316 C 
HETATM   22  N2  UNL     1       6.338  41.603  21.855  1.00  0.00    -0.339 N 
HETATM   23  O2  UNL     1       6.940  39.436  22.412  1.00  0.00    -0.247 OA
ATOM     24  H2  UNL     1       5.853  42.457  22.132  1.00  0.00     0.164 HD
ATOM     25  H3  UNL     1       5.210  41.375  24.288  1.00  0.00     0.164 HD
BRANCH  22  26
HETATM   26  C7  UNL     1       7.001  41.556  20.568  1.00  0.00     0.086 C 
HETATM   27  C6  UNL     1       5.962  41.327  19.513  1.00  0.00     0.026 C 
HETATM   28  C5  UNL     1       6.633  41.027  18.189  1.00  0.00     0.008 C 
HETATM   29  C4  UNL     1       7.936  41.779  18.074  1.00  0.00     0.003 C 
HETATM   30  C29 UNL     1       7.760  43.117  18.765  1.00  0.00     0.008 C 
HETATM   31  C28 UNL     1       7.633  42.919  20.257  1.00  0.00     0.026 C 
BRANCH  29  32
HETATM   32  C3  UNL     1       8.272  41.962  16.608  1.00  0.00     0.127 C 
BRANCH  32  33
HETATM   33  N1  UNL     1       7.784  43.206  16.085  1.00  0.00    -0.361 N 
HETATM   34  C2  UNL     1       8.686  44.145  15.545  1.00  0.00     0.213 C 
HETATM   35  C1  UNL     1       8.143  45.432  15.009  1.00  0.00     0.117 C 
HETATM   36  O1  UNL     1       9.936  43.927  15.501  1.00  0.00    -0.274 OA
ATOM     37  H1  UNL     1       6.785  43.411  16.104  1.00  0.00     0.162 HD
ENDBRANCH  32  33
ENDBRANCH  29  32
ENDBRANCH  22  26
ENDBRANCH   1  20
BRANCH   5  38
HETATM   38  O3  UNL     1       9.182  37.126  28.445  1.00  0.00    -0.396 OA
ATOM     39  H3  UNL     1       9.321  36.235  28.744  1.00  0.00     0.210 HD
ENDBRANCH   5  38
BRANCH  15  40
HETATM   40  O4  UNL     1       2.078  35.777  22.489  1.00  0.00    -0.395 OA
ATOM     41  H4  UNL     1       2.735  35.611  21.822  1.00  0.00     0.210 HD
ENDBRANCH  15  40
TORSDOF 6
ENDMDL
MODEL 3
REMARK VINA RESULT: -7.449141389      4.639      7.649
REMARK  6 active torsions:
REMARK  status: ('A' for Active; 'I' for Inactive)
REMARK       I    between atoms: C2_2  and  N1_4 
REMARK    1  A    between atoms: N1_4  and  C3_6 
REMARK    2  A    between atoms: C3_6  and  C4_7 
REMARK    3  A    between atoms: C7_10  and  N2_11 
REMARK       I    between atoms: N2_11  and  C8_13 
REMARK       I    between atoms: C8_13  and  N3_15 
REMARK    4  A    between atoms: N3_15  and  C9_17 
REMARK    5  A    between atoms: C13_21  and  O3_22 
REMARK    6  A    between atoms: C23_33  and  O4_34 
ROOT
HETATM    1  C9  UNL     1       4.412  37.655  26.503  1.00  0.00     0.091 C 
HETATM    2  C10 UNL     1       4.860  37.004  25.204  1.00  0.00     0.031 C 
HETATM    3  C11 UNL     1       3.702  37.225  24.281  1.00  0.00    -0.002 C 
HETATM    4  C12 UNL     1       4.045  37.092  22.830  1.00  0.00     0.037 C 
HETATM    5  C13 UNL     1       2.818  37.450  22.044  1.00  0.00     0.118 C 
HETATM    6  C14 UNL     1       1.635  37.785  22.852  1.00  0.00     0.032 C 
HETATM    7  C15 UNL     1       1.341  36.943  24.041  1.00  0.00     0.012 C 
HETATM    8  C16 UNL     1       2.568  36.324  24.695  1.00  0.00    -0.036 C 
HETATM    9  C17 UNL     1       2.787  35.014  23.911  1.00  0.00     0.016 C 
HETATM   10  C18 UNL     1       2.466  36.048  26.138  1.00  0.00     0.000 C 
HETATM   11  C19 UNL     1       1.014  35.929  26.640  1.00  0.00     0.007 C 
HETATM   12  C20 UNL     1       1.144  35.645  28.146  1.00  0.00     0.012 C 
HETATM   13  C21 UNL     1       1.485  36.982  28.793  1.00  0.00    -0.014 C 
HETATM   14  C22 UNL     1       1.939  36.660  30.203  1.00  0.00     0.018 C 
HETATM   15  C23 UNL     1       0.305  37.907  28.818  1.00  0.00     0.126 C 
HETATM   16  C24 UNL     1       0.603  39.109  27.983  1.00  0.00     0.033 C 
HETATM   17  C25 UNL     1       2.009  38.941  27.433  1.00  0.00     0.008 C 
HETATM   18  C26 UNL     1       2.550  37.711  28.050  1.00  0.00     0.003 C 
HETATM   19  C27 UNL     1       3.328  36.805  27.087  1.00  0.00     0.018 C 
ENDROOT
BRANCH   1  20
HETATM   20  N3  UNL     1       5.572  37.750  27.343  1.00  0.00    -0.338 N 
HETATM   21  C8  UNL     1       5.973  38.973  27.937  1.00  0.00     0.316 C 
HETATM   22  N2  UNL     1       7.123  39.075  28.769  1.00  0.00    -0.339 N 
HETATM   23  O2  UNL     1       5.280  39.996  27.710  1.00  0.00    -0.247 OA
ATOM     24  H2  UNL     1       7.682  38.240  28.946  1.00  0.00     0.164 HD
ATOM     25  H3  UNL     1       6.125  36.911  27.518  1.00  0.00     0.164 HD
BRANCH  22  26
HETATM   26  C7  UNL     1       7.524  40.331  29.370  1.00  0.00     0.086 C 
HETATM   27  C6  UNL     1       6.674  40.562  30.582  1.00  0.00     0.026 C 
HETATM   28  C5  UNL     1       6.887  41.969  31.097  1.00  0.00     0.008 C 
HETATM   29  C4  UNL     1       8.307  42.414  30.848  1.00  0.00     0.003 C 
HETATM   30  C29 UNL     1       9.205  41.203  31.005  1.00  0.00     0.008 C 
HETATM   31  C28 UNL     1       8.969  40.232  29.873  1.00  0.00     0.026 C 
BRANCH  29  32
HETATM   32  C3  UNL     1       8.668  43.493  31.849  1.00  0.00     0.127 C 
BRANCH  32  33
HETATM   33  N1  UNL     1       8.874  42.971  33.169  1.00  0.00    -0.361 N 
HETATM   34  C2  UNL     1       8.173  43.520  34.262  1.00  0.00     0.213 C 
HETATM   35  C1  UNL     1       8.413  42.951  35.625  1.00  0.00     0.117 C 
HETATM   36  O1  UNL     1       7.350  44.476  34.119  1.00  0.00    -0.274 OA
ATOM     37  H1  UNL     1       9.528  42.201  33.317  1.00  0.00     0.162 HD
ENDBRANCH  32  33
ENDBRANCH  29  32
ENDBRANCH  22  26
ENDBRANCH   1  20
BRANCH   5  38
HETATM   38  O3  UNL     1       3.149  38.595  21.275  1.00  0.00    -0.396 OA
ATOM     39  H3  UNL     1       2.655  38.532  20.467  1.00  0.00     0.210 HD
ENDBRANCH   5  38
BRANCH  15  40
HETATM   40  O4  UNL     1       0.109  38.330  30.132  1.00  0.00    -0.395 OA
ATOM     41  H4  UNL     1      -0.766  38.075  30.400  1.00  0.00     0.210 HD
ENDBRANCH  15  40
TORSDOF 6
ENDMDL
MODEL 4
REMARK VINA RESULT: -7.365135079      1.064      1.169
REMARK  6 active torsions:
REMARK  status: ('A' for Active; 'I' for Inactive)
REMARK       I    between atoms: C2_2  and  N1_4 
REMARK    1  A    between atoms: N1_4  and  C3_6 
REMARK    2  A    between atoms: C3_6  and  C4_7 
REMARK    3  A    between atoms: C7_10  and  N2_11 
REMARK       I    between atoms: N2_11  and  C8_13 
REMARK       I    between atoms: C8_13  and  N3_15 
REMARK    4  A    between atoms: N3_15  and  C9_17 
REMARK    5  A    between atoms: C13_21  and  O3_22 
REMARK    6  A    between atoms: C23_33  and  O4_34 
ROOT
HETATM    1  C9  UNL     1       3.951  38.961  25.651  1.00  0.00     0.091 C 
HETATM    2  C10 UNL     1       3.434  39.738  26.852  1.00  0.00     0.031 C 
HETATM    3  C11 UNL     1       2.992  38.668  27.801  1.00  0.00    -0.002 C 
HETATM    4  C12 UNL     1       2.866  39.125  29.220  1.00  0.00     0.037 C 
HETATM    5  C13 UNL     1       2.529  37.923  30.052  1.00  0.00     0.118 C 
HETATM    6  C14 UNL     1       2.375  36.668  29.300  1.00  0.00     0.032 C 
HETATM    7  C15 UNL     1       1.633  36.713  28.013  1.00  0.00     0.012 C 
HETATM    8  C16 UNL     1       1.726  38.042  27.278  1.00  0.00    -0.036 C 
HETATM    9  C17 UNL     1       0.582  38.882  27.882  1.00  0.00     0.016 C 
HETATM   10  C18 UNL     1       1.601  37.985  25.811  1.00  0.00     0.000 C 
HETATM   11  C19 UNL     1       0.888  36.716  25.304  1.00  0.00     0.007 C 
HETATM   12  C20 UNL     1       0.869  36.865  23.773  1.00  0.00     0.012 C 
HETATM   13  C21 UNL     1       2.278  36.520  23.306  1.00  0.00    -0.014 C 
HETATM   14  C22 UNL     1       2.364  36.979  21.864  1.00  0.00     0.018 C 
HETATM   15  C23 UNL     1       2.555  35.049  23.408  1.00  0.00     0.126 C 
HETATM   16  C24 UNL     1       3.656  34.822  24.391  1.00  0.00     0.033 C 
HETATM   17  C25 UNL     1       4.089  36.182  24.908  1.00  0.00     0.008 C 
HETATM   18  C26 UNL     1       3.324  37.182  24.133  1.00  0.00     0.003 C 
HETATM   19  C27 UNL     1       2.772  38.347  24.966  1.00  0.00     0.018 C 
ENDROOT
BRANCH   1  20
HETATM   20  N3  UNL     1       4.662  39.895  24.826  1.00  0.00    -0.338 N 
HETATM   21  C8  UNL     1       6.036  39.731  24.515  1.00  0.00     0.316 C 
HETATM   22  N2  UNL     1       6.749  40.654  23.700  1.00  0.00    -0.339 N 
HETATM   23  O2  UNL     1       6.633  38.730  24.985  1.00  0.00    -0.247 OA
ATOM     24  H2  UNL     1       6.257  41.465  23.324  1.00  0.00     0.164 HD
ATOM     25  H3  UNL     1       4.165  40.703  24.452  1.00  0.00     0.164 HD
BRANCH  22  26
HETATM   26  C7  UNL     1       8.152  40.475  23.389  1.00  0.00     0.086 C 
HETATM   27  C6  UNL     1       8.261  39.984  21.977  1.00  0.00     0.026 C 
HETATM   28  C5  UNL     1       9.684  39.552  21.693  1.00  0.00     0.008 C 
HETATM   29  C4  UNL     1      10.660  40.402  22.469  1.00  0.00     0.003 C 
HETATM   30  C29 UNL     1      10.094  41.806  22.541  1.00  0.00     0.008 C 
HETATM   31  C28 UNL     1       8.872  41.829  23.429  1.00  0.00     0.026 C 
BRANCH  29  32
HETATM   32  C3  UNL     1      11.998  40.389  21.758  1.00  0.00     0.127 C 
BRANCH  32  33
HETATM   33  N1  UNL     1      12.816  41.515  22.108  1.00  0.00    -0.361 N 
HETATM   34  C2  UNL     1      14.162  41.564  21.692  1.00  0.00     0.213 C 
HETATM   35  C1  UNL     1      14.985  42.753  22.076  1.00  0.00     0.117 C 
HETATM   36  O1  UNL     1      14.687  40.634  21.006  1.00  0.00    -0.274 OA
ATOM     37  H1  UNL     1      12.423  42.279  22.657  1.00  0.00     0.162 HD
ENDBRANCH  32  33
ENDBRANCH  29  32
ENDBRANCH  22  26
ENDBRANCH   1  20
BRANCH   5  38
HETATM   38  O3  UNL     1       3.602  37.747  30.963  1.00  0.00    -0.396 OA
ATOM     39  H3  UNL     1       4.289  37.294  30.488  1.00  0.00     0.210 HD
ENDBRANCH   5  38
BRANCH  15  40
HETATM   40  O4  UNL     1       2.989  34.599  22.161  1.00  0.00    -0.395 OA
ATOM     41  H4  UNL     1       2.286  34.732  21.536  1.00  0.00     0.210 HD
ENDBRANCH  15  40
TORSDOF 6
ENDMDL
MODEL 5
REMARK VINA RESULT: -7.225371901      2.629      5.164
REMARK  6 active torsions:
REMARK  status: ('A' for Active; 'I' for Inactive)
REMARK       I    between atoms: C2_2  and  N1_4 
REMARK    1  A    between atoms: N1_4  and  C3_6 
REMARK    2  A    between atoms: C3_6  and  C4_7 
REMARK    3  A    between atoms: C7_10  and  N2_11 
REMARK       I    between atoms: N2_11  and  C8_13 
REMARK       I    between atoms: C8_13  and  N3_15 
REMARK    4  A    between atoms: N3_15  and  C9_17 
REMARK    5  A    between atoms: C13_21  and  O3_22 
REMARK    6  A    between atoms: C23_33  and  O4_34 
ROOT
HETATM    1  C9  UNL     1       6.417  38.305  24.209  1.00  0.00     0.091 C 
HETATM    2  C10 UNL     1       5.450  37.680  23.215  1.00  0.00     0.031 C 
HETATM    3  C11 UNL     1       4.103  38.033  23.764  1.00  0.00    -0.002 C 
HETATM    4  C12 UNL     1       2.993  37.939  22.764  1.00  0.00     0.037 C 
HETATM    5  C13 UNL     1       1.742  38.428  23.433  1.00  0.00     0.118 C 
HETATM    6  C14 UNL     1       1.901  38.817  24.843  1.00  0.00     0.032 C 
HETATM    7  C15 UNL     1       2.729  37.947  25.718  1.00  0.00     0.012 C 
HETATM    8  C16 UNL     1       3.845  37.205  24.996  1.00  0.00    -0.036 C 
HETATM    9  C17 UNL     1       3.165  35.919  24.484  1.00  0.00     0.016 C 
HETATM   10  C18 UNL     1       5.032  36.874  25.802  1.00  0.00     0.000 C 
HETATM   11  C19 UNL     1       4.759  36.846  27.318  1.00  0.00     0.007 C 
HETATM   12  C20 UNL     1       6.113  36.484  27.952  1.00  0.00     0.012 C 
HETATM   13  C21 UNL     1       6.945  37.760  27.908  1.00  0.00    -0.014 C 
HETATM   14  C22 UNL     1       8.369  37.340  28.215  1.00  0.00     0.018 C 
HETATM   15  C23 UNL     1       6.468  38.773  28.907  1.00  0.00     0.126 C 
HETATM   16  C24 UNL     1       5.978  39.984  28.183  1.00  0.00     0.033 C 
HETATM   17  C25 UNL     1       6.165  39.731  26.698  1.00  0.00     0.008 C 
HETATM   18  C26 UNL     1       6.869  38.436  26.584  1.00  0.00     0.003 C 
HETATM   19  C27 UNL     1       6.335  37.516  25.478  1.00  0.00     0.018 C 
ENDROOT
BRANCH   1  20
HETATM   20  N3  UNL     1       7.717  38.270  23.603  1.00  0.00    -0.338 N 
HETATM   21  C8  UNL     1       8.332  39.433  23.075  1.00  0.00     0.316 C 
HETATM   22  N2  UNL     1       9.621  39.406  22.470  1.00  0.00    -0.339 N 
HETATM   23  O2  UNL     1       7.705  40.520  23.148  1.00  0.00    -0.247 OA
ATOM     24  H2  UNL     1      10.122  38.520  22.413  1.00  0.00     0.164 HD
ATOM     25  H3  UNL     1       8.214  37.381  23.550  1.00  0.00     0.164 HD
BRANCH  22  26
HETATM   26  C7  UNL     1      10.239  40.601  21.934  1.00  0.00     0.086 C 
HETATM   27  C6  UNL     1      11.723  40.392  21.910  1.00  0.00     0.026 C 
HETATM   28  C5  UNL     1      12.420  41.696  21.590  1.00  0.00     0.008 C 
HETATM   29  C4  UNL     1      11.576  42.533  20.661  1.00  0.00     0.003 C 
HETATM   30  C29 UNL     1      10.852  41.591  19.719  1.00  0.00     0.008 C 
HETATM   31  C28 UNL     1       9.811  40.800  20.474  1.00  0.00     0.026 C 
BRANCH  29  32
HETATM   32  C3  UNL     1      12.477  43.483  19.898  1.00  0.00     0.127 C 
BRANCH  32  33
HETATM   33  N1  UNL     1      12.539  43.173  18.498  1.00  0.00    -0.361 N 
HETATM   34  C2  UNL     1      12.491  44.210  17.544  1.00  0.00     0.213 C 
HETATM   35  C1  UNL     1      12.557  43.851  16.093  1.00  0.00     0.117 C 
HETATM   36  O1  UNL     1      12.394  45.430  17.883  1.00  0.00    -0.274 OA
ATOM     37  H1  UNL     1      12.618  42.203  18.193  1.00  0.00     0.162 HD
ENDBRANCH  32  33
ENDBRANCH  29  32
ENDBRANCH  22  26
ENDBRANCH   1  20
BRANCH   5  38
HETATM   38  O3  UNL     1       1.321  39.577  22.716  1.00  0.00    -0.396 OA
ATOM     39  H3  UNL     1       0.386  39.659  22.862  1.00  0.00     0.210 HD
ENDBRANCH   5  38
BRANCH  15  40
HETATM   40  O4  UNL     1       7.552  39.150  29.698  1.00  0.00    -0.395 OA
ATOM     41  H4  UNL     1       7.385  38.861  30.588  1.00  0.00     0.210 HD
ENDBRANCH  15  40
TORSDOF 6
ENDMDL
