MODEL 1
REMARK VINA RESULT: -7.387739768      0.000      0.000
REMARK  4 active torsions:
REMARK  status: ('A' for Active; 'I' for Inactive)
REMARK       I    between atoms: C1_2  and  N1_3 
REMARK    1  A    between atoms: C1_2  and  C10_18 
REMARK    2  A    between atoms: N1_3  and  C2_5 
REMARK    3  A    between atoms: C2_5  and  N2_7 
REMARK    4  A    between atoms: N2_7  and  C3_9 
ROOT
HETATM    1  C2  UNL     1       8.431  55.089   0.464  1.00  0.00     0.179 C 
HETATM    2  S1  UNL     1       9.995  55.537   0.465  1.00  0.00    -0.040 SA
ENDROOT
BRANCH   1   3
HETATM    3  N1  UNL     1       8.004  54.040   1.345  1.00  0.00    -0.299 N 
HETATM    4  C1  UNL     1       6.877  53.228   1.087  1.00  0.00     0.264 C 
HETATM    5  O1  UNL     1       6.213  53.418   0.049  1.00  0.00    -0.267 OA
ATOM      6  H1  UNL     1       8.537  53.874   2.197  1.00  0.00     0.171 HD
BRANCH   4   7
HETATM    7  C10 UNL     1       6.466  52.170   1.999  1.00  0.00     0.072 A 
HETATM    8  C11 UNL     1       5.219  51.854   2.463  1.00  0.00     0.025 A 
HETATM    9  C12 UNL     1       5.110  50.823   3.303  1.00  0.00     0.009 A 
HETATM   10  C13 UNL     1       6.258  50.154   3.638  1.00  0.00     0.050 A 
HETATM   11  S2  UNL     1       7.454  51.004   2.758  1.00  0.00    -0.097 SA
ENDBRANCH   4   7
ENDBRANCH   1   3
BRANCH   1  12
HETATM   12  N2  UNL     1       7.490  55.678  -0.407  1.00  0.00    -0.333 N 
ATOM     13  H2  UNL     1       7.253  55.205  -1.280  1.00  0.00     0.168 HD
BRANCH  12  14
HETATM   14  C3  UNL     1       6.867  56.912  -0.096  1.00  0.00     0.037 A 
HETATM   15  C4  UNL     1       7.310  58.134  -0.506  1.00  0.00     0.032 A 
HETATM   16  C5  UNL     1       6.652  59.321  -0.208  1.00  0.00     0.042 A 
HETATM   17  C6  UNL     1       5.503  59.264   0.532  1.00  0.00     0.105 A 
HETATM   18  C7  UNL     1       5.024  58.036   0.966  1.00  0.00     0.107 A 
HETATM   19  O3  UNL     1       4.629  60.239   0.989  1.00  0.00    -0.323 OA
HETATM   20  C8  UNL     1       5.685  56.875   0.664  1.00  0.00     0.069 A 
HETATM   21  O2  UNL     1       3.846  58.229   1.700  1.00  0.00    -0.323 OA
HETATM   22  C9  UNL     1       3.515  59.589   1.570  1.00  0.00     0.352 C 
ENDBRANCH  12  14
ENDBRANCH   1  12
TORSDOF 4
ENDMDL
MODEL 2
REMARK VINA RESULT: -7.240318768      2.753      7.017
REMARK  4 active torsions:
REMARK  status: ('A' for Active; 'I' for Inactive)
REMARK       I    between atoms: C1_2  and  N1_3 
REMARK    1  A    between atoms: C1_2  and  C10_18 
REMARK    2  A    between atoms: N1_3  and  C2_5 
REMARK    3  A    between atoms: C2_5  and  N2_7 
REMARK    4  A    between atoms: N2_7  and  C3_9 
ROOT
HETATM    1  C2  UNL     1       8.805  54.892   0.492  1.00  0.00     0.179 C 
HETATM    2  S1  UNL     1      10.365  54.863   0.955  1.00  0.00    -0.040 SA
ENDROOT
BRANCH   1   3
HETATM    3  N1  UNL     1       8.074  56.123   0.574  1.00  0.00    -0.299 N 
HETATM    4  C1  UNL     1       8.228  57.175  -0.357  1.00  0.00     0.264 C 
HETATM    5  O1  UNL     1       9.033  57.043  -1.299  1.00  0.00    -0.267 OA
ATOM      6  H1  UNL     1       7.412  56.246   1.339  1.00  0.00     0.171 HD
BRANCH   4   7
HETATM    7  C10 UNL     1       7.472  58.415  -0.249  1.00  0.00     0.072 A 
HETATM    8  C11 UNL     1       7.830  59.689  -0.596  1.00  0.00     0.025 A 
HETATM    9  C12 UNL     1       6.941  60.663  -0.392  1.00  0.00     0.009 A 
HETATM   10  C13 UNL     1       5.732  60.314   0.150  1.00  0.00     0.050 A 
HETATM   11  S2  UNL     1       5.890  58.623   0.356  1.00  0.00    -0.097 SA
ENDBRANCH   4   7
ENDBRANCH   1   3
BRANCH   1  12
HETATM   12  N2  UNL     1       8.140  53.729   0.049  1.00  0.00    -0.333 N 
ATOM     13  H2  UNL     1       8.335  53.366  -0.884  1.00  0.00     0.168 HD
BRANCH  12  14
HETATM   14  C3  UNL     1       7.207  53.053   0.874  1.00  0.00     0.037 A 
HETATM   15  C4  UNL     1       5.857  53.234   0.835  1.00  0.00     0.032 A 
HETATM   16  C5  UNL     1       4.970  52.527   1.637  1.00  0.00     0.042 A 
HETATM   17  C6  UNL     1       5.473  51.603   2.512  1.00  0.00     0.105 A 
HETATM   18  C7  UNL     1       6.843  51.393   2.578  1.00  0.00     0.107 A 
HETATM   19  O3  UNL     1       4.875  50.752   3.428  1.00  0.00    -0.323 OA
HETATM   20  C8  UNL     1       7.704  52.099   1.780  1.00  0.00     0.069 A 
HETATM   21  O2  UNL     1       7.118  50.409   3.537  1.00  0.00    -0.323 OA
HETATM   22  C9  UNL     1       5.875  49.895   3.945  1.00  0.00     0.352 C 
ENDBRANCH  12  14
ENDBRANCH   1  12
TORSDOF 4
ENDMDL
MODEL 3
REMARK VINA RESULT: -7.240046639      1.034      1.306
REMARK  4 active torsions:
REMARK  status: ('A' for Active; 'I' for Inactive)
REMARK       I    between atoms: C1_2  and  N1_3 
REMARK    1  A    between atoms: C1_2  and  C10_18 
REMARK    2  A    between atoms: N1_3  and  C2_5 
REMARK    3  A    between atoms: C2_5  and  N2_7 
REMARK    4  A    between atoms: N2_7  and  C3_9 
ROOT
HETATM    1  C2  UNL     1       8.765  54.821   0.450  1.00  0.00     0.179 C 
HETATM    2  S1  UNL     1      10.352  55.175   0.479  1.00  0.00    -0.040 SA
ENDROOT
BRANCH   1   3
HETATM    3  N1  UNL     1       8.261  53.791   1.313  1.00  0.00    -0.299 N 
HETATM    4  C1  UNL     1       6.996  53.188   1.137  1.00  0.00     0.264 C 
HETATM    5  O1  UNL     1       6.270  53.556   0.193  1.00  0.00    -0.267 OA
ATOM      6  H1  UNL     1       8.844  53.480   2.090  1.00  0.00     0.171 HD
BRANCH   4   7
HETATM    7  C10 UNL     1       6.510  52.144   2.029  1.00  0.00     0.072 A 
HETATM    8  C11 UNL     1       5.235  51.875   2.445  1.00  0.00     0.025 A 
HETATM    9  C12 UNL     1       5.055  50.847   3.276  1.00  0.00     0.009 A 
HETATM   10  C13 UNL     1       6.164  50.134   3.652  1.00  0.00     0.050 A 
HETATM   11  S2  UNL     1       7.424  50.940   2.821  1.00  0.00    -0.097 SA
ENDBRANCH   4   7
ENDBRANCH   1   3
BRANCH   1  12
HETATM   12  N2  UNL     1       7.874  55.473  -0.430  1.00  0.00    -0.333 N 
ATOM     13  H2  UNL     1       7.325  54.918  -1.087  1.00  0.00     0.168 HD
BRANCH  12  14
HETATM   14  C3  UNL     1       7.726  56.882  -0.419  1.00  0.00     0.037 A 
HETATM   15  C4  UNL     1       8.612  57.764  -0.960  1.00  0.00     0.032 A 
HETATM   16  C5  UNL     1       8.414  59.139  -0.959  1.00  0.00     0.042 A 
HETATM   17  C6  UNL     1       7.275  59.637  -0.389  1.00  0.00     0.105 A 
HETATM   18  C7  UNL     1       6.350  58.766   0.173  1.00  0.00     0.107 A 
HETATM   19  O3  UNL     1       6.789  60.924  -0.227  1.00  0.00    -0.323 OA
HETATM   20  C8  UNL     1       6.561  57.413   0.164  1.00  0.00     0.069 A 
HETATM   21  O2  UNL     1       5.276  59.501   0.692  1.00  0.00    -0.323 OA
HETATM   22  C9  UNL     1       5.476  60.833   0.292  1.00  0.00     0.352 C 
ENDBRANCH  12  14
ENDBRANCH   1  12
TORSDOF 4
ENDMDL
MODEL 4
REMARK VINA RESULT: -7.183495315      3.050      6.963
REMARK  4 active torsions:
REMARK  status: ('A' for Active; 'I' for Inactive)
REMARK       I    between atoms: C1_2  and  N1_3 
REMARK    1  A    between atoms: C1_2  and  C10_18 
REMARK    2  A    between atoms: N1_3  and  C2_5 
REMARK    3  A    between atoms: C2_5  and  N2_7 
REMARK    4  A    between atoms: N2_7  and  C3_9 
ROOT
HETATM    1  C2  UNL     1       5.498  57.867   1.542  1.00  0.00     0.179 C 
HETATM    2  S1  UNL     1       3.951  58.184   1.152  1.00  0.00    -0.040 SA
ENDROOT
BRANCH   1   3
HETATM    3  N1  UNL     1       6.550  58.447   0.757  1.00  0.00    -0.299 N 
HETATM    4  C1  UNL     1       7.260  57.730  -0.231  1.00  0.00     0.264 C 
HETATM    5  O1  UNL     1       6.971  56.536  -0.444  1.00  0.00    -0.267 OA
ATOM      6  H1  UNL     1       6.797  59.423   0.921  1.00  0.00     0.171 HD
BRANCH   4   7
HETATM    7  C10 UNL     1       8.324  58.345  -1.014  1.00  0.00     0.072 A 
HETATM    8  C11 UNL     1       8.454  59.634  -1.450  1.00  0.00     0.025 A 
HETATM    9  C12 UNL     1       9.540  59.945  -2.160  1.00  0.00     0.009 A 
HETATM   10  C13 UNL     1      10.447  58.947  -2.400  1.00  0.00     0.050 A 
HETATM   11  S2  UNL     1       9.737  57.602  -1.616  1.00  0.00    -0.097 SA
ENDBRANCH   4   7
ENDBRANCH   1   3
BRANCH   1  12
HETATM   12  N2  UNL     1       5.835  57.006   2.608  1.00  0.00    -0.333 N 
ATOM     13  H2  UNL     1       6.061  57.404   3.520  1.00  0.00     0.168 HD
BRANCH  12  14
HETATM   14  C3  UNL     1       5.866  55.600   2.439  1.00  0.00     0.037 A 
HETATM   15  C4  UNL     1       4.794  54.831   2.099  1.00  0.00     0.032 A 
HETATM   16  C5  UNL     1       4.872  53.457   1.909  1.00  0.00     0.042 A 
HETATM   17  C6  UNL     1       6.083  52.841   2.070  1.00  0.00     0.105 A 
HETATM   18  C7  UNL     1       7.196  53.594   2.417  1.00  0.00     0.107 A 
HETATM   19  O3  UNL     1       6.489  51.521   1.957  1.00  0.00    -0.323 OA
HETATM   20  C8  UNL     1       7.102  54.948   2.600  1.00  0.00     0.069 A 
HETATM   21  O2  UNL     1       8.311  52.753   2.525  1.00  0.00    -0.323 OA
HETATM   22  C9  UNL     1       7.899  51.487   2.075  1.00  0.00     0.352 C 
ENDBRANCH  12  14
ENDBRANCH   1  12
TORSDOF 4
ENDMDL
MODEL 5
REMARK VINA RESULT: -7.159435853      2.329      6.611
REMARK  4 active torsions:
REMARK  status: ('A' for Active; 'I' for Inactive)
REMARK       I    between atoms: C1_2  and  N1_3 
REMARK    1  A    between atoms: C1_2  and  C10_18 
REMARK    2  A    between atoms: N1_3  and  C2_5 
REMARK    3  A    between atoms: C2_5  and  N2_7 
REMARK    4  A    between atoms: N2_7  and  C3_9 
ROOT
HETATM    1  C2  UNL     1       8.780  54.778   0.401  1.00  0.00     0.179 C 
HETATM    2  S1  UNL     1      10.375  55.094   0.406  1.00  0.00    -0.040 SA
ENDROOT
BRANCH   1   3
HETATM    3  N1  UNL     1       7.860  55.813   0.776  1.00  0.00    -0.299 N 
HETATM    4  C1  UNL     1       6.625  56.021   0.124  1.00  0.00     0.264 C 
HETATM    5  O1  UNL     1       6.304  55.280  -0.826  1.00  0.00    -0.267 OA
ATOM      6  H1  UNL     1       8.109  56.427   1.551  1.00  0.00     0.171 HD
BRANCH   4   7
HETATM    7  C10 UNL     1       5.710  57.081   0.526  1.00  0.00     0.072 A 
HETATM    8  C11 UNL     1       5.784  58.428   0.305  1.00  0.00     0.025 A 
HETATM    9  C12 UNL     1       4.802  59.193   0.786  1.00  0.00     0.009 A 
HETATM   10  C13 UNL     1       3.790  58.570   1.468  1.00  0.00     0.050 A 
HETATM   11  S2  UNL     1       4.258  56.925   1.408  1.00  0.00    -0.097 SA
ENDBRANCH   4   7
ENDBRANCH   1   3
BRANCH   1  12
HETATM   12  N2  UNL     1       8.276  53.500   0.074  1.00  0.00    -0.333 N 
ATOM     13  H2  UNL     1       8.121  53.259  -0.905  1.00  0.00     0.168 HD
BRANCH  12  14
HETATM   14  C3  UNL     1       7.982  52.544   1.078  1.00  0.00     0.037 A 
HETATM   15  C4  UNL     1       8.910  51.806   1.748  1.00  0.00     0.032 A 
HETATM   16  C5  UNL     1       8.583  50.902   2.751  1.00  0.00     0.042 A 
HETATM   17  C6  UNL     1       7.266  50.742   3.086  1.00  0.00     0.105 A 
HETATM   18  C7  UNL     1       6.294  51.477   2.422  1.00  0.00     0.107 A 
HETATM   19  O3  UNL     1       6.623  49.942   4.017  1.00  0.00    -0.323 OA
HETATM   20  C8  UNL     1       6.633  52.365   1.435  1.00  0.00     0.069 A 
HETATM   21  O2  UNL     1       5.032  51.145   2.930  1.00  0.00    -0.323 OA
HETATM   22  C9  UNL     1       5.257  50.310   4.038  1.00  0.00     0.352 C 
ENDBRANCH  12  14
ENDBRANCH   1  12
TORSDOF 4
ENDMDL
