MODEL 1
REMARK VINA RESULT: -7.843079418      0.000      0.000
REMARK  6 active torsions:
REMARK  status: ('A' for Active; 'I' for Inactive)
REMARK    1  A    between atoms: N1_2  and  C2_4 
REMARK    2  A    between atoms: C3_7  and  N3_8 
REMARK    3  A    between atoms: C5_15  and  C6_16 
REMARK    4  A    between atoms: N6_17  and  N7_19 
REMARK       I    between atoms: N7_19  and  C7_21 
REMARK    5  A    between atoms: C7_21  and  C8_23 
REMARK    6  A    between atoms: C12_31  and  O3_32 
ROOT
HETATM    1  C6  UNL     1      18.837 -32.999   7.328  1.00  0.00     0.126 C 
HETATM    2  N6  UNL     1      18.208 -32.084   7.776  1.00  0.00    -0.308 N 
ATOM      3  H6  UNL     1      17.302 -32.203   7.323  1.00  0.00     0.186 HD
ENDROOT
BRANCH   2   4
HETATM    4  N7  UNL     1      18.010 -31.011   8.517  1.00  0.00    -0.266 N 
HETATM    5  C7  UNL     1      18.009 -29.653   8.079  1.00  0.00     0.274 C 
HETATM    6  O1  UNL     1      18.206 -29.557   6.800  1.00  0.00    -0.266 OA
ATOM      7  H7  UNL     1      17.839 -31.169   9.511  1.00  0.00     0.190 HD
BRANCH   5   8
HETATM    8  C8  UNL     1      17.834 -28.446   8.837  1.00  0.00     0.089 A 
HETATM    9  C9  UNL     1      18.708 -27.387   8.484  1.00  0.00     0.127 A 
HETATM   10  N8  UNL     1      18.563 -26.201   9.063  1.00  0.00    -0.306 N 
HETATM   11  N9  UNL     1      17.649 -25.918   9.964  1.00  0.00    -0.260 N 
ATOM     12  H8  UNL     1      19.207 -25.458   8.790  1.00  0.00     0.186 HD
HETATM   13  C10 UNL     1      17.534 -24.594  10.576  1.00  0.00     0.181 C 
HETATM   14  C11 UNL     1      16.816 -26.884  10.319  1.00  0.00     0.296 A 
HETATM   15  O2  UNL     1      15.908 -26.682  11.183  1.00  0.00    -0.263 OA
HETATM   16  C12 UNL     1      16.878 -28.173   9.774  1.00  0.00     0.155 A 
BRANCH  16  17
HETATM   17  O3  UNL     1      15.989 -29.125  10.207  1.00  0.00    -0.350 OA
HETATM   18  C13 UNL     1      16.273 -29.913  11.376  1.00  0.00     0.210 C 
ENDBRANCH  16  17
ENDBRANCH   5   8
ENDBRANCH   2   4
BRANCH   1  19
HETATM   19  C5  UNL     1      18.330 -33.992   6.372  1.00  0.00     0.067 A 
HETATM   20  C2  UNL     1      18.219 -35.288   6.821  1.00  0.00     0.131 A 
HETATM   21  N2  UNL     1      17.752 -36.182   5.924  1.00  0.00    -0.176 N 
HETATM   22  C3  UNL     1      17.420 -35.811   4.674  1.00  0.00     0.678 A 
ATOM     23  H2  UNL     1      17.649 -37.158   6.199  1.00  0.00     0.186 HD
HETATM   24  N4  UNL     1      17.525 -34.535   4.217  1.00  0.00    -0.178 N 
HETATM   25  C4  UNL     1      17.986 -33.628   5.089  1.00  0.00     0.147 A 
ATOM     26  H4  UNL     1      17.268 -34.282   3.264  1.00  0.00     0.185 HD
HETATM   27  N5  UNL     1      18.101 -32.284   4.643  1.00  0.00    -0.081 NA
BRANCH  20  28
HETATM   28  N1  UNL     1      18.565 -35.637   8.033  1.00  0.00    -0.379 N 
HETATM   29  C1  UNL     1      17.607 -36.256   8.891  1.00  0.00     0.147 C 
ATOM     30  H1  UNL     1      19.515 -35.469   8.364  1.00  0.00     0.160 HD
ENDBRANCH  20  28
BRANCH  22  31
HETATM   31  N3  UNL     1      16.977 -36.677   3.828  1.00  0.00    -0.234 N 
ATOM     32  H32 UNL     1      17.643 -37.391   3.532  1.00  0.00     0.174 HD
ATOM     33  H31 UNL     1      16.015 -36.630   3.493  1.00  0.00     0.174 HD
ENDBRANCH  22  31
ENDBRANCH   1  19
TORSDOF 6
ENDMDL
MODEL 2
REMARK VINA RESULT: -7.743476884      2.128      3.050
REMARK  6 active torsions:
REMARK  status: ('A' for Active; 'I' for Inactive)
REMARK    1  A    between atoms: N1_2  and  C2_4 
REMARK    2  A    between atoms: C3_7  and  N3_8 
REMARK    3  A    between atoms: C5_15  and  C6_16 
REMARK    4  A    between atoms: N6_17  and  N7_19 
REMARK       I    between atoms: N7_19  and  C7_21 
REMARK    5  A    between atoms: C7_21  and  C8_23 
REMARK    6  A    between atoms: C12_31  and  O3_32 
ROOT
HETATM    1  C6  UNL     1      16.937 -33.609   4.813  1.00  0.00     0.126 C 
HETATM    2  N6  UNL     1      17.633 -32.692   5.142  1.00  0.00    -0.308 N 
ATOM      3  H6  UNL     1      18.566 -33.040   4.920  1.00  0.00     0.186 HD
ENDROOT
BRANCH   2   4
HETATM    4  N7  UNL     1      17.892 -31.493   5.626  1.00  0.00    -0.266 N 
HETATM    5  C7  UNL     1      17.496 -30.976   6.896  1.00  0.00     0.274 C 
HETATM    6  O1  UNL     1      16.837 -31.851   7.591  1.00  0.00    -0.266 OA
ATOM      7  H7  UNL     1      18.434 -30.868   5.030  1.00  0.00     0.190 HD
BRANCH   5   8
HETATM    8  C8  UNL     1      17.715 -29.675   7.464  1.00  0.00     0.089 A 
HETATM    9  C9  UNL     1      16.647 -29.180   8.255  1.00  0.00     0.127 A 
HETATM   10  N8  UNL     1      16.792 -28.027   8.898  1.00  0.00    -0.306 N 
HETATM   11  N9  UNL     1      17.876 -27.285   8.863  1.00  0.00    -0.260 N 
ATOM     12  H8  UNL     1      16.006 -27.695   9.458  1.00  0.00     0.186 HD
HETATM   13  C10 UNL     1      17.983 -26.019   9.588  1.00  0.00     0.181 C 
HETATM   14  C11 UNL     1      18.893 -27.716   8.133  1.00  0.00     0.296 A 
HETATM   15  O2  UNL     1      19.971 -27.050   8.053  1.00  0.00    -0.263 OA
HETATM   16  C12 UNL     1      18.851 -28.916   7.412  1.00  0.00     0.155 A 
BRANCH  16  17
HETATM   17  O3  UNL     1      19.941 -29.287   6.665  1.00  0.00    -0.350 OA
HETATM   18  C13 UNL     1      20.939 -30.163   7.215  1.00  0.00     0.210 C 
ENDBRANCH  16  17
ENDBRANCH   5   8
ENDBRANCH   2   4
BRANCH   1  19
HETATM   19  C5  UNL     1      17.410 -34.874   4.237  1.00  0.00     0.067 A 
HETATM   20  C2  UNL     1      18.125 -35.706   5.067  1.00  0.00     0.131 A 
HETATM   21  N2  UNL     1      18.550 -36.862   4.515  1.00  0.00    -0.176 N 
HETATM   22  C3  UNL     1      18.281 -37.164   3.232  1.00  0.00     0.678 A 
ATOM     23  H2  UNL     1      19.086 -37.520   5.081  1.00  0.00     0.186 HD
HETATM   24  N4  UNL     1      17.577 -36.352   2.401  1.00  0.00    -0.178 N 
HETATM   25  C4  UNL     1      17.143 -35.198   2.926  1.00  0.00     0.147 A 
ATOM     26  H4  UNL     1      17.390 -36.605   1.431  1.00  0.00     0.185 HD
HETATM   27  N5  UNL     1      16.398 -34.329   2.084  1.00  0.00    -0.081 NA
BRANCH  20  28
HETATM   28  N1  UNL     1      18.396 -35.389   6.307  1.00  0.00    -0.379 N 
HETATM   29  C1  UNL     1      17.753 -36.089   7.372  1.00  0.00     0.147 C 
ATOM     30  H1  UNL     1      19.064 -34.646   6.513  1.00  0.00     0.160 HD
ENDBRANCH  20  28
BRANCH  22  31
HETATM   31  N3  UNL     1      18.696 -38.272   2.717  1.00  0.00    -0.234 N 
ATOM     32  H32 UNL     1      19.543 -38.211   2.153  1.00  0.00     0.174 HD
ATOM     33  H31 UNL     1      18.190 -39.142   2.883  1.00  0.00     0.174 HD
ENDBRANCH  22  31
ENDBRANCH   1  19
TORSDOF 6
ENDMDL
MODEL 3
REMARK VINA RESULT: -7.716472819      4.564      8.819
REMARK  6 active torsions:
REMARK  status: ('A' for Active; 'I' for Inactive)
REMARK    1  A    between atoms: N1_2  and  C2_4 
REMARK    2  A    between atoms: C3_7  and  N3_8 
REMARK    3  A    between atoms: C5_15  and  C6_16 
REMARK    4  A    between atoms: N6_17  and  N7_19 
REMARK       I    between atoms: N7_19  and  C7_21 
REMARK    5  A    between atoms: C7_21  and  C8_23 
REMARK    6  A    between atoms: C12_31  and  O3_32 
ROOT
HETATM    1  C6  UNL     1      19.124 -34.605   9.249  1.00  0.00     0.126 C 
HETATM    2  N6  UNL     1      18.677 -34.877   8.172  1.00  0.00    -0.308 N 
ATOM      3  H6  UNL     1      17.712 -35.118   8.395  1.00  0.00     0.186 HD
ENDROOT
BRANCH   2   4
HETATM    4  N7  UNL     1      18.711 -35.045   6.864  1.00  0.00    -0.266 N 
HETATM    5  C7  UNL     1      17.890 -35.918   6.090  1.00  0.00     0.274 C 
HETATM    6  O1  UNL     1      17.033 -36.555   6.825  1.00  0.00    -0.266 OA
ATOM      7  H7  UNL     1      19.398 -34.492   6.352  1.00  0.00     0.190 HD
BRANCH   5   8
HETATM    8  C8  UNL     1      17.901 -36.171   4.676  1.00  0.00     0.089 A 
HETATM    9  C9  UNL     1      18.466 -37.415   4.295  1.00  0.00     0.127 A 
HETATM   10  N8  UNL     1      18.438 -37.780   3.019  1.00  0.00    -0.306 N 
HETATM   11  N9  UNL     1      17.914 -37.064   2.049  1.00  0.00    -0.260 N 
ATOM     12  H8  UNL     1      18.852 -38.680   2.775  1.00  0.00     0.186 HD
HETATM   13  C10 UNL     1      17.912 -37.511   0.656  1.00  0.00     0.181 C 
HETATM   14  C11 UNL     1      17.379 -35.895   2.368  1.00  0.00     0.296 A 
HETATM   15  O2  UNL     1      16.855 -35.151   1.483  1.00  0.00    -0.263 OA
HETATM   16  C12 UNL     1      17.354 -35.409   3.682  1.00  0.00     0.155 A 
BRANCH  16  17
HETATM   17  O3  UNL     1      16.795 -34.180   3.929  1.00  0.00    -0.350 OA
HETATM   18  C13 UNL     1      17.627 -33.047   4.234  1.00  0.00     0.210 C 
ENDBRANCH  16  17
ENDBRANCH   5   8
ENDBRANCH   2   4
BRANCH   1  19
HETATM   19  C5  UNL     1      18.377 -34.638  10.513  1.00  0.00     0.067 A 
HETATM   20  C2  UNL     1      18.449 -33.518  11.308  1.00  0.00     0.131 A 
HETATM   21  N2  UNL     1      17.755 -33.573  12.465  1.00  0.00    -0.176 N 
HETATM   22  C3  UNL     1      17.044 -34.664  12.802  1.00  0.00     0.678 A 
ATOM     23  H2  UNL     1      17.770 -32.772  13.095  1.00  0.00     0.186 HD
HETATM   24  N4  UNL     1      16.966 -35.778  12.028  1.00  0.00    -0.178 N 
HETATM   25  C4  UNL     1      17.645 -35.747  10.873  1.00  0.00     0.147 A 
ATOM     26  H4  UNL     1      16.420 -36.592  12.310  1.00  0.00     0.185 HD
HETATM   27  N5  UNL     1      17.577 -36.895  10.038  1.00  0.00    -0.081 NA
BRANCH  20  28
HETATM   28  N1  UNL     1      19.161 -32.471  10.975  1.00  0.00    -0.379 N 
HETATM   29  C1  UNL     1      19.008 -31.252  11.702  1.00  0.00     0.147 C 
ATOM     30  H1  UNL     1      19.823 -32.526  10.201  1.00  0.00     0.160 HD
ENDBRANCH  20  28
BRANCH  22  31
HETATM   31  N3  UNL     1      16.388 -34.702  13.912  1.00  0.00    -0.234 N 
ATOM     32  H32 UNL     1      15.731 -33.937  14.067  1.00  0.00     0.174 HD
ATOM     33  H31 UNL     1      16.535 -35.463  14.575  1.00  0.00     0.174 HD
ENDBRANCH  22  31
ENDBRANCH   1  19
TORSDOF 6
ENDMDL
MODEL 4
REMARK VINA RESULT: -7.535870565      3.045      8.527
REMARK  6 active torsions:
REMARK  status: ('A' for Active; 'I' for Inactive)
REMARK    1  A    between atoms: N1_2  and  C2_4 
REMARK    2  A    between atoms: C3_7  and  N3_8 
REMARK    3  A    between atoms: C5_15  and  C6_16 
REMARK    4  A    between atoms: N6_17  and  N7_19 
REMARK       I    between atoms: N7_19  and  C7_21 
REMARK    5  A    between atoms: C7_21  and  C8_23 
REMARK    6  A    between atoms: C12_31  and  O3_32 
ROOT
HETATM    1  C6  UNL     1      16.706 -30.999   7.921  1.00  0.00     0.126 C 
HETATM    2  N6  UNL     1      16.909 -31.724   6.989  1.00  0.00    -0.308 N 
ATOM      3  H6  UNL     1      17.547 -31.168   6.420  1.00  0.00     0.186 HD
ENDROOT
BRANCH   2   4
HETATM    4  N7  UNL     1      16.784 -32.824   6.274  1.00  0.00    -0.266 N 
HETATM    5  C7  UNL     1      17.615 -33.244   5.192  1.00  0.00     0.274 C 
HETATM    6  O1  UNL     1      18.584 -32.410   4.975  1.00  0.00    -0.266 OA
ATOM      7  H7  UNL     1      16.010 -33.442   6.519  1.00  0.00     0.190 HD
BRANCH   5   8
HETATM    8  C8  UNL     1      17.512 -34.407   4.356  1.00  0.00     0.089 A 
HETATM    9  C9  UNL     1      16.980 -34.168   3.063  1.00  0.00     0.127 A 
HETATM   10  N8  UNL     1      16.932 -35.162   2.184  1.00  0.00    -0.306 N 
HETATM   11  N9  UNL     1      17.349 -36.386   2.419  1.00  0.00    -0.260 N 
ATOM     12  H8  UNL     1      16.543 -34.961   1.262  1.00  0.00     0.186 HD
HETATM   13  C10 UNL     1      17.269 -37.448   1.415  1.00  0.00     0.181 C 
HETATM   14  C11 UNL     1      17.851 -36.646   3.617  1.00  0.00     0.296 A 
HETATM   15  O2  UNL     1      18.273 -37.806   3.913  1.00  0.00    -0.263 OA
HETATM   16  C12 UNL     1      17.949 -35.674   4.621  1.00  0.00     0.155 A 
BRANCH  16  17
HETATM   17  O3  UNL     1      18.466 -36.026   5.843  1.00  0.00    -0.350 OA
HETATM   18  C13 UNL     1      17.617 -36.101   7.001  1.00  0.00     0.210 C 
ENDBRANCH  16  17
ENDBRANCH   5   8
ENDBRANCH   2   4
BRANCH   1  19
HETATM   19  C5  UNL     1      17.288 -29.663   8.102  1.00  0.00     0.067 A 
HETATM   20  C2  UNL     1      18.441 -29.583   8.849  1.00  0.00     0.131 A 
HETATM   21  N2  UNL     1      18.957 -28.345   9.002  1.00  0.00    -0.176 N 
HETATM   22  C3  UNL     1      18.367 -27.269   8.452  1.00  0.00     0.678 A 
ATOM     23  H2  UNL     1      19.810 -28.223   9.547  1.00  0.00     0.186 HD
HETATM   24  N4  UNL     1      17.228 -27.333   7.712  1.00  0.00    -0.178 N 
HETATM   25  C4  UNL     1      16.697 -28.552   7.545  1.00  0.00     0.147 A 
ATOM     26  H4  UNL     1      16.802 -26.500   7.308  1.00  0.00     0.185 HD
HETATM   27  N5  UNL     1      15.510 -28.653   6.771  1.00  0.00    -0.081 NA
BRANCH  20  28
HETATM   28  N1  UNL     1      18.992 -30.637   9.396  1.00  0.00    -0.379 N 
HETATM   29  C1  UNL     1      20.376 -30.906   9.174  1.00  0.00     0.147 C 
ATOM     30  H1  UNL     1      18.436 -31.263   9.978  1.00  0.00     0.160 HD
ENDBRANCH  20  28
BRANCH  22  31
HETATM   31  N3  UNL     1      18.870 -26.092   8.609  1.00  0.00    -0.234 N 
ATOM     32  H32 UNL     1      19.710 -26.041   9.186  1.00  0.00     0.174 HD
ATOM     33  H31 UNL     1      18.437 -25.280   8.169  1.00  0.00     0.174 HD
ENDBRANCH  22  31
ENDBRANCH   1  19
TORSDOF 6
ENDMDL
MODEL 5
REMARK VINA RESULT: -7.517716606      2.937      8.701
REMARK  6 active torsions:
REMARK  status: ('A' for Active; 'I' for Inactive)
REMARK    1  A    between atoms: N1_2  and  C2_4 
REMARK    2  A    between atoms: C3_7  and  N3_8 
REMARK    3  A    between atoms: C5_15  and  C6_16 
REMARK    4  A    between atoms: N6_17  and  N7_19 
REMARK       I    between atoms: N7_19  and  C7_21 
REMARK    5  A    between atoms: C7_21  and  C8_23 
REMARK    6  A    between atoms: C12_31  and  O3_32 
ROOT
HETATM    1  C6  UNL     1      17.858 -29.727   6.147  1.00  0.00     0.126 C 
HETATM    2  N6  UNL     1      17.911 -30.896   5.896  1.00  0.00    -0.308 N 
ATOM      3  H6  UNL     1      17.844 -31.319   6.821  1.00  0.00     0.186 HD
ENDROOT
BRANCH   2   4
HETATM    4  N7  UNL     1      18.008 -31.954   5.114  1.00  0.00    -0.266 N 
HETATM    5  C7  UNL     1      17.280 -33.176   5.230  1.00  0.00     0.274 C 
HETATM    6  O1  UNL     1      16.441 -33.148   6.219  1.00  0.00    -0.266 OA
ATOM      7  H7  UNL     1      18.673 -31.893   4.344  1.00  0.00     0.190 HD
BRANCH   5   8
HETATM    8  C8  UNL     1      17.363 -34.371   4.437  1.00  0.00     0.089 A 
HETATM    9  C9  UNL     1      16.859 -34.249   3.117  1.00  0.00     0.127 A 
HETATM   10  N8  UNL     1      16.976 -35.271   2.278  1.00  0.00    -0.306 N 
HETATM   11  N9  UNL     1      17.538 -36.421   2.576  1.00  0.00    -0.260 N 
ATOM     12  H8  UNL     1      16.603 -35.155   1.335  1.00  0.00     0.186 HD
HETATM   13  C10 UNL     1      17.639 -37.518   1.614  1.00  0.00     0.181 C 
HETATM   14  C11 UNL     1      18.019 -36.571   3.801  1.00  0.00     0.296 A 
HETATM   15  O2  UNL     1      18.575 -37.654   4.159  1.00  0.00    -0.263 OA
HETATM   16  C12 UNL     1      17.949 -35.560   4.769  1.00  0.00     0.155 A 
BRANCH  16  17
HETATM   17  O3  UNL     1      18.456 -35.799   6.022  1.00  0.00    -0.350 OA
HETATM   18  C13 UNL     1      17.578 -36.112   7.118  1.00  0.00     0.210 C 
ENDBRANCH  16  17
ENDBRANCH   5   8
ENDBRANCH   2   4
BRANCH   1  19
HETATM   19  C5  UNL     1      17.722 -29.151   7.491  1.00  0.00     0.067 A 
HETATM   20  C2  UNL     1      18.763 -28.371   7.941  1.00  0.00     0.131 A 
HETATM   21  N2  UNL     1      18.616 -27.854   9.179  1.00  0.00    -0.176 N 
HETATM   22  C3  UNL     1      17.513 -28.095   9.911  1.00  0.00     0.678 A 
ATOM     23  H2  UNL     1      19.355 -27.268   9.567  1.00  0.00     0.186 HD
HETATM   24  N4  UNL     1      16.479 -28.863   9.480  1.00  0.00    -0.178 N 
HETATM   25  C4  UNL     1      16.601 -29.388   8.253  1.00  0.00     0.147 A 
ATOM     26  H4  UNL     1      15.655 -29.031  10.057  1.00  0.00     0.185 HD
HETATM   27  N5  UNL     1      15.532 -30.191   7.770  1.00  0.00    -0.081 NA
BRANCH  20  28
HETATM   28  N1  UNL     1      19.838 -28.162   7.225  1.00  0.00    -0.379 N 
HETATM   29  C1  UNL     1      21.120 -28.189   7.852  1.00  0.00     0.147 C 
ATOM     30  H1  UNL     1      19.761 -27.981   6.225  1.00  0.00     0.160 HD
ENDBRANCH  20  28
BRANCH  22  31
HETATM   31  N3  UNL     1      17.388 -27.595  11.094  1.00  0.00    -0.234 N 
ATOM     32  H32 UNL     1      18.128 -27.828  11.756  1.00  0.00     0.174 HD
ATOM     33  H31 UNL     1      16.589 -27.004  11.325  1.00  0.00     0.174 HD
ENDBRANCH  22  31
ENDBRANCH   1  19
TORSDOF 6
ENDMDL
