MODEL 1
REMARK VINA RESULT: -6.288276604      0.000      0.000
REMARK  3 active torsions:
REMARK  status: ('A' for Active; 'I' for Inactive)
REMARK    1  A    between atoms: C1_2  and  C2_4 
REMARK       I    between atoms: C2_4  and  N2_6 
REMARK    2  A    between atoms: N2_6  and  N3_8 
REMARK       I    between atoms: N3_8  and  C3_10 
REMARK       I    between atoms: C3_10  and  N4_12 
REMARK    3  A    between atoms: N4_12  and  C4_14 
ROOT
HETATM    1  N3  UNL     1     -18.050  11.946  32.265  1.00  0.00    -0.249 N 
ATOM      2  H3  UNL     1     -18.288  12.609  31.527  1.00  0.00     0.192 HD
HETATM    3  C3  UNL     1     -18.526  12.148  33.577  1.00  0.00     0.335 C 
HETATM    4  O3  UNL     1     -18.232  11.333  34.475  1.00  0.00    -0.246 OA
HETATM    5  N4  UNL     1     -19.329  13.265  33.871  1.00  0.00    -0.337 N 
ATOM      6  H4  UNL     1     -19.558  13.918  33.121  1.00  0.00     0.164 HD
ENDROOT
BRANCH   1   7
HETATM    7  N2  UNL     1     -17.253  10.836  31.976  1.00  0.00    -0.258 N 
HETATM    8  C2  UNL     1     -16.126  11.006  31.149  1.00  0.00     0.325 C 
HETATM    9  O2  UNL     1     -15.855  12.150  30.681  1.00  0.00    -0.261 OA
ATOM     10  H2  UNL     1     -17.483   9.918  32.356  1.00  0.00     0.190 HD
BRANCH   8  11
HETATM   11  C1  UNL     1     -15.295   9.847  30.848  1.00  0.00     0.324 C 
HETATM   12  N1  UNL     1     -15.709   8.519  31.161  1.00  0.00    -0.053 NA
HETATM   13  O1  UNL     1     -14.185  10.025  30.298  1.00  0.00    -0.266 OA
ENDBRANCH   8  11
ENDBRANCH   1   7
BRANCH   5  14
HETATM   14  C4  UNL     1     -19.853  13.527  35.221  1.00  0.00     0.086 C 
HETATM   15  C5  UNL     1     -19.890  14.989  35.406  1.00  0.00     0.025 C 
HETATM   16  C6  UNL     1     -21.204  15.652  35.068  1.00  0.00     0.002 C 
HETATM   17  C7  UNL     1     -22.221  14.963  35.979  1.00  0.00     0.000 C 
HETATM   18  C8  UNL     1     -22.366  13.569  35.449  1.00  0.00     0.002 C 
HETATM   19  C9  UNL     1     -21.117  12.783  35.390  1.00  0.00     0.025 C 
ENDBRANCH   5  14
TORSDOF 3
ENDMDL
MODEL 2
REMARK VINA RESULT: -6.271200682      3.814      4.803
REMARK  3 active torsions:
REMARK  status: ('A' for Active; 'I' for Inactive)
REMARK    1  A    between atoms: C1_2  and  C2_4 
REMARK       I    between atoms: C2_4  and  N2_6 
REMARK    2  A    between atoms: N2_6  and  N3_8 
REMARK       I    between atoms: N3_8  and  C3_10 
REMARK       I    between atoms: C3_10  and  N4_12 
REMARK    3  A    between atoms: N4_12  and  C4_14 
ROOT
HETATM    1  N3  UNL     1     -15.668  10.910  32.510  1.00  0.00    -0.249 N 
ATOM      2  H3  UNL     1     -15.323  11.294  31.630  1.00  0.00     0.192 HD
HETATM    3  C3  UNL     1     -15.648  11.697  33.680  1.00  0.00     0.335 C 
HETATM    4  O3  UNL     1     -16.070  11.222  34.754  1.00  0.00    -0.246 OA
HETATM    5  N4  UNL     1     -15.152  13.014  33.636  1.00  0.00    -0.337 N 
ATOM      6  H4  UNL     1     -14.812  13.381  32.748  1.00  0.00     0.164 HD
ENDROOT
BRANCH   1   7
HETATM    7  N2  UNL     1     -16.160   9.604  32.557  1.00  0.00    -0.258 N 
HETATM    8  C2  UNL     1     -16.086   8.809  31.398  1.00  0.00     0.325 C 
HETATM    9  O2  UNL     1     -15.581   9.283  30.339  1.00  0.00    -0.261 OA
ATOM     10  H2  UNL     1     -16.567   9.233  33.416  1.00  0.00     0.190 HD
BRANCH   8  11
HETATM   11  C1  UNL     1     -16.600   7.445  31.449  1.00  0.00     0.324 C 
HETATM   12  N1  UNL     1     -16.504   6.560  30.336  1.00  0.00    -0.053 NA
HETATM   13  O1  UNL     1     -17.142   7.042  32.502  1.00  0.00    -0.266 OA
ENDBRANCH   8  11
ENDBRANCH   1   7
BRANCH   5  14
HETATM   14  C4  UNL     1     -15.107  13.880  34.825  1.00  0.00     0.086 C 
HETATM   15  C5  UNL     1     -13.697  14.245  35.052  1.00  0.00     0.025 C 
HETATM   16  C6  UNL     1     -13.254  15.547  34.428  1.00  0.00     0.002 C 
HETATM   17  C7  UNL     1     -14.192  16.594  35.032  1.00  0.00     0.000 C 
HETATM   18  C8  UNL     1     -15.538  16.335  34.428  1.00  0.00     0.002 C 
HETATM   19  C9  UNL     1     -16.078  14.978  34.647  1.00  0.00     0.025 C 
ENDBRANCH   5  14
TORSDOF 3
ENDMDL
MODEL 3
REMARK VINA RESULT: -6.266076454      2.062      2.700
REMARK  3 active torsions:
REMARK  status: ('A' for Active; 'I' for Inactive)
REMARK    1  A    between atoms: C1_2  and  C2_4 
REMARK       I    between atoms: C2_4  and  N2_6 
REMARK    2  A    between atoms: N2_6  and  N3_8 
REMARK       I    between atoms: N3_8  and  C3_10 
REMARK       I    between atoms: C3_10  and  N4_12 
REMARK    3  A    between atoms: N4_12  and  C4_14 
ROOT
HETATM    1  N3  UNL     1     -18.710  10.244  32.908  1.00  0.00    -0.249 N 
ATOM      2  H3  UNL     1     -19.033   9.278  32.848  1.00  0.00     0.192 HD
HETATM    3  C3  UNL     1     -19.250  11.110  33.882  1.00  0.00     0.335 C 
HETATM    4  O3  UNL     1     -18.852  12.290  33.951  1.00  0.00    -0.246 OA
HETATM    5  N4  UNL     1     -20.234  10.642  34.774  1.00  0.00    -0.337 N 
ATOM      6  H4  UNL     1     -20.543   9.673  34.700  1.00  0.00     0.164 HD
ENDROOT
BRANCH   1   7
HETATM    7  N2  UNL     1     -17.734  10.711  32.025  1.00  0.00    -0.258 N 
HETATM    8  C2  UNL     1     -16.389  10.364  32.255  1.00  0.00     0.325 C 
HETATM    9  O2  UNL     1     -16.085   9.644  33.250  1.00  0.00    -0.261 OA
ATOM     10  H2  UNL     1     -17.991  11.293  31.228  1.00  0.00     0.190 HD
BRANCH   8  11
HETATM   11  C1  UNL     1     -15.371  10.852  31.332  1.00  0.00     0.324 C 
HETATM   12  N1  UNL     1     -14.596   9.968  30.527  1.00  0.00    -0.053 NA
HETATM   13  O1  UNL     1     -15.174  12.085  31.246  1.00  0.00    -0.266 OA
ENDBRANCH   8  11
ENDBRANCH   1   7
BRANCH   5  14
HETATM   14  C4  UNL     1     -20.832  11.500  35.809  1.00  0.00     0.086 C 
HETATM   15  C5  UNL     1     -21.981  12.194  35.199  1.00  0.00     0.025 C 
HETATM   16  C6  UNL     1     -23.318  11.517  35.379  1.00  0.00     0.002 C 
HETATM   17  C7  UNL     1     -23.488  11.412  36.895  1.00  0.00     0.000 C 
HETATM   18  C8  UNL     1     -22.493  10.388  37.349  1.00  0.00     0.002 C 
HETATM   19  C9  UNL     1     -21.086  10.682  37.012  1.00  0.00     0.025 C 
ENDBRANCH   5  14
TORSDOF 3
ENDMDL
MODEL 4
REMARK VINA RESULT: -6.251616514      4.264      4.669
REMARK  3 active torsions:
REMARK  status: ('A' for Active; 'I' for Inactive)
REMARK    1  A    between atoms: C1_2  and  C2_4 
REMARK       I    between atoms: C2_4  and  N2_6 
REMARK    2  A    between atoms: N2_6  and  N3_8 
REMARK       I    between atoms: N3_8  and  C3_10 
REMARK       I    between atoms: C3_10  and  N4_12 
REMARK    3  A    between atoms: N4_12  and  C4_14 
ROOT
HETATM    1  N3  UNL     1     -15.968  12.544  33.571  1.00  0.00    -0.249 N 
ATOM      2  H3  UNL     1     -16.961  12.781  33.580  1.00  0.00     0.192 HD
HETATM    3  C3  UNL     1     -15.028  13.418  34.154  1.00  0.00     0.335 C 
HETATM    4  O3  UNL     1     -13.816  13.123  34.140  1.00  0.00    -0.246 OA
HETATM    5  N4  UNL     1     -15.457  14.619  34.749  1.00  0.00    -0.337 N 
ATOM      6  H4  UNL     1     -16.453  14.839  34.750  1.00  0.00     0.164 HD
ENDROOT
BRANCH   1   7
HETATM    7  N2  UNL     1     -15.540  11.352  32.981  1.00  0.00    -0.258 N 
HETATM    8  C2  UNL     1     -15.536  11.253  31.577  1.00  0.00     0.325 C 
HETATM    9  O2  UNL     1     -15.918  12.234  30.874  1.00  0.00    -0.261 OA
ATOM     10  H2  UNL     1     -15.236  10.567  33.557  1.00  0.00     0.190 HD
BRANCH   8  11
HETATM   11  C1  UNL     1     -15.088  10.009  30.963  1.00  0.00     0.324 C 
HETATM   12  N1  UNL     1     -15.731   8.764  31.223  1.00  0.00    -0.053 NA
HETATM   13  O1  UNL     1     -14.110  10.037  30.183  1.00  0.00    -0.266 OA
ENDBRANCH   8  11
ENDBRANCH   1   7
BRANCH   5  14
HETATM   14  C4  UNL     1     -14.521  15.569  35.372  1.00  0.00     0.086 C 
HETATM   15  C5  UNL     1     -14.346  16.694  34.436  1.00  0.00     0.025 C 
HETATM   16  C6  UNL     1     -15.260  17.875  34.662  1.00  0.00     0.002 C 
HETATM   17  C7  UNL     1     -14.968  18.310  36.099  1.00  0.00     0.000 C 
HETATM   18  C8  UNL     1     -15.532  17.235  36.975  1.00  0.00     0.002 C 
HETATM   19  C9  UNL     1     -14.999  15.879  36.734  1.00  0.00     0.025 C 
ENDBRANCH   5  14
TORSDOF 3
ENDMDL
MODEL 5
REMARK VINA RESULT: -6.207237823      1.077      1.540
REMARK  3 active torsions:
REMARK  status: ('A' for Active; 'I' for Inactive)
REMARK    1  A    between atoms: C1_2  and  C2_4 
REMARK       I    between atoms: C2_4  and  N2_6 
REMARK    2  A    between atoms: N2_6  and  N3_8 
REMARK       I    between atoms: N3_8  and  C3_10 
REMARK       I    between atoms: C3_10  and  N4_12 
REMARK    3  A    between atoms: N4_12  and  C4_14 
ROOT
HETATM    1  N3  UNL     1     -18.260  11.824  32.134  1.00  0.00    -0.249 N 
ATOM      2  H3  UNL     1     -18.952  12.060  31.423  1.00  0.00     0.192 HD
HETATM    3  C3  UNL     1     -18.188  12.574  33.326  1.00  0.00     0.335 C 
HETATM    4  O3  UNL     1     -17.340  12.281  34.193  1.00  0.00    -0.246 OA
HETATM    5  N4  UNL     1     -19.071  13.651  33.536  1.00  0.00    -0.337 N 
ATOM      6  H4  UNL     1     -19.756  13.872  32.814  1.00  0.00     0.164 HD
ENDROOT
BRANCH   1   7
HETATM    7  N2  UNL     1     -17.383  10.756  31.929  1.00  0.00    -0.258 N 
HETATM    8  C2  UNL     1     -16.255  10.952  31.111  1.00  0.00     0.325 C 
HETATM    9  O2  UNL     1     -16.053  12.081  30.576  1.00  0.00    -0.261 OA
ATOM     10  H2  UNL     1     -17.558   9.850  32.364  1.00  0.00     0.190 HD
BRANCH   8  11
HETATM   11  C1  UNL     1     -15.341   9.836  30.898  1.00  0.00     0.324 C 
HETATM   12  N1  UNL     1     -15.689   8.498  31.241  1.00  0.00    -0.053 NA
HETATM   13  O1  UNL     1     -14.216  10.063  30.397  1.00  0.00    -0.266 OA
ENDBRANCH   8  11
ENDBRANCH   1   7
BRANCH   5  14
HETATM   14  C4  UNL     1     -19.041  14.468  34.759  1.00  0.00     0.086 C 
HETATM   15  C5  UNL     1     -18.248  15.675  34.465  1.00  0.00     0.025 C 
HETATM   16  C6  UNL     1     -19.040  16.878  34.012  1.00  0.00     0.002 C 
HETATM   17  C7  UNL     1     -20.022  17.137  35.156  1.00  0.00     0.000 C 
HETATM   18  C8  UNL     1     -21.007  16.010  35.113  1.00  0.00     0.002 C 
HETATM   19  C9  UNL     1     -20.426  14.658  35.235  1.00  0.00     0.025 C 
ENDBRANCH   5  14
TORSDOF 3
ENDMDL
