MODEL 1
REMARK VINA RESULT: -5.972519383      0.000      0.000
REMARK  3 active torsions:
REMARK  status: ('A' for Active; 'I' for Inactive)
REMARK    1  A    between atoms: C10_10  and  C11_11 
REMARK    2  A    between atoms: C12_13  and  C13_14 
REMARK    3  A    between atoms: C15_18  and  O4_19 
ROOT
HETATM    1  C1  UNL     1      -5.062   4.178  11.254  1.00  0.00     0.016 C 
HETATM    2  C2  UNL     1      -3.774   4.211  10.421  1.00  0.00    -0.035 C 
HETATM    3  C3  UNL     1      -3.345   2.853  10.045  1.00  0.00     0.010 C 
HETATM    4  C4  UNL     1      -4.050   2.464   8.763  1.00  0.00     0.011 C 
HETATM    5  C5  UNL     1      -3.658   3.336   7.630  1.00  0.00    -0.026 C 
HETATM    6  C6  UNL     1      -2.221   3.079   7.287  1.00  0.00     0.016 C 
HETATM    7  C7  UNL     1      -3.985   4.752   7.970  1.00  0.00     0.002 C 
HETATM    8  C8  UNL     1      -3.375   5.644   6.900  1.00  0.00     0.007 C 
HETATM    9  C9  UNL     1      -3.652   5.189   5.529  1.00  0.00     0.013 C 
HETATM   10  C10 UNL     1      -4.493   3.974   5.337  1.00  0.00     0.062 C 
HETATM   11  C12 UNL     1      -4.494   2.965   6.405  1.00  0.00     0.106 C 
HETATM   12  C14 UNL     1      -3.774   5.228   9.335  1.00  0.00     0.027 C 
HETATM   13  C15 UNL     1      -2.459   5.729   9.803  1.00  0.00     0.124 C 
HETATM   14  C16 UNL     1      -2.758   5.073  11.161  1.00  0.00     0.041 C 
ENDROOT
BRANCH  11  15
HETATM   15  C13 UNL     1      -5.814   2.388   6.770  1.00  0.00     0.178 C 
HETATM   16  O2  UNL     1      -6.235   1.254   6.465  1.00  0.00    -0.648 OA
HETATM   17  O3  UNL     1      -6.752   3.125   7.535  1.00  0.00    -0.648 OA
ENDBRANCH  11  15
BRANCH  10  18
HETATM   18  C11 UNL     1      -5.870   4.372   4.920  1.00  0.00     0.236 C 
HETATM   19  O1  UNL     1      -6.109   5.502   4.528  1.00  0.00    -0.306 OA
ENDBRANCH  10  18
BRANCH  13  20
HETATM   20  O4  UNL     1      -1.296   5.249   9.311  1.00  0.00    -0.395 OA
ATOM     21  H4  UNL     1      -0.462   5.666   9.496  1.00  0.00     0.210 HD
ENDBRANCH  13  20
TORSDOF 3
ENDMDL
MODEL 2
REMARK VINA RESULT: -5.501339252      1.773      5.144
REMARK  3 active torsions:
REMARK  status: ('A' for Active; 'I' for Inactive)
REMARK    1  A    between atoms: C10_10  and  C11_11 
REMARK    2  A    between atoms: C12_13  and  C13_14 
REMARK    3  A    between atoms: C15_18  and  O4_19 
ROOT
HETATM    1  C1  UNL     1      -3.325   5.612   5.970  1.00  0.00     0.016 C 
HETATM    2  C2  UNL     1      -3.752   4.170   6.273  1.00  0.00    -0.035 C 
HETATM    3  C3  UNL     1      -2.654   3.404   6.885  1.00  0.00     0.010 C 
HETATM    4  C4  UNL     1      -2.688   3.626   8.381  1.00  0.00     0.011 C 
HETATM    5  C5  UNL     1      -3.932   3.098   8.991  1.00  0.00    -0.026 C 
HETATM    6  C6  UNL     1      -3.928   1.602   8.897  1.00  0.00     0.016 C 
HETATM    7  C7  UNL     1      -5.106   3.771   8.359  1.00  0.00     0.002 C 
HETATM    8  C8  UNL     1      -6.364   3.060   8.834  1.00  0.00     0.007 C 
HETATM    9  C9  UNL     1      -6.402   2.843  10.288  1.00  0.00     0.013 C 
HETATM   10  C10 UNL     1      -5.270   3.348  11.114  1.00  0.00     0.062 C 
HETATM   11  C12 UNL     1      -3.952   3.464  10.475  1.00  0.00     0.106 C 
HETATM   12  C14 UNL     1      -5.085   4.052   6.926  1.00  0.00     0.027 C 
HETATM   13  C15 UNL     1      -5.491   3.045   5.916  1.00  0.00     0.124 C 
HETATM   14  C16 UNL     1      -4.376   3.590   5.009  1.00  0.00     0.041 C 
ENDROOT
BRANCH  11  15
HETATM   15  C13 UNL     1      -3.180   4.699  10.768  1.00  0.00     0.178 C 
HETATM   16  O2  UNL     1      -3.373   5.827  10.271  1.00  0.00    -0.648 OA
HETATM   17  O3  UNL     1      -2.102   4.691  11.687  1.00  0.00    -0.648 OA
ENDBRANCH  11  15
BRANCH  10  18
HETATM   18  C11 UNL     1      -5.678   4.598  11.821  1.00  0.00     0.236 C 
HETATM   19  O1  UNL     1      -6.730   4.660  12.437  1.00  0.00    -0.306 OA
ENDBRANCH  10  18
BRANCH  13  20
HETATM   20  O4  UNL     1      -5.310   1.721   6.115  1.00  0.00    -0.395 OA
ATOM     21  H4  UNL     1      -4.487   1.369   6.435  1.00  0.00     0.210 HD
ENDBRANCH  13  20
TORSDOF 3
ENDMDL
MODEL 3
REMARK VINA RESULT: -5.103401025      2.319      4.661
REMARK  3 active torsions:
REMARK  status: ('A' for Active; 'I' for Inactive)
REMARK    1  A    between atoms: C10_10  and  C11_11 
REMARK    2  A    between atoms: C12_13  and  C13_14 
REMARK    3  A    between atoms: C15_18  and  O4_19 
ROOT
HETATM    1  C1  UNL     1      -2.634   3.900   6.413  1.00  0.00     0.016 C 
HETATM    2  C2  UNL     1      -3.345   4.380   7.685  1.00  0.00    -0.035 C 
HETATM    3  C3  UNL     1      -4.799   4.166   7.598  1.00  0.00     0.010 C 
HETATM    4  C4  UNL     1      -5.108   2.762   8.071  1.00  0.00     0.011 C 
HETATM    5  C5  UNL     1      -4.760   2.570   9.499  1.00  0.00    -0.026 C 
HETATM    6  C6  UNL     1      -5.684   3.395  10.344  1.00  0.00     0.016 C 
HETATM    7  C7  UNL     1      -3.306   2.852   9.688  1.00  0.00     0.002 C 
HETATM    8  C8  UNL     1      -3.022   2.869  11.181  1.00  0.00     0.007 C 
HETATM    9  C9  UNL     1      -3.594   1.721  11.900  1.00  0.00     0.013 C 
HETATM   10  C10 UNL     1      -4.332   0.687  11.122  1.00  0.00     0.062 C 
HETATM   11  C12 UNL     1      -4.984   1.105   9.873  1.00  0.00     0.106 C 
HETATM   12  C14 UNL     1      -2.689   3.952   8.951  1.00  0.00     0.027 C 
HETATM   13  C15 UNL     1      -2.722   5.350   9.442  1.00  0.00     0.124 C 
HETATM   14  C16 UNL     1      -2.874   5.799   7.979  1.00  0.00     0.041 C 
ENDROOT
BRANCH  11  15
HETATM   15  C13 UNL     1      -4.836   0.191   8.711  1.00  0.00     0.178 C 
HETATM   16  O2  UNL     1      -3.810   0.037   8.017  1.00  0.00    -0.648 OA
HETATM   17  O3  UNL     1      -5.911  -0.621   8.273  1.00  0.00    -0.648 OA
ENDBRANCH  11  15
BRANCH  10  18
HETATM   18  C11 UNL     1      -3.475  -0.522  10.946  1.00  0.00     0.236 C 
HETATM   19  O1  UNL     1      -2.257  -0.442  10.972  1.00  0.00    -0.306 OA
ENDBRANCH  10  18
BRANCH  13  20
HETATM   20  O4  UNL     1      -3.754   5.826  10.173  1.00  0.00    -0.395 OA
ATOM     21  H4  UNL     1      -3.684   6.629  10.678  1.00  0.00     0.210 HD
ENDBRANCH  13  20
TORSDOF 3
ENDMDL
MODEL 4
REMARK VINA RESULT: -5.017339441      7.744      9.543
REMARK  3 active torsions:
REMARK  status: ('A' for Active; 'I' for Inactive)
REMARK    1  A    between atoms: C10_10  and  C11_11 
REMARK    2  A    between atoms: C12_13  and  C13_14 
REMARK    3  A    between atoms: C15_18  and  O4_19 
ROOT
HETATM    1  C1  UNL     1       0.206  -2.744  16.228  1.00  0.00     0.016 C 
HETATM    2  C2  UNL     1      -0.859  -1.921  15.492  1.00  0.00    -0.035 C 
HETATM    3  C3  UNL     1      -0.245  -0.962  14.559  1.00  0.00     0.010 C 
HETATM    4  C4  UNL     1      -0.010  -1.662  13.237  1.00  0.00     0.011 C 
HETATM    5  C5  UNL     1      -1.281  -2.082  12.600  1.00  0.00    -0.026 C 
HETATM    6  C6  UNL     1      -2.045  -0.863  12.177  1.00  0.00     0.016 C 
HETATM    7  C7  UNL     1      -2.009  -2.998  13.527  1.00  0.00     0.002 C 
HETATM    8  C8  UNL     1      -3.398  -3.235  12.955  1.00  0.00     0.007 C 
HETATM    9  C9  UNL     1      -3.394  -3.574  11.524  1.00  0.00     0.013 C 
HETATM   10  C10 UNL     1      -2.085  -3.677  10.820  1.00  0.00     0.062 C 
HETATM   11  C12 UNL     1      -0.962  -2.883  11.337  1.00  0.00     0.106 C 
HETATM   12  C14 UNL     1      -1.994  -2.726  14.962  1.00  0.00     0.027 C 
HETATM   13  C15 UNL     1      -2.954  -1.794  15.601  1.00  0.00     0.124 C 
HETATM   14  C16 UNL     1      -1.815  -1.352  16.534  1.00  0.00     0.041 C 
ENDROOT
BRANCH  11  15
HETATM   15  C13 UNL     1       0.354  -3.568  11.414  1.00  0.00     0.178 C 
HETATM   16  O2  UNL     1       0.679  -4.458  12.226  1.00  0.00    -0.648 OA
HETATM   17  O3  UNL     1       1.404  -3.243  10.519  1.00  0.00    -0.648 OA
ENDBRANCH  11  15
BRANCH  10  18
HETATM   18  C11 UNL     1      -1.729  -5.113  10.621  1.00  0.00     0.236 C 
HETATM   19  O1  UNL     1      -1.763  -5.625   9.513  1.00  0.00    -0.306 OA
ENDBRANCH  10  18
BRANCH  13  20
HETATM   20  O4  UNL     1      -3.450  -0.720  14.947  1.00  0.00    -0.395 OA
ATOM     21  H4  UNL     1      -3.700  -0.762  14.031  1.00  0.00     0.210 HD
ENDBRANCH  13  20
TORSDOF 3
ENDMDL
MODEL 5
REMARK VINA RESULT: -5.010670729      2.315      5.585
REMARK  3 active torsions:
REMARK  status: ('A' for Active; 'I' for Inactive)
REMARK    1  A    between atoms: C10_10  and  C11_11 
REMARK    2  A    between atoms: C12_13  and  C13_14 
REMARK    3  A    between atoms: C15_18  and  O4_19 
ROOT
HETATM    1  C1  UNL     1      -7.928   0.297   5.222  1.00  0.00     0.016 C 
HETATM    2  C2  UNL     1      -7.636   1.651   4.563  1.00  0.00    -0.035 C 
HETATM    3  C3  UNL     1      -8.268   2.755   5.305  1.00  0.00     0.010 C 
HETATM    4  C4  UNL     1      -7.324   3.196   6.403  1.00  0.00     0.011 C 
HETATM    5  C5  UNL     1      -6.062   3.751   5.858  1.00  0.00    -0.026 C 
HETATM    6  C6  UNL     1      -6.355   5.044   5.159  1.00  0.00     0.016 C 
HETATM    7  C7  UNL     1      -5.397   2.711   5.018  1.00  0.00     0.002 C 
HETATM    8  C8  UNL     1      -4.232   3.368   4.295  1.00  0.00     0.007 C 
HETATM    9  C9  UNL     1      -3.380   4.182   5.174  1.00  0.00     0.013 C 
HETATM   10  C10 UNL     1      -3.712   4.251   6.625  1.00  0.00     0.062 C 
HETATM   11  C12 UNL     1      -5.115   4.061   7.018  1.00  0.00     0.106 C 
HETATM   12  C14 UNL     1      -6.214   1.846   4.170  1.00  0.00     0.027 C 
HETATM   13  C15 UNL     1      -6.644   2.250   2.810  1.00  0.00     0.124 C 
HETATM   14  C16 UNL     1      -7.977   1.534   3.081  1.00  0.00     0.041 C 
ENDROOT
BRANCH  11  15
HETATM   15  C13 UNL     1      -5.361   3.198   8.201  1.00  0.00     0.178 C 
HETATM   16  O2  UNL     1      -5.645   3.585   9.353  1.00  0.00    -0.648 OA
HETATM   17  O3  UNL     1      -5.285   1.786   8.109  1.00  0.00    -0.648 OA
ENDBRANCH  11  15
BRANCH  10  18
HETATM   18  C11 UNL     1      -2.776   3.383   7.400  1.00  0.00     0.236 C 
HETATM   19  O1  UNL     1      -1.782   2.904   6.879  1.00  0.00    -0.306 OA
ENDBRANCH  10  18
BRANCH  13  20
HETATM   20  O4  UNL     1      -6.878   3.542   2.489  1.00  0.00    -0.395 OA
ATOM     21  H4  UNL     1      -6.186   4.194   2.493  1.00  0.00     0.210 HD
ENDBRANCH  13  20
TORSDOF 3
ENDMDL
