MODEL 1
REMARK VINA RESULT: -9.729388041      0.000      0.000
REMARK  6 active torsions:
REMARK  status: ('A' for Active; 'I' for Inactive)
REMARK    1  A    between atoms: C7_15  and  S1_16 
REMARK    2  A    between atoms: S1_16  and  C8_17 
REMARK    3  A    between atoms: C8_17  and  C9_18 
REMARK       I    between atoms: C9_18  and  N4_20 
REMARK    4  A    between atoms: N4_20  and  N5_22 
REMARK    5  A    between atoms: N5_22  and  C10_24 
REMARK    6  A    between atoms: N8_31  and  O4_32 
ROOT
HETATM    1  C1  UNL     1      67.761   2.297   2.879  1.00  0.00     0.049 C 
HETATM    2  C2  UNL     1      68.279   3.465   2.608  1.00  0.00     0.096 C 
HETATM    3  N1  UNL     1      67.356   4.456   2.140  1.00  0.00    -0.319 N 
ATOM      4  H1  UNL     1      66.366   4.234   2.245  1.00  0.00     0.169 HD
HETATM    5  C3  UNL     1      67.656   5.706   1.550  1.00  0.00     0.263 C 
HETATM    6  O1  UNL     1      66.743   6.563   1.424  1.00  0.00    -0.267 OA
HETATM    7  C4  UNL     1      68.966   6.146   1.043  1.00  0.00     0.112 A 
HETATM    8  C5  UNL     1      70.218   5.675   1.406  1.00  0.00     0.159 A 
HETATM    9  N2  UNL     1      71.308   6.200   0.834  1.00  0.00    -0.292 N 
ATOM     10  H2  UNL     1      72.234   5.860   1.094  1.00  0.00     0.172 HD
HETATM   11  C6  UNL     1      71.185   7.165  -0.074  1.00  0.00     0.326 A 
HETATM   12  O2  UNL     1      72.201   7.689  -0.641  1.00  0.00    -0.247 OA
HETATM   13  N3  UNL     1      69.959   7.627  -0.428  1.00  0.00    -0.302 N 
ATOM     14  H3  UNL     1      69.897   8.369  -1.126  1.00  0.00     0.171 HD
HETATM   15  C7  UNL     1      68.822   7.147   0.104  1.00  0.00     0.093 A 
HETATM   16  N8  UNL     1      70.561   4.647   2.359  1.00  0.00    -0.168 N 
HETATM   17  C13 UNL     1      69.722   3.588   2.823  1.00  0.00     0.299 C 
HETATM   18  O5  UNL     1      70.297   2.665   3.490  1.00  0.00    -0.263 OA
ENDROOT
BRANCH  15  19
HETATM   19  S1  UNL     1      67.201   7.733  -0.336  1.00  0.00    -0.102 SA
BRANCH  19  20
HETATM   20  C8  UNL     1      66.747   7.325  -2.019  1.00  0.00     0.185 C 
BRANCH  20  21
HETATM   21  C9  UNL     1      66.507   8.509  -2.868  1.00  0.00     0.245 C 
HETATM   22  O3  UNL     1      66.178   9.591  -2.339  1.00  0.00    -0.271 OA
HETATM   23  N4  UNL     1      66.646   8.426  -4.266  1.00  0.00    -0.267 N 
ATOM     24  H4  UNL     1      66.916   7.527  -4.665  1.00  0.00     0.190 HD
BRANCH  23  25
HETATM   25  N5  UNL     1      66.440   9.486  -5.135  1.00  0.00    -0.269 N 
ATOM     26  H5  UNL     1      65.594   9.512  -5.704  1.00  0.00     0.190 HD
BRANCH  25  27
HETATM   27  C10 UNL     1      67.394  10.543  -5.246  1.00  0.00     0.190 C 
HETATM   28  N6  UNL     1      68.427  10.496  -6.027  1.00  0.00    -0.360 N 
HETATM   29  C11 UNL     1      69.211  11.696  -5.935  1.00  0.00     0.142 C 
ATOM     30  H6  UNL     1      68.654   9.707  -6.631  1.00  0.00     0.162 HD
HETATM   31  C12 UNL     1      68.280  12.666  -5.267  1.00  0.00     0.142 C 
HETATM   32  N7  UNL     1      67.379  11.796  -4.540  1.00  0.00    -0.360 N 
ATOM     33  H7  UNL     1      66.845  12.023  -3.701  1.00  0.00     0.162 HD
ENDBRANCH  25  27
ENDBRANCH  23  25
ENDBRANCH  20  21
ENDBRANCH  19  20
ENDBRANCH  15  19
BRANCH  16  34
HETATM   34  O4  UNL     1      71.808   4.703   2.853  1.00  0.00    -0.278 OA
ATOM     35  H4  UNL     1      71.950   4.234   3.667  1.00  0.00     0.245 HD
ENDBRANCH  16  34
TORSDOF 6
ENDMDL
MODEL 2
REMARK VINA RESULT: -9.582267146      1.870      3.117
REMARK  6 active torsions:
REMARK  status: ('A' for Active; 'I' for Inactive)
REMARK    1  A    between atoms: C7_15  and  S1_16 
REMARK    2  A    between atoms: S1_16  and  C8_17 
REMARK    3  A    between atoms: C8_17  and  C9_18 
REMARK       I    between atoms: C9_18  and  N4_20 
REMARK    4  A    between atoms: N4_20  and  N5_22 
REMARK    5  A    between atoms: N5_22  and  C10_24 
REMARK    6  A    between atoms: N8_31  and  O4_32 
ROOT
HETATM    1  C1  UNL     1      71.873   4.633   3.245  1.00  0.00     0.049 C 
HETATM    2  C2  UNL     1      70.683   4.900   2.779  1.00  0.00     0.096 C 
HETATM    3  N1  UNL     1      70.614   5.163   1.371  1.00  0.00    -0.319 N 
ATOM      4  H1  UNL     1      71.446   4.929   0.830  1.00  0.00     0.169 HD
HETATM    5  C3  UNL     1      69.530   5.709   0.645  1.00  0.00     0.263 C 
HETATM    6  O1  UNL     1      69.536   5.644  -0.611  1.00  0.00    -0.267 OA
HETATM    7  C4  UNL     1      68.343   6.372   1.207  1.00  0.00     0.112 A 
HETATM    8  C5  UNL     1      67.812   6.227   2.480  1.00  0.00     0.159 A 
HETATM    9  N2  UNL     1      66.716   6.918   2.816  1.00  0.00    -0.292 N 
ATOM     10  H2  UNL     1      66.318   6.819   3.750  1.00  0.00     0.172 HD
HETATM   11  C6  UNL     1      66.145   7.734   1.933  1.00  0.00     0.326 A 
HETATM   12  O2  UNL     1      65.100   8.408   2.218  1.00  0.00    -0.247 OA
HETATM   13  N3  UNL     1      66.664   7.874   0.687  1.00  0.00    -0.302 N 
ATOM     14  H3  UNL     1      66.203   8.506   0.032  1.00  0.00     0.171 HD
HETATM   15  C7  UNL     1      67.761   7.213   0.281  1.00  0.00     0.093 A 
HETATM   16  N8  UNL     1      68.276   5.404   3.570  1.00  0.00    -0.168 N 
HETATM   17  C13 UNL     1      69.596   4.891   3.761  1.00  0.00     0.299 C 
HETATM   18  O5  UNL     1      69.841   4.377   4.902  1.00  0.00    -0.263 OA
ENDROOT
BRANCH  15  19
HETATM   19  S1  UNL     1      68.464   7.373  -1.346  1.00  0.00    -0.102 SA
BRANCH  19  20
HETATM   20  C8  UNL     1      67.225   7.519  -2.629  1.00  0.00     0.185 C 
BRANCH  20  21
HETATM   21  C9  UNL     1      66.739   8.899  -2.826  1.00  0.00     0.245 C 
HETATM   22  O3  UNL     1      66.021   9.431  -1.954  1.00  0.00    -0.271 OA
HETATM   23  N4  UNL     1      67.082   9.618  -3.986  1.00  0.00    -0.267 N 
ATOM     24  H4  UNL     1      67.671   9.154  -4.678  1.00  0.00     0.190 HD
BRANCH  23  25
HETATM   25  N5  UNL     1      66.670  10.915  -4.250  1.00  0.00    -0.269 N 
ATOM     26  H5  UNL     1      65.725  11.204  -3.997  1.00  0.00     0.190 HD
BRANCH  25  27
HETATM   27  C10 UNL     1      67.550  11.854  -4.871  1.00  0.00     0.190 C 
HETATM   28  N6  UNL     1      67.419  13.139  -4.760  1.00  0.00    -0.360 N 
HETATM   29  C11 UNL     1      68.442  13.836  -5.488  1.00  0.00     0.142 C 
ATOM     30  H6  UNL     1      66.682  13.597  -4.224  1.00  0.00     0.162 HD
HETATM   31  C12 UNL     1      69.471  12.772  -5.742  1.00  0.00     0.142 C 
HETATM   32  N7  UNL     1      68.689  11.554  -5.695  1.00  0.00    -0.360 N 
ATOM     33  H7  UNL     1      68.902  10.667  -6.152  1.00  0.00     0.162 HD
ENDBRANCH  25  27
ENDBRANCH  23  25
ENDBRANCH  20  21
ENDBRANCH  19  20
ENDBRANCH  15  19
BRANCH  16  34
HETATM   34  O4  UNL     1      67.358   5.095   4.499  1.00  0.00    -0.278 OA
ATOM     35  H4  UNL     1      66.514   5.520   4.403  1.00  0.00     0.245 HD
ENDBRANCH  16  34
TORSDOF 6
ENDMDL
MODEL 3
REMARK VINA RESULT: -9.468292307      0.946      1.172
REMARK  6 active torsions:
REMARK  status: ('A' for Active; 'I' for Inactive)
REMARK    1  A    between atoms: C7_15  and  S1_16 
REMARK    2  A    between atoms: S1_16  and  C8_17 
REMARK    3  A    between atoms: C8_17  and  C9_18 
REMARK       I    between atoms: C9_18  and  N4_20 
REMARK    4  A    between atoms: N4_20  and  N5_22 
REMARK    5  A    between atoms: N5_22  and  C10_24 
REMARK    6  A    between atoms: N8_31  and  O4_32 
ROOT
HETATM    1  C1  UNL     1      66.864   2.611   2.444  1.00  0.00     0.049 C 
HETATM    2  C2  UNL     1      67.517   3.725   2.245  1.00  0.00     0.096 C 
HETATM    3  N1  UNL     1      66.754   4.797   1.678  1.00  0.00    -0.319 N 
ATOM      4  H1  UNL     1      65.742   4.669   1.663  1.00  0.00     0.169 HD
HETATM    5  C3  UNL     1      67.238   6.011   1.137  1.00  0.00     0.263 C 
HETATM    6  O1  UNL     1      66.430   6.949   0.910  1.00  0.00    -0.267 OA
HETATM    7  C4  UNL     1      68.634   6.324   0.794  1.00  0.00     0.112 A 
HETATM    8  C5  UNL     1      69.784   5.739   1.300  1.00  0.00     0.159 A 
HETATM    9  N2  UNL     1      70.979   6.157   0.865  1.00  0.00    -0.292 N 
ATOM     10  H2  UNL     1      71.831   5.732   1.231  1.00  0.00     0.172 HD
HETATM   11  C6  UNL     1      71.056   7.126  -0.044  1.00  0.00     0.326 A 
HETATM   12  O2  UNL     1      72.177   7.550  -0.481  1.00  0.00    -0.247 OA
HETATM   13  N3  UNL     1      69.930   7.700  -0.538  1.00  0.00    -0.302 N 
ATOM     14  H3  UNL     1      70.021   8.441  -1.233  1.00  0.00     0.171 HD
HETATM   15  C7  UNL     1      68.698   7.330  -0.148  1.00  0.00     0.093 A 
HETATM   16  N8  UNL     1      69.914   4.686   2.278  1.00  0.00    -0.168 N 
HETATM   17  C13 UNL     1      68.930   3.713   2.632  1.00  0.00     0.299 C 
HETATM   18  O5  UNL     1      69.332   2.743   3.355  1.00  0.00    -0.263 OA
ENDROOT
BRANCH  15  19
HETATM   19  S1  UNL     1      67.203   8.064  -0.774  1.00  0.00    -0.102 SA
BRANCH  19  20
HETATM   20  C8  UNL     1      66.754   7.455  -2.396  1.00  0.00     0.185 C 
BRANCH  20  21
HETATM   21  C9  UNL     1      66.486   8.528  -3.375  1.00  0.00     0.245 C 
HETATM   22  O3  UNL     1      65.966   8.244  -4.474  1.00  0.00    -0.271 OA
HETATM   23  N4  UNL     1      66.812   9.864  -3.077  1.00  0.00    -0.267 N 
ATOM     24  H4  UNL     1      67.235  10.061  -2.170  1.00  0.00     0.190 HD
BRANCH  23  25
HETATM   25  N5  UNL     1      66.595  10.930  -3.937  1.00  0.00    -0.269 N 
ATOM     26  H5  UNL     1      65.684  11.389  -3.948  1.00  0.00     0.190 HD
BRANCH  25  27
HETATM   27  C10 UNL     1      67.628  11.396  -4.807  1.00  0.00     0.190 C 
HETATM   28  N6  UNL     1      68.097  12.603  -4.778  1.00  0.00    -0.360 N 
HETATM   29  C11 UNL     1      69.126  12.791  -5.762  1.00  0.00     0.142 C 
ATOM     30  H6  UNL     1      67.777  13.329  -4.137  1.00  0.00     0.162 HD
HETATM   31  C12 UNL     1      69.502  11.387  -6.141  1.00  0.00     0.142 C 
HETATM   32  N7  UNL     1      68.302  10.640  -5.827  1.00  0.00    -0.360 N 
ATOM     33  H7  UNL     1      67.998   9.759  -6.243  1.00  0.00     0.162 HD
ENDBRANCH  25  27
ENDBRANCH  23  25
ENDBRANCH  20  21
ENDBRANCH  19  20
ENDBRANCH  15  19
BRANCH  16  34
HETATM   34  O4  UNL     1      71.092   4.627   2.918  1.00  0.00    -0.278 OA
ATOM     35  H4  UNL     1      71.829   4.328   2.399  1.00  0.00     0.245 HD
ENDBRANCH  16  34
TORSDOF 6
ENDMDL
MODEL 4
REMARK VINA RESULT: -9.402688753      0.886      1.150
REMARK  6 active torsions:
REMARK  status: ('A' for Active; 'I' for Inactive)
REMARK    1  A    between atoms: C7_15  and  S1_16 
REMARK    2  A    between atoms: S1_16  and  C8_17 
REMARK    3  A    between atoms: C8_17  and  C9_18 
REMARK       I    between atoms: C9_18  and  N4_20 
REMARK    4  A    between atoms: N4_20  and  N5_22 
REMARK    5  A    between atoms: N5_22  and  C10_24 
REMARK    6  A    between atoms: N8_31  and  O4_32 
ROOT
HETATM    1  C1  UNL     1      68.169   1.693   3.348  1.00  0.00     0.049 C 
HETATM    2  C2  UNL     1      68.491   2.904   2.981  1.00  0.00     0.096 C 
HETATM    3  N1  UNL     1      67.455   3.647   2.326  1.00  0.00    -0.319 N 
ATOM      4  H1  UNL     1      66.517   3.252   2.378  1.00  0.00     0.169 HD
HETATM    5  C3  UNL     1      67.580   4.864   1.616  1.00  0.00     0.263 C 
HETATM    6  O1  UNL     1      66.544   5.512   1.317  1.00  0.00    -0.267 OA
HETATM    7  C4  UNL     1      68.833   5.492   1.166  1.00  0.00     0.112 A 
HETATM    8  C5  UNL     1      70.107   5.310   1.681  1.00  0.00     0.159 A 
HETATM    9  N2  UNL     1      71.135   5.972   1.138  1.00  0.00    -0.292 N 
ATOM     10  H2  UNL     1      72.077   5.844   1.509  1.00  0.00     0.172 HD
HETATM   11  C6  UNL     1      70.931   6.797   0.114  1.00  0.00     0.326 A 
HETATM   12  O2  UNL     1      71.887   7.446  -0.429  1.00  0.00    -0.247 OA
HETATM   13  N3  UNL     1      69.683   6.977  -0.389  1.00  0.00    -0.302 N 
ATOM     14  H3  UNL     1      69.558   7.617  -1.173  1.00  0.00     0.171 HD
HETATM   15  C7  UNL     1      68.605   6.345   0.106  1.00  0.00     0.093 A 
HETATM   16  N8  UNL     1      70.534   4.470   2.774  1.00  0.00    -0.168 N 
HETATM   17  C13 UNL     1      69.859   3.323   3.294  1.00  0.00     0.299 C 
HETATM   18  O5  UNL     1      70.521   2.601   4.110  1.00  0.00    -0.263 OA
ENDROOT
BRANCH  15  19
HETATM   19  S1  UNL     1      66.957   6.561  -0.529  1.00  0.00    -0.102 SA
BRANCH  19  20
HETATM   20  C8  UNL     1      66.640   8.230  -1.091  1.00  0.00     0.185 C 
BRANCH  20  21
HETATM   21  C9  UNL     1      66.659   8.371  -2.561  1.00  0.00     0.245 C 
HETATM   22  O3  UNL     1      66.483   7.366  -3.279  1.00  0.00    -0.271 OA
HETATM   23  N4  UNL     1      66.872   9.629  -3.155  1.00  0.00    -0.267 N 
ATOM     24  H4  UNL     1      67.011  10.430  -2.539  1.00  0.00     0.190 HD
BRANCH  23  25
HETATM   25  N5  UNL     1      66.904   9.850  -4.523  1.00  0.00    -0.269 N 
ATOM     26  H5  UNL     1      66.328   9.275  -5.139  1.00  0.00     0.190 HD
BRANCH  25  27
HETATM   27  C10 UNL     1      67.732  10.869  -5.085  1.00  0.00     0.190 C 
HETATM   28  N6  UNL     1      67.695  12.109  -4.709  1.00  0.00    -0.360 N 
HETATM   29  C11 UNL     1      68.635  12.909  -5.443  1.00  0.00     0.142 C 
ATOM     30  H6  UNL     1      67.077  12.471  -3.983  1.00  0.00     0.162 HD
HETATM   31  C12 UNL     1      69.549  11.890  -6.061  1.00  0.00     0.142 C 
HETATM   32  N7  UNL     1      68.712  10.709  -6.124  1.00  0.00    -0.360 N 
ATOM     33  H7  UNL     1      68.800   9.925  -6.772  1.00  0.00     0.162 HD
ENDBRANCH  25  27
ENDBRANCH  23  25
ENDBRANCH  20  21
ENDBRANCH  19  20
ENDBRANCH  15  19
BRANCH  16  34
HETATM   34  O4  UNL     1      71.694   4.814   3.356  1.00  0.00    -0.278 OA
ATOM     35  H4  UNL     1      72.457   4.321   3.079  1.00  0.00     0.245 HD
ENDBRANCH  16  34
TORSDOF 6
ENDMDL
MODEL 5
REMARK VINA RESULT: -9.296527873      1.692      3.327
REMARK  6 active torsions:
REMARK  status: ('A' for Active; 'I' for Inactive)
REMARK    1  A    between atoms: C7_15  and  S1_16 
REMARK    2  A    between atoms: S1_16  and  C8_17 
REMARK    3  A    between atoms: C8_17  and  C9_18 
REMARK       I    between atoms: C9_18  and  N4_20 
REMARK    4  A    between atoms: N4_20  and  N5_22 
REMARK    5  A    between atoms: N5_22  and  C10_24 
REMARK    6  A    between atoms: N8_31  and  O4_32 
ROOT
HETATM    1  C1  UNL     1      71.641   4.454   3.732  1.00  0.00     0.049 C 
HETATM    2  C2  UNL     1      70.679   4.295   2.863  1.00  0.00     0.096 C 
HETATM    3  N1  UNL     1      70.629   5.268   1.812  1.00  0.00    -0.319 N 
ATOM      4  H1  UNL     1      71.446   5.870   1.718  1.00  0.00     0.169 HD
HETATM    5  C3  UNL     1      69.580   5.491   0.890  1.00  0.00     0.263 C 
HETATM    6  O1  UNL     1      69.792   6.208  -0.122  1.00  0.00    -0.267 OA
HETATM    7  C4  UNL     1      68.210   4.960   0.974  1.00  0.00     0.112 A 
HETATM    8  C5  UNL     1      67.775   3.837   1.661  1.00  0.00     0.159 A 
HETATM    9  N2  UNL     1      66.479   3.506   1.623  1.00  0.00    -0.292 N 
ATOM     10  H2  UNL     1      66.148   2.682   2.126  1.00  0.00     0.172 HD
HETATM   11  C6  UNL     1      65.620   4.251   0.930  1.00  0.00     0.326 A 
HETATM   12  O2  UNL     1      64.378   3.965   0.871  1.00  0.00    -0.247 OA
HETATM   13  N3  UNL     1      66.047   5.349   0.257  1.00  0.00    -0.302 N 
ATOM     14  H3  UNL     1      65.365   5.899  -0.266  1.00  0.00     0.171 HD
HETATM   15  C7  UNL     1      67.332   5.741   0.251  1.00  0.00     0.093 A 
HETATM   16  N8  UNL     1      68.537   2.910   2.461  1.00  0.00    -0.168 N 
HETATM   17  C13 UNL     1      69.797   3.148   3.091  1.00  0.00     0.299 C 
HETATM   18  O5  UNL     1      70.182   2.269   3.931  1.00  0.00    -0.263 OA
ENDROOT
BRANCH  15  19
HETATM   19  S1  UNL     1      67.923   7.174  -0.624  1.00  0.00    -0.102 SA
BRANCH  19  20
HETATM   20  C8  UNL     1      66.599   8.217  -1.226  1.00  0.00     0.185 C 
BRANCH  20  21
HETATM   21  C9  UNL     1      66.612   8.399  -2.691  1.00  0.00     0.245 C 
HETATM   22  O3  UNL     1      66.390   7.423  -3.436  1.00  0.00    -0.271 OA
HETATM   23  N4  UNL     1      66.873   9.664  -3.251  1.00  0.00    -0.267 N 
ATOM     24  H4  UNL     1      67.050  10.440  -2.614  1.00  0.00     0.190 HD
BRANCH  23  25
HETATM   25  N5  UNL     1      66.904   9.922  -4.613  1.00  0.00    -0.269 N 
ATOM     26  H5  UNL     1      66.313   9.378  -5.241  1.00  0.00     0.190 HD
BRANCH  25  27
HETATM   27  C10 UNL     1      67.752  10.939  -5.150  1.00  0.00     0.190 C 
HETATM   28  N6  UNL     1      67.704  12.180  -4.779  1.00  0.00    -0.360 N 
HETATM   29  C11 UNL     1      68.669  12.977  -5.484  1.00  0.00     0.142 C 
ATOM     30  H6  UNL     1      67.063  12.545  -4.076  1.00  0.00     0.162 HD
HETATM   31  C12 UNL     1      69.602  11.954  -6.067  1.00  0.00     0.142 C 
HETATM   32  N7  UNL     1      68.766  10.774  -6.155  1.00  0.00    -0.360 N 
ATOM     33  H7  UNL     1      68.875   9.988  -6.797  1.00  0.00     0.162 HD
ENDBRANCH  25  27
ENDBRANCH  23  25
ENDBRANCH  20  21
ENDBRANCH  19  20
ENDBRANCH  15  19
BRANCH  16  34
HETATM   34  O4  UNL     1      67.990   1.695   2.625  1.00  0.00    -0.278 OA
ATOM     35  H4  UNL     1      68.274   1.028   2.010  1.00  0.00     0.245 HD
ENDBRANCH  16  34
TORSDOF 6
ENDMDL
