MODEL 1
REMARK VINA RESULT: -7.133889334      0.000      0.000
REMARK  4 active torsions:
REMARK  status: ('A' for Active; 'I' for Inactive)
REMARK       I    between atoms: C1_2  and  N1_3 
REMARK    1  A    between atoms: C1_2  and  C6_15 
REMARK    2  A    between atoms: N1_3  and  S1_5 
REMARK    3  A    between atoms: S1_5  and  N2_8 
REMARK    4  A    between atoms: C3_10  and  C4_12 
ROOT
HETATM    1  O1  UNL     1      50.788  51.808  36.606  1.00  0.00    -0.272 OA
HETATM    2  C1  UNL     1      50.947  50.628  36.228  1.00  0.00     0.241 C 
HETATM    3  N1  UNL     1      50.005  49.593  36.363  1.00  0.00    -0.237 N 
ATOM      4  H1  UNL     1      50.241  48.662  36.020  1.00  0.00     0.183 HD
ENDROOT
BRANCH   2   5
HETATM    5  C6  UNL     1      52.251  50.277  35.574  1.00  0.00     0.043 C 
HETATM    6  C7  UNL     1      52.474  51.236  34.439  1.00  0.00     0.024 C 
HETATM    7  C8  UNL     1      53.714  50.778  33.688  1.00  0.00    -0.013 C 
HETATM    8  C9  UNL     1      53.514  49.368  33.180  1.00  0.00     0.009 C 
HETATM    9  C13 UNL     1      54.877  50.873  34.653  1.00  0.00     0.009 C 
HETATM   10  C10 UNL     1      53.319  48.433  34.326  1.00  0.00    -0.013 C 
HETATM   11  C11 UNL     1      54.498  48.504  35.271  1.00  0.00     0.009 C 
HETATM   12  C15 UNL     1      52.089  48.860  35.090  1.00  0.00     0.024 C 
HETATM   13  C12 UNL     1      54.652  49.913  35.781  1.00  0.00    -0.013 C 
HETATM   14  C14 UNL     1      53.405  50.312  36.536  1.00  0.00     0.024 C 
ENDBRANCH   2   5
BRANCH   3  15
HETATM   15  S1  UNL     1      48.475  49.845  37.084  1.00  0.00     0.323 S 
HETATM   16  O2  UNL     1      47.884  48.445  37.337  1.00  0.00    -0.182 OA
HETATM   17  O3  UNL     1      48.756  50.450  38.456  1.00  0.00    -0.182 OA
BRANCH  15  18
HETATM   18  N2  UNL     1      47.480  50.764  36.159  1.00  0.00    -0.287 N 
HETATM   19  C2  UNL     1      46.115  50.900  36.149  1.00  0.00     0.182 C 
HETATM   20  C3  UNL     1      46.173  50.751  34.605  1.00  0.00     0.145 C 
HETATM   21  F1  UNL     1      45.687  51.846  33.977  1.00  0.00    -0.239 F 
HETATM   22  C5  UNL     1      47.714  50.845  34.765  1.00  0.00     0.182 C 
BRANCH  20  23
HETATM   23  C4  UNL     1      45.783  49.405  34.093  1.00  0.00     0.132 C 
HETATM   24 BR1  UNL     1      44.170  49.364  33.069  1.00  0.00    -0.093 Br
ENDBRANCH  20  23
ENDBRANCH  15  18
ENDBRANCH   3  15
TORSDOF 4
ENDMDL
MODEL 2
REMARK VINA RESULT: -7.117248653      0.134      1.523
REMARK  4 active torsions:
REMARK  status: ('A' for Active; 'I' for Inactive)
REMARK       I    between atoms: C1_2  and  N1_3 
REMARK    1  A    between atoms: C1_2  and  C6_15 
REMARK    2  A    between atoms: N1_3  and  S1_5 
REMARK    3  A    between atoms: S1_5  and  N2_8 
REMARK    4  A    between atoms: C3_10  and  C4_12 
ROOT
HETATM    1  O1  UNL     1      50.806  51.787  36.545  1.00  0.00    -0.272 OA
HETATM    2  C1  UNL     1      50.940  50.604  36.167  1.00  0.00     0.241 C 
HETATM    3  N1  UNL     1      49.987  49.582  36.324  1.00  0.00    -0.237 N 
ATOM      4  H1  UNL     1      50.203  48.647  35.979  1.00  0.00     0.183 HD
ENDROOT
BRANCH   2   5
HETATM    5  C6  UNL     1      52.225  50.234  35.486  1.00  0.00     0.043 C 
HETATM    6  C7  UNL     1      52.069  48.850  34.921  1.00  0.00     0.024 C 
HETATM    7  C8  UNL     1      53.420  48.423  34.372  1.00  0.00    -0.013 C 
HETATM    8  C9  UNL     1      54.454  48.450  35.475  1.00  0.00     0.009 C 
HETATM    9  C13 UNL     1      53.765  49.380  33.249  1.00  0.00     0.009 C 
HETATM   10  C10 UNL     1      54.607  49.837  36.001  1.00  0.00    -0.013 C 
HETATM   11  C11 UNL     1      54.985  50.785  34.885  1.00  0.00     0.009 C 
HETATM   12  C15 UNL     1      53.279  50.289  36.559  1.00  0.00     0.024 C 
HETATM   13  C12 UNL     1      53.923  50.758  33.818  1.00  0.00    -0.013 C 
HETATM   14  C14 UNL     1      52.607  51.209  34.408  1.00  0.00     0.024 C 
ENDBRANCH   2   5
BRANCH   3  15
HETATM   15  S1  UNL     1      48.477  49.857  37.078  1.00  0.00     0.323 S 
HETATM   16  O2  UNL     1      47.878  48.465  37.359  1.00  0.00    -0.182 OA
HETATM   17  O3  UNL     1      48.795  50.473  38.436  1.00  0.00    -0.182 OA
BRANCH  15  18
HETATM   18  N2  UNL     1      47.470  50.775  36.165  1.00  0.00    -0.287 N 
HETATM   19  C2  UNL     1      46.104  50.904  36.167  1.00  0.00     0.182 C 
HETATM   20  C3  UNL     1      46.150  50.764  34.622  1.00  0.00     0.145 C 
HETATM   21  F1  UNL     1      45.653  51.860  34.004  1.00  0.00    -0.239 F 
HETATM   22  C5  UNL     1      47.692  50.866  34.770  1.00  0.00     0.182 C 
BRANCH  20  23
HETATM   23  C4  UNL     1      45.764  49.419  34.105  1.00  0.00     0.132 C 
HETATM   24 BR1  UNL     1      44.162  49.381  33.063  1.00  0.00    -0.093 Br
ENDBRANCH  20  23
ENDBRANCH  15  18
ENDBRANCH   3  15
TORSDOF 4
ENDMDL
MODEL 3
REMARK VINA RESULT: -7.046362352      0.147      1.561
REMARK  4 active torsions:
REMARK  status: ('A' for Active; 'I' for Inactive)
REMARK       I    between atoms: C1_2  and  N1_3 
REMARK    1  A    between atoms: C1_2  and  C6_15 
REMARK    2  A    between atoms: N1_3  and  S1_5 
REMARK    3  A    between atoms: S1_5  and  N2_8 
REMARK    4  A    between atoms: C3_10  and  C4_12 
ROOT
HETATM    1  O1  UNL     1      50.813  51.773  36.581  1.00  0.00    -0.272 OA
HETATM    2  C1  UNL     1      50.948  50.593  36.195  1.00  0.00     0.241 C 
HETATM    3  N1  UNL     1      49.992  49.571  36.336  1.00  0.00    -0.237 N 
ATOM      4  H1  UNL     1      50.210  48.639  35.986  1.00  0.00     0.183 HD
ENDROOT
BRANCH   2   5
HETATM    5  C6  UNL     1      52.239  50.226  35.522  1.00  0.00     0.043 C 
HETATM    6  C7  UNL     1      53.335  50.305  36.547  1.00  0.00     0.024 C 
HETATM    7  C8  UNL     1      54.654  50.085  35.825  1.00  0.00    -0.013 C 
HETATM    8  C9  UNL     1      54.833  51.134  34.752  1.00  0.00     0.009 C 
HETATM    9  C13 UNL     1      54.616  48.685  35.248  1.00  0.00     0.009 C 
HETATM   10  C10 UNL     1      53.747  51.020  33.735  1.00  0.00    -0.013 C 
HETATM   11  C11 UNL     1      53.733  49.631  33.135  1.00  0.00     0.009 C 
HETATM   12  C15 UNL     1      52.421  51.238  34.423  1.00  0.00     0.024 C 
HETATM   13  C12 UNL     1      53.524  48.612  34.225  1.00  0.00    -0.013 C 
HETATM   14  C14 UNL     1      52.193  48.861  34.895  1.00  0.00     0.024 C 
ENDBRANCH   2   5
BRANCH   3  15
HETATM   15  S1  UNL     1      48.476  49.843  37.079  1.00  0.00     0.323 S 
HETATM   16  O2  UNL     1      47.875  48.450  37.349  1.00  0.00    -0.182 OA
HETATM   17  O3  UNL     1      48.784  50.453  38.443  1.00  0.00    -0.182 OA
BRANCH  15  18
HETATM   18  N2  UNL     1      47.477  50.766  36.163  1.00  0.00    -0.287 N 
HETATM   19  C2  UNL     1      46.110  50.888  36.147  1.00  0.00     0.182 C 
HETATM   20  C3  UNL     1      46.178  50.764  34.602  1.00  0.00     0.145 C 
HETATM   21  F1  UNL     1      45.684  51.864  33.988  1.00  0.00    -0.239 F 
HETATM   22  C5  UNL     1      47.717  50.872  34.771  1.00  0.00     0.182 C 
BRANCH  20  23
HETATM   23  C4  UNL     1      45.805  49.423  34.066  1.00  0.00     0.132 C 
HETATM   24 BR1  UNL     1      44.164  49.368  33.089  1.00  0.00    -0.093 Br
ENDBRANCH  20  23
ENDBRANCH  15  18
ENDBRANCH   3  15
TORSDOF 4
ENDMDL
MODEL 4
REMARK VINA RESULT: -6.773964103      4.625      6.087
REMARK  4 active torsions:
REMARK  status: ('A' for Active; 'I' for Inactive)
REMARK       I    between atoms: C1_2  and  N1_3 
REMARK    1  A    between atoms: C1_2  and  C6_15 
REMARK    2  A    between atoms: N1_3  and  S1_5 
REMARK    3  A    between atoms: S1_5  and  N2_8 
REMARK    4  A    between atoms: C3_10  and  C4_12 
ROOT
HETATM    1  O1  UNL     1      46.998  46.998  34.216  1.00  0.00    -0.272 OA
HETATM    2  C1  UNL     1      47.388  47.419  33.107  1.00  0.00     0.241 C 
HETATM    3  N1  UNL     1      47.198  48.722  32.613  1.00  0.00    -0.237 N 
ATOM      4  H1  UNL     1      47.558  48.957  31.689  1.00  0.00     0.183 HD
ENDROOT
BRANCH   2   5
HETATM    5  C6  UNL     1      48.123  46.458  32.219  1.00  0.00     0.043 C 
HETATM    6  C7  UNL     1      49.596  46.712  32.377  1.00  0.00     0.024 C 
HETATM    7  C8  UNL     1      50.323  45.845  31.363  1.00  0.00    -0.013 C 
HETATM    8  C9  UNL     1      49.857  46.189  29.966  1.00  0.00     0.009 C 
HETATM    9  C13 UNL     1      50.028  44.403  31.719  1.00  0.00     0.009 C 
HETATM   10  C10 UNL     1      48.399  45.906  29.827  1.00  0.00    -0.013 C 
HETATM   11  C11 UNL     1      48.111  44.456  30.150  1.00  0.00     0.009 C 
HETATM   12  C15 UNL     1      47.647  46.757  30.822  1.00  0.00     0.024 C 
HETATM   13  C12 UNL     1      48.560  44.153  31.556  1.00  0.00    -0.013 C 
HETATM   14  C14 UNL     1      47.794  45.023  32.525  1.00  0.00     0.024 C 
ENDBRANCH   2   5
BRANCH   3  15
HETATM   15  S1  UNL     1      46.383  49.924  33.515  1.00  0.00     0.323 S 
HETATM   16  O2  UNL     1      46.058  51.058  32.523  1.00  0.00    -0.182 OA
HETATM   17  O3  UNL     1      45.047  49.308  33.918  1.00  0.00    -0.182 OA
BRANCH  15  18
HETATM   18  N2  UNL     1      47.261  50.468  34.788  1.00  0.00    -0.287 N 
HETATM   19  C2  UNL     1      48.458  50.048  35.314  1.00  0.00     0.182 C 
HETATM   20  C3  UNL     1      47.793  50.110  36.715  1.00  0.00     0.145 C 
HETATM   21  F1  UNL     1      48.425  50.983  37.533  1.00  0.00    -0.239 F 
HETATM   22  C5  UNL     1      46.599  50.792  35.997  1.00  0.00     0.182 C 
BRANCH  20  23
HETATM   23  C4  UNL     1      47.382  48.787  37.269  1.00  0.00     0.132 C 
HETATM   24 BR1  UNL     1      47.534  48.620  39.167  1.00  0.00    -0.093 Br
ENDBRANCH  20  23
ENDBRANCH  15  18
ENDBRANCH   3  15
TORSDOF 4
ENDMDL
MODEL 5
REMARK VINA RESULT: -6.773419232      4.457      5.685
REMARK  4 active torsions:
REMARK  status: ('A' for Active; 'I' for Inactive)
REMARK       I    between atoms: C1_2  and  N1_3 
REMARK    1  A    between atoms: C1_2  and  C6_15 
REMARK    2  A    between atoms: N1_3  and  S1_5 
REMARK    3  A    between atoms: S1_5  and  N2_8 
REMARK    4  A    between atoms: C3_10  and  C4_12 
ROOT
HETATM    1  O1  UNL     1      46.586  46.820  33.795  1.00  0.00    -0.272 OA
HETATM    2  C1  UNL     1      47.619  47.231  33.225  1.00  0.00     0.241 C 
HETATM    3  N1  UNL     1      48.207  48.494  33.410  1.00  0.00    -0.237 N 
ATOM      4  H1  UNL     1      49.052  48.727  32.889  1.00  0.00     0.183 HD
ENDROOT
BRANCH   2   5
HETATM    5  C6  UNL     1      48.295  46.303  32.259  1.00  0.00     0.043 C 
HETATM    6  C7  UNL     1      49.780  46.492  32.395  1.00  0.00     0.024 C 
HETATM    7  C8  UNL     1      50.449  45.667  31.309  1.00  0.00    -0.013 C 
HETATM    8  C9  UNL     1      49.965  46.118  29.950  1.00  0.00     0.009 C 
HETATM    9  C13 UNL     1      50.107  44.216  31.580  1.00  0.00     0.009 C 
HETATM   10  C10 UNL     1      48.494  45.898  29.830  1.00  0.00    -0.013 C 
HETATM   11  C11 UNL     1      48.158  44.443  30.067  1.00  0.00     0.009 C 
HETATM   12  C15 UNL     1      47.799  46.710  30.896  1.00  0.00     0.024 C 
HETATM   13  C12 UNL     1      48.627  44.032  31.438  1.00  0.00    -0.013 C 
HETATM   14  C14 UNL     1      47.918  44.865  32.480  1.00  0.00     0.024 C 
ENDBRANCH   2   5
BRANCH   3  15
HETATM   15  S1  UNL     1      47.550  49.654  34.482  1.00  0.00     0.323 S 
HETATM   16  O2  UNL     1      47.415  48.949  35.846  1.00  0.00    -0.182 OA
HETATM   17  O3  UNL     1      48.628  50.720  34.653  1.00  0.00    -0.182 OA
BRANCH  15  18
HETATM   18  N2  UNL     1      46.115  50.254  33.966  1.00  0.00    -0.287 N 
HETATM   19  C2  UNL     1      44.852  49.716  33.963  1.00  0.00     0.182 C 
HETATM   20  C3  UNL     1      44.720  50.191  32.491  1.00  0.00     0.145 C 
HETATM   21  F1  UNL     1      43.700  51.066  32.335  1.00  0.00    -0.239 F 
HETATM   22  C5  UNL     1      46.057  50.942  32.730  1.00  0.00     0.182 C 
BRANCH  20  23
HETATM   23  C4  UNL     1      44.899  49.118  31.470  1.00  0.00     0.132 C 
HETATM   24 BR1  UNL     1      43.963  49.397  29.828  1.00  0.00    -0.093 Br
ENDBRANCH  20  23
ENDBRANCH  15  18
ENDBRANCH   3  15
TORSDOF 4
ENDMDL
