MODEL 1
REMARK VINA RESULT: -7.409475492      0.000      0.000
REMARK  5 active torsions:
REMARK  status: ('A' for Active; 'I' for Inactive)
REMARK    1  A    between atoms: C5_6  and  C6_7 
REMARK    2  A    between atoms: C5_6  and  N5_28 
REMARK       I    between atoms: C6_7  and  N2_9 
REMARK    3  A    between atoms: N2_9  and  C7_11 
REMARK    4  A    between atoms: C7_11  and  N3_12 
REMARK       I    between atoms: N3_12  and  C8_14 
REMARK       I    between atoms: C8_14  and  N4_16 
REMARK    5  A    between atoms: N4_16  and  C9_18 
ROOT
HETATM    1  C7  UNL     1      16.391 -19.753 -19.088  1.00  0.00     0.251 C 
ENDROOT
BRANCH   1   2
HETATM    2  N2  UNL     1      15.298 -19.877 -20.034  1.00  0.00    -0.341 N 
HETATM    3  C6  UNL     1      13.988 -20.245 -19.640  1.00  0.00     0.279 C 
HETATM    4  O1  UNL     1      13.796 -20.460 -18.426  1.00  0.00    -0.268 OA
ATOM      5  H2  UNL     1      15.479 -19.692 -21.021  1.00  0.00     0.164 HD
BRANCH   3   6
HETATM    6  C5  UNL     1      12.901 -20.367 -20.600  1.00  0.00     0.310 C 
HETATM    7  N1  UNL     1      12.996 -19.375 -21.613  1.00  0.00    -0.376 N 
HETATM    8  C1  UNL     1      13.901 -19.452 -22.671  1.00  0.00     0.146 C 
HETATM    9  C2  UNL     1      11.662 -18.960 -22.012  1.00  0.00     0.119 C 
HETATM   10  C3  UNL     1      10.719 -19.528 -20.969  1.00  0.00     0.024 C 
HETATM   11  C4  UNL     1      11.658 -19.800 -19.856  1.00  0.00     0.076 C 
BRANCH   6  12
HETATM   12  N5  UNL     1      12.610 -21.664 -21.111  1.00  0.00     0.127 N 
HETATM   13  C19 UNL     1      11.890 -22.530 -20.172  1.00  0.00     0.276 C 
HETATM   14  C20 UNL     1      11.357 -23.664 -21.072  1.00  0.00     0.030 C 
HETATM   15  C21 UNL     1      12.453 -24.500 -21.649  1.00  0.00     0.003 C 
HETATM   16  C22 UNL     1      13.441 -23.590 -22.349  1.00  0.00     0.030 C 
HETATM   17  C23 UNL     1      13.823 -22.478 -21.357  1.00  0.00     0.276 C 
ENDBRANCH   6  12
ENDBRANCH   3   6
ENDBRANCH   1   2
BRANCH   1  18
HETATM   18  N3  UNL     1      16.646 -21.004 -18.412  1.00  0.00    -0.327 N 
HETATM   19  C8  UNL     1      17.018 -22.160 -19.139  1.00  0.00     0.318 C 
HETATM   20  O2  UNL     1      17.123 -22.083 -20.390  1.00  0.00    -0.247 OA
HETATM   21  N4  UNL     1      17.274 -23.395 -18.510  1.00  0.00    -0.334 N 
ATOM     22  H4  UNL     1      17.183 -23.429 -17.495  1.00  0.00     0.165 HD
ATOM     23  H3  UNL     1      16.556 -21.054 -17.397  1.00  0.00     0.165 HD
BRANCH  21  24
HETATM   24  C9  UNL     1      17.652 -24.606 -19.173  1.00  0.00     0.035 C 
HETATM   25  C10 UNL     1      18.987 -24.534 -19.845  1.00  0.00     0.035 C 
HETATM   26  C11 UNL     1      19.257 -25.789 -20.630  1.00  0.00    -0.012 C 
HETATM   27  C12 UNL     1      18.202 -26.120 -21.633  1.00  0.00     0.009 C 
HETATM   28  C16 UNL     1      19.388 -26.917 -19.604  1.00  0.00     0.009 C 
HETATM   29  C13 UNL     1      16.881 -26.266 -20.892  1.00  0.00    -0.012 C 
HETATM   30  C14 UNL     1      16.983 -27.388 -19.905  1.00  0.00     0.009 C 
HETATM   31  C18 UNL     1      16.604 -24.936 -20.239  1.00  0.00     0.035 C 
HETATM   32  C15 UNL     1      18.061 -27.040 -18.894  1.00  0.00    -0.012 C 
HETATM   33  C17 UNL     1      17.639 -25.772 -18.207  1.00  0.00     0.035 C 
ENDBRANCH  21  24
ENDBRANCH   1  18
TORSDOF 5
ENDMDL
MODEL 2
REMARK VINA RESULT: -7.399381447      0.099      1.348
REMARK  5 active torsions:
REMARK  status: ('A' for Active; 'I' for Inactive)
REMARK    1  A    between atoms: C5_6  and  C6_7 
REMARK    2  A    between atoms: C5_6  and  N5_28 
REMARK       I    between atoms: C6_7  and  N2_9 
REMARK    3  A    between atoms: N2_9  and  C7_11 
REMARK    4  A    between atoms: C7_11  and  N3_12 
REMARK       I    between atoms: N3_12  and  C8_14 
REMARK       I    between atoms: C8_14  and  N4_16 
REMARK    5  A    between atoms: N4_16  and  C9_18 
ROOT
HETATM    1  C7  UNL     1      16.350 -19.787 -19.049  1.00  0.00     0.251 C 
ENDROOT
BRANCH   1   2
HETATM    2  N2  UNL     1      15.244 -19.908 -19.980  1.00  0.00    -0.341 N 
HETATM    3  C6  UNL     1      13.948 -20.310 -19.575  1.00  0.00     0.279 C 
HETATM    4  O1  UNL     1      13.779 -20.559 -18.365  1.00  0.00    -0.268 OA
ATOM      5  H2  UNL     1      15.407 -19.695 -20.965  1.00  0.00     0.164 HD
BRANCH   3   6
HETATM    6  C5  UNL     1      12.848 -20.428 -20.522  1.00  0.00     0.310 C 
HETATM    7  N1  UNL     1      12.928 -19.430 -21.530  1.00  0.00    -0.376 N 
HETATM    8  C1  UNL     1      13.818 -19.499 -22.600  1.00  0.00     0.146 C 
HETATM    9  C2  UNL     1      11.588 -19.015 -21.909  1.00  0.00     0.119 C 
HETATM   10  C3  UNL     1      10.660 -19.591 -20.856  1.00  0.00     0.024 C 
HETATM   11  C4  UNL     1      11.614 -19.867 -19.757  1.00  0.00     0.076 C 
BRANCH   6  12
HETATM   12  N5  UNL     1      12.552 -21.722 -21.037  1.00  0.00     0.127 N 
HETATM   13  C19 UNL     1      11.863 -22.601 -20.087  1.00  0.00     0.276 C 
HETATM   14  C20 UNL     1      11.314 -23.732 -20.982  1.00  0.00     0.030 C 
HETATM   15  C21 UNL     1      12.400 -24.554 -21.596  1.00  0.00     0.003 C 
HETATM   16  C22 UNL     1      13.364 -23.632 -22.314  1.00  0.00     0.030 C 
HETATM   17  C23 UNL     1      13.763 -22.526 -21.322  1.00  0.00     0.276 C 
ENDBRANCH   6  12
ENDBRANCH   3   6
ENDBRANCH   1   2
BRANCH   1  18
HETATM   18  N3  UNL     1      16.630 -21.047 -18.399  1.00  0.00    -0.327 N 
HETATM   19  C8  UNL     1      16.959 -22.197 -19.156  1.00  0.00     0.318 C 
HETATM   20  O2  UNL     1      17.003 -22.107 -20.409  1.00  0.00    -0.247 OA
HETATM   21  N4  UNL     1      17.238 -23.441 -18.553  1.00  0.00    -0.334 N 
ATOM     22  H4  UNL     1      17.197 -23.484 -17.535  1.00  0.00     0.165 HD
ATOM     23  H3  UNL     1      16.590 -21.107 -17.382  1.00  0.00     0.165 HD
BRANCH  21  24
HETATM   24  C9  UNL     1      17.576 -24.646 -19.247  1.00  0.00     0.035 C 
HETATM   25  C10 UNL     1      16.595 -25.023 -20.313  1.00  0.00     0.035 C 
HETATM   26  C11 UNL     1      16.940 -26.363 -20.905  1.00  0.00    -0.012 C 
HETATM   27  C12 UNL     1      17.045 -27.464 -19.903  1.00  0.00     0.009 C 
HETATM   28  C16 UNL     1      18.273 -26.179 -21.635  1.00  0.00     0.009 C 
HETATM   29  C13 UNL     1      18.110 -27.073 -18.889  1.00  0.00    -0.012 C 
HETATM   30  C14 UNL     1      19.429 -26.921 -19.583  1.00  0.00     0.009 C 
HETATM   31  C18 UNL     1      17.641 -25.797 -18.239  1.00  0.00     0.035 C 
HETATM   32  C15 UNL     1      19.307 -25.802 -20.601  1.00  0.00    -0.012 C 
HETATM   33  C17 UNL     1      18.961 -24.547 -19.850  1.00  0.00     0.035 C 
ENDBRANCH  21  24
ENDBRANCH   1  18
TORSDOF 5
ENDMDL
MODEL 3
REMARK VINA RESULT: -7.304551924      0.148      1.347
REMARK  5 active torsions:
REMARK  status: ('A' for Active; 'I' for Inactive)
REMARK    1  A    between atoms: C5_6  and  C6_7 
REMARK    2  A    between atoms: C5_6  and  N5_28 
REMARK       I    between atoms: C6_7  and  N2_9 
REMARK    3  A    between atoms: N2_9  and  C7_11 
REMARK    4  A    between atoms: C7_11  and  N3_12 
REMARK       I    between atoms: N3_12  and  C8_14 
REMARK       I    between atoms: C8_14  and  N4_16 
REMARK    5  A    between atoms: N4_16  and  C9_18 
ROOT
HETATM    1  C7  UNL     1      16.456 -19.665 -19.130  1.00  0.00     0.251 C 
ENDROOT
BRANCH   1   2
HETATM    2  N2  UNL     1      15.347 -19.805 -20.054  1.00  0.00    -0.341 N 
HETATM    3  C6  UNL     1      14.040 -20.147 -19.628  1.00  0.00     0.279 C 
HETATM    4  O1  UNL     1      13.865 -20.324 -18.405  1.00  0.00    -0.268 OA
ATOM      5  H2  UNL     1      15.514 -19.652 -21.048  1.00  0.00     0.164 HD
BRANCH   3   6
HETATM    6  C5  UNL     1      12.936 -20.286 -20.567  1.00  0.00     0.310 C 
HETATM    7  N1  UNL     1      12.953 -19.248 -21.538  1.00  0.00    -0.376 N 
HETATM    8  C1  UNL     1      13.833 -19.232 -22.618  1.00  0.00     0.146 C 
HETATM    9  C2  UNL     1      11.590 -18.889 -21.887  1.00  0.00     0.119 C 
HETATM   10  C3  UNL     1      10.705 -19.550 -20.848  1.00  0.00     0.024 C 
HETATM   11  C4  UNL     1      11.684 -19.818 -19.770  1.00  0.00     0.076 C 
BRANCH   6  12
HETATM   12  N5  UNL     1      12.700 -21.574 -21.127  1.00  0.00     0.127 N 
HETATM   13  C19 UNL     1      12.055 -22.517 -20.209  1.00  0.00     0.276 C 
HETATM   14  C20 UNL     1      11.558 -23.640 -21.143  1.00  0.00     0.030 C 
HETATM   15  C21 UNL     1      12.680 -24.388 -21.787  1.00  0.00     0.003 C 
HETATM   16  C22 UNL     1      13.597 -23.397 -22.472  1.00  0.00     0.030 C 
HETATM   17  C23 UNL     1      13.947 -22.309 -21.442  1.00  0.00     0.276 C 
ENDBRANCH   6  12
ENDBRANCH   3   6
ENDBRANCH   1   2
BRANCH   1  18
HETATM   18  N3  UNL     1      16.716 -20.900 -18.428  1.00  0.00    -0.327 N 
HETATM   19  C8  UNL     1      17.021 -22.088 -19.137  1.00  0.00     0.318 C 
HETATM   20  O2  UNL     1      17.061 -22.051 -20.393  1.00  0.00    -0.247 OA
HETATM   21  N4  UNL     1      17.281 -23.309 -18.483  1.00  0.00    -0.334 N 
ATOM     22  H4  UNL     1      17.243 -23.310 -17.464  1.00  0.00     0.165 HD
ATOM     23  H3  UNL     1      16.680 -20.918 -17.409  1.00  0.00     0.165 HD
BRANCH  21  24
HETATM   24  C9  UNL     1      17.593 -24.549 -19.127  1.00  0.00     0.035 C 
HETATM   25  C10 UNL     1      17.667 -25.713 -18.189  1.00  0.00     0.035 C 
HETATM   26  C11 UNL     1      18.129 -26.950 -18.911  1.00  0.00    -0.012 C 
HETATM   27  C12 UNL     1      19.432 -26.791 -19.623  1.00  0.00     0.009 C 
HETATM   28  C16 UNL     1      17.020 -27.307 -19.903  1.00  0.00     0.009 C 
HETATM   29  C13 UNL     1      19.281 -25.653 -20.623  1.00  0.00    -0.012 C 
HETATM   30  C14 UNL     1      18.220 -26.001 -21.621  1.00  0.00     0.009 C 
HETATM   31  C18 UNL     1      18.950 -24.418 -19.824  1.00  0.00     0.035 C 
HETATM   32  C15 UNL     1      16.904 -26.164 -20.883  1.00  0.00    -0.012 C 
HETATM   33  C17 UNL     1      16.593 -24.850 -20.223  1.00  0.00     0.035 C 
ENDBRANCH  21  24
ENDBRANCH   1  18
TORSDOF 5
ENDMDL
MODEL 4
REMARK VINA RESULT: -7.170119935      1.064      1.756
REMARK  5 active torsions:
REMARK  status: ('A' for Active; 'I' for Inactive)
REMARK    1  A    between atoms: C5_6  and  C6_7 
REMARK    2  A    between atoms: C5_6  and  N5_28 
REMARK       I    between atoms: C6_7  and  N2_9 
REMARK    3  A    between atoms: N2_9  and  C7_11 
REMARK    4  A    between atoms: C7_11  and  N3_12 
REMARK       I    between atoms: N3_12  and  C8_14 
REMARK       I    between atoms: C8_14  and  N4_16 
REMARK    5  A    between atoms: N4_16  and  C9_18 
ROOT
HETATM    1  C7  UNL     1      16.485 -19.743 -18.695  1.00  0.00     0.251 C 
ENDROOT
BRANCH   1   2
HETATM    2  N2  UNL     1      15.142 -20.211 -18.981  1.00  0.00    -0.341 N 
HETATM    3  C6  UNL     1      14.497 -19.965 -20.218  1.00  0.00     0.279 C 
HETATM    4  O1  UNL     1      15.135 -19.322 -21.077  1.00  0.00    -0.268 OA
ATOM      5  H2  UNL     1      14.642 -20.737 -18.264  1.00  0.00     0.164 HD
BRANCH   3   6
HETATM    6  C5  UNL     1      13.149 -20.439 -20.491  1.00  0.00     0.310 C 
HETATM    7  N1  UNL     1      12.401 -19.474 -21.219  1.00  0.00    -0.376 N 
HETATM    8  C1  UNL     1      12.570 -19.255 -22.585  1.00  0.00     0.146 C 
HETATM    9  C2  UNL     1      11.011 -19.521 -20.801  1.00  0.00     0.119 C 
HETATM   10  C3  UNL     1      10.983 -20.362 -19.539  1.00  0.00     0.024 C 
HETATM   11  C4  UNL     1      12.405 -20.308 -19.130  1.00  0.00     0.076 C 
BRANCH   6  12
HETATM   12  N5  UNL     1      13.001 -21.762 -20.998  1.00  0.00     0.127 N 
HETATM   13  C19 UNL     1      12.903 -22.793 -19.961  1.00  0.00     0.276 C 
HETATM   14  C20 UNL     1      12.356 -24.017 -20.726  1.00  0.00     0.030 C 
HETATM   15  C21 UNL     1      13.323 -24.537 -21.739  1.00  0.00     0.003 C 
HETATM   16  C22 UNL     1      13.740 -23.397 -22.646  1.00  0.00     0.030 C 
HETATM   17  C23 UNL     1      14.190 -22.236 -21.743  1.00  0.00     0.276 C 
ENDBRANCH   6  12
ENDBRANCH   3   6
ENDBRANCH   1   2
BRANCH   1  18
HETATM   18  N3  UNL     1      17.479 -20.579 -19.326  1.00  0.00    -0.327 N 
HETATM   19  C8  UNL     1      17.330 -21.987 -19.356  1.00  0.00     0.318 C 
HETATM   20  O2  UNL     1      16.315 -22.501 -18.823  1.00  0.00    -0.247 OA
HETATM   21  N4  UNL     1      18.281 -22.832 -19.965  1.00  0.00    -0.334 N 
ATOM     22  H4  UNL     1      19.093 -22.387 -20.392  1.00  0.00     0.165 HD
ATOM     23  H3  UNL     1      18.298 -20.150 -19.755  1.00  0.00     0.165 HD
BRANCH  21  24
HETATM   24  C9  UNL     1      18.203 -24.259 -20.036  1.00  0.00     0.035 C 
HETATM   25  C10 UNL     1      17.937 -24.915 -18.717  1.00  0.00     0.035 C 
HETATM   26  C11 UNL     1      18.002 -26.413 -18.844  1.00  0.00    -0.012 C 
HETATM   27  C12 UNL     1      19.285 -26.922 -19.412  1.00  0.00     0.009 C 
HETATM   28  C16 UNL     1      16.827 -26.819 -19.736  1.00  0.00     0.009 C 
HETATM   29  C13 UNL     1      19.471 -26.293 -20.786  1.00  0.00    -0.012 C 
HETATM   30  C14 UNL     1      18.344 -26.707 -21.682  1.00  0.00     0.009 C 
HETATM   31  C18 UNL     1      19.530 -24.802 -20.573  1.00  0.00     0.035 C 
HETATM   32  C15 UNL     1      17.047 -26.187 -21.090  1.00  0.00    -0.012 C 
HETATM   33  C17 UNL     1      17.148 -24.689 -21.033  1.00  0.00     0.035 C 
ENDBRANCH  21  24
ENDBRANCH   1  18
TORSDOF 5
ENDMDL
MODEL 5
REMARK VINA RESULT: -7.078759510      3.685      7.135
REMARK  5 active torsions:
REMARK  status: ('A' for Active; 'I' for Inactive)
REMARK    1  A    between atoms: C5_6  and  C6_7 
REMARK    2  A    between atoms: C5_6  and  N5_28 
REMARK       I    between atoms: C6_7  and  N2_9 
REMARK    3  A    between atoms: N2_9  and  C7_11 
REMARK    4  A    between atoms: C7_11  and  N3_12 
REMARK       I    between atoms: N3_12  and  C8_14 
REMARK       I    between atoms: C8_14  and  N4_16 
REMARK    5  A    between atoms: N4_16  and  C9_18 
ROOT
HETATM    1  C7  UNL     1      19.473 -22.733 -22.042  1.00  0.00     0.251 C 
ENDROOT
BRANCH   1   2
HETATM    2  N2  UNL     1      18.763 -23.257 -20.891  1.00  0.00    -0.341 N 
HETATM    3  C6  UNL     1      17.349 -23.331 -20.838  1.00  0.00     0.279 C 
HETATM    4  O1  UNL     1      16.718 -22.926 -21.835  1.00  0.00    -0.268 OA
ATOM      5  H2  UNL     1      19.302 -23.585 -20.089  1.00  0.00     0.164 HD
BRANCH   3   6
HETATM    6  C5  UNL     1      16.650 -23.858 -19.676  1.00  0.00     0.310 C 
HETATM    7  N1  UNL     1      15.918 -22.838 -19.009  1.00  0.00    -0.376 N 
HETATM    8  C1  UNL     1      14.704 -22.342 -19.480  1.00  0.00     0.146 C 
HETATM    9  C2  UNL     1      15.934 -23.086 -17.578  1.00  0.00     0.119 C 
HETATM   10  C3  UNL     1      16.984 -24.157 -17.352  1.00  0.00     0.024 C 
HETATM   11  C4  UNL     1      17.763 -24.061 -18.608  1.00  0.00     0.076 C 
BRANCH   6  12
HETATM   12  N5  UNL     1      15.909 -25.064 -19.838  1.00  0.00     0.127 N 
HETATM   13  C19 UNL     1      16.688 -26.175 -20.394  1.00  0.00     0.276 C 
HETATM   14  C20 UNL     1      15.813 -27.409 -20.090  1.00  0.00     0.030 C 
HETATM   15  C21 UNL     1      14.520 -27.393 -20.839  1.00  0.00     0.003 C 
HETATM   16  C22 UNL     1      13.818 -26.078 -20.572  1.00  0.00     0.030 C 
HETATM   17  C23 UNL     1      14.831 -24.953 -20.848  1.00  0.00     0.276 C 
ENDBRANCH   6  12
ENDBRANCH   3   6
ENDBRANCH   1   2
BRANCH   1  18
HETATM   18  N3  UNL     1      20.448 -21.741 -21.652  1.00  0.00    -0.327 N 
HETATM   19  C8  UNL     1      20.042 -20.489 -21.132  1.00  0.00     0.318 C 
HETATM   20  O2  UNL     1      18.813 -20.250 -21.015  1.00  0.00    -0.247 OA
HETATM   21  N4  UNL     1      20.967 -19.500 -20.741  1.00  0.00    -0.334 N 
ATOM     22  H4  UNL     1      21.957 -19.721 -20.845  1.00  0.00     0.165 HD
ATOM     23  H3  UNL     1      21.442 -21.946 -21.752  1.00  0.00     0.165 HD
BRANCH  21  24
HETATM   24  C9  UNL     1      20.637 -18.212 -20.209  1.00  0.00     0.035 C 
HETATM   25  C10 UNL     1      19.984 -17.300 -21.200  1.00  0.00     0.035 C 
HETATM   26  C11 UNL     1      19.789 -15.928 -20.614  1.00  0.00    -0.012 C 
HETATM   27  C12 UNL     1      21.042 -15.301 -20.098  1.00  0.00     0.009 C 
HETATM   28  C16 UNL     1      18.768 -16.086 -19.485  1.00  0.00     0.009 C 
HETATM   29  C13 UNL     1      21.623 -16.223 -19.036  1.00  0.00    -0.012 C 
HETATM   30  C14 UNL     1      20.648 -16.363 -17.907  1.00  0.00     0.009 C 
HETATM   31  C18 UNL     1      21.919 -17.535 -19.718  1.00  0.00     0.035 C 
HETATM   32  C15 UNL     1      19.379 -16.997 -18.446  1.00  0.00    -0.012 C 
HETATM   33  C17 UNL     1      19.749 -18.348 -18.991  1.00  0.00     0.035 C 
ENDBRANCH  21  24
ENDBRANCH   1  18
TORSDOF 5
ENDMDL
