MODEL 1
REMARK VINA RESULT: -4.894243282      0.000      0.000
REMARK  1 active torsions:
REMARK  status: ('A' for Active; 'I' for Inactive)
REMARK    1  A    between atoms: N1_2  and  C2_4 
ROOT
HETATM    1  C2  UNL     1      15.968   0.124  13.330  1.00  0.00     0.224 A 
HETATM    2  N2  UNL     1      15.624   1.417  13.204  1.00  0.00    -0.324 N 
ATOM      3  H2  UNL     1      15.589   1.929  12.322  1.00  0.00     0.169 HD
HETATM    4  C3  UNL     1      15.331   1.939  14.412  1.00  0.00     0.038 A 
HETATM    5  C4  UNL     1      14.908   3.308  14.761  1.00  0.00     0.071 C 
HETATM    6  C5  UNL     1      15.520   0.872  15.291  1.00  0.00     0.075 A 
HETATM    7  C6  UNL     1      15.342   0.870  16.762  1.00  0.00     0.079 C 
HETATM    8  O1  UNL     1      15.899  -0.182  14.598  1.00  0.00    -0.282 OA
ENDROOT
BRANCH   1   9
HETATM    9  N1  UNL     1      16.302  -0.639  12.329  1.00  0.00    -0.360 N 
HETATM   10  C1  UNL     1      16.320  -0.147  10.983  1.00  0.00     0.150 C 
ATOM     11  H1  UNL     1      16.557  -1.611  12.506  1.00  0.00     0.162 HD
ENDBRANCH   1   9
TORSDOF 1
ENDMDL
MODEL 2
REMARK VINA RESULT: -4.848172081      1.522      3.632
REMARK  1 active torsions:
REMARK  status: ('A' for Active; 'I' for Inactive)
REMARK    1  A    between atoms: N1_2  and  C2_4 
ROOT
HETATM    1  C2  UNL     1      15.856   0.662  14.342  1.00  0.00     0.224 A 
HETATM    2  N2  UNL     1      16.147   1.614  13.439  1.00  0.00    -0.324 N 
ATOM      3  H2  UNL     1      16.206   2.612  13.641  1.00  0.00     0.169 HD
HETATM    4  C3  UNL     1      16.350   1.058  12.228  1.00  0.00     0.038 A 
HETATM    5  C4  UNL     1      16.690   1.705  10.947  1.00  0.00     0.071 C 
HETATM    6  C5  UNL     1      16.162  -0.307  12.452  1.00  0.00     0.075 A 
HETATM    7  C6  UNL     1      16.260  -1.407  11.464  1.00  0.00     0.079 C 
HETATM    8  O1  UNL     1      15.871  -0.488  13.723  1.00  0.00    -0.282 OA
ENDROOT
BRANCH   1   9
HETATM    9  N1  UNL     1      15.612   0.904  15.599  1.00  0.00    -0.360 N 
HETATM   10  C1  UNL     1      14.332   1.374  16.038  1.00  0.00     0.150 C 
ATOM     11  H1  UNL     1      16.350   0.756  16.287  1.00  0.00     0.162 HD
ENDBRANCH   1   9
TORSDOF 1
ENDMDL
MODEL 3
REMARK VINA RESULT: -4.751795603      1.483      2.206
REMARK  1 active torsions:
REMARK  status: ('A' for Active; 'I' for Inactive)
REMARK    1  A    between atoms: N1_2  and  C2_4 
ROOT
HETATM    1  C2  UNL     1      16.015   1.325  12.948  1.00  0.00     0.224 A 
HETATM    2  N2  UNL     1      15.547   0.752  14.071  1.00  0.00    -0.324 N 
ATOM      3  H2  UNL     1      15.601  -0.244  14.285  1.00  0.00     0.169 HD
HETATM    4  C3  UNL     1      14.997   1.686  14.873  1.00  0.00     0.038 A 
HETATM    5  C4  UNL     1      14.363   1.526  16.196  1.00  0.00     0.071 C 
HETATM    6  C5  UNL     1      15.161   2.875  14.162  1.00  0.00     0.075 A 
HETATM    7  C6  UNL     1      14.738   4.236  14.568  1.00  0.00     0.079 C 
HETATM    8  O1  UNL     1      15.770   2.605  13.026  1.00  0.00    -0.282 OA
ENDROOT
BRANCH   1   9
HETATM    9  N1  UNL     1      16.600   0.668  11.988  1.00  0.00    -0.360 N 
HETATM   10  C1  UNL     1      16.378  -0.734  11.795  1.00  0.00     0.150 C 
ATOM     11  H1  UNL     1      17.232   1.163  11.359  1.00  0.00     0.162 HD
ENDBRANCH   1   9
TORSDOF 1
ENDMDL
MODEL 4
REMARK VINA RESULT: -4.671076674      1.741      4.175
REMARK  1 active torsions:
REMARK  status: ('A' for Active; 'I' for Inactive)
REMARK    1  A    between atoms: N1_2  and  C2_4 
ROOT
HETATM    1  C2  UNL     1      15.918   1.043  13.351  1.00  0.00     0.224 A 
HETATM    2  N2  UNL     1      15.845   0.004  12.500  1.00  0.00    -0.324 N 
ATOM      3  H2  UNL     1      15.153  -0.744  12.549  1.00  0.00     0.169 HD
HETATM    4  C3  UNL     1      16.819   0.096  11.573  1.00  0.00     0.038 A 
HETATM    5  C4  UNL     1      17.127  -0.807  10.448  1.00  0.00     0.071 C 
HETATM    6  C5  UNL     1      17.497   1.267  11.916  1.00  0.00     0.075 A 
HETATM    7  C6  UNL     1      18.670   1.865  11.236  1.00  0.00     0.079 C 
HETATM    8  O1  UNL     1      16.921   1.790  12.979  1.00  0.00    -0.282 OA
ENDROOT
BRANCH   1   9
HETATM    9  N1  UNL     1      15.102   1.219  14.352  1.00  0.00    -0.360 N 
HETATM   10  C1  UNL     1      14.901   2.510  14.938  1.00  0.00     0.150 C 
ATOM     11  H1  UNL     1      14.595   0.417  14.727  1.00  0.00     0.162 HD
ENDBRANCH   1   9
TORSDOF 1
ENDMDL
MODEL 5
REMARK VINA RESULT: -4.575855750      1.896      4.153
REMARK  1 active torsions:
REMARK  status: ('A' for Active; 'I' for Inactive)
REMARK    1  A    between atoms: N1_2  and  C2_4 
ROOT
HETATM    1  C2  UNL     1      16.134   1.154  12.946  1.00  0.00     0.224 A 
HETATM    2  N2  UNL     1      17.201   1.919  12.652  1.00  0.00    -0.324 N 
ATOM      3  H2  UNL     1      17.415   2.816  13.088  1.00  0.00     0.169 HD
HETATM    4  C3  UNL     1      17.946   1.326  11.697  1.00  0.00     0.038 A 
HETATM    5  C4  UNL     1      19.196   1.790  11.065  1.00  0.00     0.071 C 
HETATM    6  C5  UNL     1      17.260   0.142  11.425  1.00  0.00     0.075 A 
HETATM    7  C6  UNL     1      17.626  -0.910  10.448  1.00  0.00     0.079 C 
HETATM    8  O1  UNL     1      16.192   0.089  12.193  1.00  0.00    -0.282 OA
ENDROOT
BRANCH   1   9
HETATM    9  N1  UNL     1      15.236   1.473  13.834  1.00  0.00    -0.360 N 
HETATM   10  C1  UNL     1      15.133   2.804  14.353  1.00  0.00     0.150 C 
ATOM     11  H1  UNL     1      14.591   0.757  14.168  1.00  0.00     0.162 HD
ENDBRANCH   1   9
TORSDOF 1
ENDMDL
