MODEL 1
REMARK VINA RESULT: -6.974939974      0.000      0.000
REMARK  7 active torsions:
REMARK  status: ('A' for Active; 'I' for Inactive)
REMARK    1  A    between atoms: C2_2  and  C3_3 
REMARK    2  A    between atoms: C6_11  and  O2_12 
REMARK    3  A    between atoms: C7_14  and  C8_15 
REMARK    4  A    between atoms: N3_16  and  C9_18 
REMARK    5  A    between atoms: C9_18  and  C10_19 
REMARK    6  A    between atoms: C10_19  and  C11_20 
REMARK    7  A    between atoms: C11_20  and  N4_21 
ROOT
HETATM    1  C3  UNL     1      79.917   6.245  29.674  1.00  0.00     0.175 C 
HETATM    2  C4  UNL     1      78.617   6.681  29.152  1.00  0.00     0.246 C 
HETATM    3  O1  UNL     1      77.923   7.357  29.954  1.00  0.00    -0.271 OA
HETATM    4  N1  UNL     1      77.966   6.490  27.892  1.00  0.00    -0.310 N 
ATOM      5  H1  UNL     1      76.994   6.786  27.806  1.00  0.00     0.170 HD
HETATM    6  C5  UNL     1      78.591   5.911  26.752  1.00  0.00     0.122 A 
HETATM    7  N2  UNL     1      78.122   5.987  25.507  1.00  0.00    -0.322 N 
ATOM      8  H2  UNL     1      77.264   6.470  25.242  1.00  0.00     0.169 HD
HETATM    9  C6  UNL     1      78.943   5.334  24.634  1.00  0.00     0.154 A 
HETATM   10  C7  UNL     1      79.992   4.814  25.359  1.00  0.00     0.045 A 
HETATM   11  C16 UNL     1      79.775   5.169  26.669  1.00  0.00     0.039 A 
HETATM   12  C17 UNL     1      80.629   4.844  27.836  1.00  0.00     0.102 C 
HETATM   13  N5  UNL     1      80.890   5.901  28.712  1.00  0.00    -0.380 N 
HETATM   14  C18 UNL     1      82.233   6.207  29.009  1.00  0.00     0.150 C 
ENDROOT
BRANCH  10  15
HETATM   15  C8  UNL     1      81.118   4.037  24.861  1.00  0.00     0.099 C 
HETATM   16  N3  UNL     1      82.242   4.630  24.638  1.00  0.00    -0.398 N 
ATOM     17  H3  UNL     1      82.298   5.632  24.821  1.00  0.00     0.158 HD
BRANCH  16  18
HETATM   18  C9  UNL     1      83.414   3.972  24.151  1.00  0.00     0.120 C 
BRANCH  18  19
HETATM   19  C10 UNL     1      84.036   4.737  23.005  1.00  0.00     0.050 C 
BRANCH  19  20
HETATM   20  C11 UNL     1      85.494   4.366  22.856  1.00  0.00     0.274 C 
BRANCH  20  21
HETATM   21  N4  UNL     1      86.351   5.183  23.678  1.00  0.00     0.088 N 
HETATM   22  C12 UNL     1      87.689   4.622  23.630  1.00  0.00     0.272 C 
HETATM   23  C13 UNL     1      88.217   5.031  22.261  1.00  0.00     0.032 C 
HETATM   24  C14 UNL     1      87.417   6.221  21.836  1.00  0.00     0.032 C 
HETATM   25  C15 UNL     1      86.563   6.485  23.075  1.00  0.00     0.272 C 
ENDBRANCH  20  21
ENDBRANCH  19  20
ENDBRANCH  18  19
ENDBRANCH  16  18
ENDBRANCH  10  15
BRANCH   9  26
HETATM   26  O2  UNL     1      78.764   5.211  23.262  1.00  0.00    -0.345 OA
ATOM     27  H2  UNL     1      78.648   5.919  22.639  1.00  0.00     0.219 HD
ENDBRANCH   9  26
BRANCH   1  28
HETATM   28  C2  UNL     1      79.672   5.101  30.651  1.00  0.00     0.030 C 
HETATM   29  C1  UNL     1      79.962   5.518  32.076  1.00  0.00     0.007 C 
ENDBRANCH   1  28
TORSDOF 7
ENDMDL
MODEL 2
REMARK VINA RESULT: -6.825161802      3.956      8.366
REMARK  7 active torsions:
REMARK  status: ('A' for Active; 'I' for Inactive)
REMARK    1  A    between atoms: C2_2  and  C3_3 
REMARK    2  A    between atoms: C6_11  and  O2_12 
REMARK    3  A    between atoms: C7_14  and  C8_15 
REMARK    4  A    between atoms: N3_16  and  C9_18 
REMARK    5  A    between atoms: C9_18  and  C10_19 
REMARK    6  A    between atoms: C10_19  and  C11_20 
REMARK    7  A    between atoms: C11_20  and  N4_21 
ROOT
HETATM    1  C3  UNL     1      82.297   6.830  27.603  1.00  0.00     0.175 C 
HETATM    2  C4  UNL     1      80.961   7.060  27.043  1.00  0.00     0.246 C 
HETATM    3  O1  UNL     1      80.946   7.430  25.841  1.00  0.00    -0.271 OA
HETATM    4  N1  UNL     1      79.646   6.945  27.597  1.00  0.00    -0.310 N 
ATOM      5  H1  UNL     1      78.862   7.285  27.042  1.00  0.00     0.170 HD
HETATM    6  C5  UNL     1      79.366   6.386  28.876  1.00  0.00     0.122 A 
HETATM    7  N2  UNL     1      78.160   6.000  29.290  1.00  0.00    -0.322 N 
ATOM      8  H2  UNL     1      77.309   6.066  28.731  1.00  0.00     0.169 HD
HETATM    9  C6  UNL     1      78.213   5.505  30.560  1.00  0.00     0.154 A 
HETATM   10  C7  UNL     1      79.523   5.577  30.980  1.00  0.00     0.045 A 
HETATM   11  C16 UNL     1      80.237   6.123  29.940  1.00  0.00     0.039 A 
HETATM   12  C17 UNL     1      81.691   6.403  29.905  1.00  0.00     0.102 C 
HETATM   13  N5  UNL     1      82.361   6.004  28.745  1.00  0.00    -0.380 N 
HETATM   14  C18 UNL     1      83.483   5.163  28.876  1.00  0.00     0.150 C 
ENDROOT
BRANCH  10  15
HETATM   15  C8  UNL     1      80.068   5.166  32.266  1.00  0.00     0.099 C 
HETATM   16  N3  UNL     1      80.671   4.029  32.359  1.00  0.00    -0.398 N 
ATOM     17  H3  UNL     1      80.742   3.456  31.519  1.00  0.00     0.158 HD
BRANCH  16  18
HETATM   18  C9  UNL     1      81.245   3.522  33.566  1.00  0.00     0.120 C 
BRANCH  18  19
HETATM   19  C10 UNL     1      82.609   4.122  33.819  1.00  0.00     0.050 C 
BRANCH  19  20
HETATM   20  C11 UNL     1      82.647   4.784  35.178  1.00  0.00     0.274 C 
BRANCH  20  21
HETATM   21  N4  UNL     1      83.284   6.076  35.138  1.00  0.00     0.088 N 
HETATM   22  C12 UNL     1      82.484   6.947  34.299  1.00  0.00     0.272 C 
HETATM   23  C13 UNL     1      81.284   7.304  35.166  1.00  0.00     0.032 C 
HETATM   24  C14 UNL     1      81.707   7.090  36.584  1.00  0.00     0.032 C 
HETATM   25  C15 UNL     1      83.186   6.744  36.422  1.00  0.00     0.272 C 
ENDBRANCH  20  21
ENDBRANCH  19  20
ENDBRANCH  18  19
ENDBRANCH  16  18
ENDBRANCH  10  15
BRANCH   9  26
HETATM   26  O2  UNL     1      77.148   5.014  31.304  1.00  0.00    -0.345 OA
ATOM     27  H2  UNL     1      77.150   4.239  31.854  1.00  0.00     0.219 HD
ENDBRANCH   9  26
BRANCH   1  28
HETATM   28  C2  UNL     1      82.937   8.189  27.864  1.00  0.00     0.030 C 
HETATM   29  C1  UNL     1      84.166   8.396  27.007  1.00  0.00     0.007 C 
ENDBRANCH   1  28
TORSDOF 7
ENDMDL
MODEL 3
REMARK VINA RESULT: -6.824584976      3.928      8.096
REMARK  7 active torsions:
REMARK  status: ('A' for Active; 'I' for Inactive)
REMARK    1  A    between atoms: C2_2  and  C3_3 
REMARK    2  A    between atoms: C6_11  and  O2_12 
REMARK    3  A    between atoms: C7_14  and  C8_15 
REMARK    4  A    between atoms: N3_16  and  C9_18 
REMARK    5  A    between atoms: C9_18  and  C10_19 
REMARK    6  A    between atoms: C10_19  and  C11_20 
REMARK    7  A    between atoms: C11_20  and  N4_21 
ROOT
HETATM    1  C3  UNL     1      82.270   6.854  27.540  1.00  0.00     0.175 C 
HETATM    2  C4  UNL     1      80.925   7.043  26.986  1.00  0.00     0.246 C 
HETATM    3  O1  UNL     1      80.893   7.381  25.775  1.00  0.00    -0.271 OA
HETATM    4  N1  UNL     1      79.617   6.917  27.554  1.00  0.00    -0.310 N 
ATOM      5  H1  UNL     1      78.821   7.227  26.996  1.00  0.00     0.170 HD
HETATM    6  C5  UNL     1      79.358   6.387  28.849  1.00  0.00     0.122 A 
HETATM    7  N2  UNL     1      78.163   5.989  29.283  1.00  0.00    -0.322 N 
ATOM      8  H2  UNL     1      77.307   6.023  28.730  1.00  0.00     0.169 HD
HETATM    9  C6  UNL     1      78.237   5.529  30.566  1.00  0.00     0.154 A 
HETATM   10  C7  UNL     1      79.548   5.639  30.973  1.00  0.00     0.045 A 
HETATM   11  C16 UNL     1      80.243   6.170  29.913  1.00  0.00     0.039 A 
HETATM   12  C17 UNL     1      81.691   6.477  29.858  1.00  0.00     0.102 C 
HETATM   13  N5  UNL     1      82.359   6.061  28.703  1.00  0.00    -0.380 N 
HETATM   14  C18 UNL     1      83.498   5.246  28.847  1.00  0.00     0.150 C 
ENDROOT
BRANCH  10  15
HETATM   15  C8  UNL     1      80.111   5.273  32.265  1.00  0.00     0.099 C 
HETATM   16  N3  UNL     1      80.799   4.186  32.366  1.00  0.00    -0.398 N 
ATOM     17  H3  UNL     1      80.922   3.618  31.528  1.00  0.00     0.158 HD
BRANCH  16  18
HETATM   18  C9  UNL     1      81.399   3.727  33.580  1.00  0.00     0.120 C 
BRANCH  18  19
HETATM   19  C10 UNL     1      81.558   4.854  34.573  1.00  0.00     0.050 C 
BRANCH  19  20
HETATM   20  C11 UNL     1      82.843   4.690  35.352  1.00  0.00     0.274 C 
BRANCH  20  21
HETATM   21  N4  UNL     1      83.895   4.112  34.554  1.00  0.00     0.088 N 
HETATM   22  C12 UNL     1      84.849   5.159  34.240  1.00  0.00     0.272 C 
HETATM   23  C13 UNL     1      85.623   5.361  35.536  1.00  0.00     0.032 C 
HETATM   24  C14 UNL     1      85.467   4.100  36.324  1.00  0.00     0.032 C 
HETATM   25  C15 UNL     1      84.709   3.208  35.344  1.00  0.00     0.272 C 
ENDBRANCH  20  21
ENDBRANCH  19  20
ENDBRANCH  18  19
ENDBRANCH  16  18
ENDBRANCH  10  15
BRANCH   9  26
HETATM   26  O2  UNL     1      77.187   5.037  31.332  1.00  0.00    -0.345 OA
ATOM     27  H2  UNL     1      76.759   5.477  32.057  1.00  0.00     0.219 HD
ENDBRANCH   9  26
BRANCH   1  28
HETATM   28  C2  UNL     1      82.885   8.232  27.760  1.00  0.00     0.030 C 
HETATM   29  C1  UNL     1      84.108   8.437  26.893  1.00  0.00     0.007 C 
ENDBRANCH   1  28
TORSDOF 7
ENDMDL
MODEL 4
REMARK VINA RESULT: -6.807756429      1.463      1.742
REMARK  7 active torsions:
REMARK  status: ('A' for Active; 'I' for Inactive)
REMARK    1  A    between atoms: C2_2  and  C3_3 
REMARK    2  A    between atoms: C6_11  and  O2_12 
REMARK    3  A    between atoms: C7_14  and  C8_15 
REMARK    4  A    between atoms: N3_16  and  C9_18 
REMARK    5  A    between atoms: C9_18  and  C10_19 
REMARK    6  A    between atoms: C10_19  and  C11_20 
REMARK    7  A    between atoms: C11_20  and  N4_21 
ROOT
HETATM    1  C3  UNL     1      80.523   5.944  30.840  1.00  0.00     0.175 C 
HETATM    2  C4  UNL     1      79.205   5.671  30.255  1.00  0.00     0.246 C 
HETATM    3  O1  UNL     1      78.241   5.748  31.059  1.00  0.00    -0.271 OA
HETATM    4  N1  UNL     1      78.787   5.330  28.929  1.00  0.00    -0.310 N 
ATOM      5  H1  UNL     1      77.814   5.061  28.789  1.00  0.00     0.170 HD
HETATM    6  C5  UNL     1      79.646   5.342  27.794  1.00  0.00     0.122 A 
HETATM    7  N2  UNL     1      79.233   5.319  26.528  1.00  0.00    -0.322 N 
ATOM      8  H2  UNL     1      78.255   5.290  26.240  1.00  0.00     0.169 HD
HETATM    9  C6  UNL     1      80.292   5.340  25.667  1.00  0.00     0.154 A 
HETATM   10  C7  UNL     1      81.442   5.379  26.423  1.00  0.00     0.045 A 
HETATM   11  C16 UNL     1      81.044   5.380  27.739  1.00  0.00     0.039 A 
HETATM   12  C17 UNL     1      81.917   5.415  28.936  1.00  0.00     0.102 C 
HETATM   13  N5  UNL     1      81.541   6.315  29.937  1.00  0.00    -0.380 N 
HETATM   14  C18 UNL     1      82.490   7.256  30.380  1.00  0.00     0.150 C 
ENDROOT
BRANCH  10  15
HETATM   15  C8  UNL     1      82.818   5.412  25.949  1.00  0.00     0.099 C 
HETATM   16  N3  UNL     1      83.115   4.823  24.839  1.00  0.00    -0.398 N 
ATOM     17  H3  UNL     1      82.365   4.351  24.334  1.00  0.00     0.158 HD
BRANCH  16  18
HETATM   18  C9  UNL     1      84.428   4.789  24.275  1.00  0.00     0.120 C 
BRANCH  18  19
HETATM   19  C10 UNL     1      84.399   4.286  22.850  1.00  0.00     0.050 C 
BRANCH  19  20
HETATM   20  C11 UNL     1      84.885   5.362  21.905  1.00  0.00     0.274 C 
BRANCH  20  21
HETATM   21  N4  UNL     1      85.952   6.146  22.473  1.00  0.00     0.088 N 
HETATM   22  C12 UNL     1      87.179   5.811  21.776  1.00  0.00     0.272 C 
HETATM   23  C13 UNL     1      87.054   6.522  20.435  1.00  0.00     0.032 C 
HETATM   24  C14 UNL     1      86.072   7.632  20.634  1.00  0.00     0.032 C 
HETATM   25  C15 UNL     1      85.803   7.549  22.136  1.00  0.00     0.272 C 
ENDBRANCH  20  21
ENDBRANCH  19  20
ENDBRANCH  18  19
ENDBRANCH  16  18
ENDBRANCH  10  15
BRANCH   9  26
HETATM   26  O2  UNL     1      80.232   5.326  24.279  1.00  0.00    -0.345 OA
ATOM     27  H2  UNL     1      80.003   6.054  23.714  1.00  0.00     0.219 HD
ENDBRANCH   9  26
BRANCH   1  28
HETATM   28  C2  UNL     1      80.929   4.730  31.668  1.00  0.00     0.030 C 
HETATM   29  C1  UNL     1      80.817   5.007  33.150  1.00  0.00     0.007 C 
ENDBRANCH   1  28
TORSDOF 7
ENDMDL
MODEL 5
REMARK VINA RESULT: -6.801929395      3.823      8.577
REMARK  7 active torsions:
REMARK  status: ('A' for Active; 'I' for Inactive)
REMARK    1  A    between atoms: C2_2  and  C3_3 
REMARK    2  A    between atoms: C6_11  and  O2_12 
REMARK    3  A    between atoms: C7_14  and  C8_15 
REMARK    4  A    between atoms: N3_16  and  C9_18 
REMARK    5  A    between atoms: C9_18  and  C10_19 
REMARK    6  A    between atoms: C10_19  and  C11_20 
REMARK    7  A    between atoms: C11_20  and  N4_21 
ROOT
HETATM    1  C3  UNL     1      82.499   6.456  27.688  1.00  0.00     0.175 C 
HETATM    2  C4  UNL     1      81.189   6.708  27.076  1.00  0.00     0.246 C 
HETATM    3  O1  UNL     1      81.223   7.018  25.857  1.00  0.00    -0.271 OA
HETATM    4  N1  UNL     1      79.855   6.671  27.594  1.00  0.00    -0.310 N 
ATOM      5  H1  UNL     1      79.101   7.012  26.999  1.00  0.00     0.170 HD
HETATM    6  C5  UNL     1      79.517   6.188  28.890  1.00  0.00     0.122 A 
HETATM    7  N2  UNL     1      78.285   5.870  29.284  1.00  0.00    -0.322 N 
ATOM      8  H2  UNL     1      77.454   5.939  28.697  1.00  0.00     0.169 HD
HETATM    9  C6  UNL     1      78.282   5.437  30.579  1.00  0.00     0.154 A 
HETATM   10  C7  UNL     1      79.581   5.481  31.035  1.00  0.00     0.045 A 
HETATM   11  C16 UNL     1      80.346   5.946  29.992  1.00  0.00     0.039 A 
HETATM   12  C17 UNL     1      81.810   6.169  29.988  1.00  0.00     0.102 C 
HETATM   13  N5  UNL     1      82.496   5.687  28.870  1.00  0.00    -0.380 N 
HETATM   14  C18 UNL     1      83.580   4.812  29.077  1.00  0.00     0.150 C 
ENDROOT
BRANCH  10  15
HETATM   15  C8  UNL     1      80.072   5.115  32.356  1.00  0.00     0.099 C 
HETATM   16  N3  UNL     1      80.828   4.077  32.480  1.00  0.00    -0.398 N 
ATOM     17  H3  UNL     1      81.053   3.547  31.639  1.00  0.00     0.158 HD
BRANCH  16  18
HETATM   18  C9  UNL     1      81.368   3.622  33.723  1.00  0.00     0.120 C 
BRANCH  18  19
HETATM   19  C10 UNL     1      82.822   4.011  33.863  1.00  0.00     0.050 C 
BRANCH  19  20
HETATM   20  C11 UNL     1      82.952   5.270  34.691  1.00  0.00     0.274 C 
BRANCH  20  21
HETATM   21  N4  UNL     1      81.850   5.438  35.604  1.00  0.00     0.088 N 
HETATM   22  C12 UNL     1      82.357   5.292  36.955  1.00  0.00     0.272 C 
HETATM   23  C13 UNL     1      83.087   6.602  37.224  1.00  0.00     0.032 C 
HETATM   24  C14 UNL     1      82.514   7.608  36.278  1.00  0.00     0.032 C 
HETATM   25  C15 UNL     1      81.389   6.813  35.616  1.00  0.00     0.272 C 
ENDBRANCH  20  21
ENDBRANCH  19  20
ENDBRANCH  18  19
ENDBRANCH  16  18
ENDBRANCH  10  15
BRANCH   9  26
HETATM   26  O2  UNL     1      77.177   5.025  31.313  1.00  0.00    -0.345 OA
ATOM     27  H2  UNL     1      77.178   4.704  32.207  1.00  0.00     0.219 HD
ENDBRANCH   9  26
BRANCH   1  28
HETATM   28  C2  UNL     1      83.184   7.801  27.901  1.00  0.00     0.030 C 
HETATM   29  C1  UNL     1      84.396   7.953  27.010  1.00  0.00     0.007 C 
ENDBRANCH   1  28
TORSDOF 7
ENDMDL
