MODEL 1
REMARK VINA RESULT: -7.247866361      0.000      0.000
REMARK  20 active torsions:
REMARK  status: ('A' for Active; 'I' for Inactive)
REMARK    1  A    between atoms: C1_2  and  O2_4 
REMARK    2  A    between atoms: O2_4  and  C2_5 
REMARK    3  A    between atoms: C2_5  and  C3_7 
REMARK    4  A    between atoms: C3_7  and  O4_8 
REMARK    5  A    between atoms: C3_7  and  O5_10 
REMARK    6  A    between atoms: C3_7  and  C4_12 
REMARK    7  A    between atoms: C6_14  and  O6_15 
REMARK    8  A    between atoms: C8_18  and  O7_19 
REMARK    9  A    between atoms: C11_23  and  O8_24 
REMARK   10  A    between atoms: C13_27  and  O9_28 
REMARK   11  A    between atoms: C14_31  and  C15_32 
REMARK   12  A    between atoms: C15_32  and  O11_33 
REMARK   13  A    between atoms: C15_32  and  C16_35 
REMARK   14  A    between atoms: C16_35  and  O12_36 
REMARK   15  A    between atoms: C16_35  and  C17_38 
REMARK   16  A    between atoms: C17_38  and  O13_39 
REMARK   17  A    between atoms: C17_38  and  C18_41 
REMARK   18  A    between atoms: C18_41  and  O14_42 
REMARK   19  A    between atoms: C18_41  and  C19_44 
REMARK   20  A    between atoms: C19_44  and  O15_45 
ROOT
HETATM    1  C4  UNL     1      58.218   3.460  43.769  1.00  0.00     0.051 A 
HETATM    2  C5  UNL     1      58.680   2.277  43.324  1.00  0.00     0.053 A 
HETATM    3  C6  UNL     1      59.874   1.743  43.871  1.00  0.00     0.080 A 
HETATM    4  C7  UNL     1      60.504   2.487  44.850  1.00  0.00     0.047 A 
HETATM    5  C8  UNL     1      61.697   1.996  45.425  1.00  0.00     0.099 A 
HETATM    6  C9  UNL     1      62.342   2.719  46.400  1.00  0.00     0.109 A 
HETATM    7  C10 UNL     1      61.841   3.920  46.826  1.00  0.00     0.125 A 
HETATM    8  C11 UNL     1      60.672   4.441  46.290  1.00  0.00     0.114 A 
HETATM    9  C12 UNL     1      60.030   3.710  45.311  1.00  0.00     0.050 A 
HETATM   10  C13 UNL     1      58.857   4.228  44.770  1.00  0.00     0.092 A 
HETATM   11  O10 UNL     1      62.509   4.640  47.816  1.00  0.00    -0.313 OA
HETATM   12  C14 UNL     1      63.943   4.471  47.857  1.00  0.00     0.307 C 
HETATM   13  O16 UNL     1      64.121   3.089  48.019  1.00  0.00    -0.282 OA
HETATM   14  C20 UNL     1      63.561   2.261  47.027  1.00  0.00     0.301 C 
HETATM   15  O17 UNL     1      64.084   1.183  46.701  1.00  0.00    -0.259 OA
ENDROOT
BRANCH  12  16
HETATM   16  C15 UNL     1      64.513   5.311  48.971  1.00  0.00     0.205 C 
BRANCH  16  17
HETATM   17  O11 UNL     1      65.195   6.372  48.229  1.00  0.00    -0.388 OA
ATOM     18  H11 UNL     1      65.930   5.905  47.850  1.00  0.00     0.210 HD
ENDBRANCH  16  17
BRANCH  16  19
HETATM   19  C16 UNL     1      65.602   4.661  49.739  1.00  0.00     0.183 C 
BRANCH  19  20
HETATM   20  O12 UNL     1      65.230   3.474  50.385  1.00  0.00    -0.390 OA
ATOM     21  H12 UNL     1      65.702   2.702  50.094  1.00  0.00     0.210 HD
ENDBRANCH  19  20
BRANCH  19  22
HETATM   22  C17 UNL     1      66.968   4.661  49.195  1.00  0.00     0.180 C 
BRANCH  22  23
HETATM   23  O13 UNL     1      67.591   5.822  49.872  1.00  0.00    -0.390 OA
ATOM     24  H13 UNL     1      68.291   5.422  50.374  1.00  0.00     0.210 HD
ENDBRANCH  22  23
BRANCH  22  25
HETATM   25  C18 UNL     1      67.844   3.505  49.686  1.00  0.00     0.173 C 
BRANCH  25  26
HETATM   26  O14 UNL     1      69.174   4.105  49.667  1.00  0.00    -0.391 OA
ATOM     27  H14 UNL     1      69.673   3.494  50.196  1.00  0.00     0.210 HD
ENDBRANCH  25  26
BRANCH  25  28
HETATM   28  C19 UNL     1      67.979   2.354  48.745  1.00  0.00     0.198 C 
BRANCH  28  29
HETATM   29  O15 UNL     1      66.841   1.959  48.085  1.00  0.00    -0.398 OA
ATOM     30  H15 UNL     1      66.820   2.104  47.146  1.00  0.00     0.209 HD
ENDBRANCH  28  29
ENDBRANCH  25  28
ENDBRANCH  22  25
ENDBRANCH  19  22
ENDBRANCH  16  19
ENDBRANCH  12  16
BRANCH   8  31
HETATM   31  O8  UNL     1      60.204   5.674  46.762  1.00  0.00    -0.357 OA
ATOM     32  H8  UNL     1      59.288   5.895  46.636  1.00  0.00     0.217 HD
ENDBRANCH   8  31
BRANCH   5  33
HETATM   33  O7  UNL     1      62.167   0.809  44.983  1.00  0.00    -0.359 OA
ATOM     34  H7  UNL     1      61.812   0.019  45.373  1.00  0.00     0.217 HD
ENDBRANCH   5  33
BRANCH  10  35
HETATM   35  O9  UNL     1      58.328   5.390  45.150  1.00  0.00    -0.359 OA
ATOM     36  H9  UNL     1      58.527   5.741  46.011  1.00  0.00     0.217 HD
ENDBRANCH  10  35
BRANCH   3  37
HETATM   37  O6  UNL     1      60.304   0.559  43.402  1.00  0.00    -0.360 OA
ATOM     38  H6  UNL     1      59.782  -0.210  43.597  1.00  0.00     0.217 HD
ENDBRANCH   3  37
BRANCH   1  39
HETATM   39  C3  UNL     1      56.975   4.080  43.233  1.00  0.00     0.284 C 
BRANCH  39  40
HETATM   40  C2  UNL     1      57.228   5.241  42.368  1.00  0.00     0.335 C 
HETATM   41  O3  UNL     1      57.065   6.440  42.760  1.00  0.00    -0.258 OA
BRANCH  40  42
HETATM   42  O2  UNL     1      57.666   5.019  41.054  1.00  0.00    -0.225 OA
BRANCH  42  43
HETATM   43  C1  UNL     1      56.822   5.243  39.992  1.00  0.00     0.380 C 
HETATM   44  N1  UNL     1      57.196   5.907  38.804  1.00  0.00    -0.032 NA
HETATM   45  O1  UNL     1      55.626   4.828  40.079  1.00  0.00    -0.242 OA
ENDBRANCH  42  43
ENDBRANCH  40  42
ENDBRANCH  39  40
BRANCH  39  46
HETATM   46  O4  UNL     1      56.170   4.477  44.299  1.00  0.00    -0.354 OA
ATOM     47  H4  UNL     1      56.302   3.879  45.025  1.00  0.00     0.214 HD
ENDBRANCH  39  46
BRANCH  39  48
HETATM   48  O5  UNL     1      56.225   3.092  42.562  1.00  0.00    -0.354 OA
ATOM     49  H5  UNL     1      56.458   2.220  42.857  1.00  0.00     0.214 HD
ENDBRANCH  39  48
ENDBRANCH   1  39
TORSDOF 20
ENDMDL
MODEL 2
REMARK VINA RESULT: -7.216342156      1.900      2.784
REMARK  20 active torsions:
REMARK  status: ('A' for Active; 'I' for Inactive)
REMARK    1  A    between atoms: C1_2  and  O2_4 
REMARK    2  A    between atoms: O2_4  and  C2_5 
REMARK    3  A    between atoms: C2_5  and  C3_7 
REMARK    4  A    between atoms: C3_7  and  O4_8 
REMARK    5  A    between atoms: C3_7  and  O5_10 
REMARK    6  A    between atoms: C3_7  and  C4_12 
REMARK    7  A    between atoms: C6_14  and  O6_15 
REMARK    8  A    between atoms: C8_18  and  O7_19 
REMARK    9  A    between atoms: C11_23  and  O8_24 
REMARK   10  A    between atoms: C13_27  and  O9_28 
REMARK   11  A    between atoms: C14_31  and  C15_32 
REMARK   12  A    between atoms: C15_32  and  O11_33 
REMARK   13  A    between atoms: C15_32  and  C16_35 
REMARK   14  A    between atoms: C16_35  and  O12_36 
REMARK   15  A    between atoms: C16_35  and  C17_38 
REMARK   16  A    between atoms: C17_38  and  O13_39 
REMARK   17  A    between atoms: C17_38  and  C18_41 
REMARK   18  A    between atoms: C18_41  and  O14_42 
REMARK   19  A    between atoms: C18_41  and  C19_44 
REMARK   20  A    between atoms: C19_44  and  O15_45 
ROOT
HETATM    1  C4  UNL     1      56.901   4.048  43.888  1.00  0.00     0.051 A 
HETATM    2  C5  UNL     1      56.206   3.302  44.766  1.00  0.00     0.053 A 
HETATM    3  C6  UNL     1      56.826   2.887  45.972  1.00  0.00     0.080 A 
HETATM    4  C7  UNL     1      58.134   3.282  46.175  1.00  0.00     0.047 A 
HETATM    5  C8  UNL     1      58.793   2.892  47.363  1.00  0.00     0.099 A 
HETATM    6  C9  UNL     1      60.095   3.273  47.586  1.00  0.00     0.109 A 
HETATM    7  C10 UNL     1      60.769   4.032  46.667  1.00  0.00     0.125 A 
HETATM    8  C11 UNL     1      60.161   4.438  45.488  1.00  0.00     0.114 A 
HETATM    9  C12 UNL     1      58.854   4.052  45.269  1.00  0.00     0.050 A 
HETATM   10  C13 UNL     1      58.240   4.456  44.087  1.00  0.00     0.092 A 
HETATM   11  O10 UNL     1      62.089   4.409  46.910  1.00  0.00    -0.313 OA
HETATM   12  C14 UNL     1      62.868   3.490  47.707  1.00  0.00     0.307 C 
HETATM   13  O16 UNL     1      62.141   3.367  48.900  1.00  0.00    -0.282 OA
HETATM   14  C20 UNL     1      60.814   2.909  48.785  1.00  0.00     0.301 C 
HETATM   15  O17 UNL     1      60.279   2.223  49.670  1.00  0.00    -0.259 OA
ENDROOT
BRANCH  12  16
HETATM   16  C15 UNL     1      64.262   4.035  47.877  1.00  0.00     0.205 C 
BRANCH  16  17
HETATM   17  O11 UNL     1      64.924   2.951  48.604  1.00  0.00    -0.388 OA
ATOM     18  H11 UNL     1      65.739   3.361  48.867  1.00  0.00     0.210 HD
ENDBRANCH  16  17
BRANCH  16  19
HETATM   19  C16 UNL     1      64.365   5.192  48.798  1.00  0.00     0.183 C 
BRANCH  19  20
HETATM   20  O12 UNL     1      64.260   4.865  50.157  1.00  0.00    -0.390 OA
ATOM     21  H12 UNL     1      63.401   5.014  50.533  1.00  0.00     0.210 HD
ENDBRANCH  19  20
BRANCH  19  22
HETATM   22  C17 UNL     1      65.319   6.270  48.499  1.00  0.00     0.180 C 
BRANCH  22  23
HETATM   23  O13 UNL     1      64.467   7.482  48.531  1.00  0.00    -0.390 OA
ATOM     24  H13 UNL     1      64.987   8.092  49.040  1.00  0.00     0.210 HD
ENDBRANCH  22  23
BRANCH  22  25
HETATM   25  C18 UNL     1      66.318   6.561  49.624  1.00  0.00     0.173 C 
BRANCH  25  26
HETATM   26  O14 UNL     1      66.780   7.901  49.278  1.00  0.00    -0.391 OA
ATOM     27  H14 UNL     1      66.379   8.429  49.959  1.00  0.00     0.210 HD
ENDBRANCH  25  26
BRANCH  25  28
HETATM   28  C19 UNL     1      67.572   5.752  49.596  1.00  0.00     0.198 C 
BRANCH  28  29
HETATM   29  O15 UNL     1      67.428   4.387  49.598  1.00  0.00    -0.398 OA
ATOM     30  H15 UNL     1      66.888   4.013  48.912  1.00  0.00     0.209 HD
ENDBRANCH  28  29
ENDBRANCH  25  28
ENDBRANCH  22  25
ENDBRANCH  19  22
ENDBRANCH  16  19
ENDBRANCH  12  16
BRANCH   8  31
HETATM   31  O8  UNL     1      60.897   5.214  44.581  1.00  0.00    -0.357 OA
ATOM     32  H8  UNL     1      60.574   6.077  44.349  1.00  0.00     0.217 HD
ENDBRANCH   8  31
BRANCH   5  33
HETATM   33  O7  UNL     1      58.102   2.143  48.249  1.00  0.00    -0.359 OA
ATOM     34  H7  UNL     1      57.460   2.582  48.795  1.00  0.00     0.217 HD
ENDBRANCH   5  33
BRANCH  10  35
HETATM   35  O9  UNL     1      58.851   5.196  43.162  1.00  0.00    -0.359 OA
ATOM     36  H9  UNL     1      58.610   5.102  42.247  1.00  0.00     0.217 HD
ENDBRANCH  10  35
BRANCH   3  37
HETATM   37  O6  UNL     1      56.100   2.143  46.826  1.00  0.00    -0.360 OA
ATOM     38  H6  UNL     1      55.185   1.999  46.618  1.00  0.00     0.217 HD
ENDBRANCH   3  37
BRANCH   1  39
HETATM   39  C3  UNL     1      56.314   4.511  42.600  1.00  0.00     0.284 C 
BRANCH  39  40
HETATM   40  C2  UNL     1      57.034   4.017  41.418  1.00  0.00     0.335 C 
HETATM   41  O3  UNL     1      57.190   2.779  41.175  1.00  0.00    -0.258 OA
BRANCH  40  42
HETATM   42  O2  UNL     1      57.573   4.951  40.520  1.00  0.00    -0.225 OA
BRANCH  42  43
HETATM   43  C1  UNL     1      56.795   5.478  39.516  1.00  0.00     0.380 C 
HETATM   44  N1  UNL     1      57.303   6.176  38.399  1.00  0.00    -0.032 NA
HETATM   45  O1  UNL     1      55.537   5.332  39.593  1.00  0.00    -0.242 OA
ENDBRANCH  42  43
ENDBRANCH  40  42
ENDBRANCH  39  40
BRANCH  39  46
HETATM   46  O4  UNL     1      56.311   5.906  42.578  1.00  0.00    -0.354 OA
ATOM     47  H4  UNL     1      55.593   6.204  42.034  1.00  0.00     0.214 HD
ENDBRANCH  39  46
BRANCH  39  48
HETATM   48  O5  UNL     1      54.951   4.148  42.563  1.00  0.00    -0.354 OA
ATOM     49  H5  UNL     1      54.417   4.757  43.058  1.00  0.00     0.214 HD
ENDBRANCH  39  48
ENDBRANCH   1  39
TORSDOF 20
ENDMDL
MODEL 3
REMARK VINA RESULT: -7.197049736      4.824      5.863
REMARK  20 active torsions:
REMARK  status: ('A' for Active; 'I' for Inactive)
REMARK    1  A    between atoms: C1_2  and  O2_4 
REMARK    2  A    between atoms: O2_4  and  C2_5 
REMARK    3  A    between atoms: C2_5  and  C3_7 
REMARK    4  A    between atoms: C3_7  and  O4_8 
REMARK    5  A    between atoms: C3_7  and  O5_10 
REMARK    6  A    between atoms: C3_7  and  C4_12 
REMARK    7  A    between atoms: C6_14  and  O6_15 
REMARK    8  A    between atoms: C8_18  and  O7_19 
REMARK    9  A    between atoms: C11_23  and  O8_24 
REMARK   10  A    between atoms: C13_27  and  O9_28 
REMARK   11  A    between atoms: C14_31  and  C15_32 
REMARK   12  A    between atoms: C15_32  and  O11_33 
REMARK   13  A    between atoms: C15_32  and  C16_35 
REMARK   14  A    between atoms: C16_35  and  O12_36 
REMARK   15  A    between atoms: C16_35  and  C17_38 
REMARK   16  A    between atoms: C17_38  and  O13_39 
REMARK   17  A    between atoms: C17_38  and  C18_41 
REMARK   18  A    between atoms: C18_41  and  O14_42 
REMARK   19  A    between atoms: C18_41  and  C19_44 
REMARK   20  A    between atoms: C19_44  and  O15_45 
ROOT
HETATM    1  C4  UNL     1      58.006   3.643  44.106  1.00  0.00     0.051 A 
HETATM    2  C5  UNL     1      57.477   2.411  43.998  1.00  0.00     0.053 A 
HETATM    3  C6  UNL     1      57.319   1.615  45.161  1.00  0.00     0.080 A 
HETATM    4  C7  UNL     1      57.728   2.167  46.360  1.00  0.00     0.047 A 
HETATM    5  C8  UNL     1      57.590   1.412  47.546  1.00  0.00     0.099 A 
HETATM    6  C9  UNL     1      57.991   1.940  48.750  1.00  0.00     0.109 A 
HETATM    7  C10 UNL     1      58.525   3.198  48.819  1.00  0.00     0.125 A 
HETATM    8  C11 UNL     1      58.679   3.975  47.680  1.00  0.00     0.114 A 
HETATM    9  C12 UNL     1      58.276   3.439  46.474  1.00  0.00     0.050 A 
HETATM   10  C13 UNL     1      58.428   4.215  45.328  1.00  0.00     0.092 A 
HETATM   11  O10 UNL     1      58.926   3.717  50.049  1.00  0.00    -0.313 OA
HETATM   12  C14 UNL     1      59.385   2.750  51.020  1.00  0.00     0.307 C 
HETATM   13  O16 UNL     1      58.305   1.868  51.163  1.00  0.00    -0.282 OA
HETATM   14  C20 UNL     1      57.866   1.215  49.994  1.00  0.00     0.301 C 
HETATM   15  O17 UNL     1      57.392   0.068  50.024  1.00  0.00    -0.259 OA
ENDROOT
BRANCH  12  16
HETATM   16  C15 UNL     1      59.782   3.465  52.286  1.00  0.00     0.205 C 
BRANCH  16  17
HETATM   17  O11 UNL     1      59.842   2.363  53.248  1.00  0.00    -0.388 OA
ATOM     18  H11 UNL     1      60.643   2.559  53.719  1.00  0.00     0.210 HD
ENDBRANCH  16  17
BRANCH  16  19
HETATM   19  C16 UNL     1      58.739   4.362  52.842  1.00  0.00     0.183 C 
BRANCH  19  20
HETATM   20  O12 UNL     1      57.424   3.966  52.565  1.00  0.00    -0.390 OA
ATOM     21  H12 UNL     1      57.106   4.224  51.708  1.00  0.00     0.210 HD
ENDBRANCH  19  20
BRANCH  19  22
HETATM   22  C17 UNL     1      58.934   4.956  54.172  1.00  0.00     0.180 C 
BRANCH  22  23
HETATM   23  O13 UNL     1      60.408   4.961  54.318  1.00  0.00    -0.390 OA
ATOM     24  H13 UNL     1      60.527   5.029  55.258  1.00  0.00     0.210 HD
ENDBRANCH  22  23
BRANCH  22  25
HETATM   25  C18 UNL     1      58.607   6.450  54.251  1.00  0.00     0.173 C 
BRANCH  25  26
HETATM   26  O14 UNL     1      57.187   6.466  53.913  1.00  0.00    -0.391 OA
ATOM     27  H14 UNL     1      57.032   7.391  53.760  1.00  0.00     0.210 HD
ENDBRANCH  25  26
BRANCH  25  28
HETATM   28  C19 UNL     1      59.218   7.300  53.187  1.00  0.00     0.198 C 
BRANCH  28  29
HETATM   29  O15 UNL     1      59.680   8.535  53.573  1.00  0.00    -0.398 OA
ATOM     30  H15 UNL     1      59.174   9.288  53.289  1.00  0.00     0.209 HD
ENDBRANCH  28  29
ENDBRANCH  25  28
ENDBRANCH  22  25
ENDBRANCH  19  22
ENDBRANCH  16  19
ENDBRANCH  12  16
BRANCH   8  31
HETATM   31  O8  UNL     1      59.232   5.257  47.807  1.00  0.00    -0.357 OA
ATOM     32  H8  UNL     1      60.168   5.340  47.948  1.00  0.00     0.217 HD
ENDBRANCH   8  31
BRANCH   5  33
HETATM   33  O7  UNL     1      57.060   0.173  47.446  1.00  0.00    -0.359 OA
ATOM     34  H7  UNL     1      56.168   0.097  47.127  1.00  0.00     0.217 HD
ENDBRANCH   5  33
BRANCH  10  35
HETATM   35  O9  UNL     1      58.941   5.445  45.341  1.00  0.00    -0.359 OA
ATOM     36  H9  UNL     1      58.388   6.185  45.563  1.00  0.00     0.217 HD
ENDBRANCH  10  35
BRANCH   3  37
HETATM   37  O6  UNL     1      56.787   0.389  45.014  1.00  0.00    -0.360 OA
ATOM     38  H6  UNL     1      57.102  -0.301  45.585  1.00  0.00     0.217 HD
ENDBRANCH   3  37
BRANCH   1  39
HETATM   39  C3  UNL     1      58.207   4.528  42.924  1.00  0.00     0.284 C 
BRANCH  39  40
HETATM   40  C2  UNL     1      57.289   5.675  42.891  1.00  0.00     0.335 C 
HETATM   41  O3  UNL     1      57.624   6.836  43.285  1.00  0.00    -0.258 OA
BRANCH  40  42
HETATM   42  O2  UNL     1      55.987   5.480  42.405  1.00  0.00    -0.225 OA
BRANCH  42  43
HETATM   43  C1  UNL     1      55.570   6.116  41.259  1.00  0.00     0.380 C 
HETATM   44  N1  UNL     1      56.094   5.863  39.973  1.00  0.00    -0.032 NA
HETATM   45  O1  UNL     1      54.655   6.990  41.357  1.00  0.00    -0.242 OA
ENDBRANCH  42  43
ENDBRANCH  40  42
ENDBRANCH  39  40
BRANCH  39  46
HETATM   46  O4  UNL     1      58.036   3.777  41.761  1.00  0.00    -0.354 OA
ATOM     47  H4  UNL     1      58.840   3.307  41.578  1.00  0.00     0.214 HD
ENDBRANCH  39  46
BRANCH  39  48
HETATM   48  O5  UNL     1      59.554   4.944  42.890  1.00  0.00    -0.354 OA
ATOM     49  H5  UNL     1      60.110   4.361  43.390  1.00  0.00     0.214 HD
ENDBRANCH  39  48
ENDBRANCH   1  39
TORSDOF 20
ENDMDL
MODEL 4
REMARK VINA RESULT: -7.174066851      5.155      6.359
REMARK  20 active torsions:
REMARK  status: ('A' for Active; 'I' for Inactive)
REMARK    1  A    between atoms: C1_2  and  O2_4 
REMARK    2  A    between atoms: O2_4  and  C2_5 
REMARK    3  A    between atoms: C2_5  and  C3_7 
REMARK    4  A    between atoms: C3_7  and  O4_8 
REMARK    5  A    between atoms: C3_7  and  O5_10 
REMARK    6  A    between atoms: C3_7  and  C4_12 
REMARK    7  A    between atoms: C6_14  and  O6_15 
REMARK    8  A    between atoms: C8_18  and  O7_19 
REMARK    9  A    between atoms: C11_23  and  O8_24 
REMARK   10  A    between atoms: C13_27  and  O9_28 
REMARK   11  A    between atoms: C14_31  and  C15_32 
REMARK   12  A    between atoms: C15_32  and  O11_33 
REMARK   13  A    between atoms: C15_32  and  C16_35 
REMARK   14  A    between atoms: C16_35  and  O12_36 
REMARK   15  A    between atoms: C16_35  and  C17_38 
REMARK   16  A    between atoms: C17_38  and  O13_39 
REMARK   17  A    between atoms: C17_38  and  C18_41 
REMARK   18  A    between atoms: C18_41  and  O14_42 
REMARK   19  A    between atoms: C18_41  and  C19_44 
REMARK   20  A    between atoms: C19_44  and  O15_45 
ROOT
HETATM    1  C4  UNL     1      58.811   2.876  45.414  1.00  0.00     0.051 A 
HETATM    2  C5  UNL     1      58.220   1.701  45.131  1.00  0.00     0.053 A 
HETATM    3  C6  UNL     1      57.607   0.960  46.174  1.00  0.00     0.080 A 
HETATM    4  C7  UNL     1      57.656   1.503  47.443  1.00  0.00     0.047 A 
HETATM    5  C8  UNL     1      57.059   0.801  48.514  1.00  0.00     0.099 A 
HETATM    6  C9  UNL     1      57.096   1.321  49.786  1.00  0.00     0.109 A 
HETATM    7  C10 UNL     1      57.708   2.520  50.033  1.00  0.00     0.125 A 
HETATM    8  C11 UNL     1      58.307   3.244  49.012  1.00  0.00     0.114 A 
HETATM    9  C12 UNL     1      58.267   2.716  47.738  1.00  0.00     0.050 A 
HETATM   10  C13 UNL     1      58.866   3.439  46.710  1.00  0.00     0.092 A 
HETATM   11  O10 UNL     1      57.736   3.032  51.330  1.00  0.00    -0.313 OA
HETATM   12  C14 UNL     1      57.748   2.054  52.392  1.00  0.00     0.307 C 
HETATM   13  O16 UNL     1      56.594   1.289  52.167  1.00  0.00    -0.282 OA
HETATM   14  C20 UNL     1      56.496   0.649  50.915  1.00  0.00     0.301 C 
HETATM   15  O17 UNL     1      55.920  -0.442  50.781  1.00  0.00    -0.259 OA
ENDROOT
BRANCH  12  16
HETATM   16  C15 UNL     1      57.780   2.762  53.722  1.00  0.00     0.205 C 
BRANCH  16  17
HETATM   17  O11 UNL     1      56.457   2.448  54.263  1.00  0.00    -0.388 OA
ATOM     18  H11 UNL     1      56.400   3.045  54.999  1.00  0.00     0.210 HD
ENDBRANCH  16  17
BRANCH  16  19
HETATM   19  C16 UNL     1      57.783   4.242  53.633  1.00  0.00     0.183 C 
BRANCH  19  20
HETATM   20  O12 UNL     1      56.527   4.837  53.810  1.00  0.00    -0.390 OA
ATOM     21  H12 UNL     1      56.009   4.907  53.018  1.00  0.00     0.210 HD
ENDBRANCH  19  20
BRANCH  19  22
HETATM   22  C17 UNL     1      58.906   4.997  54.209  1.00  0.00     0.180 C 
BRANCH  22  23
HETATM   23  O13 UNL     1      59.660   3.955  54.944  1.00  0.00    -0.390 OA
ATOM     24  H13 UNL     1      59.181   3.162  54.736  1.00  0.00     0.210 HD
ENDBRANCH  22  23
BRANCH  22  25
HETATM   25  C18 UNL     1      59.942   5.467  53.185  1.00  0.00     0.173 C 
BRANCH  25  26
HETATM   26  O14 UNL     1      59.121   5.669  51.995  1.00  0.00    -0.391 OA
ATOM     27  H14 UNL     1      59.775   5.868  51.336  1.00  0.00     0.210 HD
ENDBRANCH  25  26
BRANCH  25  28
HETATM   28  C19 UNL     1      60.928   4.436  52.745  1.00  0.00     0.198 C 
BRANCH  28  29
HETATM   29  O15 UNL     1      60.704   3.848  51.524  1.00  0.00    -0.398 OA
ATOM     30  H15 UNL     1      60.673   4.425  50.771  1.00  0.00     0.209 HD
ENDBRANCH  28  29
ENDBRANCH  25  28
ENDBRANCH  22  25
ENDBRANCH  19  22
ENDBRANCH  16  19
ENDBRANCH  12  16
BRANCH   8  31
HETATM   31  O8  UNL     1      58.920   4.467  49.320  1.00  0.00    -0.357 OA
ATOM     32  H8  UNL     1      59.195   5.033  48.609  1.00  0.00     0.217 HD
ENDBRANCH   8  31
BRANCH   5  33
HETATM   33  O7  UNL     1      56.464  -0.380  48.239  1.00  0.00    -0.359 OA
ATOM     34  H7  UNL     1      56.908  -1.175  48.513  1.00  0.00     0.217 HD
ENDBRANCH   5  33
BRANCH  10  35
HETATM   35  O9  UNL     1      59.473   4.610  46.897  1.00  0.00    -0.359 OA
ATOM     36  H9  UNL     1      58.984   5.418  46.790  1.00  0.00     0.217 HD
ENDBRANCH  10  35
BRANCH   3  37
HETATM   37  O6  UNL     1      57.027  -0.210  45.854  1.00  0.00    -0.360 OA
ATOM     38  H6  UNL     1      56.441  -0.602  46.490  1.00  0.00     0.217 HD
ENDBRANCH   3  37
BRANCH   1  39
HETATM   39  C3  UNL     1      59.479   3.701  44.369  1.00  0.00     0.284 C 
BRANCH  39  40
HETATM   40  C2  UNL     1      58.934   5.061  44.261  1.00  0.00     0.335 C 
HETATM   41  O3  UNL     1      59.651   6.102  44.402  1.00  0.00    -0.258 OA
BRANCH  40  42
HETATM   42  O2  UNL     1      57.566   5.219  43.993  1.00  0.00    -0.225 OA
BRANCH  42  43
HETATM   43  C1  UNL     1      57.149   5.762  42.801  1.00  0.00     0.380 C 
HETATM   44  N1  UNL     1      57.526   5.277  41.531  1.00  0.00    -0.032 NA
HETATM   45  O1  UNL     1      56.374   6.766  42.838  1.00  0.00    -0.242 OA
ENDBRANCH  42  43
ENDBRANCH  40  42
ENDBRANCH  39  40
BRANCH  39  46
HETATM   46  O4  UNL     1      59.348   3.063  43.135  1.00  0.00    -0.354 OA
ATOM     47  H4  UNL     1      59.120   2.153  43.282  1.00  0.00     0.214 HD
ENDBRANCH  39  46
BRANCH  39  48
HETATM   48  O5  UNL     1      60.866   3.719  44.620  1.00  0.00    -0.354 OA
ATOM     49  H5  UNL     1      61.175   4.600  44.795  1.00  0.00     0.214 HD
ENDBRANCH  39  48
ENDBRANCH   1  39
TORSDOF 20
ENDMDL
MODEL 5
REMARK VINA RESULT: -7.171688160      4.220      5.736
REMARK  20 active torsions:
REMARK  status: ('A' for Active; 'I' for Inactive)
REMARK    1  A    between atoms: C1_2  and  O2_4 
REMARK    2  A    between atoms: O2_4  and  C2_5 
REMARK    3  A    between atoms: C2_5  and  C3_7 
REMARK    4  A    between atoms: C3_7  and  O4_8 
REMARK    5  A    between atoms: C3_7  and  O5_10 
REMARK    6  A    between atoms: C3_7  and  C4_12 
REMARK    7  A    between atoms: C6_14  and  O6_15 
REMARK    8  A    between atoms: C8_18  and  O7_19 
REMARK    9  A    between atoms: C11_23  and  O8_24 
REMARK   10  A    between atoms: C13_27  and  O9_28 
REMARK   11  A    between atoms: C14_31  and  C15_32 
REMARK   12  A    between atoms: C15_32  and  O11_33 
REMARK   13  A    between atoms: C15_32  and  C16_35 
REMARK   14  A    between atoms: C16_35  and  O12_36 
REMARK   15  A    between atoms: C16_35  and  C17_38 
REMARK   16  A    between atoms: C17_38  and  O13_39 
REMARK   17  A    between atoms: C17_38  and  C18_41 
REMARK   18  A    between atoms: C18_41  and  O14_42 
REMARK   19  A    between atoms: C18_41  and  C19_44 
REMARK   20  A    between atoms: C19_44  and  O15_45 
ROOT
HETATM    1  C4  UNL     1      57.574   4.498  44.053  1.00  0.00     0.051 A 
HETATM    2  C5  UNL     1      56.640   3.529  44.066  1.00  0.00     0.053 A 
HETATM    3  C6  UNL     1      56.466   2.743  45.233  1.00  0.00     0.080 A 
HETATM    4  C7  UNL     1      57.284   3.027  46.310  1.00  0.00     0.047 A 
HETATM    5  C8  UNL     1      57.147   2.271  47.495  1.00  0.00     0.099 A 
HETATM    6  C9  UNL     1      57.951   2.535  48.579  1.00  0.00     0.109 A 
HETATM    7  C10 UNL     1      58.890   3.530  48.527  1.00  0.00     0.125 A 
HETATM    8  C11 UNL     1      59.059   4.298  47.384  1.00  0.00     0.114 A 
HETATM    9  C12 UNL     1      58.250   4.027  46.299  1.00  0.00     0.050 A 
HETATM   10  C13 UNL     1      58.416   4.795  45.150  1.00  0.00     0.092 A 
HETATM   11  O10 UNL     1      59.696   3.783  49.636  1.00  0.00    -0.313 OA
HETATM   12  C14 UNL     1      59.985   2.644  50.476  1.00  0.00     0.307 C 
HETATM   13  O16 UNL     1      58.722   2.170  50.857  1.00  0.00    -0.282 OA
HETATM   14  C20 UNL     1      57.848   1.798  49.817  1.00  0.00     0.301 C 
HETATM   15  O17 UNL     1      57.023   0.881  49.951  1.00  0.00    -0.259 OA
ENDROOT
BRANCH  12  16
HETATM   16  C15 UNL     1      60.863   3.080  51.621  1.00  0.00     0.205 C 
BRANCH  16  17
HETATM   17  O11 UNL     1      61.733   1.915  51.794  1.00  0.00    -0.388 OA
ATOM     18  H11 UNL     1      62.440   2.276  52.315  1.00  0.00     0.210 HD
ENDBRANCH  16  17
BRANCH  16  19
HETATM   19  C16 UNL     1      60.165   3.196  52.924  1.00  0.00     0.183 C 
BRANCH  19  20
HETATM   20  O12 UNL     1      60.768   2.487  53.972  1.00  0.00    -0.390 OA
ATOM     21  H12 UNL     1      60.288   1.717  54.254  1.00  0.00     0.210 HD
ENDBRANCH  19  20
BRANCH  19  22
HETATM   22  C17 UNL     1      59.578   4.486  53.315  1.00  0.00     0.180 C 
BRANCH  22  23
HETATM   23  O13 UNL     1      59.191   5.079  52.014  1.00  0.00    -0.390 OA
ATOM     24  H13 UNL     1      59.836   5.767  51.896  1.00  0.00     0.210 HD
ENDBRANCH  22  23
BRANCH  22  25
HETATM   25  C18 UNL     1      58.224   4.376  54.023  1.00  0.00     0.173 C 
BRANCH  25  26
HETATM   26  O14 UNL     1      57.319   4.128  52.905  1.00  0.00    -0.391 OA
ATOM     27  H14 UNL     1      56.512   3.901  53.352  1.00  0.00     0.210 HD
ENDBRANCH  25  26
BRANCH  25  28
HETATM   28  C19 UNL     1      57.698   5.644  54.610  1.00  0.00     0.198 C 
BRANCH  28  29
HETATM   29  O15 UNL     1      56.939   6.438  53.787  1.00  0.00    -0.398 OA
ATOM     30  H15 UNL     1      57.033   7.377  53.893  1.00  0.00     0.209 HD
ENDBRANCH  28  29
ENDBRANCH  25  28
ENDBRANCH  22  25
ENDBRANCH  19  22
ENDBRANCH  16  19
ENDBRANCH  12  16
BRANCH   8  31
HETATM   31  O8  UNL     1      60.036   5.303  47.384  1.00  0.00    -0.357 OA
ATOM     32  H8  UNL     1      59.826   6.146  47.771  1.00  0.00     0.217 HD
ENDBRANCH   8  31
BRANCH   5  33
HETATM   33  O7  UNL     1      56.212   1.297  47.516  1.00  0.00    -0.359 OA
ATOM     34  H7  UNL     1      56.492   0.409  47.323  1.00  0.00     0.217 HD
ENDBRANCH   5  33
BRANCH  10  35
HETATM   35  O9  UNL     1      59.314   5.774  45.048  1.00  0.00    -0.359 OA
ATOM     36  H9  UNL     1      59.024   6.677  44.991  1.00  0.00     0.217 HD
ENDBRANCH  10  35
BRANCH   3  37
HETATM   37  O6  UNL     1      55.524   1.785  45.208  1.00  0.00    -0.360 OA
ATOM     38  H6  UNL     1      55.395   1.271  45.996  1.00  0.00     0.217 HD
ENDBRANCH   3  37
BRANCH   1  39
HETATM   39  C3  UNL     1      57.814   5.354  42.858  1.00  0.00     0.284 C 
BRANCH  39  40
HETATM   40  C2  UNL     1      56.847   5.131  41.775  1.00  0.00     0.335 C 
HETATM   41  O3  UNL     1      55.677   5.627  41.784  1.00  0.00    -0.258 OA
BRANCH  40  42
HETATM   42  O2  UNL     1      57.230   4.335  40.685  1.00  0.00    -0.225 OA
BRANCH  42  43
HETATM   43  C1  UNL     1      56.794   4.637  39.416  1.00  0.00     0.380 C 
HETATM   44  N1  UNL     1      57.143   5.810  38.713  1.00  0.00    -0.032 NA
HETATM   45  O1  UNL     1      56.028   3.811  38.833  1.00  0.00    -0.242 OA
ENDBRANCH  42  43
ENDBRANCH  40  42
ENDBRANCH  39  40
BRANCH  39  46
HETATM   46  O4  UNL     1      59.099   5.109  42.375  1.00  0.00    -0.354 OA
ATOM     47  H4  UNL     1      59.713   5.670  42.834  1.00  0.00     0.214 HD
ENDBRANCH  39  46
BRANCH  39  48
HETATM   48  O5  UNL     1      57.833   6.706  43.262  1.00  0.00    -0.354 OA
ATOM     49  H5  UNL     1      58.492   6.860  43.927  1.00  0.00     0.214 HD
ENDBRANCH  39  48
ENDBRANCH   1  39
TORSDOF 20
ENDMDL
