MODEL 1
REMARK VINA RESULT: -7.340656960      0.000      0.000
REMARK  9 active torsions:
REMARK  status: ('A' for Active; 'I' for Inactive)
REMARK    1  A    between atoms: C2_2  and  C3_3 
REMARK    2  A    between atoms: C3_3  and  C4_4 
REMARK    3  A    between atoms: C4_4  and  C5_5 
REMARK    4  A    between atoms: C5_5  and  C6_6 
REMARK    5  A    between atoms: C6_6  and  C7_7 
REMARK    6  A    between atoms: C9_12  and  C10_13 
REMARK    7  A    between atoms: C10_13  and  C11_14 
REMARK    8  A    between atoms: C15_21  and  C16_22 
REMARK    9  A    between atoms: C21_29  and  C22_30 
ROOT
HETATM    1  C7  UNL     1      14.547  65.257  25.439  1.00  0.00     0.176 C 
HETATM    2  N1  UNL     1      14.529  65.902  24.143  1.00  0.00    -0.346 N 
ATOM      3  H1  UNL     1      14.132  66.841  24.127  1.00  0.00     0.163 HD
HETATM    4  C8  UNL     1      14.974  65.424  22.919  1.00  0.00     0.241 C 
HETATM    5  O1  UNL     1      14.115  65.401  21.953  1.00  0.00    -0.271 OA
HETATM    6  C9  UNL     1      16.350  64.935  22.615  1.00  0.00     0.177 C 
HETATM    7  N2  UNL     1      16.541  64.716  21.201  1.00  0.00    -0.346 N 
ATOM      8  H2  UNL     1      17.139  63.919  20.977  1.00  0.00     0.163 HD
HETATM    9  C14 UNL     1      16.059  65.392  20.096  1.00  0.00     0.241 C 
HETATM   10  O2  UNL     1      15.414  64.682  19.235  1.00  0.00    -0.271 OA
HETATM   11  C15 UNL     1      16.177  66.829  19.744  1.00  0.00     0.182 C 
HETATM   12  N3  UNL     1      14.970  67.395  19.157  1.00  0.00    -0.341 N 
HETATM   13  C19 UNL     1      14.345  66.682  18.024  1.00  0.00     0.153 C 
HETATM   14  C20 UNL     1      14.340  68.596  19.549  1.00  0.00     0.243 C 
HETATM   15  O3  UNL     1      14.176  69.477  18.612  1.00  0.00    -0.271 OA
HETATM   16  C21 UNL     1      13.834  68.991  20.889  1.00  0.00     0.181 C 
HETATM   17  N4  UNL     1      12.370  69.129  20.850  1.00  0.00    -0.330 N 
ATOM     18  H4  UNL     1      11.998  70.000  20.472  1.00  0.00     0.165 HD
HETATM   19  C25 UNL     1      11.440  68.171  21.286  1.00  0.00     0.316 C 
HETATM   20  O4  UNL     1      10.582  67.759  20.414  1.00  0.00    -0.247 OA
HETATM   21  N5  UNL     1      11.332  67.604  22.574  1.00  0.00    -0.343 N 
ATOM     22  H5  UNL     1      11.252  66.588  22.618  1.00  0.00     0.164 HD
HETATM   23  C26 UNL     1      11.321  68.301  23.828  1.00  0.00     0.126 C 
HETATM   24  C27 UNL     1      10.695  67.435  24.889  1.00  0.00     0.039 C 
HETATM   25  C28 UNL     1      11.559  66.243  25.242  1.00  0.00     0.124 C 
HETATM   26  N6  UNL     1      12.510  66.598  26.259  1.00  0.00    -0.359 N 
ATOM     27  H6  UNL     1      12.227  67.328  26.913  1.00  0.00     0.162 HD
HETATM   28  C29 UNL     1      13.793  66.044  26.448  1.00  0.00     0.240 C 
HETATM   29  O5  UNL     1      14.340  66.241  27.589  1.00  0.00    -0.271 OA
ENDROOT
BRANCH   1  30
HETATM   30  C6  UNL     1      14.033  63.854  25.450  1.00  0.00     0.035 C 
BRANCH  30  31
HETATM   31  C5  UNL     1      14.860  63.045  26.425  1.00  0.00     0.002 C 
BRANCH  31  32
HETATM   32  C4  UNL     1      14.017  62.519  27.567  1.00  0.00     0.000 C 
BRANCH  32  33
HETATM   33  C3  UNL     1      12.563  62.455  27.244  1.00  0.00    -0.000 C 
BRANCH  33  34
HETATM   34  C2  UNL     1      11.891  61.701  28.398  1.00  0.00    -0.005 C 
HETATM   35  C1  UNL     1      10.649  60.979  27.922  1.00  0.00     0.005 C 
ENDBRANCH  33  34
ENDBRANCH  32  33
ENDBRANCH  31  32
ENDBRANCH  30  31
ENDBRANCH   1  30
BRANCH   6  36
HETATM   36  C10 UNL     1      17.440  65.800  23.204  1.00  0.00     0.038 C 
BRANCH  36  37
HETATM   37  C11 UNL     1      18.315  64.959  24.111  1.00  0.00    -0.020 C 
HETATM   38  C12 UNL     1      18.191  65.502  25.518  1.00  0.00     0.009 C 
HETATM   39  C13 UNL     1      17.713  63.543  24.160  1.00  0.00     0.009 C 
ENDBRANCH  36  37
ENDBRANCH   6  36
BRANCH  11  40
HETATM   40  C16 UNL     1      17.270  67.017  18.697  1.00  0.00     0.009 C 
HETATM   41  C17 UNL     1      18.478  66.183  18.930  1.00  0.00     0.012 C 
HETATM   42  C18 UNL     1      17.652  68.461  18.647  1.00  0.00     0.012 C 
ENDBRANCH  11  40
BRANCH  16  43
HETATM   43  C22 UNL     1      14.379  70.301  21.386  1.00  0.00     0.009 C 
HETATM   44  C23 UNL     1      15.837  70.351  21.645  1.00  0.00     0.012 C 
HETATM   45  C24 UNL     1      13.618  70.887  22.524  1.00  0.00     0.012 C 
ENDBRANCH  16  43
TORSDOF 9
ENDMDL
MODEL 2
REMARK VINA RESULT: -7.328328804      2.955      5.261
REMARK  9 active torsions:
REMARK  status: ('A' for Active; 'I' for Inactive)
REMARK    1  A    between atoms: C2_2  and  C3_3 
REMARK    2  A    between atoms: C3_3  and  C4_4 
REMARK    3  A    between atoms: C4_4  and  C5_5 
REMARK    4  A    between atoms: C5_5  and  C6_6 
REMARK    5  A    between atoms: C6_6  and  C7_7 
REMARK    6  A    between atoms: C9_12  and  C10_13 
REMARK    7  A    between atoms: C10_13  and  C11_14 
REMARK    8  A    between atoms: C15_21  and  C16_22 
REMARK    9  A    between atoms: C21_29  and  C22_30 
ROOT
HETATM    1  C7  UNL     1      11.622  64.884  27.819  1.00  0.00     0.176 C 
HETATM    2  N1  UNL     1      12.828  65.035  27.034  1.00  0.00    -0.346 N 
ATOM      3  H1  UNL     1      13.013  65.978  26.693  1.00  0.00     0.163 HD
HETATM    4  C8  UNL     1      13.770  64.080  26.679  1.00  0.00     0.241 C 
HETATM    5  O1  UNL     1      14.004  63.932  25.416  1.00  0.00    -0.271 OA
HETATM    6  C9  UNL     1      14.535  63.209  27.618  1.00  0.00     0.177 C 
HETATM    7  N2  UNL     1      15.584  62.485  26.943  1.00  0.00    -0.346 N 
ATOM      8  H2  UNL     1      15.743  61.543  27.304  1.00  0.00     0.163 HD
HETATM    9  C14 UNL     1      16.414  62.838  25.894  1.00  0.00     0.241 C 
HETATM   10  O2  UNL     1      16.403  62.050  24.875  1.00  0.00    -0.271 OA
HETATM   11  C15 UNL     1      17.328  64.000  25.765  1.00  0.00     0.182 C 
HETATM   12  N3  UNL     1      17.339  64.598  24.437  1.00  0.00    -0.341 N 
HETATM   13  C19 UNL     1      17.538  63.709  23.273  1.00  0.00     0.153 C 
HETATM   14  C20 UNL     1      17.206  65.973  24.143  1.00  0.00     0.243 C 
HETATM   15  O3  UNL     1      18.168  66.496  23.448  1.00  0.00    -0.271 OA
HETATM   16  C21 UNL     1      16.113  66.906  24.519  1.00  0.00     0.181 C 
HETATM   17  N4  UNL     1      15.407  67.361  23.311  1.00  0.00    -0.330 N 
ATOM     18  H4  UNL     1      15.842  68.113  22.777  1.00  0.00     0.165 HD
HETATM   19  C25 UNL     1      14.189  66.854  22.828  1.00  0.00     0.316 C 
HETATM   20  O4  UNL     1      14.195  66.383  21.627  1.00  0.00    -0.247 OA
HETATM   21  N5  UNL     1      12.952  66.800  23.506  1.00  0.00    -0.343 N 
ATOM     22  H5  UNL     1      12.459  65.908  23.480  1.00  0.00     0.164 HD
HETATM   23  C26 UNL     1      12.314  67.863  24.227  1.00  0.00     0.126 C 
HETATM   24  C27 UNL     1      10.840  67.581  24.356  1.00  0.00     0.039 C 
HETATM   25  C28 UNL     1      10.558  66.413  25.277  1.00  0.00     0.124 C 
HETATM   26  N6  UNL     1      10.472  66.860  26.640  1.00  0.00    -0.359 N 
ATOM     27  H6  UNL     1      10.140  67.813  26.788  1.00  0.00     0.162 HD
HETATM   28  C29 UNL     1      10.798  66.120  27.795  1.00  0.00     0.240 C 
HETATM   29  O5  UNL     1      10.339  66.559  28.907  1.00  0.00    -0.271 OA
ENDROOT
BRANCH   1  30
HETATM   30  C6  UNL     1      10.758  63.729  27.428  1.00  0.00     0.035 C 
BRANCH  30  31
HETATM   31  C5  UNL     1      10.879  62.655  28.487  1.00  0.00     0.002 C 
BRANCH  31  32
HETATM   32  C4  UNL     1      11.110  61.291  27.871  1.00  0.00     0.000 C 
BRANCH  32  33
HETATM   33  C3  UNL     1      10.191  60.244  28.400  1.00  0.00    -0.000 C 
BRANCH  33  34
HETATM   34  C2  UNL     1      10.316  60.283  29.929  1.00  0.00    -0.005 C 
HETATM   35  C1  UNL     1       9.261  59.415  30.580  1.00  0.00     0.005 C 
ENDBRANCH  33  34
ENDBRANCH  32  33
ENDBRANCH  31  32
ENDBRANCH  30  31
ENDBRANCH   1  30
BRANCH   6  36
HETATM   36  C10 UNL     1      15.049  63.943  28.836  1.00  0.00     0.038 C 
BRANCH  36  37
HETATM   37  C11 UNL     1      14.194  63.587  30.035  1.00  0.00    -0.020 C 
HETATM   38  C12 UNL     1      14.143  62.078  30.144  1.00  0.00     0.009 C 
HETATM   39  C13 UNL     1      14.935  64.068  31.296  1.00  0.00     0.009 C 
ENDBRANCH  36  37
ENDBRANCH   6  36
BRANCH  11  40
HETATM   40  C16 UNL     1      18.764  63.560  26.029  1.00  0.00     0.009 C 
HETATM   41  C17 UNL     1      18.916  62.689  27.224  1.00  0.00     0.012 C 
HETATM   42  C18 UNL     1      19.625  64.773  26.172  1.00  0.00     0.012 C 
ENDBRANCH  11  40
BRANCH  16  43
HETATM   43  C22 UNL     1      16.582  68.141  25.236  1.00  0.00     0.009 C 
HETATM   44  C23 UNL     1      17.224  67.931  26.555  1.00  0.00     0.012 C 
HETATM   45  C24 UNL     1      15.569  69.230  25.306  1.00  0.00     0.012 C 
ENDBRANCH  16  43
TORSDOF 9
ENDMDL
MODEL 3
REMARK VINA RESULT: -7.266644937      2.139      5.555
REMARK  9 active torsions:
REMARK  status: ('A' for Active; 'I' for Inactive)
REMARK    1  A    between atoms: C2_2  and  C3_3 
REMARK    2  A    between atoms: C3_3  and  C4_4 
REMARK    3  A    between atoms: C4_4  and  C5_5 
REMARK    4  A    between atoms: C5_5  and  C6_6 
REMARK    5  A    between atoms: C6_6  and  C7_7 
REMARK    6  A    between atoms: C9_12  and  C10_13 
REMARK    7  A    between atoms: C10_13  and  C11_14 
REMARK    8  A    between atoms: C15_21  and  C16_22 
REMARK    9  A    between atoms: C21_29  and  C22_30 
ROOT
HETATM    1  C7  UNL     1      14.330  64.847  24.169  1.00  0.00     0.176 C 
HETATM    2  N1  UNL     1      14.379  65.901  23.179  1.00  0.00    -0.346 N 
ATOM      3  H1  UNL     1      14.665  65.609  22.244  1.00  0.00     0.163 HD
HETATM    4  C8  UNL     1      14.093  67.251  23.318  1.00  0.00     0.241 C 
HETATM    5  O1  UNL     1      15.025  68.083  22.986  1.00  0.00    -0.271 OA
HETATM    6  C9  UNL     1      12.812  67.830  23.817  1.00  0.00     0.177 C 
HETATM    7  N2  UNL     1      12.763  69.261  23.634  1.00  0.00    -0.346 N 
ATOM      8  H2  UNL     1      12.281  69.763  24.380  1.00  0.00     0.163 HD
HETATM    9  C14 UNL     1      13.252  70.073  22.627  1.00  0.00     0.241 C 
HETATM   10  O2  UNL     1      14.043  71.020  22.999  1.00  0.00    -0.271 OA
HETATM   11  C15 UNL     1      12.998  70.020  21.166  1.00  0.00     0.182 C 
HETATM   12  N3  UNL     1      14.176  70.287  20.351  1.00  0.00    -0.341 N 
HETATM   13  C19 UNL     1      14.969  71.499  20.648  1.00  0.00     0.153 C 
HETATM   14  C20 UNL     1      14.629  69.509  19.265  1.00  0.00     0.243 C 
HETATM   15  O3  UNL     1      14.766  70.138  18.139  1.00  0.00    -0.271 OA
HETATM   16  C21 UNL     1      14.975  68.064  19.232  1.00  0.00     0.181 C 
HETATM   17  N4  UNL     1      16.412  67.901  18.961  1.00  0.00    -0.330 N 
ATOM     18  H4  UNL     1      16.711  67.977  17.989  1.00  0.00     0.165 HD
HETATM   19  C25 UNL     1      17.408  67.649  19.919  1.00  0.00     0.316 C 
HETATM   20  O4  UNL     1      18.375  68.500  19.985  1.00  0.00    -0.247 OA
HETATM   21  N5  UNL     1      17.476  66.567  20.823  1.00  0.00    -0.343 N 
ATOM     22  H5  UNL     1      17.668  66.800  21.797  1.00  0.00     0.164 HD
HETATM   23  C26 UNL     1      17.304  65.175  20.521  1.00  0.00     0.126 C 
HETATM   24  C27 UNL     1      17.937  64.336  21.599  1.00  0.00     0.039 C 
HETATM   25  C28 UNL     1      17.191  64.428  22.913  1.00  0.00     0.124 C 
HETATM   26  N6  UNL     1      16.125  63.464  22.951  1.00  0.00    -0.359 N 
ATOM     27  H6  UNL     1      16.269  62.605  22.420  1.00  0.00     0.162 HD
HETATM   28  C29 UNL     1      14.904  63.580  23.646  1.00  0.00     0.240 C 
HETATM   29  O5  UNL     1      14.247  62.498  23.836  1.00  0.00    -0.271 OA
ENDROOT
BRANCH   1  30
HETATM   30  C6  UNL     1      15.000  65.171  25.465  1.00  0.00     0.035 C 
BRANCH  30  31
HETATM   31  C5  UNL     1      14.090  64.748  26.598  1.00  0.00     0.002 C 
BRANCH  31  32
HETATM   32  C4  UNL     1      12.630  64.910  26.229  1.00  0.00     0.000 C 
BRANCH  32  33
HETATM   33  C3  UNL     1      11.723  64.027  27.015  1.00  0.00    -0.000 C 
BRANCH  33  34
HETATM   34  C2  UNL     1      12.389  62.646  27.062  1.00  0.00    -0.005 C 
HETATM   35  C1  UNL     1      11.459  61.618  27.669  1.00  0.00     0.005 C 
ENDBRANCH  33  34
ENDBRANCH  32  33
ENDBRANCH  31  32
ENDBRANCH  30  31
ENDBRANCH   1  30
BRANCH   6  36
HETATM   36  C10 UNL     1      11.585  67.147  23.258  1.00  0.00     0.038 C 
BRANCH  36  37
HETATM   37  C11 UNL     1      10.347  67.908  23.686  1.00  0.00    -0.020 C 
HETATM   38  C12 UNL     1       9.487  68.131  22.459  1.00  0.00     0.009 C 
HETATM   39  C13 UNL     1       9.525  66.987  24.605  1.00  0.00     0.009 C 
ENDBRANCH  36  37
ENDBRANCH   6  36
BRANCH  11  40
HETATM   40  C16 UNL     1      11.979  71.087  20.779  1.00  0.00     0.009 C 
HETATM   41  C17 UNL     1      10.990  71.390  21.846  1.00  0.00     0.012 C 
HETATM   42  C18 UNL     1      11.270  70.654  19.537  1.00  0.00     0.012 C 
ENDBRANCH  11  40
BRANCH  16  43
HETATM   43  C22 UNL     1      14.245  67.284  18.174  1.00  0.00     0.009 C 
HETATM   44  C23 UNL     1      12.833  67.666  17.933  1.00  0.00     0.012 C 
HETATM   45  C24 UNL     1      14.380  65.807  18.301  1.00  0.00     0.012 C 
ENDBRANCH  16  43
TORSDOF 9
ENDMDL
MODEL 4
REMARK VINA RESULT: -7.061073589      2.437      8.155
REMARK  9 active torsions:
REMARK  status: ('A' for Active; 'I' for Inactive)
REMARK    1  A    between atoms: C2_2  and  C3_3 
REMARK    2  A    between atoms: C3_3  and  C4_4 
REMARK    3  A    between atoms: C4_4  and  C5_5 
REMARK    4  A    between atoms: C5_5  and  C6_6 
REMARK    5  A    between atoms: C6_6  and  C7_7 
REMARK    6  A    between atoms: C9_12  and  C10_13 
REMARK    7  A    between atoms: C10_13  and  C11_14 
REMARK    8  A    between atoms: C15_21  and  C16_22 
REMARK    9  A    between atoms: C21_29  and  C22_30 
ROOT
HETATM    1  C7  UNL     1      14.187  67.464  21.353  1.00  0.00     0.176 C 
HETATM    2  N1  UNL     1      14.719  66.664  22.435  1.00  0.00    -0.346 N 
ATOM      3  H1  UNL     1      15.717  66.460  22.378  1.00  0.00     0.163 HD
HETATM    4  C8  UNL     1      14.067  66.134  23.538  1.00  0.00     0.241 C 
HETATM    5  O1  UNL     1      14.150  64.855  23.708  1.00  0.00    -0.271 OA
HETATM    6  C9  UNL     1      13.278  66.902  24.544  1.00  0.00     0.177 C 
HETATM    7  N2  UNL     1      12.915  66.087  25.678  1.00  0.00    -0.346 N 
ATOM      8  H2  UNL     1      11.996  66.297  26.069  1.00  0.00     0.163 HD
HETATM    9  C14 UNL     1      13.590  65.071  26.329  1.00  0.00     0.241 C 
HETATM   10  O2  UNL     1      12.967  63.946  26.422  1.00  0.00    -0.271 OA
HETATM   11  C15 UNL     1      14.938  65.081  26.948  1.00  0.00     0.182 C 
HETATM   12  N3  UNL     1      15.698  63.857  26.729  1.00  0.00    -0.341 N 
HETATM   13  C19 UNL     1      15.047  62.567  27.038  1.00  0.00     0.153 C 
HETATM   14  C20 UNL     1      17.031  63.776  26.271  1.00  0.00     0.243 C 
HETATM   15  O3  UNL     1      17.852  63.130  27.039  1.00  0.00    -0.271 OA
HETATM   16  C21 UNL     1      17.625  64.329  25.027  1.00  0.00     0.181 C 
HETATM   17  N4  UNL     1      18.064  63.231  24.152  1.00  0.00    -0.330 N 
ATOM     18  H4  UNL     1      18.962  62.798  24.368  1.00  0.00     0.165 HD
HETATM   19  C25 UNL     1      17.359  62.726  23.047  1.00  0.00     0.316 C 
HETATM   20  O4  UNL     1      17.070  61.468  23.072  1.00  0.00    -0.247 OA
HETATM   21  N5  UNL     1      16.928  63.435  21.906  1.00  0.00    -0.343 N 
ATOM     22  H5  UNL     1      15.958  63.296  21.624  1.00  0.00     0.164 HD
HETATM   23  C26 UNL     1      17.706  64.332  21.099  1.00  0.00     0.126 C 
HETATM   24  C27 UNL     1      17.075  64.475  19.740  1.00  0.00     0.039 C 
HETATM   25  C28 UNL     1      15.759  65.221  19.793  1.00  0.00     0.124 C 
HETATM   26  N6  UNL     1      15.984  66.638  19.708  1.00  0.00    -0.359 N 
ATOM     27  H6  UNL     1      16.806  66.939  19.182  1.00  0.00     0.162 HD
HETATM   28  C29 UNL     1      15.190  67.656  20.273  1.00  0.00     0.240 C 
HETATM   29  O5  UNL     1      15.356  68.838  19.809  1.00  0.00    -0.271 OA
ENDROOT
BRANCH   1  30
HETATM   30  C6  UNL     1      12.928  66.939  20.743  1.00  0.00     0.035 C 
BRANCH  30  31
HETATM   31  C5  UNL     1      11.825  67.951  20.966  1.00  0.00     0.002 C 
BRANCH  31  32
HETATM   32  C4  UNL     1      11.127  68.307  19.671  1.00  0.00     0.000 C 
BRANCH  32  33
HETATM   33  C3  UNL     1      11.973  69.118  18.749  1.00  0.00    -0.000 C 
BRANCH  33  34
HETATM   34  C2  UNL     1      12.072  68.327  17.438  1.00  0.00    -0.005 C 
HETATM   35  C1  UNL     1      13.494  68.315  16.920  1.00  0.00     0.005 C 
ENDBRANCH  33  34
ENDBRANCH  32  33
ENDBRANCH  31  32
ENDBRANCH  30  31
ENDBRANCH   1  30
BRANCH   6  36
HETATM   36  C10 UNL     1      13.937  68.195  24.967  1.00  0.00     0.038 C 
BRANCH  36  37
HETATM   37  C11 UNL     1      13.422  68.599  26.333  1.00  0.00    -0.020 C 
HETATM   38  C12 UNL     1      14.609  69.015  27.177  1.00  0.00     0.009 C 
HETATM   39  C13 UNL     1      12.574  69.872  26.156  1.00  0.00     0.009 C 
ENDBRANCH  36  37
ENDBRANCH   6  36
BRANCH  11  40
HETATM   40  C16 UNL     1      14.812  65.220  28.461  1.00  0.00     0.009 C 
HETATM   41  C17 UNL     1      13.565  65.899  28.901  1.00  0.00     0.012 C 
HETATM   42  C18 UNL     1      16.003  65.958  28.983  1.00  0.00     0.012 C 
ENDBRANCH  11  40
BRANCH  16  43
HETATM   43  C22 UNL     1      18.827  65.203  25.259  1.00  0.00     0.009 C 
HETATM   44  C23 UNL     1      20.085  64.508  25.621  1.00  0.00     0.012 C 
HETATM   45  C24 UNL     1      18.578  66.356  26.167  1.00  0.00     0.012 C 
ENDBRANCH  16  43
TORSDOF 9
ENDMDL
MODEL 5
REMARK VINA RESULT: -6.921498511      1.621      2.720
REMARK  9 active torsions:
REMARK  status: ('A' for Active; 'I' for Inactive)
REMARK    1  A    between atoms: C2_2  and  C3_3 
REMARK    2  A    between atoms: C3_3  and  C4_4 
REMARK    3  A    between atoms: C4_4  and  C5_5 
REMARK    4  A    between atoms: C5_5  and  C6_6 
REMARK    5  A    between atoms: C6_6  and  C7_7 
REMARK    6  A    between atoms: C9_12  and  C10_13 
REMARK    7  A    between atoms: C10_13  and  C11_14 
REMARK    8  A    between atoms: C15_21  and  C16_22 
REMARK    9  A    between atoms: C21_29  and  C22_30 
ROOT
HETATM    1  C7  UNL     1      15.515  64.549  26.193  1.00  0.00     0.176 C 
HETATM    2  N1  UNL     1      15.277  65.167  24.906  1.00  0.00    -0.346 N 
ATOM      3  H1  UNL     1      14.701  66.008  24.924  1.00  0.00     0.163 HD
HETATM    4  C8  UNL     1      15.722  64.779  23.651  1.00  0.00     0.241 C 
HETATM    5  O1  UNL     1      14.819  64.577  22.748  1.00  0.00    -0.271 OA
HETATM    6  C9  UNL     1      17.143  64.571  23.248  1.00  0.00     0.177 C 
HETATM    7  N2  UNL     1      17.275  64.383  21.823  1.00  0.00    -0.346 N 
ATOM      8  H2  UNL     1      18.002  63.721  21.553  1.00  0.00     0.163 HD
HETATM    9  C14 UNL     1      16.591  64.942  20.758  1.00  0.00     0.241 C 
HETATM   10  O2  UNL     1      16.042  64.110  19.941  1.00  0.00    -0.271 OA
HETATM   11  C15 UNL     1      16.395  66.370  20.409  1.00  0.00     0.182 C 
HETATM   12  N3  UNL     1      15.061  66.679  19.912  1.00  0.00    -0.341 N 
HETATM   13  C19 UNL     1      14.513  65.847  18.820  1.00  0.00     0.153 C 
HETATM   14  C20 UNL     1      14.233  67.733  20.354  1.00  0.00     0.243 C 
HETATM   15  O3  UNL     1      13.831  68.557  19.437  1.00  0.00    -0.271 OA
HETATM   16  C21 UNL     1      13.754  68.030  21.729  1.00  0.00     0.181 C 
HETATM   17  N4  UNL     1      12.293  67.873  21.793  1.00  0.00    -0.330 N 
ATOM     18  H4  UNL     1      11.728  68.649  21.448  1.00  0.00     0.165 HD
HETATM   19  C25 UNL     1      11.605  66.752  22.288  1.00  0.00     0.316 C 
HETATM   20  O4  UNL     1      10.788  66.170  21.476  1.00  0.00    -0.247 OA
HETATM   21  N5  UNL     1      11.703  66.184  23.577  1.00  0.00    -0.343 N 
ATOM     22  H5  UNL     1      11.831  65.173  23.619  1.00  0.00     0.164 HD
HETATM   23  C26 UNL     1      11.641  66.875  24.833  1.00  0.00     0.126 C 
HETATM   24  C27 UNL     1      11.277  65.910  25.930  1.00  0.00     0.039 C 
HETATM   25  C28 UNL     1      12.384  64.917  26.213  1.00  0.00     0.124 C 
HETATM   26  N6  UNL     1      13.314  65.463  27.163  1.00  0.00    -0.359 N 
ATOM     27  H6  UNL     1      12.937  66.126  27.840  1.00  0.00     0.162 HD
HETATM   28  C29 UNL     1      14.692  65.177  27.259  1.00  0.00     0.240 C 
HETATM   29  O5  UNL     1      15.267  65.489  28.359  1.00  0.00    -0.271 OA
ENDROOT
BRANCH   1  30
HETATM   30  C6  UNL     1      15.293  63.072  26.231  1.00  0.00     0.035 C 
BRANCH  30  31
HETATM   31  C5  UNL     1      16.639  62.384  26.317  1.00  0.00     0.002 C 
BRANCH  31  32
HETATM   32  C4  UNL     1      16.981  61.670  25.026  1.00  0.00     0.000 C 
BRANCH  32  33
HETATM   33  C3  UNL     1      18.361  61.107  25.014  1.00  0.00    -0.000 C 
BRANCH  33  34
HETATM   34  C2  UNL     1      18.462  60.226  23.762  1.00  0.00    -0.005 C 
HETATM   35  C1  UNL     1      19.185  58.932  24.069  1.00  0.00     0.005 C 
ENDBRANCH  33  34
ENDBRANCH  32  33
ENDBRANCH  31  32
ENDBRANCH  30  31
ENDBRANCH   1  30
BRANCH   6  36
HETATM   36  C10 UNL     1      18.078  65.641  23.764  1.00  0.00     0.038 C 
BRANCH  36  37
HETATM   37  C11 UNL     1      18.450  65.334  25.200  1.00  0.00    -0.020 C 
HETATM   38  C12 UNL     1      19.718  64.506  25.189  1.00  0.00     0.009 C 
HETATM   39  C13 UNL     1      18.829  66.662  25.880  1.00  0.00     0.009 C 
ENDBRANCH  36  37
ENDBRANCH   6  36
BRANCH  11  40
HETATM   40  C16 UNL     1      17.352  66.764  19.288  1.00  0.00     0.009 C 
HETATM   41  C17 UNL     1      18.469  65.805  19.085  1.00  0.00     0.012 C 
HETATM   42  C18 UNL     1      17.898  68.127  19.572  1.00  0.00     0.012 C 
ENDBRANCH  11  40
BRANCH  16  43
HETATM   43  C22 UNL     1      14.059  69.426  22.195  1.00  0.00     0.009 C 
HETATM   44  C23 UNL     1      15.493  69.774  22.332  1.00  0.00     0.012 C 
HETATM   45  C24 UNL     1      13.293  69.850  23.399  1.00  0.00     0.012 C 
ENDBRANCH  16  43
TORSDOF 9
ENDMDL
