MODEL 1
REMARK VINA RESULT: -9.172416028      0.000      0.000
REMARK  12 active torsions:
REMARK  status: ('A' for Active; 'I' for Inactive)
REMARK       I    between atoms: N1_2  and  C2_4 
REMARK       I    between atoms: C2_4  and  N3_11 
REMARK    1  A    between atoms: N2_5  and  C3_7 
REMARK    2  A    between atoms: C10_15  and  C11_16 
REMARK    3  A    between atoms: C11_16  and  O1_17 
REMARK    4  A    between atoms: C11_16  and  N4_19 
REMARK    5  A    between atoms: N4_19  and  C12_21 
REMARK    6  A    between atoms: C12_21  and  C13_22 
REMARK    7  A    between atoms: C12_21  and  C16_27 
REMARK    8  A    between atoms: C13_22  and  C14_23 
REMARK    9  A    between atoms: C14_23  and  C15_24 
REMARK       I    between atoms: C16_27  and  N5_29 
REMARK   10  A    between atoms: N5_29  and  C17_31 
REMARK   11  A    between atoms: C17_31  and  C18_32 
REMARK       I    between atoms: C18_32  and  N6_34 
REMARK   12  A    between atoms: N6_34  and  C19_36 
ROOT
HETATM    1  C12 UNL     1      18.962  62.137  24.846  1.00  0.00     0.176 C 
ENDROOT
BRANCH   1   2
HETATM    2  N4  UNL     1      18.320  62.438  23.504  1.00  0.00    -0.359 N 
ATOM      3  H4  UNL     1      18.898  62.558  22.671  1.00  0.00     0.162 HD
BRANCH   2   4
HETATM    4  C11 UNL     1      16.940  62.549  23.422  1.00  0.00     0.136 C 
BRANCH   4   5
HETATM    5  C10 UNL     1      16.113  63.688  23.536  1.00  0.00     0.176 C 
HETATM    6  N3  UNL     1      15.833  64.672  22.596  1.00  0.00    -0.206 N 
HETATM    7  C2  UNL     1      15.908  65.014  21.220  1.00  0.00     0.672 C 
HETATM    8  C7  UNL     1      15.158  65.691  23.499  1.00  0.00     0.142 C 
HETATM    9  N1  UNL     1      16.662  64.258  20.286  1.00  0.00    -0.231 N 
HETATM   10  N2  UNL     1      15.279  66.015  20.766  1.00  0.00    -0.218 N 
HETATM   11  C1  UNL     1      17.833  64.738  19.578  1.00  0.00     0.165 C 
ATOM     12  H1  UNL     1      16.357  63.302  20.098  1.00  0.00     0.177 HD
ATOM     13  H2  UNL     1      14.794  66.449  21.552  1.00  0.00     0.178 HD
HETATM   14  C8  UNL     1      14.093  64.751  24.080  1.00  0.00     0.023 C 
HETATM   15  C9  UNL     1      14.675  63.349  24.010  1.00  0.00     0.036 C 
BRANCH  10  16
HETATM   16  C3  UNL     1      14.985  66.745  19.663  1.00  0.00     0.036 C 
HETATM   17  C4  UNL     1      15.992  67.748  19.145  1.00  0.00     0.038 C 
HETATM   18  C5  UNL     1      13.738  67.629  20.027  1.00  0.00     0.038 C 
HETATM   19  C6  UNL     1      14.442  65.864  18.531  1.00  0.00     0.038 C 
ENDBRANCH  10  16
ENDBRANCH   4   5
BRANCH   4  20
HETATM   20  O1  UNL     1      16.324  61.418  23.216  1.00  0.00    -0.348 OA
ATOM     21  H1  UNL     1      16.808  60.635  23.451  1.00  0.00     0.219 HD
ENDBRANCH   4  20
ENDBRANCH   2   4
ENDBRANCH   1   2
BRANCH   1  22
HETATM   22  C13 UNL     1      18.487  60.737  25.141  1.00  0.00     0.045 C 
BRANCH  22  23
HETATM   23  C14 UNL     1      19.334  59.615  24.700  1.00  0.00     0.116 C 
BRANCH  23  24
HETATM   24  C15 UNL     1      18.640  58.780  23.704  1.00  0.00     0.172 C 
HETATM   25  O2  UNL     1      18.482  57.548  23.787  1.00  0.00    -0.648 OA
HETATM   26  O3  UNL     1      18.112  59.400  22.567  1.00  0.00    -0.648 OA
ENDBRANCH  23  24
ENDBRANCH  22  23
ENDBRANCH   1  22
BRANCH   1  27
HETATM   27  C16 UNL     1      18.446  63.146  25.789  1.00  0.00     0.240 C 
HETATM   28  O4  UNL     1      18.812  64.343  25.664  1.00  0.00    -0.271 OA
HETATM   29  N5  UNL     1      17.555  62.880  26.856  1.00  0.00    -0.351 N 
ATOM     30  H5  UNL     1      17.248  61.917  26.989  1.00  0.00     0.163 HD
BRANCH  29  31
HETATM   31  C17 UNL     1      17.054  63.865  27.760  1.00  0.00     0.225 C 
BRANCH  31  32
HETATM   32  C18 UNL     1      15.577  63.980  27.799  1.00  0.00     0.235 C 
HETATM   33  O5  UNL     1      14.941  64.949  27.345  1.00  0.00    -0.272 OA
HETATM   34  N6  UNL     1      14.863  62.900  28.396  1.00  0.00    -0.350 N 
ATOM     35  H6  UNL     1      15.390  62.111  28.773  1.00  0.00     0.163 HD
BRANCH  34  36
HETATM   36  C19 UNL     1      13.430  62.882  28.486  1.00  0.00     0.034 C 
HETATM   37  C20 UNL     1      12.848  64.173  28.946  1.00  0.00     0.035 C 
HETATM   38  C21 UNL     1      11.345  64.028  29.114  1.00  0.00    -0.012 C 
HETATM   39  C22 UNL     1      10.729  63.699  27.769  1.00  0.00     0.009 C 
HETATM   40  C26 UNL     1      11.090  62.966  30.145  1.00  0.00     0.009 C 
HETATM   41  C23 UNL     1      11.324  62.402  27.313  1.00  0.00    -0.012 C 
HETATM   42  C24 UNL     1      10.983  61.309  28.302  1.00  0.00     0.009 C 
HETATM   43  C28 UNL     1      12.813  62.472  27.168  1.00  0.00     0.035 C 
HETATM   44  C25 UNL     1      11.613  61.633  29.621  1.00  0.00    -0.012 C 
HETATM   45  C27 UNL     1      13.089  61.758  29.480  1.00  0.00     0.035 C 
ENDBRANCH  34  36
ENDBRANCH  31  32
ENDBRANCH  29  31
ENDBRANCH   1  27
TORSDOF 12
ENDMDL
MODEL 2
REMARK VINA RESULT: -9.152804020      0.917      1.461
REMARK  12 active torsions:
REMARK  status: ('A' for Active; 'I' for Inactive)
REMARK       I    between atoms: N1_2  and  C2_4 
REMARK       I    between atoms: C2_4  and  N3_11 
REMARK    1  A    between atoms: N2_5  and  C3_7 
REMARK    2  A    between atoms: C10_15  and  C11_16 
REMARK    3  A    between atoms: C11_16  and  O1_17 
REMARK    4  A    between atoms: C11_16  and  N4_19 
REMARK    5  A    between atoms: N4_19  and  C12_21 
REMARK    6  A    between atoms: C12_21  and  C13_22 
REMARK    7  A    between atoms: C12_21  and  C16_27 
REMARK    8  A    between atoms: C13_22  and  C14_23 
REMARK    9  A    between atoms: C14_23  and  C15_24 
REMARK       I    between atoms: C16_27  and  N5_29 
REMARK   10  A    between atoms: N5_29  and  C17_31 
REMARK   11  A    between atoms: C17_31  and  C18_32 
REMARK       I    between atoms: C18_32  and  N6_34 
REMARK   12  A    between atoms: N6_34  and  C19_36 
ROOT
HETATM    1  C12 UNL     1      18.362  62.674  25.160  1.00  0.00     0.176 C 
ENDROOT
BRANCH   1   2
HETATM    2  N4  UNL     1      17.060  62.063  24.675  1.00  0.00    -0.359 N 
ATOM      3  H4  UNL     1      16.712  61.195  25.084  1.00  0.00     0.162 HD
BRANCH   2   4
HETATM    4  C11 UNL     1      16.348  62.696  23.667  1.00  0.00     0.136 C 
BRANCH   4   5
HETATM    5  C10 UNL     1      15.750  63.976  23.646  1.00  0.00     0.176 C 
HETATM    6  N3  UNL     1      15.679  64.900  22.610  1.00  0.00    -0.206 N 
HETATM    7  C2  UNL     1      15.843  65.086  21.212  1.00  0.00     0.672 C 
HETATM    8  C7  UNL     1      15.195  66.110  23.390  1.00  0.00     0.142 C 
HETATM    9  N1  UNL     1      16.456  64.114  20.379  1.00  0.00    -0.231 N 
HETATM   10  N2  UNL     1      15.424  66.138  20.645  1.00  0.00    -0.218 N 
HETATM   11  C1  UNL     1      17.709  64.295  19.672  1.00  0.00     0.165 C 
ATOM     12  H1  UNL     1      15.978  63.219  20.269  1.00  0.00     0.177 HD
ATOM     13  H2  UNL     1      15.017  66.730  21.370  1.00  0.00     0.178 HD
HETATM   14  C8  UNL     1      13.959  65.447  24.016  1.00  0.00     0.023 C 
HETATM   15  C9  UNL     1      14.266  63.961  24.097  1.00  0.00     0.036 C 
BRANCH  10  16
HETATM   16  C3  UNL     1      15.295  66.800  19.470  1.00  0.00     0.036 C 
HETATM   17  C4  UNL     1      16.501  67.479  18.862  1.00  0.00     0.038 C 
HETATM   18  C5  UNL     1      14.294  67.983  19.727  1.00  0.00     0.038 C 
HETATM   19  C6  UNL     1      14.545  65.958  18.428  1.00  0.00     0.038 C 
ENDBRANCH  10  16
ENDBRANCH   4   5
BRANCH   4  20
HETATM   20  O1  UNL     1      16.209  61.987  22.582  1.00  0.00    -0.348 OA
ATOM     21  H1  UNL     1      15.766  61.153  22.686  1.00  0.00     0.219 HD
ENDBRANCH   4  20
ENDBRANCH   2   4
ENDBRANCH   1   2
BRANCH   1  22
HETATM   22  C13 UNL     1      19.350  61.551  24.979  1.00  0.00     0.045 C 
BRANCH  22  23
HETATM   23  C14 UNL     1      18.834  60.170  24.991  1.00  0.00     0.116 C 
BRANCH  23  24
HETATM   24  C15 UNL     1      18.998  59.526  23.676  1.00  0.00     0.172 C 
HETATM   25  O2  UNL     1      19.584  58.447  23.475  1.00  0.00    -0.648 OA
HETATM   26  O3  UNL     1      18.459  60.161  22.552  1.00  0.00    -0.648 OA
ENDBRANCH  23  24
ENDBRANCH  22  23
ENDBRANCH   1  22
BRANCH   1  27
HETATM   27  C16 UNL     1      18.145  63.050  26.569  1.00  0.00     0.240 C 
HETATM   28  O4  UNL     1      19.058  62.834  27.406  1.00  0.00    -0.271 OA
HETATM   29  N5  UNL     1      16.966  63.644  27.079  1.00  0.00    -0.351 N 
ATOM     30  H5  UNL     1      16.204  63.822  26.425  1.00  0.00     0.163 HD
BRANCH  29  31
HETATM   31  C17 UNL     1      16.768  64.012  28.444  1.00  0.00     0.225 C 
BRANCH  31  32
HETATM   32  C18 UNL     1      15.409  63.740  28.970  1.00  0.00     0.235 C 
HETATM   33  O5  UNL     1      15.078  63.894  30.159  1.00  0.00    -0.272 OA
HETATM   34  N6  UNL     1      14.439  63.273  28.034  1.00  0.00    -0.350 N 
ATOM     35  H6  UNL     1      14.718  63.141  27.062  1.00  0.00     0.163 HD
BRANCH  34  36
HETATM   36  C19 UNL     1      13.084  62.984  28.412  1.00  0.00     0.034 C 
HETATM   37  C20 UNL     1      12.976  62.045  29.562  1.00  0.00     0.035 C 
HETATM   38  C21 UNL     1      11.515  61.713  29.820  1.00  0.00    -0.012 C 
HETATM   39  C22 UNL     1      10.782  62.986  30.195  1.00  0.00     0.009 C 
HETATM   40  C26 UNL     1      10.958  61.064  28.585  1.00  0.00     0.009 C 
HETATM   41  C23 UNL     1      10.900  63.926  29.034  1.00  0.00    -0.012 C 
HETATM   42  C24 UNL     1      10.250  63.314  27.814  1.00  0.00     0.009 C 
HETATM   43  C28 UNL     1      12.324  64.258  28.706  1.00  0.00     0.035 C 
HETATM   44  C25 UNL     1      10.994  62.069  27.439  1.00  0.00    -0.012 C 
HETATM   45  C27 UNL     1      12.423  62.377  27.162  1.00  0.00     0.035 C 
ENDBRANCH  34  36
ENDBRANCH  31  32
ENDBRANCH  29  31
ENDBRANCH   1  27
TORSDOF 12
ENDMDL
MODEL 3
REMARK VINA RESULT: -8.804009955      1.329      1.488
REMARK  12 active torsions:
REMARK  status: ('A' for Active; 'I' for Inactive)
REMARK       I    between atoms: N1_2  and  C2_4 
REMARK       I    between atoms: C2_4  and  N3_11 
REMARK    1  A    between atoms: N2_5  and  C3_7 
REMARK    2  A    between atoms: C10_15  and  C11_16 
REMARK    3  A    between atoms: C11_16  and  O1_17 
REMARK    4  A    between atoms: C11_16  and  N4_19 
REMARK    5  A    between atoms: N4_19  and  C12_21 
REMARK    6  A    between atoms: C12_21  and  C13_22 
REMARK    7  A    between atoms: C12_21  and  C16_27 
REMARK    8  A    between atoms: C13_22  and  C14_23 
REMARK    9  A    between atoms: C14_23  and  C15_24 
REMARK       I    between atoms: C16_27  and  N5_29 
REMARK   10  A    between atoms: N5_29  and  C17_31 
REMARK   11  A    between atoms: C17_31  and  C18_32 
REMARK       I    between atoms: C18_32  and  N6_34 
REMARK   12  A    between atoms: N6_34  and  C19_36 
ROOT
HETATM    1  C12 UNL     1      17.548  62.234  24.222  1.00  0.00     0.176 C 
ENDROOT
BRANCH   1   2
HETATM    2  N4  UNL     1      16.457  62.500  23.201  1.00  0.00    -0.359 N 
ATOM      3  H4  UNL     1      15.716  61.817  23.047  1.00  0.00     0.162 HD
BRANCH   2   4
HETATM    4  C11 UNL     1      16.481  63.684  22.478  1.00  0.00     0.136 C 
BRANCH   4   5
HETATM    5  C10 UNL     1      15.795  64.898  22.703  1.00  0.00     0.176 C 
HETATM    6  N3  UNL     1      15.467  65.906  21.806  1.00  0.00    -0.206 N 
HETATM    7  C2  UNL     1      15.357  66.240  20.429  1.00  0.00     0.672 C 
HETATM    8  C7  UNL     1      15.045  66.985  22.787  1.00  0.00     0.142 C 
HETATM    9  N1  UNL     1      15.879  65.414  19.400  1.00  0.00    -0.231 N 
HETATM   10  N2  UNL     1      14.764  67.298  20.064  1.00  0.00    -0.218 N 
HETATM   11  C1  UNL     1      16.964  65.778  18.510  1.00  0.00     0.165 C 
ATOM     12  H1  UNL     1      15.457  64.493  19.276  1.00  0.00     0.177 HD
ATOM     13  H2  UNL     1      14.454  67.776  20.911  1.00  0.00     0.178 HD
HETATM   14  C8  UNL     1      13.998  66.153  23.542  1.00  0.00     0.023 C 
HETATM   15  C9  UNL     1      14.424  64.701  23.402  1.00  0.00     0.036 C 
BRANCH  10  16
HETATM   16  C3  UNL     1      14.373  68.054  19.011  1.00  0.00     0.036 C 
HETATM   17  C4  UNL     1      15.388  68.920  18.299  1.00  0.00     0.038 C 
HETATM   18  C5  UNL     1      13.327  69.088  19.563  1.00  0.00     0.038 C 
HETATM   19  C6  UNL     1      13.535  67.242  18.014  1.00  0.00     0.038 C 
ENDBRANCH  10  16
ENDBRANCH   4   5
BRANCH   4  20
HETATM   20  O1  UNL     1      17.252  63.654  21.427  1.00  0.00    -0.348 OA
ATOM     21  H1  UNL     1      16.885  63.236  20.657  1.00  0.00     0.219 HD
ENDBRANCH   4  20
ENDBRANCH   2   4
ENDBRANCH   1   2
BRANCH   1  22
HETATM   22  C13 UNL     1      17.769  60.748  24.099  1.00  0.00     0.045 C 
BRANCH  22  23
HETATM   23  C14 UNL     1      18.985  60.178  24.709  1.00  0.00     0.116 C 
BRANCH  23  24
HETATM   24  C15 UNL     1      19.304  58.860  24.134  1.00  0.00     0.172 C 
HETATM   25  O2  UNL     1      19.543  58.641  22.933  1.00  0.00    -0.648 OA
HETATM   26  O3  UNL     1      19.346  57.754  24.989  1.00  0.00    -0.648 OA
ENDBRANCH  23  24
ENDBRANCH  22  23
ENDBRANCH   1  22
BRANCH   1  27
HETATM   27  C16 UNL     1      17.004  62.644  25.529  1.00  0.00     0.240 C 
HETATM   28  O4  UNL     1      16.492  61.774  26.278  1.00  0.00    -0.271 OA
HETATM   29  N5  UNL     1      17.002  63.969  26.029  1.00  0.00    -0.351 N 
ATOM     30  H5  UNL     1      17.402  64.698  25.438  1.00  0.00     0.163 HD
BRANCH  29  31
HETATM   31  C17 UNL     1      16.480  64.356  27.299  1.00  0.00     0.225 C 
BRANCH  31  32
HETATM   32  C18 UNL     1      15.006  64.257  27.422  1.00  0.00     0.235 C 
HETATM   33  O5  UNL     1      14.207  65.037  26.875  1.00  0.00    -0.272 OA
HETATM   34  N6  UNL     1      14.498  63.190  28.221  1.00  0.00    -0.350 N 
ATOM     35  H6  UNL     1      15.159  62.558  28.674  1.00  0.00     0.163 HD
BRANCH  34  36
HETATM   36  C19 UNL     1      13.091  62.976  28.412  1.00  0.00     0.034 C 
HETATM   37  C20 UNL     1      12.348  64.210  28.788  1.00  0.00     0.035 C 
HETATM   38  C21 UNL     1      10.895  63.868  29.073  1.00  0.00    -0.012 C 
HETATM   39  C22 UNL     1      10.262  63.317  27.811  1.00  0.00     0.009 C 
HETATM   40  C26 UNL     1      10.860  62.891  30.214  1.00  0.00     0.009 C 
HETATM   41  C23 UNL     1      11.020  62.079  27.438  1.00  0.00    -0.012 C 
HETATM   42  C24 UNL     1      10.902  61.056  28.545  1.00  0.00     0.009 C 
HETATM   43  C28 UNL     1      12.472  62.348  27.183  1.00  0.00     0.035 C 
HETATM   44  C25 UNL     1      11.547  61.601  29.782  1.00  0.00    -0.012 C 
HETATM   45  C27 UNL     1      12.978  61.922  29.528  1.00  0.00     0.035 C 
ENDBRANCH  34  36
ENDBRANCH  31  32
ENDBRANCH  29  31
ENDBRANCH   1  27
TORSDOF 12
ENDMDL
MODEL 4
REMARK VINA RESULT: -8.777515919      1.080      1.109
REMARK  12 active torsions:
REMARK  status: ('A' for Active; 'I' for Inactive)
REMARK       I    between atoms: N1_2  and  C2_4 
REMARK       I    between atoms: C2_4  and  N3_11 
REMARK    1  A    between atoms: N2_5  and  C3_7 
REMARK    2  A    between atoms: C10_15  and  C11_16 
REMARK    3  A    between atoms: C11_16  and  O1_17 
REMARK    4  A    between atoms: C11_16  and  N4_19 
REMARK    5  A    between atoms: N4_19  and  C12_21 
REMARK    6  A    between atoms: C12_21  and  C13_22 
REMARK    7  A    between atoms: C12_21  and  C16_27 
REMARK    8  A    between atoms: C13_22  and  C14_23 
REMARK    9  A    between atoms: C14_23  and  C15_24 
REMARK       I    between atoms: C16_27  and  N5_29 
REMARK   10  A    between atoms: N5_29  and  C17_31 
REMARK   11  A    between atoms: C17_31  and  C18_32 
REMARK       I    between atoms: C18_32  and  N6_34 
REMARK   12  A    between atoms: N6_34  and  C19_36 
ROOT
HETATM    1  C12 UNL     1      17.683  62.281  25.314  1.00  0.00     0.176 C 
ENDROOT
BRANCH   1   2
HETATM    2  N4  UNL     1      16.717  62.077  24.161  1.00  0.00    -0.359 N 
ATOM      3  H4  UNL     1      16.171  61.218  24.091  1.00  0.00     0.162 HD
BRANCH   2   4
HETATM    4  C11 UNL     1      16.585  63.072  23.204  1.00  0.00     0.136 C 
BRANCH   4   5
HETATM    5  C10 UNL     1      15.872  64.290  23.253  1.00  0.00     0.176 C 
HETATM    6  N3  UNL     1      15.667  65.233  22.254  1.00  0.00    -0.206 N 
HETATM    7  C2  UNL     1      15.747  65.476  20.857  1.00  0.00     0.672 C 
HETATM    8  C7  UNL     1      15.111  66.368  23.096  1.00  0.00     0.142 C 
HETATM    9  N1  UNL     1      16.407  64.592  19.965  1.00  0.00    -0.231 N 
HETATM   10  N2  UNL     1      15.206  66.501  20.346  1.00  0.00    -0.218 N 
HETATM   11  C1  UNL     1      17.603  64.911  19.210  1.00  0.00     0.165 C 
ATOM     12  H1  UNL     1      16.009  63.660  19.845  1.00  0.00     0.177 HD
ATOM     13  H2  UNL     1      14.781  67.030  21.108  1.00  0.00     0.178 HD
HETATM   14  C8  UNL     1      13.973  65.574  23.753  1.00  0.00     0.023 C 
HETATM   15  C9  UNL     1      14.419  64.122  23.769  1.00  0.00     0.036 C 
BRANCH  10  16
HETATM   16  C3  UNL     1      14.961  67.183  19.201  1.00  0.00     0.036 C 
HETATM   17  C4  UNL     1      16.058  68.020  18.584  1.00  0.00     0.038 C 
HETATM   18  C5  UNL     1      13.839  68.231  19.533  1.00  0.00     0.038 C 
HETATM   19  C6  UNL     1      14.278  66.295  18.151  1.00  0.00     0.038 C 
ENDBRANCH  10  16
ENDBRANCH   4   5
BRANCH   4  20
HETATM   20  O1  UNL     1      17.216  62.828  22.089  1.00  0.00    -0.348 OA
ATOM     21  H1  UNL     1      16.908  62.076  21.596  1.00  0.00     0.219 HD
ENDBRANCH   4  20
ENDBRANCH   2   4
ENDBRANCH   1   2
BRANCH   1  22
HETATM   22  C13 UNL     1      18.339  60.931  25.447  1.00  0.00     0.045 C 
BRANCH  22  23
HETATM   23  C14 UNL     1      19.246  60.495  24.370  1.00  0.00     0.116 C 
BRANCH  23  24
HETATM   24  C15 UNL     1      18.659  59.392  23.590  1.00  0.00     0.172 C 
HETATM   25  O2  UNL     1      18.922  58.186  23.745  1.00  0.00    -0.648 OA
HETATM   26  O3  UNL     1      17.730  59.703  22.592  1.00  0.00    -0.648 OA
ENDBRANCH  23  24
ENDBRANCH  22  23
ENDBRANCH   1  22
BRANCH   1  27
HETATM   27  C16 UNL     1      16.865  62.658  26.481  1.00  0.00     0.240 C 
HETATM   28  O4  UNL     1      15.892  61.931  26.805  1.00  0.00    -0.271 OA
HETATM   29  N5  UNL     1      17.080  63.800  27.289  1.00  0.00    -0.351 N 
ATOM     30  H5  UNL     1      17.857  64.414  27.044  1.00  0.00     0.163 HD
BRANCH  29  31
HETATM   31  C17 UNL     1      16.288  64.154  28.422  1.00  0.00     0.225 C 
BRANCH  31  32
HETATM   32  C18 UNL     1      14.824  64.036  28.218  1.00  0.00     0.235 C 
HETATM   33  O5  UNL     1      14.171  64.746  27.432  1.00  0.00    -0.272 OA
HETATM   34  N6  UNL     1      14.146  63.039  28.980  1.00  0.00    -0.350 N 
ATOM     35  H6  UNL     1      14.686  62.465  29.628  1.00  0.00     0.163 HD
BRANCH  34  36
HETATM   36  C19 UNL     1      12.732  62.815  28.867  1.00  0.00     0.034 C 
HETATM   37  C20 UNL     1      11.917  64.040  29.094  1.00  0.00     0.035 C 
HETATM   38  C21 UNL     1      10.439  63.687  29.063  1.00  0.00    -0.012 C 
HETATM   39  C22 UNL     1      10.091  63.151  27.688  1.00  0.00     0.009 C 
HETATM   40  C26 UNL     1      10.173  62.694  30.158  1.00  0.00     0.009 C 
HETATM   41  C23 UNL     1      10.920  61.922  27.468  1.00  0.00    -0.012 C 
HETATM   42  C24 UNL     1      10.579  60.882  28.513  1.00  0.00     0.009 C 
HETATM   43  C28 UNL     1      12.390  62.201  27.528  1.00  0.00     0.035 C 
HETATM   44  C25 UNL     1      10.945  61.413  29.864  1.00  0.00    -0.012 C 
HETATM   45  C27 UNL     1      12.395  61.745  29.921  1.00  0.00     0.035 C 
ENDBRANCH  34  36
ENDBRANCH  31  32
ENDBRANCH  29  31
ENDBRANCH   1  27
TORSDOF 12
ENDMDL
MODEL 5
REMARK VINA RESULT: -8.662585210      1.435      2.023
REMARK  12 active torsions:
REMARK  status: ('A' for Active; 'I' for Inactive)
REMARK       I    between atoms: N1_2  and  C2_4 
REMARK       I    between atoms: C2_4  and  N3_11 
REMARK    1  A    between atoms: N2_5  and  C3_7 
REMARK    2  A    between atoms: C10_15  and  C11_16 
REMARK    3  A    between atoms: C11_16  and  O1_17 
REMARK    4  A    between atoms: C11_16  and  N4_19 
REMARK    5  A    between atoms: N4_19  and  C12_21 
REMARK    6  A    between atoms: C12_21  and  C13_22 
REMARK    7  A    between atoms: C12_21  and  C16_27 
REMARK    8  A    between atoms: C13_22  and  C14_23 
REMARK    9  A    between atoms: C14_23  and  C15_24 
REMARK       I    between atoms: C16_27  and  N5_29 
REMARK   10  A    between atoms: N5_29  and  C17_31 
REMARK   11  A    between atoms: C17_31  and  C18_32 
REMARK       I    between atoms: C18_32  and  N6_34 
REMARK   12  A    between atoms: N6_34  and  C19_36 
ROOT
HETATM    1  C12 UNL     1      17.808  63.039  24.429  1.00  0.00     0.176 C 
ENDROOT
BRANCH   1   2
HETATM    2  N4  UNL     1      16.765  62.741  23.367  1.00  0.00    -0.359 N 
ATOM      3  H4  UNL     1      16.343  61.815  23.303  1.00  0.00     0.162 HD
BRANCH   2   4
HETATM    4  C11 UNL     1      16.393  63.743  22.484  1.00  0.00     0.136 C 
BRANCH   4   5
HETATM    5  C10 UNL     1      15.748  64.976  22.729  1.00  0.00     0.176 C 
HETATM    6  N3  UNL     1      15.416  65.991  21.840  1.00  0.00    -0.206 N 
HETATM    7  C2  UNL     1      15.268  66.325  20.467  1.00  0.00     0.672 C 
HETATM    8  C7  UNL     1      15.056  67.082  22.833  1.00  0.00     0.142 C 
HETATM    9  N1  UNL     1      15.732  65.484  19.423  1.00  0.00    -0.231 N 
HETATM   10  N2  UNL     1      14.691  67.398  20.120  1.00  0.00    -0.218 N 
HETATM   11  C1  UNL     1      16.795  65.818  18.496  1.00  0.00     0.165 C 
ATOM     12  H1  UNL     1      15.282  64.574  19.316  1.00  0.00     0.177 HD
ATOM     13  H2  UNL     1      14.422  67.886  20.975  1.00  0.00     0.178 HD
HETATM   14  C8  UNL     1      14.014  66.279  23.625  1.00  0.00     0.023 C 
HETATM   15  C9  UNL     1      14.397  64.816  23.474  1.00  0.00     0.036 C 
BRANCH  10  16
HETATM   16  C3  UNL     1      14.284  68.162  19.079  1.00  0.00     0.036 C 
HETATM   17  C4  UNL     1      15.295  69.005  18.335  1.00  0.00     0.038 C 
HETATM   18  C5  UNL     1      13.279  69.220  19.662  1.00  0.00     0.038 C 
HETATM   19  C6  UNL     1      13.397  67.369  18.110  1.00  0.00     0.038 C 
ENDBRANCH  10  16
ENDBRANCH   4   5
BRANCH   4  20
HETATM   20  O1  UNL     1      16.681  63.493  21.237  1.00  0.00    -0.348 OA
ATOM     21  H1  UNL     1      17.381  62.866  21.093  1.00  0.00     0.219 HD
ENDBRANCH   4  20
ENDBRANCH   2   4
ENDBRANCH   1   2
BRANCH   1  22
HETATM   22  C13 UNL     1      18.844  61.970  24.192  1.00  0.00     0.045 C 
BRANCH  22  23
HETATM   23  C14 UNL     1      18.433  60.762  23.456  1.00  0.00     0.116 C 
BRANCH  23  24
HETATM   24  C15 UNL     1      19.008  59.547  24.059  1.00  0.00     0.172 C 
HETATM   25  O2  UNL     1      19.059  59.307  25.279  1.00  0.00    -0.648 OA
HETATM   26  O3  UNL     1      19.545  58.572  23.211  1.00  0.00    -0.648 OA
ENDBRANCH  23  24
ENDBRANCH  22  23
ENDBRANCH   1  22
BRANCH   1  27
HETATM   27  C16 UNL     1      17.124  62.920  25.729  1.00  0.00     0.240 C 
HETATM   28  O4  UNL     1      16.890  61.776  26.195  1.00  0.00    -0.271 OA
HETATM   29  N5  UNL     1      16.689  64.011  26.521  1.00  0.00    -0.351 N 
ATOM     30  H5  UNL     1      16.856  64.952  26.164  1.00  0.00     0.163 HD
BRANCH  29  31
HETATM   31  C17 UNL     1      16.034  63.888  27.783  1.00  0.00     0.225 C 
BRANCH  31  32
HETATM   32  C18 UNL     1      14.585  63.585  27.704  1.00  0.00     0.235 C 
HETATM   33  O5  UNL     1      13.857  63.905  26.748  1.00  0.00    -0.272 OA
HETATM   34  N6  UNL     1      14.015  62.879  28.805  1.00  0.00    -0.350 N 
ATOM     35  H6  UNL     1      14.615  62.625  29.589  1.00  0.00     0.163 HD
BRANCH  34  36
HETATM   36  C19 UNL     1      12.626  62.515  28.847  1.00  0.00     0.034 C 
HETATM   37  C20 UNL     1      12.165  61.790  27.631  1.00  0.00     0.035 C 
HETATM   38  C21 UNL     1      10.669  61.542  27.717  1.00  0.00    -0.012 C 
HETATM   39  C22 UNL     1      10.384  60.658  28.915  1.00  0.00     0.009 C 
HETATM   40  C26 UNL     1       9.979  62.874  27.802  1.00  0.00     0.009 C 
HETATM   41  C23 UNL     1      10.856  61.394  30.132  1.00  0.00    -0.012 C 
HETATM   42  C24 UNL     1      10.090  62.690  30.273  1.00  0.00     0.009 C 
HETATM   43  C28 UNL     1      12.321  61.703  30.086  1.00  0.00     0.035 C 
HETATM   44  C25 UNL     1      10.393  63.565  29.096  1.00  0.00    -0.012 C 
HETATM   45  C27 UNL     1      11.853  63.836  29.007  1.00  0.00     0.035 C 
ENDBRANCH  34  36
ENDBRANCH  31  32
ENDBRANCH  29  31
ENDBRANCH   1  27
TORSDOF 12
ENDMDL
