MODEL 1
REMARK VINA RESULT: -7.607198240      0.000      0.000
REMARK  4 active torsions:
REMARK  status: ('A' for Active; 'I' for Inactive)
REMARK    1  A    between atoms: O1_2  and  C2_3 
REMARK    2  A    between atoms: C5_6  and  O2_7 
REMARK    3  A    between atoms: C7_9  and  O3_10 
REMARK    4  A    between atoms: C9_12  and  O4_13 
ROOT
HETATM    1  C2  UNL     1      48.193  21.678  -6.134  1.00  0.00     0.111 A 
HETATM    2  C3  UNL     1      47.009  20.958  -6.145  1.00  0.00    -0.008 A 
HETATM    3  C4  UNL     1      45.792  21.653  -6.211  1.00  0.00     0.020 A 
HETATM    4  C5  UNL     1      45.772  23.009  -6.268  1.00  0.00     0.116 A 
HETATM    5  C7  UNL     1      46.998  23.708  -6.249  1.00  0.00     0.139 A 
HETATM    6  C9  UNL     1      48.202  23.042  -6.183  1.00  0.00     0.138 A 
HETATM    7  C11 UNL     1      44.545  20.893  -6.298  1.00  0.00    -0.015 A 
HETATM    8  C12 UNL     1      43.325  21.500  -6.108  1.00  0.00     0.026 A 
HETATM    9  C13 UNL     1      42.193  20.706  -5.980  1.00  0.00    -0.005 A 
HETATM   10  C14 UNL     1      41.050  21.458  -5.797  1.00  0.00     0.069 C 
HETATM   11  C15 UNL     1      39.782  21.044  -5.400  1.00  0.00     0.180 C 
HETATM   12  O5  UNL     1      38.930  21.960  -5.280  1.00  0.00    -0.288 OA
HETATM   13  C16 UNL     1      39.356  19.763  -5.125  1.00  0.00     0.004 C 
HETATM   14  C17 UNL     1      38.010  19.614  -4.481  1.00  0.00     0.054 C 
HETATM   15  C18 UNL     1      40.054  18.602  -5.390  1.00  0.00     0.101 C 
HETATM   16  N1  UNL     1      41.273  18.410  -5.935  1.00  0.00    -0.360 N 
HETATM   17  C19 UNL     1      41.569  17.099  -6.459  1.00  0.00     0.155 C 
HETATM   18  C20 UNL     1      42.246  19.342  -6.033  1.00  0.00     0.044 A 
HETATM   19  C21 UNL     1      43.468  18.754  -6.221  1.00  0.00     0.038 A 
HETATM   20  C22 UNL     1      44.621  19.501  -6.356  1.00  0.00    -0.044 A 
HETATM   21  C23 UNL     1      45.904  18.826  -6.657  1.00  0.00     0.044 C 
HETATM   22  C24 UNL     1      47.035  19.497  -6.003  1.00  0.00     0.047 C 
ENDROOT
BRANCH   1  23
HETATM   23  O1  UNL     1      49.402  21.003  -6.073  1.00  0.00    -0.352 OA
HETATM   24  C1  UNL     1      50.177  20.644  -7.178  1.00  0.00     0.210 C 
ENDBRANCH   1  23
BRANCH   6  25
HETATM   25  O4  UNL     1      49.393  23.747  -6.166  1.00  0.00    -0.351 OA
HETATM   26  C10 UNL     1      50.063  24.166  -5.019  1.00  0.00     0.210 C 
ENDBRANCH   6  25
BRANCH   5  27
HETATM   27  O3  UNL     1      47.056  25.097  -6.295  1.00  0.00    -0.351 OA
HETATM   28  C8  UNL     1      47.213  25.876  -7.439  1.00  0.00     0.210 C 
ENDBRANCH   5  27
BRANCH   4  29
HETATM   29  O2  UNL     1      44.667  23.799  -6.370  1.00  0.00    -0.352 OA
HETATM   30  C6  UNL     1      44.218  24.584  -5.231  1.00  0.00     0.210 C 
ENDBRANCH   4  29
TORSDOF 4
ENDMDL
MODEL 2
REMARK VINA RESULT: -7.449502639      1.763      3.786
REMARK  4 active torsions:
REMARK  status: ('A' for Active; 'I' for Inactive)
REMARK    1  A    between atoms: O1_2  and  C2_3 
REMARK    2  A    between atoms: C5_6  and  O2_7 
REMARK    3  A    between atoms: C7_9  and  O3_10 
REMARK    4  A    between atoms: C9_12  and  O4_13 
ROOT
HETATM    1  C2  UNL     1      47.170  23.751  -6.071  1.00  0.00     0.111 A 
HETATM    2  C3  UNL     1      45.861  23.298  -6.021  1.00  0.00    -0.008 A 
HETATM    3  C4  UNL     1      45.622  21.923  -5.888  1.00  0.00     0.020 A 
HETATM    4  C5  UNL     1      46.654  21.045  -5.806  1.00  0.00     0.116 A 
HETATM    5  C7  UNL     1      47.973  21.542  -5.868  1.00  0.00     0.139 A 
HETATM    6  C9  UNL     1      48.227  22.890  -5.998  1.00  0.00     0.138 A 
HETATM    7  C11 UNL     1      44.242  21.452  -5.760  1.00  0.00    -0.015 A 
HETATM    8  C12 UNL     1      43.930  20.118  -5.885  1.00  0.00     0.026 A 
HETATM    9  C13 UNL     1      42.594  19.748  -5.977  1.00  0.00    -0.005 A 
HETATM   10  C14 UNL     1      42.442  18.382  -6.095  1.00  0.00     0.069 C 
HETATM   11  C15 UNL     1      41.308  17.652  -6.443  1.00  0.00     0.180 C 
HETATM   12  O5  UNL     1      41.469  16.407  -6.509  1.00  0.00    -0.288 OA
HETATM   13  C16 UNL     1      40.046  18.128  -6.721  1.00  0.00     0.004 C 
HETATM   14  C17 UNL     1      39.064  17.158  -7.308  1.00  0.00     0.054 C 
HETATM   15  C18 UNL     1      39.601  19.417  -6.509  1.00  0.00     0.101 C 
HETATM   16  N1  UNL     1      40.238  20.501  -6.022  1.00  0.00    -0.360 N 
HETATM   17  C19 UNL     1      39.424  21.589  -5.534  1.00  0.00     0.155 C 
HETATM   18  C20 UNL     1      41.578  20.660  -5.950  1.00  0.00     0.044 A 
HETATM   19  C21 UNL     1      41.907  21.984  -5.827  1.00  0.00     0.038 A 
HETATM   20  C22 UNL     1      43.219  22.401  -5.730  1.00  0.00    -0.044 A 
HETATM   21  C23 UNL     1      43.521  23.831  -5.498  1.00  0.00     0.044 C 
HETATM   22  C24 UNL     1      44.750  24.244  -6.189  1.00  0.00     0.047 C 
ENDROOT
BRANCH   1  23
HETATM   23  O1  UNL     1      47.420  25.108  -6.198  1.00  0.00    -0.352 OA
HETATM   24  C1  UNL     1      47.636  25.986  -5.134  1.00  0.00     0.210 C 
ENDBRANCH   1  23
BRANCH   6  25
HETATM   25  O4  UNL     1      49.529  23.356  -6.055  1.00  0.00    -0.351 OA
HETATM   26  C10 UNL     1      50.260  23.560  -7.224  1.00  0.00     0.210 C 
ENDBRANCH   6  25
BRANCH   5  27
HETATM   27  O3  UNL     1      49.081  20.704  -5.799  1.00  0.00    -0.351 OA
HETATM   28  C8  UNL     1      49.720  20.277  -4.637  1.00  0.00     0.210 C 
ENDBRANCH   5  27
BRANCH   4  29
HETATM   29  O2  UNL     1      46.559  19.697  -5.642  1.00  0.00    -0.352 OA
HETATM   30  C6  UNL     1      46.782  18.802  -6.767  1.00  0.00     0.210 C 
ENDBRANCH   4  29
TORSDOF 4
ENDMDL
MODEL 3
REMARK VINA RESULT: -6.862094479      3.020      8.238
REMARK  4 active torsions:
REMARK  status: ('A' for Active; 'I' for Inactive)
REMARK    1  A    between atoms: O1_2  and  C2_3 
REMARK    2  A    between atoms: C5_6  and  O2_7 
REMARK    3  A    between atoms: C7_9  and  O3_10 
REMARK    4  A    between atoms: C9_12  and  O4_13 
ROOT
HETATM    1  C2  UNL     1      40.583  20.817  -5.544  1.00  0.00     0.111 A 
HETATM    2  C3  UNL     1      41.952  20.961  -5.708  1.00  0.00    -0.008 A 
HETATM    3  C4  UNL     1      42.731  19.822  -5.957  1.00  0.00     0.020 A 
HETATM    4  C5  UNL     1      42.156  18.595  -6.043  1.00  0.00     0.116 A 
HETATM    5  C7  UNL     1      40.760  18.486  -5.865  1.00  0.00     0.139 A 
HETATM    6  C9  UNL     1      39.980  19.594  -5.618  1.00  0.00     0.138 A 
HETATM    7  C11 UNL     1      44.164  19.982  -6.204  1.00  0.00    -0.015 A 
HETATM    8  C12 UNL     1      45.014  18.901  -6.199  1.00  0.00     0.026 A 
HETATM    9  C13 UNL     1      46.385  19.124  -6.217  1.00  0.00    -0.005 A 
HETATM   10  C14 UNL     1      47.102  17.946  -6.211  1.00  0.00     0.069 C 
HETATM   11  C15 UNL     1      48.462  17.747  -5.989  1.00  0.00     0.180 C 
HETATM   12  O5  UNL     1      48.842  16.549  -6.007  1.00  0.00    -0.288 OA
HETATM   13  C16 UNL     1      49.430  18.699  -5.752  1.00  0.00     0.004 C 
HETATM   14  C17 UNL     1      50.774  18.209  -5.301  1.00  0.00     0.054 C 
HETATM   15  C18 UNL     1      49.277  20.063  -5.893  1.00  0.00     0.101 C 
HETATM   16  N1  UNL     1      48.206  20.798  -6.258  1.00  0.00    -0.360 N 
HETATM   17  C19 UNL     1      48.447  22.147  -6.710  1.00  0.00     0.155 C 
HETATM   18  C20 UNL     1      46.921  20.380  -6.236  1.00  0.00     0.044 A 
HETATM   19  C21 UNL     1      46.061  21.445  -6.239  1.00  0.00     0.038 A 
HETATM   20  C22 UNL     1      44.692  21.275  -6.225  1.00  0.00    -0.044 A 
HETATM   21  C23 UNL     1      43.802  22.453  -6.329  1.00  0.00     0.044 C 
HETATM   22  C24 UNL     1      42.578  22.278  -5.535  1.00  0.00     0.047 C 
ENDROOT
BRANCH   1  23
HETATM   23  O1  UNL     1      39.802  21.935  -5.300  1.00  0.00    -0.352 OA
HETATM   24  C1  UNL     1      38.938  22.526  -6.224  1.00  0.00     0.210 C 
ENDBRANCH   1  23
BRANCH   6  25
HETATM   25  O4  UNL     1      38.612  19.466  -5.447  1.00  0.00    -0.351 OA
HETATM   26  C10 UNL     1      37.957  19.406  -4.219  1.00  0.00     0.210 C 
ENDBRANCH   6  25
BRANCH   5  27
HETATM   27  O3  UNL     1      40.101  17.263  -5.929  1.00  0.00    -0.351 OA
HETATM   28  C8  UNL     1      39.204  16.862  -6.917  1.00  0.00     0.210 C 
ENDBRANCH   5  27
BRANCH   4  29
HETATM   29  O2  UNL     1      42.790  17.421  -6.314  1.00  0.00    -0.352 OA
HETATM   30  C6  UNL     1      42.758  16.862  -7.657  1.00  0.00     0.210 C 
ENDBRANCH   4  29
TORSDOF 4
ENDMDL
MODEL 4
REMARK VINA RESULT: -6.736420701      2.217      7.892
REMARK  4 active torsions:
REMARK  status: ('A' for Active; 'I' for Inactive)
REMARK    1  A    between atoms: O1_2  and  C2_3 
REMARK    2  A    between atoms: C5_6  and  O2_7 
REMARK    3  A    between atoms: C7_9  and  O3_10 
REMARK    4  A    between atoms: C9_12  and  O4_13 
ROOT
HETATM    1  C2  UNL     1      39.617  17.747  -6.276  1.00  0.00     0.111 A 
HETATM    2  C3  UNL     1      40.911  18.243  -6.265  1.00  0.00    -0.008 A 
HETATM    3  C4  UNL     1      41.118  19.595  -5.956  1.00  0.00     0.020 A 
HETATM    4  C5  UNL     1      40.071  20.408  -5.667  1.00  0.00     0.116 A 
HETATM    5  C7  UNL     1      38.766  19.870  -5.694  1.00  0.00     0.139 A 
HETATM    6  C9  UNL     1      38.544  18.544  -5.997  1.00  0.00     0.138 A 
HETATM    7  C11 UNL     1      42.489  20.101  -5.871  1.00  0.00    -0.015 A 
HETATM    8  C12 UNL     1      42.749  21.452  -5.828  1.00  0.00     0.026 A 
HETATM    9  C13 UNL     1      44.059  21.888  -5.971  1.00  0.00    -0.005 A 
HETATM   10  C14 UNL     1      44.159  23.262  -5.903  1.00  0.00     0.069 C 
HETATM   11  C15 UNL     1      45.237  24.081  -6.232  1.00  0.00     0.180 C 
HETATM   12  O5  UNL     1      45.033  25.315  -6.105  1.00  0.00    -0.288 OA
HETATM   13  C16 UNL     1      46.484  23.702  -6.675  1.00  0.00     0.004 C 
HETATM   14  C17 UNL     1      47.384  24.786  -7.192  1.00  0.00     0.054 C 
HETATM   15  C18 UNL     1      46.985  22.417  -6.685  1.00  0.00     0.101 C 
HETATM   16  N1  UNL     1      46.425  21.248  -6.310  1.00  0.00    -0.360 N 
HETATM   17  C19 UNL     1      47.310  20.138  -6.050  1.00  0.00     0.155 C 
HETATM   18  C20 UNL     1      45.102  21.024  -6.156  1.00  0.00     0.044 A 
HETATM   19  C21 UNL     1      44.825  19.684  -6.199  1.00  0.00     0.038 A 
HETATM   20  C22 UNL     1      43.540  19.202  -6.059  1.00  0.00    -0.044 A 
HETATM   21  C23 UNL     1      43.302  17.742  -6.011  1.00  0.00     0.044 C 
HETATM   22  C24 UNL     1      42.032  17.379  -6.655  1.00  0.00     0.047 C 
ENDROOT
BRANCH   1  23
HETATM   23  O1  UNL     1      39.399  16.412  -6.576  1.00  0.00    -0.352 OA
HETATM   24  C1  UNL     1      38.794  15.942  -7.744  1.00  0.00     0.210 C 
ENDBRANCH   1  23
BRANCH   6  25
HETATM   25  O4  UNL     1      37.257  18.036  -6.017  1.00  0.00    -0.351 OA
HETATM   26  C10 UNL     1      36.557  17.572  -4.904  1.00  0.00     0.210 C 
ENDBRANCH   6  25
BRANCH   5  27
HETATM   27  O3  UNL     1      37.643  20.642  -5.419  1.00  0.00    -0.351 OA
HETATM   28  C8  UNL     1      37.173  20.990  -4.154  1.00  0.00     0.210 C 
ENDBRANCH   5  27
BRANCH   4  29
HETATM   29  O2  UNL     1      40.138  21.723  -5.319  1.00  0.00    -0.352 OA
HETATM   30  C6  UNL     1      39.607  22.746  -6.206  1.00  0.00     0.210 C 
ENDBRANCH   4  29
TORSDOF 4
ENDMDL
MODEL 5
REMARK VINA RESULT: -6.626889558      2.738      7.403
REMARK  4 active torsions:
REMARK  status: ('A' for Active; 'I' for Inactive)
REMARK    1  A    between atoms: O1_2  and  C2_3 
REMARK    2  A    between atoms: C5_6  and  O2_7 
REMARK    3  A    between atoms: C7_9  and  O3_10 
REMARK    4  A    between atoms: C9_12  and  O4_13 
ROOT
HETATM    1  C2  UNL     1      42.885  18.905  -5.851  1.00  0.00     0.111 A 
HETATM    2  C3  UNL     1      44.095  19.366  -6.347  1.00  0.00    -0.008 A 
HETATM    3  C4  UNL     1      44.276  20.745  -6.520  1.00  0.00     0.020 A 
HETATM    4  C5  UNL     1      43.287  21.619  -6.205  1.00  0.00     0.116 A 
HETATM    5  C7  UNL     1      42.067  21.113  -5.709  1.00  0.00     0.139 A 
HETATM    6  C9  UNL     1      41.870  19.760  -5.533  1.00  0.00     0.138 A 
HETATM    7  C11 UNL     1      45.578  21.238  -6.972  1.00  0.00    -0.015 A 
HETATM    8  C12 UNL     1      45.739  22.535  -7.402  1.00  0.00     0.026 A 
HETATM    9  C13 UNL     1      46.928  22.892  -8.026  1.00  0.00    -0.005 A 
HETATM   10  C14 UNL     1      46.941  24.220  -8.396  1.00  0.00     0.069 C 
HETATM   11  C15 UNL     1      47.827  24.889  -9.237  1.00  0.00     0.180 C 
HETATM   12  O5  UNL     1      47.574  26.105  -9.428  1.00  0.00    -0.288 OA
HETATM   13  C16 UNL     1      48.935  24.380  -9.876  1.00  0.00     0.004 C 
HETATM   14  C17 UNL     1      49.581  25.245 -10.919  1.00  0.00     0.054 C 
HETATM   15  C18 UNL     1      49.509  23.146  -9.646  1.00  0.00     0.101 C 
HETATM   16  N1  UNL     1      49.158  22.153  -8.804  1.00  0.00    -0.360 N 
HETATM   17  C19 UNL     1      50.160  21.165  -8.484  1.00  0.00     0.155 C 
HETATM   18  C20 UNL     1      47.944  22.001  -8.230  1.00  0.00     0.044 A 
HETATM   19  C21 UNL     1      47.766  20.715  -7.796  1.00  0.00     0.038 A 
HETATM   20  C22 UNL     1      46.604  20.312  -7.170  1.00  0.00    -0.044 A 
HETATM   21  C23 UNL     1      46.497  18.938  -6.630  1.00  0.00     0.044 C 
HETATM   22  C24 UNL     1      45.131  18.411  -6.760  1.00  0.00     0.047 C 
ENDROOT
BRANCH   1  23
HETATM   23  O1  UNL     1      42.694  17.544  -5.672  1.00  0.00    -0.352 OA
HETATM   24  C1  UNL     1      41.969  16.716  -6.532  1.00  0.00     0.210 C 
ENDBRANCH   1  23
BRANCH   6  25
HETATM   25  O4  UNL     1      40.666  19.284  -5.045  1.00  0.00    -0.351 OA
HETATM   26  C10 UNL     1      40.383  19.039  -3.703  1.00  0.00     0.210 C 
ENDBRANCH   6  25
BRANCH   5  27
HETATM   27  O3  UNL     1      41.004  21.945  -5.373  1.00  0.00    -0.351 OA
HETATM   28  C8  UNL     1      39.864  22.175  -6.140  1.00  0.00     0.210 C 
ENDBRANCH   5  27
BRANCH   4  29
HETATM   29  O2  UNL     1      43.347  22.977  -6.293  1.00  0.00    -0.352 OA
HETATM   30  C6  UNL     1      43.793  23.767  -5.156  1.00  0.00     0.210 C 
ENDBRANCH   4  29
TORSDOF 4
ENDMDL
