MODEL 1
REMARK VINA RESULT: -6.217927726      0.000      0.000
REMARK  5 active torsions:
REMARK  status: ('A' for Active; 'I' for Inactive)
REMARK    1  A    between atoms: O1_2  and  C2_3 
REMARK    2  A    between atoms: C4_5  and  N1_6 
REMARK    3  A    between atoms: C13_15  and  C15_17 
REMARK    4  A    between atoms: C15_17  and  O2_18 
REMARK    5  A    between atoms: O2_18  and  C16_19 
ROOT
HETATM    1  C2  UNL     1      44.524  22.536  -3.630  1.00  0.00     0.261 C 
HETATM    2  C3  UNL     1      45.168  23.490  -4.587  1.00  0.00     0.094 C 
HETATM    3  C4  UNL     1      45.585  22.827  -5.903  1.00  0.00     0.200 C 
HETATM    4  C8  UNL     1      44.359  22.221  -6.534  1.00  0.00     0.047 C 
HETATM    5  C9  UNL     1      44.666  21.130  -7.528  1.00  0.00     0.009 C 
HETATM    6  C10 UNL     1      45.158  19.876  -6.912  1.00  0.00     0.001 C 
HETATM    7  C11 UNL     1      44.174  19.117  -6.088  1.00  0.00     0.006 C 
HETATM    8  C12 UNL     1      42.736  19.508  -6.333  1.00  0.00     0.006 C 
HETATM    9  C13 UNL     1      41.770  18.401  -5.952  1.00  0.00    -0.018 C 
HETATM   10  C14 UNL     1      42.361  17.028  -6.308  1.00  0.00     0.018 C 
HETATM   11  C18 UNL     1      41.436  18.351  -4.506  1.00  0.00     0.012 C 
HETATM   12  C19 UNL     1      41.796  19.566  -3.725  1.00  0.00     0.002 C 
HETATM   13  C20 UNL     1      41.460  20.772  -4.567  1.00  0.00     0.012 C 
HETATM   14  C21 UNL     1      42.352  20.832  -5.819  1.00  0.00    -0.013 C 
HETATM   15  C22 UNL     1      41.493  21.560  -6.866  1.00  0.00     0.018 C 
HETATM   16  C23 UNL     1      43.445  21.788  -5.450  1.00  0.00     0.139 C 
HETATM   17  O4  UNL     1      44.130  21.408  -4.294  1.00  0.00    -0.355 OA
ENDROOT
BRANCH   9  18
HETATM   18  C15 UNL     1      40.521  18.474  -6.843  1.00  0.00     0.188 C 
BRANCH  18  19
HETATM   19  O2  UNL     1      39.380  18.255  -6.002  1.00  0.00    -0.321 OA
BRANCH  19  20
HETATM   20  C16 UNL     1      38.122  18.285  -6.536  1.00  0.00     0.254 C 
HETATM   21  C17 UNL     1      36.896  17.911  -5.756  1.00  0.00     0.126 C 
HETATM   22  O3  UNL     1      37.983  18.642  -7.734  1.00  0.00    -0.266 OA
ENDBRANCH  19  20
ENDBRANCH  18  19
ENDBRANCH   9  18
BRANCH   3  23
HETATM   23  N1  UNL     1      46.249  23.814  -6.680  1.00  0.00    -0.074 N 
HETATM   24  C5  UNL     1      47.524  23.343  -7.232  1.00  0.00     0.272 C 
HETATM   25  C6  UNL     1      45.459  24.353  -7.783  1.00  0.00     0.272 C 
HETATM   26  C7  UNL     1      46.618  25.007  -5.892  1.00  0.00     0.272 C 
ENDBRANCH   3  23
BRANCH   1  27
HETATM   27  O1  UNL     1      45.289  22.288  -2.503  1.00  0.00    -0.366 OA
HETATM   28  C1  UNL     1      46.169  23.303  -2.192  1.00  0.00     0.204 C 
ENDBRANCH   1  27
TORSDOF 5
ENDMDL
MODEL 2
REMARK VINA RESULT: -6.203461226      3.068      7.790
REMARK  5 active torsions:
REMARK  status: ('A' for Active; 'I' for Inactive)
REMARK    1  A    between atoms: O1_2  and  C2_3 
REMARK    2  A    between atoms: C4_5  and  N1_6 
REMARK    3  A    between atoms: C13_15  and  C15_17 
REMARK    4  A    between atoms: C15_17  and  O2_18 
REMARK    5  A    between atoms: O2_18  and  C16_19 
ROOT
HETATM    1  C2  UNL     1      46.117  19.325  -6.356  1.00  0.00     0.261 C 
HETATM    2  C3  UNL     1      44.656  19.001  -6.320  1.00  0.00     0.094 C 
HETATM    3  C4  UNL     1      43.828  20.051  -5.573  1.00  0.00     0.200 C 
HETATM    4  C8  UNL     1      44.040  21.382  -6.244  1.00  0.00     0.047 C 
HETATM    5  C9  UNL     1      43.726  22.562  -5.361  1.00  0.00     0.009 C 
HETATM    6  C10 UNL     1      44.709  22.779  -4.274  1.00  0.00     0.001 C 
HETATM    7  C11 UNL     1      46.072  23.211  -4.697  1.00  0.00     0.006 C 
HETATM    8  C12 UNL     1      46.136  23.753  -6.105  1.00  0.00     0.006 C 
HETATM    9  C13 UNL     1      47.325  24.674  -6.309  1.00  0.00    -0.018 C 
HETATM   10  C14 UNL     1      47.571  25.519  -5.049  1.00  0.00     0.018 C 
HETATM   11  C18 UNL     1      48.601  23.971  -6.597  1.00  0.00     0.012 C 
HETATM   12  C19 UNL     1      48.469  22.541  -6.988  1.00  0.00     0.002 C 
HETATM   13  C20 UNL     1      47.282  22.423  -7.912  1.00  0.00     0.012 C 
HETATM   14  C21 UNL     1      45.974  22.750  -7.169  1.00  0.00    -0.013 C 
HETATM   15  C22 UNL     1      45.043  23.304  -8.260  1.00  0.00     0.018 C 
HETATM   16  C23 UNL     1      45.416  21.410  -6.795  1.00  0.00     0.139 C 
HETATM   17  O4  UNL     1      46.308  20.643  -6.045  1.00  0.00    -0.355 OA
ENDROOT
BRANCH   9  18
HETATM   18  C15 UNL     1      46.984  25.733  -7.367  1.00  0.00     0.188 C 
BRANCH  18  19
HETATM   19  O2  UNL     1      47.661  26.943  -6.998  1.00  0.00    -0.321 OA
BRANCH  19  20
HETATM   20  C16 UNL     1      48.089  27.808  -7.966  1.00  0.00     0.254 C 
HETATM   21  C17 UNL     1      49.415  27.668  -8.655  1.00  0.00     0.126 C 
HETATM   22  O3  UNL     1      47.342  28.764  -8.296  1.00  0.00    -0.266 OA
ENDBRANCH  19  20
ENDBRANCH  18  19
ENDBRANCH   9  18
BRANCH   3  23
HETATM   23  N1  UNL     1      42.486  19.585  -5.544  1.00  0.00    -0.074 N 
HETATM   24  C5  UNL     1      41.934  19.523  -4.187  1.00  0.00     0.272 C 
HETATM   25  C6  UNL     1      41.558  20.355  -6.367  1.00  0.00     0.272 C 
HETATM   26  C7  UNL     1      42.349  18.205  -6.051  1.00  0.00     0.272 C 
ENDBRANCH   3  23
BRANCH   1  27
HETATM   27  O1  UNL     1      46.892  18.452  -5.610  1.00  0.00    -0.366 OA
HETATM   28  C1  UNL     1      47.663  17.600  -6.374  1.00  0.00     0.204 C 
ENDBRANCH   1  27
TORSDOF 5
ENDMDL
MODEL 3
REMARK VINA RESULT: -6.194195056      3.053      7.379
REMARK  5 active torsions:
REMARK  status: ('A' for Active; 'I' for Inactive)
REMARK    1  A    between atoms: O1_2  and  C2_3 
REMARK    2  A    between atoms: C4_5  and  N1_6 
REMARK    3  A    between atoms: C13_15  and  C15_17 
REMARK    4  A    between atoms: C15_17  and  O2_18 
REMARK    5  A    between atoms: O2_18  and  C16_19 
ROOT
HETATM    1  C2  UNL     1      46.071  19.288  -6.359  1.00  0.00     0.261 C 
HETATM    2  C3  UNL     1      44.612  18.958  -6.314  1.00  0.00     0.094 C 
HETATM    3  C4  UNL     1      43.787  19.999  -5.550  1.00  0.00     0.200 C 
HETATM    4  C8  UNL     1      43.988  21.337  -6.210  1.00  0.00     0.047 C 
HETATM    5  C9  UNL     1      43.678  22.507  -5.312  1.00  0.00     0.009 C 
HETATM    6  C10 UNL     1      44.669  22.717  -4.232  1.00  0.00     0.001 C 
HETATM    7  C11 UNL     1      46.027  23.158  -4.662  1.00  0.00     0.006 C 
HETATM    8  C12 UNL     1      46.077  23.713  -6.066  1.00  0.00     0.006 C 
HETATM    9  C13 UNL     1      47.262  24.641  -6.271  1.00  0.00    -0.018 C 
HETATM   10  C14 UNL     1      47.516  25.474  -5.005  1.00  0.00     0.018 C 
HETATM   11  C18 UNL     1      48.537  23.945  -6.577  1.00  0.00     0.012 C 
HETATM   12  C19 UNL     1      48.406  22.518  -6.980  1.00  0.00     0.002 C 
HETATM   13  C20 UNL     1      47.212  22.405  -7.895  1.00  0.00     0.012 C 
HETATM   14  C21 UNL     1      45.910  22.720  -7.138  1.00  0.00    -0.013 C 
HETATM   15  C22 UNL     1      44.968  23.281  -8.215  1.00  0.00     0.018 C 
HETATM   16  C23 UNL     1      45.359  21.375  -6.772  1.00  0.00     0.139 C 
HETATM   17  O4  UNL     1      46.260  20.603  -6.037  1.00  0.00    -0.355 OA
ENDROOT
BRANCH   9  18
HETATM   18  C15 UNL     1      46.908  25.709  -7.316  1.00  0.00     0.188 C 
BRANCH  18  19
HETATM   19  O2  UNL     1      47.898  25.640  -8.353  1.00  0.00    -0.321 OA
BRANCH  19  20
HETATM   20  C16 UNL     1      47.517  25.685  -9.664  1.00  0.00     0.254 C 
HETATM   21  C17 UNL     1      46.154  26.135 -10.103  1.00  0.00     0.126 C 
HETATM   22  O3  UNL     1      48.343  25.334 -10.545  1.00  0.00    -0.266 OA
ENDBRANCH  19  20
ENDBRANCH  18  19
ENDBRANCH   9  18
BRANCH   3  23
HETATM   23  N1  UNL     1      42.446  19.529  -5.513  1.00  0.00    -0.074 N 
HETATM   24  C5  UNL     1      41.890  19.494  -4.157  1.00  0.00     0.272 C 
HETATM   25  C6  UNL     1      41.518  20.276  -6.356  1.00  0.00     0.272 C 
HETATM   26  C7  UNL     1      42.316  18.137  -5.990  1.00  0.00     0.272 C 
ENDBRANCH   3  23
BRANCH   1  27
HETATM   27  O1  UNL     1      46.855  18.411  -5.628  1.00  0.00    -0.366 OA
HETATM   28  C1  UNL     1      47.660  17.603  -6.405  1.00  0.00     0.204 C 
ENDBRANCH   1  27
TORSDOF 5
ENDMDL
MODEL 4
REMARK VINA RESULT: -6.163440426      2.553      3.645
REMARK  5 active torsions:
REMARK  status: ('A' for Active; 'I' for Inactive)
REMARK    1  A    between atoms: O1_2  and  C2_3 
REMARK    2  A    between atoms: C4_5  and  N1_6 
REMARK    3  A    between atoms: C13_15  and  C15_17 
REMARK    4  A    between atoms: C15_17  and  O2_18 
REMARK    5  A    between atoms: O2_18  and  C16_19 
ROOT
HETATM    1  C2  UNL     1      48.407  22.113  -4.780  1.00  0.00     0.261 C 
HETATM    2  C3  UNL     1      49.323  22.092  -5.964  1.00  0.00     0.094 C 
HETATM    3  C4  UNL     1      48.948  21.021  -6.993  1.00  0.00     0.200 C 
HETATM    4  C8  UNL     1      47.534  21.277  -7.445  1.00  0.00     0.047 C 
HETATM    5  C9  UNL     1      46.860  20.066  -8.037  1.00  0.00     0.009 C 
HETATM    6  C10 UNL     1      46.517  19.023  -7.044  1.00  0.00     0.001 C 
HETATM    7  C11 UNL     1      45.454  19.374  -6.060  1.00  0.00     0.006 C 
HETATM    8  C12 UNL     1      44.610  20.559  -6.464  1.00  0.00     0.006 C 
HETATM    9  C13 UNL     1      43.249  20.548  -5.791  1.00  0.00    -0.018 C 
HETATM   10  C14 UNL     1      42.718  19.109  -5.680  1.00  0.00     0.018 C 
HETATM   11  C18 UNL     1      43.243  21.104  -4.414  1.00  0.00     0.012 C 
HETATM   12  C19 UNL     1      44.448  21.894  -4.039  1.00  0.00     0.002 C 
HETATM   13  C20 UNL     1      44.832  22.742  -5.226  1.00  0.00     0.012 C 
HETATM   14  C21 UNL     1      45.290  21.862  -6.403  1.00  0.00    -0.013 C 
HETATM   15  C22 UNL     1      44.939  22.684  -7.654  1.00  0.00     0.018 C 
HETATM   16  C23 UNL     1      46.785  21.872  -6.312  1.00  0.00     0.139 C 
HETATM   17  O4  UNL     1      47.256  21.436  -5.073  1.00  0.00    -0.355 OA
ENDROOT
BRANCH   9  18
HETATM   18  C15 UNL     1      42.214  21.222  -6.703  1.00  0.00     0.188 C 
BRANCH  18  19
HETATM   19  O2  UNL     1      41.152  21.703  -5.866  1.00  0.00    -0.321 OA
BRANCH  19  20
HETATM   20  C16 UNL     1      39.852  21.434  -6.191  1.00  0.00     0.254 C 
HETATM   21  C17 UNL     1      38.689  22.100  -5.516  1.00  0.00     0.126 C 
HETATM   22  O3  UNL     1      39.617  20.593  -7.096  1.00  0.00    -0.266 OA
ENDBRANCH  19  20
ENDBRANCH  18  19
ENDBRANCH   9  18
BRANCH   3  23
HETATM   23  N1  UNL     1      49.934  21.055  -8.015  1.00  0.00    -0.074 N 
HETATM   24  C5  UNL     1      50.283  19.722  -8.515  1.00  0.00     0.272 C 
HETATM   25  C6  UNL     1      49.589  21.886  -9.164  1.00  0.00     0.272 C 
HETATM   26  C7  UNL     1      51.220  21.612  -7.548  1.00  0.00     0.272 C 
ENDBRANCH   3  23
BRANCH   1  27
HETATM   27  O1  UNL     1      49.017  21.706  -3.606  1.00  0.00    -0.366 OA
HETATM   28  C1  UNL     1      48.702  22.488  -2.514  1.00  0.00     0.204 C 
ENDBRANCH   1  27
TORSDOF 5
ENDMDL
MODEL 5
REMARK VINA RESULT: -6.016723913      1.829      3.391
REMARK  5 active torsions:
REMARK  status: ('A' for Active; 'I' for Inactive)
REMARK    1  A    between atoms: O1_2  and  C2_3 
REMARK    2  A    between atoms: C4_5  and  N1_6 
REMARK    3  A    between atoms: C13_15  and  C15_17 
REMARK    4  A    between atoms: C15_17  and  O2_18 
REMARK    5  A    between atoms: O2_18  and  C16_19 
ROOT
HETATM    1  C2  UNL     1      45.256  19.322  -6.463  1.00  0.00     0.261 C 
HETATM    2  C3  UNL     1      45.872  20.433  -5.672  1.00  0.00     0.094 C 
HETATM    3  C4  UNL     1      44.950  21.648  -5.528  1.00  0.00     0.200 C 
HETATM    4  C8  UNL     1      43.676  21.195  -4.866  1.00  0.00     0.047 C 
HETATM    5  C9  UNL     1      42.506  22.115  -5.110  1.00  0.00     0.009 C 
HETATM    6  C10 UNL     1      41.984  22.069  -6.495  1.00  0.00     0.001 C 
HETATM    7  C11 UNL     1      41.321  20.798  -6.907  1.00  0.00     0.006 C 
HETATM    8  C12 UNL     1      40.918  19.914  -5.751  1.00  0.00     0.006 C 
HETATM    9  C13 UNL     1      39.793  18.964  -6.124  1.00  0.00    -0.018 C 
HETATM   10  C14 UNL     1      38.797  19.657  -7.067  1.00  0.00     0.018 C 
HETATM   11  C18 UNL     1      40.240  17.731  -6.820  1.00  0.00     0.012 C 
HETATM   12  C19 UNL     1      41.697  17.441  -6.736  1.00  0.00     0.002 C 
HETATM   13  C20 UNL     1      42.150  17.756  -5.331  1.00  0.00     0.012 C 
HETATM   14  C21 UNL     1      42.032  19.263  -5.043  1.00  0.00    -0.013 C 
HETATM   15  C22 UNL     1      41.793  19.345  -3.527  1.00  0.00     0.018 C 
HETATM   16  C23 UNL     1      43.415  19.793  -5.269  1.00  0.00     0.139 C 
HETATM   17  O4  UNL     1      43.903  19.505  -6.545  1.00  0.00    -0.355 OA
ENDROOT
BRANCH   9  18
HETATM   18  C15 UNL     1      38.937  18.664  -4.885  1.00  0.00     0.188 C 
BRANCH  18  19
HETATM   19  O2  UNL     1      37.576  18.969  -5.220  1.00  0.00    -0.321 OA
BRANCH  19  20
HETATM   20  C16 UNL     1      36.686  17.957  -5.452  1.00  0.00     0.254 C 
HETATM   21  C17 UNL     1      36.562  17.269  -6.780  1.00  0.00     0.126 C 
HETATM   22  O3  UNL     1      35.939  17.583  -4.512  1.00  0.00    -0.266 OA
ENDBRANCH  19  20
ENDBRANCH  18  19
ENDBRANCH   9  18
BRANCH   3  23
HETATM   23  N1  UNL     1      45.679  22.651  -4.834  1.00  0.00    -0.074 N 
HETATM   24  C5  UNL     1      45.534  23.980  -5.434  1.00  0.00     0.272 C 
HETATM   25  C6  UNL     1      45.355  22.765  -3.415  1.00  0.00     0.272 C 
HETATM   26  C7  UNL     1      47.136  22.407  -4.846  1.00  0.00     0.272 C 
ENDBRANCH   3  23
BRANCH   1  27
HETATM   27  O1  UNL     1      45.871  19.110  -7.685  1.00  0.00    -0.366 OA
HETATM   28  C1  UNL     1      47.121  19.684  -7.787  1.00  0.00     0.204 C 
ENDBRANCH   1  27
TORSDOF 5
ENDMDL
