MODEL 1
REMARK VINA RESULT: -6.076498994      0.000      0.000
REMARK  7 active torsions:
REMARK  status: ('A' for Active; 'I' for Inactive)
REMARK    1  A    between atoms: C2_2  and  C5_5 
REMARK    2  A    between atoms: C5_5  and  S1_6 
REMARK    3  A    between atoms: S1_6  and  O1_7 
REMARK    4  A    between atoms: S1_6  and  O2_9 
REMARK    5  A    between atoms: S1_6  and  N1_11 
REMARK    6  A    between atoms: S1_6  and  C10_24 
REMARK    7  A    between atoms: N1_11  and  N2_13 
ROOT
HETATM    1  S1  UNL     1     -67.035  46.654   4.031  1.00  0.00     0.004 SA
ENDROOT
BRANCH   1   2
HETATM    2  C5  UNL     1     -67.301  44.960   4.528  1.00  0.00     0.068 C 
BRANCH   2   3
HETATM    3  C2  UNL     1     -68.705  44.397   4.838  1.00  0.00    -0.025 C 
HETATM    4  C1  UNL     1     -69.773  45.389   5.018  1.00  0.00     0.019 C 
HETATM    5  C3  UNL     1     -68.521  43.608   6.122  1.00  0.00     0.019 C 
HETATM    6  C4  UNL     1     -69.138  43.388   3.805  1.00  0.00     0.019 C 
ENDBRANCH   2   3
ENDBRANCH   1   2
BRANCH   1   7
HETATM    7  O1  UNL     1     -68.043  46.345   2.652  1.00  0.00    -0.318 OA
ATOM      8  H1  UNL     1     -68.785  46.303   3.244  1.00  0.00     0.229 HD
ENDBRANCH   1   7
BRANCH   1   9
HETATM    9  O2  UNL     1     -65.166  46.347   3.943  1.00  0.00    -0.318 OA
ATOM     10  H2  UNL     1     -65.164  46.061   4.849  1.00  0.00     0.229 HD
ENDBRANCH   1   9
BRANCH   1  11
HETATM   11  N1  UNL     1     -67.580  47.465   5.590  1.00  0.00    -0.245 N 
ATOM     12  H1  UNL     1     -68.396  48.074   5.529  1.00  0.00     0.198 HD
BRANCH  11  13
HETATM   13  N2  UNL     1     -67.014  47.336   6.794  1.00  0.00    -0.176 N 
HETATM   14  C6  UNL     1     -67.633  46.782   7.974  1.00  0.00     0.293 C 
HETATM   15  O3  UNL     1     -68.785  46.332   8.198  1.00  0.00    -0.264 OA
HETATM   16  C7  UNL     1     -66.648  46.786   9.057  1.00  0.00     0.101 C 
HETATM   17  N3  UNL     1     -66.556  46.091  10.119  1.00  0.00    -0.396 N 
HETATM   18  C8  UNL     1     -65.653  47.852   8.679  1.00  0.00     0.231 C 
ATOM     19  H32 UNL     1     -67.230  45.370  10.376  1.00  0.00     0.156 HD
ATOM     20  H31 UNL     1     -65.870  46.094  10.874  1.00  0.00     0.156 HD
HETATM   21 CL1  UNL     1     -66.223  49.450   9.083  1.00  0.00    -0.108 Cl
HETATM   22  C9  UNL     1     -65.665  47.655   7.206  1.00  0.00     0.271 C 
HETATM   23  O4  UNL     1     -64.626  47.764   6.498  1.00  0.00    -0.269 OA
ENDBRANCH  11  13
ENDBRANCH   1  11
BRANCH   1  24
HETATM   24  C10 UNL     1     -66.694  48.207   3.258  1.00  0.00     0.036 C 
HETATM   25  C11 UNL     1     -67.580  49.387   3.730  1.00  0.00     0.030 C 
HETATM   26  C12 UNL     1     -65.320  48.831   3.397  1.00  0.00     0.030 C 
HETATM   27  C13 UNL     1     -66.854  48.271   1.706  1.00  0.00     0.030 C 
ENDBRANCH   1  24
TORSDOF 7
ENDMDL
MODEL 2
REMARK VINA RESULT: -5.903782960      2.430      3.587
REMARK  7 active torsions:
REMARK  status: ('A' for Active; 'I' for Inactive)
REMARK    1  A    between atoms: C2_2  and  C5_5 
REMARK    2  A    between atoms: C5_5  and  S1_6 
REMARK    3  A    between atoms: S1_6  and  O1_7 
REMARK    4  A    between atoms: S1_6  and  O2_9 
REMARK    5  A    between atoms: S1_6  and  N1_11 
REMARK    6  A    between atoms: S1_6  and  C10_24 
REMARK    7  A    between atoms: N1_11  and  N2_13 
ROOT
HETATM    1  S1  UNL     1     -66.319  46.961   4.056  1.00  0.00     0.004 SA
ENDROOT
BRANCH   1   2
HETATM    2  C5  UNL     1     -67.060  45.734   2.992  1.00  0.00     0.068 C 
BRANCH   2   3
HETATM    3  C2  UNL     1     -68.140  46.085   1.945  1.00  0.00    -0.025 C 
HETATM    4  C1  UNL     1     -68.803  47.384   2.115  1.00  0.00     0.019 C 
HETATM    5  C3  UNL     1     -69.163  44.971   2.070  1.00  0.00     0.019 C 
HETATM    6  C4  UNL     1     -67.605  45.984   0.540  1.00  0.00     0.019 C 
ENDBRANCH   2   3
ENDBRANCH   1   2
BRANCH   1   7
HETATM    7  O1  UNL     1     -65.887  47.851   2.628  1.00  0.00    -0.318 OA
ATOM      8  H1  UNL     1     -66.273  47.151   2.115  1.00  0.00     0.229 HD
ENDBRANCH   1   7
BRANCH   1   9
HETATM    9  O2  UNL     1     -65.143  45.653   4.765  1.00  0.00    -0.318 OA
ATOM     10  H2  UNL     1     -65.748  45.488   5.479  1.00  0.00     0.229 HD
ENDBRANCH   1   9
BRANCH   1  11
HETATM   11  N1  UNL     1     -67.784  47.294   5.118  1.00  0.00    -0.245 N 
ATOM     12  H1  UNL     1     -68.229  48.206   5.011  1.00  0.00     0.198 HD
BRANCH  11  13
HETATM   13  N2  UNL     1     -68.323  46.463   6.014  1.00  0.00    -0.176 N 
HETATM   14  C6  UNL     1     -67.913  46.304   7.388  1.00  0.00     0.293 C 
HETATM   15  O3  UNL     1     -66.995  46.830   8.067  1.00  0.00    -0.264 OA
HETATM   16  C7  UNL     1     -68.798  45.327   8.025  1.00  0.00     0.101 C 
HETATM   17  N3  UNL     1     -69.104  45.133   9.245  1.00  0.00    -0.396 N 
HETATM   18  C8  UNL     1     -69.351  44.503   6.893  1.00  0.00     0.231 C 
ATOM     19  H32 UNL     1     -68.729  45.691  10.012  1.00  0.00     0.156 HD
ATOM     20  H31 UNL     1     -69.721  44.453   9.689  1.00  0.00     0.156 HD
HETATM   21 CL1  UNL     1     -68.231  43.269   6.375  1.00  0.00    -0.108 Cl
HETATM   22  C9  UNL     1     -69.454  45.572   5.866  1.00  0.00     0.271 C 
HETATM   23  O4  UNL     1     -70.403  45.629   5.037  1.00  0.00    -0.269 OA
ENDBRANCH  11  13
ENDBRANCH   1  11
BRANCH   1  24
HETATM   24  C10 UNL     1     -65.332  48.144   4.922  1.00  0.00     0.036 C 
HETATM   25  C11 UNL     1     -64.381  48.986   4.034  1.00  0.00     0.030 C 
HETATM   26  C12 UNL     1     -66.002  49.247   5.717  1.00  0.00     0.030 C 
HETATM   27  C13 UNL     1     -64.363  47.587   6.013  1.00  0.00     0.030 C 
ENDBRANCH   1  24
TORSDOF 7
ENDMDL
MODEL 3
REMARK VINA RESULT: -5.885470583      2.433      3.489
REMARK  7 active torsions:
REMARK  status: ('A' for Active; 'I' for Inactive)
REMARK    1  A    between atoms: C2_2  and  C5_5 
REMARK    2  A    between atoms: C5_5  and  S1_6 
REMARK    3  A    between atoms: S1_6  and  O1_7 
REMARK    4  A    between atoms: S1_6  and  O2_9 
REMARK    5  A    between atoms: S1_6  and  N1_11 
REMARK    6  A    between atoms: S1_6  and  C10_24 
REMARK    7  A    between atoms: N1_11  and  N2_13 
ROOT
HETATM    1  S1  UNL     1     -66.334  46.861   3.798  1.00  0.00     0.004 SA
ENDROOT
BRANCH   1   2
HETATM    2  C5  UNL     1     -66.980  45.765   2.545  1.00  0.00     0.068 C 
BRANCH   2   3
HETATM    3  C2  UNL     1     -68.100  46.188   1.570  1.00  0.00    -0.025 C 
HETATM    4  C1  UNL     1     -68.774  47.458   1.874  1.00  0.00     0.019 C 
HETATM    5  C3  UNL     1     -69.104  45.052   1.633  1.00  0.00     0.019 C 
HETATM    6  C4  UNL     1     -67.613  46.216   0.144  1.00  0.00     0.019 C 
ENDBRANCH   2   3
ENDBRANCH   1   2
BRANCH   1   7
HETATM    7  O1  UNL     1     -65.990  48.004   2.536  1.00  0.00    -0.318 OA
ATOM      8  H1  UNL     1     -65.185  47.528   2.370  1.00  0.00     0.229 HD
ENDBRANCH   1   7
BRANCH   1   9
HETATM    9  O2  UNL     1     -65.046  45.558   4.290  1.00  0.00    -0.318 OA
ATOM     10  H2  UNL     1     -65.526  45.377   5.090  1.00  0.00     0.229 HD
ENDBRANCH   1   9
BRANCH   1  11
HETATM   11  N1  UNL     1     -67.811  46.893   4.894  1.00  0.00    -0.245 N 
ATOM     12  H1  UNL     1     -68.474  47.654   4.746  1.00  0.00     0.198 HD
BRANCH  11  13
HETATM   13  N2  UNL     1     -68.102  46.021   5.863  1.00  0.00    -0.176 N 
HETATM   14  C6  UNL     1     -68.360  44.612   5.695  1.00  0.00     0.293 C 
HETATM   15  O3  UNL     1     -68.412  43.872   4.679  1.00  0.00    -0.264 OA
HETATM   16  C7  UNL     1     -68.589  44.023   7.016  1.00  0.00     0.101 C 
HETATM   17  N3  UNL     1     -68.473  42.829   7.441  1.00  0.00    -0.396 N 
HETATM   18  C8  UNL     1     -69.027  45.171   7.886  1.00  0.00     0.231 C 
ATOM     19  H32 UNL     1     -68.177  42.051   6.851  1.00  0.00     0.156 HD
ATOM     20  H31 UNL     1     -68.632  42.419   8.361  1.00  0.00     0.156 HD
HETATM   21 CL1  UNL     1     -70.717  45.546   7.672  1.00  0.00    -0.108 Cl
HETATM   22  C9  UNL     1     -68.181  46.238   7.291  1.00  0.00     0.271 C 
HETATM   23  O4  UNL     1     -67.650  47.149   7.984  1.00  0.00    -0.269 OA
ENDBRANCH  11  13
ENDBRANCH   1  11
BRANCH   1  24
HETATM   24  C10 UNL     1     -65.440  47.965   4.850  1.00  0.00     0.036 C 
HETATM   25  C11 UNL     1     -66.288  49.087   5.502  1.00  0.00     0.030 C 
HETATM   26  C12 UNL     1     -64.723  47.426   6.072  1.00  0.00     0.030 C 
HETATM   27  C13 UNL     1     -64.272  48.769   4.196  1.00  0.00     0.030 C 
ENDBRANCH   1  24
TORSDOF 7
ENDMDL
MODEL 4
REMARK VINA RESULT: -5.877705713      2.062      2.885
REMARK  7 active torsions:
REMARK  status: ('A' for Active; 'I' for Inactive)
REMARK    1  A    between atoms: C2_2  and  C5_5 
REMARK    2  A    between atoms: C5_5  and  S1_6 
REMARK    3  A    between atoms: S1_6  and  O1_7 
REMARK    4  A    between atoms: S1_6  and  O2_9 
REMARK    5  A    between atoms: S1_6  and  N1_11 
REMARK    6  A    between atoms: S1_6  and  C10_24 
REMARK    7  A    between atoms: N1_11  and  N2_13 
ROOT
HETATM    1  S1  UNL     1     -67.013  46.676   3.917  1.00  0.00     0.004 SA
ENDROOT
BRANCH   1   2
HETATM    2  C5  UNL     1     -67.493  45.228   4.845  1.00  0.00     0.068 C 
BRANCH   2   3
HETATM    3  C2  UNL     1     -68.856  44.530   4.648  1.00  0.00    -0.025 C 
HETATM    4  C1  UNL     1     -69.643  44.967   3.487  1.00  0.00     0.019 C 
HETATM    5  C3  UNL     1     -69.622  44.830   5.924  1.00  0.00     0.019 C 
HETATM    6  C4  UNL     1     -68.711  43.030   4.610  1.00  0.00     0.019 C 
ENDBRANCH   2   3
ENDBRANCH   1   2
BRANCH   1   7
HETATM    7  O1  UNL     1     -68.426  47.470   4.542  1.00  0.00    -0.318 OA
ATOM      8  H1  UNL     1     -68.911  46.672   4.367  1.00  0.00     0.229 HD
ENDBRANCH   1   7
BRANCH   1   9
HETATM    9  O2  UNL     1     -67.104  45.686   2.302  1.00  0.00    -0.318 OA
ATOM     10  H2  UNL     1     -66.255  45.301   2.484  1.00  0.00     0.229 HD
ENDBRANCH   1   9
BRANCH   1  11
HETATM   11  N1  UNL     1     -65.308  46.852   4.584  1.00  0.00    -0.245 N 
ATOM     12  H1  UNL     1     -64.579  46.302   4.128  1.00  0.00     0.198 HD
BRANCH  11  13
HETATM   13  N2  UNL     1     -64.928  47.626   5.604  1.00  0.00    -0.176 N 
HETATM   14  C6  UNL     1     -63.724  48.419   5.673  1.00  0.00     0.293 C 
HETATM   15  O3  UNL     1     -62.759  48.570   4.881  1.00  0.00    -0.264 OA
HETATM   16  C7  UNL     1     -63.723  49.149   6.942  1.00  0.00     0.101 C 
HETATM   17  N3  UNL     1     -63.134  50.218   7.302  1.00  0.00    -0.396 N 
HETATM   18  C8  UNL     1     -64.627  48.357   7.850  1.00  0.00     0.231 C 
ATOM     19  H32 UNL     1     -62.522  50.754   6.688  1.00  0.00     0.156 HD
ATOM     20  H31 UNL     1     -63.134  50.727   8.186  1.00  0.00     0.156 HD
HETATM   21 CL1  UNL     1     -63.810  46.983   8.548  1.00  0.00    -0.108 Cl
HETATM   22  C9  UNL     1     -65.622  47.909   6.841  1.00  0.00     0.271 C 
HETATM   23  O4  UNL     1     -66.854  47.818   7.097  1.00  0.00    -0.269 OA
ENDBRANCH  11  13
ENDBRANCH   1  11
BRANCH   1  24
HETATM   24  C10 UNL     1     -66.837  48.104   2.890  1.00  0.00     0.036 C 
HETATM   25  C11 UNL     1     -67.415  49.416   3.480  1.00  0.00     0.030 C 
HETATM   26  C12 UNL     1     -65.454  48.577   2.489  1.00  0.00     0.030 C 
HETATM   27  C13 UNL     1     -67.511  48.046   1.483  1.00  0.00     0.030 C 
ENDBRANCH   1  24
TORSDOF 7
ENDMDL
MODEL 5
REMARK VINA RESULT: -5.845538778      2.252      3.987
REMARK  7 active torsions:
REMARK  status: ('A' for Active; 'I' for Inactive)
REMARK    1  A    between atoms: C2_2  and  C5_5 
REMARK    2  A    between atoms: C5_5  and  S1_6 
REMARK    3  A    between atoms: S1_6  and  O1_7 
REMARK    4  A    between atoms: S1_6  and  O2_9 
REMARK    5  A    between atoms: S1_6  and  N1_11 
REMARK    6  A    between atoms: S1_6  and  C10_24 
REMARK    7  A    between atoms: N1_11  and  N2_13 
ROOT
HETATM    1  S1  UNL     1     -65.791  47.798   4.979  1.00  0.00     0.004 SA
ENDROOT
BRANCH   1   2
HETATM    2  C5  UNL     1     -66.296  47.173   3.385  1.00  0.00     0.068 C 
BRANCH   2   3
HETATM    3  C2  UNL     1     -67.341  47.892   2.505  1.00  0.00    -0.025 C 
HETATM    4  C1  UNL     1     -68.125  48.944   3.164  1.00  0.00     0.019 C 
HETATM    5  C3  UNL     1     -68.267  46.785   2.037  1.00  0.00     0.019 C 
HETATM    6  C4  UNL     1     -66.719  48.452   1.251  1.00  0.00     0.019 C 
ENDBRANCH   2   3
ENDBRANCH   1   2
BRANCH   1   7
HETATM    7  O1  UNL     1     -65.227  49.229   4.172  1.00  0.00    -0.318 OA
ATOM      8  H1  UNL     1     -64.465  49.207   4.737  1.00  0.00     0.229 HD
ENDBRANCH   1   7
BRANCH   1   9
HETATM    9  O2  UNL     1     -64.639  46.309   5.211  1.00  0.00    -0.318 OA
ATOM     10  H2  UNL     1     -64.155  46.780   5.878  1.00  0.00     0.229 HD
ENDBRANCH   1   9
BRANCH   1  11
HETATM   11  N1  UNL     1     -67.406  47.627   5.843  1.00  0.00    -0.245 N 
ATOM     12  H1  UNL     1     -68.034  48.430   5.804  1.00  0.00     0.198 HD
BRANCH  11  13
HETATM   13  N2  UNL     1     -67.838  46.557   6.517  1.00  0.00    -0.176 N 
HETATM   14  C6  UNL     1     -68.000  45.223   5.990  1.00  0.00     0.293 C 
HETATM   15  O3  UNL     1     -67.828  44.735   4.844  1.00  0.00    -0.264 OA
HETATM   16  C7  UNL     1     -68.450  44.349   7.075  1.00  0.00     0.101 C 
HETATM   17  N3  UNL     1     -68.366  43.090   7.236  1.00  0.00    -0.396 N 
HETATM   18  C8  UNL     1     -69.092  45.270   8.079  1.00  0.00     0.231 C 
ATOM     19  H32 UNL     1     -67.932  42.466   6.556  1.00  0.00     0.156 HD
ATOM     20  H31 UNL     1     -68.680  42.481   7.992  1.00  0.00     0.156 HD
HETATM   21 CL1  UNL     1     -70.726  45.688   7.631  1.00  0.00    -0.108 Cl
HETATM   22  C9  UNL     1     -68.195  46.443   7.914  1.00  0.00     0.271 C 
HETATM   23  O4  UNL     1     -67.843  47.171   8.883  1.00  0.00    -0.269 OA
ENDBRANCH  11  13
ENDBRANCH   1  11
BRANCH   1  24
HETATM   24  C10 UNL     1     -65.011  48.470   6.416  1.00  0.00     0.036 C 
HETATM   25  C11 UNL     1     -65.860  49.500   7.206  1.00  0.00     0.030 C 
HETATM   26  C12 UNL     1     -64.589  47.550   7.544  1.00  0.00     0.030 C 
HETATM   27  C13 UNL     1     -63.673  49.244   6.194  1.00  0.00     0.030 C 
ENDBRANCH   1  24
TORSDOF 7
ENDMDL
