MODEL 1
REMARK VINA RESULT: -8.641256801      0.000      0.000
REMARK  4 active torsions:
REMARK  status: ('A' for Active; 'I' for Inactive)
REMARK    1  A    between atoms: C1_2  and  C2_3 
REMARK       I    between atoms: C1_2  and  N1_10 
REMARK    2  A    between atoms: C2_3  and  C3_4 
REMARK    3  A    between atoms: N1_10  and  N2_11 
REMARK    4  A    between atoms: C14_22  and  C15_23 
ROOT
HETATM    1  N2  UNL     1     -18.762 -37.115   5.219  1.00  0.00    -0.238 N 
ATOM      2  H2  UNL     1     -18.697 -38.096   5.488  1.00  0.00     0.201 HD
HETATM    3  C9  UNL     1     -19.704 -36.725   4.467  1.00  0.00     0.048 C 
HETATM    4  C10 UNL     1     -20.739 -37.641   3.944  1.00  0.00     0.141 C 
HETATM    5  C11 UNL     1     -20.991 -37.230   2.510  1.00  0.00     0.168 C 
HETATM    6  O2  UNL     1     -21.990 -37.696   1.945  1.00  0.00    -0.292 OA
HETATM    7  C12 UNL     1     -20.041 -36.287   1.836  1.00  0.00     0.060 A 
HETATM    8  C13 UNL     1     -19.453 -35.311   2.581  1.00  0.00     0.055 A 
HETATM    9  N3  UNL     1     -18.631 -34.475   1.975  1.00  0.00    -0.327 N 
ATOM     10  H3  UNL     1     -18.116 -33.698   2.389  1.00  0.00     0.174 HD
HETATM   11  S1  UNL     1     -18.620 -34.971   0.381  1.00  0.00    -0.007 SA
HETATM   12  C14 UNL     1     -19.718 -36.309   0.506  1.00  0.00     0.114 A 
HETATM   13  C16 UNL     1     -19.807 -35.303   4.067  1.00  0.00     0.181 C 
HETATM   14 CL1  UNL     1     -21.523 -34.854   4.218  1.00  0.00    -0.112 Cl
ENDROOT
BRANCH   1  15
HETATM   15  N1  UNL     1     -17.821 -36.211   5.678  1.00  0.00    -0.287 NA
HETATM   16  C1  UNL     1     -16.954 -35.376   6.113  1.00  0.00     0.312 C 
HETATM   17  O1  UNL     1     -16.804 -34.898   7.296  1.00  0.00    -0.255 OA
BRANCH  16  18
HETATM   18  C2  UNL     1     -15.893 -34.806   5.155  1.00  0.00     0.126 C 
BRANCH  18  19
HETATM   19  C3  UNL     1     -16.551 -33.741   4.318  1.00  0.00    -0.005 C 
HETATM   20  C4  UNL     1     -15.603 -33.160   3.304  1.00  0.00     0.005 C 
HETATM   21  C5  UNL     1     -16.006 -31.802   2.802  1.00  0.00     0.000 C 
HETATM   22  C6  UNL     1     -17.405 -31.391   3.052  1.00  0.00     0.000 C 
HETATM   23  C7  UNL     1     -17.952 -31.776   4.416  1.00  0.00     0.000 C 
HETATM   24  C8  UNL     1     -16.921 -32.538   5.216  1.00  0.00     0.005 C 
ENDBRANCH  18  19
ENDBRANCH  16  18
ENDBRANCH   1  15
BRANCH  12  25
HETATM   25  C15 UNL     1     -20.136 -37.206  -0.579  1.00  0.00     0.219 C 
HETATM   26  O3  UNL     1     -20.472 -36.622  -1.675  1.00  0.00    -0.643 OA
HETATM   27  O4  UNL     1     -20.209 -38.553  -0.570  1.00  0.00    -0.643 OA
ENDBRANCH  12  25
TORSDOF 4
ENDMDL
MODEL 2
REMARK VINA RESULT: -8.606765986      2.719      6.535
REMARK  4 active torsions:
REMARK  status: ('A' for Active; 'I' for Inactive)
REMARK    1  A    between atoms: C1_2  and  C2_3 
REMARK       I    between atoms: C1_2  and  N1_10 
REMARK    2  A    between atoms: C2_3  and  C3_4 
REMARK    3  A    between atoms: N1_10  and  N2_11 
REMARK    4  A    between atoms: C14_22  and  C15_23 
ROOT
HETATM    1  N2  UNL     1     -17.330 -32.627   2.830  1.00  0.00    -0.238 N 
ATOM      2  H2  UNL     1     -16.675 -31.848   2.891  1.00  0.00     0.201 HD
HETATM    3  C9  UNL     1     -18.050 -32.928   3.829  1.00  0.00     0.048 C 
HETATM    4  C10 UNL     1     -17.987 -32.193   5.109  1.00  0.00     0.141 C 
HETATM    5  C11 UNL     1     -18.084 -33.230   6.205  1.00  0.00     0.168 C 
HETATM    6  O2  UNL     1     -18.298 -32.831   7.359  1.00  0.00    -0.292 OA
HETATM    7  C12 UNL     1     -17.923 -34.680   5.864  1.00  0.00     0.060 A 
HETATM    8  C13 UNL     1     -18.385 -35.122   4.662  1.00  0.00     0.055 A 
HETATM    9  N3  UNL     1     -18.254 -36.404   4.377  1.00  0.00    -0.327 N 
ATOM     10  H3  UNL     1     -18.545 -36.886   3.527  1.00  0.00     0.174 HD
HETATM   11  S1  UNL     1     -17.505 -37.062   5.716  1.00  0.00    -0.007 SA
HETATM   12  C14 UNL     1     -17.356 -35.625   6.677  1.00  0.00     0.114 A 
HETATM   13  C16 UNL     1     -19.003 -34.058   3.755  1.00  0.00     0.181 C 
HETATM   14 CL1  UNL     1     -20.514 -33.504   4.513  1.00  0.00    -0.112 Cl
ENDROOT
BRANCH   1  15
HETATM   15  N1  UNL     1     -17.431 -33.353   1.658  1.00  0.00    -0.287 NA
HETATM   16  C1  UNL     1     -17.514 -34.027   0.573  1.00  0.00     0.312 C 
HETATM   17  O1  UNL     1     -16.582 -34.581  -0.116  1.00  0.00    -0.255 OA
BRANCH  16  18
HETATM   18  C2  UNL     1     -18.888 -34.267  -0.076  1.00  0.00     0.126 C 
BRANCH  18  19
HETATM   19  C3  UNL     1     -19.315 -35.672   0.255  1.00  0.00    -0.005 C 
HETATM   20  C4  UNL     1     -19.569 -36.487  -0.985  1.00  0.00     0.005 C 
HETATM   21  C5  UNL     1     -20.453 -37.682  -0.759  1.00  0.00     0.000 C 
HETATM   22  C6  UNL     1     -20.638 -38.113   0.644  1.00  0.00     0.000 C 
HETATM   23  C7  UNL     1     -20.793 -36.981   1.647  1.00  0.00     0.000 C 
HETATM   24  C8  UNL     1     -20.689 -35.637   0.965  1.00  0.00     0.005 C 
ENDBRANCH  18  19
ENDBRANCH  16  18
ENDBRANCH   1  15
BRANCH  12  25
HETATM   25  C15 UNL     1     -16.748 -35.518   8.010  1.00  0.00     0.219 C 
HETATM   26  O3  UNL     1     -15.462 -35.484   8.024  1.00  0.00    -0.643 OA
HETATM   27  O4  UNL     1     -17.364 -35.452   9.208  1.00  0.00    -0.643 OA
ENDBRANCH  12  25
TORSDOF 4
ENDMDL
MODEL 3
REMARK VINA RESULT: -8.502362360      3.016      6.516
REMARK  4 active torsions:
REMARK  status: ('A' for Active; 'I' for Inactive)
REMARK    1  A    between atoms: C1_2  and  C2_3 
REMARK       I    between atoms: C1_2  and  N1_10 
REMARK    2  A    between atoms: C2_3  and  C3_4 
REMARK    3  A    between atoms: N1_10  and  N2_11 
REMARK    4  A    between atoms: C14_22  and  C15_23 
ROOT
HETATM    1  N2  UNL     1     -15.936 -33.798   2.280  1.00  0.00    -0.238 N 
ATOM      2  H2  UNL     1     -14.989 -34.164   2.376  1.00  0.00     0.201 HD
HETATM    3  C9  UNL     1     -16.486 -33.202   3.255  1.00  0.00     0.048 C 
HETATM    4  C10 UNL     1     -15.811 -33.007   4.554  1.00  0.00     0.141 C 
HETATM    5  C11 UNL     1     -16.858 -33.238   5.621  1.00  0.00     0.168 C 
HETATM    6  O2  UNL     1     -16.587 -32.892   6.779  1.00  0.00    -0.292 OA
HETATM    7  C12 UNL     1     -18.166 -33.866   5.245  1.00  0.00     0.060 A 
HETATM    8  C13 UNL     1     -18.696 -33.588   4.022  1.00  0.00     0.055 A 
HETATM    9  N3  UNL     1     -19.856 -34.132   3.707  1.00  0.00    -0.327 N 
ATOM     10  H3  UNL     1     -20.379 -34.023   2.839  1.00  0.00     0.174 HD
HETATM   11  S1  UNL     1     -20.278 -35.037   5.045  1.00  0.00    -0.007 SA
HETATM   12  C14 UNL     1     -18.901 -34.699   6.046  1.00  0.00     0.114 A 
HETATM   13  C16 UNL     1     -17.862 -32.670   3.130  1.00  0.00     0.181 C 
HETATM   14 CL1  UNL     1     -17.852 -31.051   3.868  1.00  0.00    -0.112 Cl
ENDROOT
BRANCH   1  15
HETATM   15  N1  UNL     1     -16.618 -33.953   1.087  1.00  0.00    -0.287 NA
HETATM   16  C1  UNL     1     -17.239 -34.097  -0.022  1.00  0.00     0.312 C 
HETATM   17  O1  UNL     1     -16.767 -34.244  -1.208  1.00  0.00    -0.255 OA
BRANCH  16  18
HETATM   18  C2  UNL     1     -18.778 -34.114  -0.042  1.00  0.00     0.126 C 
BRANCH  18  19
HETATM   19  C3  UNL     1     -19.226 -35.530   0.204  1.00  0.00    -0.005 C 
HETATM   20  C4  UNL     1     -19.364 -36.304  -1.080  1.00  0.00     0.005 C 
HETATM   21  C5  UNL     1     -20.259 -37.507  -0.973  1.00  0.00     0.000 C 
HETATM   22  C6  UNL     1     -20.567 -37.984   0.393  1.00  0.00     0.000 C 
HETATM   23  C7  UNL     1     -20.817 -36.887   1.415  1.00  0.00     0.000 C 
HETATM   24  C8  UNL     1     -20.658 -35.520   0.790  1.00  0.00     0.005 C 
ENDBRANCH  18  19
ENDBRANCH  16  18
ENDBRANCH   1  15
BRANCH  12  25
HETATM   25  C15 UNL     1     -18.646 -35.223   7.394  1.00  0.00     0.219 C 
HETATM   26  O3  UNL     1     -17.640 -36.018   7.491  1.00  0.00    -0.643 OA
HETATM   27  O4  UNL     1     -19.328 -34.976   8.531  1.00  0.00    -0.643 OA
ENDBRANCH  12  25
TORSDOF 4
ENDMDL
MODEL 4
REMARK VINA RESULT: -8.447578280      2.757      6.721
REMARK  4 active torsions:
REMARK  status: ('A' for Active; 'I' for Inactive)
REMARK    1  A    between atoms: C1_2  and  C2_3 
REMARK       I    between atoms: C1_2  and  N1_10 
REMARK    2  A    between atoms: C2_3  and  C3_4 
REMARK    3  A    between atoms: N1_10  and  N2_11 
REMARK    4  A    between atoms: C14_22  and  C15_23 
ROOT
HETATM    1  N2  UNL     1     -16.344 -33.811   1.809  1.00  0.00    -0.238 N 
ATOM      2  H2  UNL     1     -15.399 -34.131   1.599  1.00  0.00     0.201 HD
HETATM    3  C9  UNL     1     -16.597 -33.281   2.933  1.00  0.00     0.048 C 
HETATM    4  C10 UNL     1     -15.571 -33.100   3.979  1.00  0.00     0.141 C 
HETATM    5  C11 UNL     1     -16.239 -33.425   5.297  1.00  0.00     0.168 C 
HETATM    6  O2  UNL     1     -15.646 -33.108   6.337  1.00  0.00    -0.292 OA
HETATM    7  C12 UNL     1     -17.575 -34.105   5.297  1.00  0.00     0.060 A 
HETATM    8  C13 UNL     1     -18.458 -33.809   4.305  1.00  0.00     0.055 A 
HETATM    9  N3  UNL     1     -19.637 -34.400   4.323  1.00  0.00    -0.327 N 
ATOM     10  H3  UNL     1     -20.402 -34.286   3.658  1.00  0.00     0.174 HD
HETATM   11  S1  UNL     1     -19.602 -35.375   5.678  1.00  0.00    -0.007 SA
HETATM   12  C14 UNL     1     -18.003 -35.003   6.238  1.00  0.00     0.114 A 
HETATM   13  C16 UNL     1     -17.966 -32.816   3.251  1.00  0.00     0.181 C 
HETATM   14 CL1  UNL     1     -17.796 -31.227   4.035  1.00  0.00    -0.112 Cl
ENDROOT
BRANCH   1  15
HETATM   15  N1  UNL     1     -17.347 -33.957   0.868  1.00  0.00    -0.287 NA
HETATM   16  C1  UNL     1     -18.277 -34.080  -0.002  1.00  0.00     0.312 C 
HETATM   17  O1  UNL     1     -19.123 -33.208  -0.420  1.00  0.00    -0.255 OA
BRANCH  16  18
HETATM   18  C2  UNL     1     -18.491 -35.430  -0.708  1.00  0.00     0.126 C 
BRANCH  18  19
HETATM   19  C3  UNL     1     -19.677 -36.102  -0.068  1.00  0.00    -0.005 C 
HETATM   20  C4  UNL     1     -19.488 -36.278   1.414  1.00  0.00     0.005 C 
HETATM   21  C5  UNL     1     -20.353 -37.350   2.016  1.00  0.00     0.000 C 
HETATM   22  C6  UNL     1     -21.501 -37.809   1.203  1.00  0.00     0.000 C 
HETATM   23  C7  UNL     1     -21.218 -37.950  -0.284  1.00  0.00     0.000 C 
HETATM   24  C8  UNL     1     -19.797 -37.549  -0.604  1.00  0.00     0.005 C 
ENDBRANCH  18  19
ENDBRANCH  16  18
ENDBRANCH   1  15
BRANCH  12  25
HETATM   25  C15 UNL     1     -17.334 -35.563   7.420  1.00  0.00     0.219 C 
HETATM   26  O3  UNL     1     -18.003 -35.487   8.516  1.00  0.00    -0.643 OA
HETATM   27  O4  UNL     1     -16.118 -36.143   7.497  1.00  0.00    -0.643 OA
ENDBRANCH  12  25
TORSDOF 4
ENDMDL
MODEL 5
REMARK VINA RESULT: -8.400979956      3.140      5.619
REMARK  4 active torsions:
REMARK  status: ('A' for Active; 'I' for Inactive)
REMARK    1  A    between atoms: C1_2  and  C2_3 
REMARK       I    between atoms: C1_2  and  N1_10 
REMARK    2  A    between atoms: C2_3  and  C3_4 
REMARK    3  A    between atoms: N1_10  and  N2_11 
REMARK    4  A    between atoms: C14_22  and  C15_23 
ROOT
HETATM    1  N2  UNL     1     -15.798 -33.971   3.531  1.00  0.00    -0.238 N 
ATOM      2  H2  UNL     1     -14.976 -34.563   3.406  1.00  0.00     0.201 HD
HETATM    3  C9  UNL     1     -16.398 -33.950   4.646  1.00  0.00     0.048 C 
HETATM    4  C10 UNL     1     -15.963 -34.758   5.804  1.00  0.00     0.141 C 
HETATM    5  C11 UNL     1     -17.221 -35.282   6.459  1.00  0.00     0.168 C 
HETATM    6  O2  UNL     1     -17.117 -35.783   7.588  1.00  0.00    -0.292 OA
HETATM    7  C12 UNL     1     -18.528 -35.178   5.734  1.00  0.00     0.060 A 
HETATM    8  C13 UNL     1     -18.747 -34.096   4.937  1.00  0.00     0.055 A 
HETATM    9  N3  UNL     1     -19.907 -34.004   4.316  1.00  0.00    -0.327 N 
ATOM     10  H3  UNL     1     -20.222 -33.263   3.690  1.00  0.00     0.174 HD
HETATM   11  S1  UNL     1     -20.748 -35.369   4.782  1.00  0.00    -0.007 SA
HETATM   12  C14 UNL     1     -19.552 -36.083   5.817  1.00  0.00     0.114 A 
HETATM   13  C16 UNL     1     -17.594 -33.098   4.839  1.00  0.00     0.181 C 
HETATM   14 CL1  UNL     1     -17.412 -32.314   6.427  1.00  0.00    -0.112 Cl
ENDROOT
BRANCH   1  15
HETATM   15  N1  UNL     1     -16.253 -33.193   2.482  1.00  0.00    -0.287 NA
HETATM   16  C1  UNL     1     -16.674 -32.464   1.519  1.00  0.00     0.312 C 
HETATM   17  O1  UNL     1     -17.077 -31.244   1.534  1.00  0.00    -0.255 OA
BRANCH  16  18
HETATM   18  C2  UNL     1     -16.744 -33.043   0.094  1.00  0.00     0.126 C 
BRANCH  18  19
HETATM   19  C3  UNL     1     -17.539 -34.321   0.155  1.00  0.00    -0.005 C 
HETATM   20  C4  UNL     1     -17.563 -35.028  -1.174  1.00  0.00     0.005 C 
HETATM   21  C5  UNL     1     -18.704 -35.994  -1.329  1.00  0.00     0.000 C 
HETATM   22  C6  UNL     1     -19.399 -36.403  -0.088  1.00  0.00     0.000 C 
HETATM   23  C7  UNL     1     -19.614 -35.289   0.923  1.00  0.00     0.000 C 
HETATM   24  C8  UNL     1     -19.024 -33.989   0.429  1.00  0.00     0.005 C 
ENDBRANCH  18  19
ENDBRANCH  16  18
ENDBRANCH   1  15
BRANCH  12  25
HETATM   25  C15 UNL     1     -19.669 -37.350   6.550  1.00  0.00     0.219 C 
HETATM   26  O3  UNL     1     -20.152 -37.254   7.738  1.00  0.00    -0.643 OA
HETATM   27  O4  UNL     1     -19.336 -38.590   6.136  1.00  0.00    -0.643 OA
ENDBRANCH  12  25
TORSDOF 4
ENDMDL
