MODEL 1
REMARK VINA RESULT: -6.187704486      0.000      0.000
REMARK  9 active torsions:
REMARK  status: ('A' for Active; 'I' for Inactive)
REMARK    1  A    between atoms: N1_1  and  C1_5 
REMARK    2  A    between atoms: C1_5  and  C2_6 
REMARK    3  A    between atoms: C2_6  and  N2_7 
REMARK    4  A    between atoms: N2_7  and  C3_8 
REMARK    5  A    between atoms: N2_7  and  C4_11 
REMARK    6  A    between atoms: C3_8  and  O1_9 
REMARK    7  A    between atoms: C4_11  and  O2_12 
REMARK    8  A    between atoms: C4_11  and  C5_14 
REMARK    9  A    between atoms: C5_14  and  N3_15 
ROOT
HETATM    1  N2  UNL     1      88.679  74.133  30.709  1.00  0.00    -0.319 N 
ENDROOT
BRANCH   1   2
HETATM    2  C2  UNL     1      89.554  73.175  31.259  1.00  0.00     0.106 C 
BRANCH   2   3
HETATM    3  C1  UNL     1      90.390  72.311  30.445  1.00  0.00     0.155 C 
HETATM    4  C9  UNL     1      90.846  70.958  30.823  1.00  0.00     0.044 C 
HETATM    5  C10 UNL     1      91.994  71.200  29.819  1.00  0.00     0.005 C 
HETATM    6  C11 UNL     1      91.871  72.662  30.314  1.00  0.00     0.044 C 
BRANCH   3   7
HETATM    7  N1  UNL     1      89.845  72.258  29.068  1.00  0.00    -0.066 N 
ATOM      8  H13 UNL     1      89.683  71.301  28.753  1.00  0.00     0.275 HD
ATOM      9  H12 UNL     1      88.882  72.590  29.020  1.00  0.00     0.275 HD
ATOM     10  H11 UNL     1      90.463  72.772  28.441  1.00  0.00     0.275 HD
ENDBRANCH   3   7
ENDBRANCH   2   3
ENDBRANCH   1   2
BRANCH   1  11
HETATM   11  C3  UNL     1      89.226  75.532  30.683  1.00  0.00     0.296 C 
BRANCH  11  12
HETATM   12  O1  UNL     1      88.268  76.320  30.000  1.00  0.00    -0.382 OA
ATOM     13  H1  UNL     1      88.596  77.212  30.018  1.00  0.00     0.211 HD
ENDBRANCH  11  12
ENDBRANCH   1  11
BRANCH   1  14
HETATM   14  C4  UNL     1      87.396  74.014  30.152  1.00  0.00     0.157 C 
BRANCH  14  15
HETATM   15  O2  UNL     1      87.404  74.039  28.845  1.00  0.00    -0.347 OA
ATOM     16  H2  UNL     1      87.764  73.248  28.462  1.00  0.00     0.219 HD
ENDBRANCH  14  15
BRANCH  14  17
HETATM   17  C5  UNL     1      86.086  73.862  30.726  1.00  0.00     0.196 C 
HETATM   18  C6  UNL     1      84.988  74.549  29.918  1.00  0.00     0.058 C 
HETATM   19  C7  UNL     1      83.830  74.683  30.901  1.00  0.00     0.077 C 
HETATM   20  S1  UNL     1      83.894  73.029  31.704  1.00  0.00    -0.166 SA
HETATM   21  C8  UNL     1      85.549  72.519  31.044  1.00  0.00     0.121 C 
BRANCH  17  22
HETATM   22  N3  UNL     1      86.066  74.599  32.019  1.00  0.00    -0.062 N 
ATOM     23  H33 UNL     1      86.157  73.982  32.826  1.00  0.00     0.275 HD
ATOM     24  H32 UNL     1      86.909  75.150  32.173  1.00  0.00     0.275 HD
ATOM     25  H31 UNL     1      85.215  75.161  32.046  1.00  0.00     0.275 HD
ENDBRANCH  17  22
ENDBRANCH  14  17
ENDBRANCH   1  14
TORSDOF 9
ENDMDL
MODEL 2
REMARK VINA RESULT: -6.187609545      2.241      5.110
REMARK  9 active torsions:
REMARK  status: ('A' for Active; 'I' for Inactive)
REMARK    1  A    between atoms: N1_1  and  C1_5 
REMARK    2  A    between atoms: C1_5  and  C2_6 
REMARK    3  A    between atoms: C2_6  and  N2_7 
REMARK    4  A    between atoms: N2_7  and  C3_8 
REMARK    5  A    between atoms: N2_7  and  C4_11 
REMARK    6  A    between atoms: C3_8  and  O1_9 
REMARK    7  A    between atoms: C4_11  and  O2_12 
REMARK    8  A    between atoms: C4_11  and  C5_14 
REMARK    9  A    between atoms: C5_14  and  N3_15 
ROOT
HETATM    1  N2  UNL     1      86.957  74.262  30.166  1.00  0.00    -0.319 N 
ENDROOT
BRANCH   1   2
HETATM    2  C2  UNL     1      85.570  74.496  30.080  1.00  0.00     0.106 C 
BRANCH   2   3
HETATM    3  C1  UNL     1      84.647  74.179  31.155  1.00  0.00     0.155 C 
HETATM    4  C9  UNL     1      85.032  73.753  32.515  1.00  0.00     0.044 C 
HETATM    5  C10 UNL     1      83.625  73.118  32.579  1.00  0.00     0.005 C 
HETATM    6  C11 UNL     1      83.875  72.864  31.071  1.00  0.00     0.044 C 
BRANCH   3   7
HETATM    7  N1  UNL     1      83.635  75.257  31.266  1.00  0.00    -0.066 N 
ATOM      8  H13 UNL     1      83.594  75.653  32.205  1.00  0.00     0.275 HD
ATOM      9  H12 UNL     1      83.913  76.100  30.765  1.00  0.00     0.275 HD
ATOM     10  H11 UNL     1      82.730  74.903  30.956  1.00  0.00     0.275 HD
ENDBRANCH   3   7
ENDBRANCH   2   3
ENDBRANCH   1   2
BRANCH   1  11
HETATM   11  C3  UNL     1      87.739  75.386  30.785  1.00  0.00     0.296 C 
BRANCH  11  12
HETATM   12  O1  UNL     1      88.069  76.268  29.727  1.00  0.00    -0.382 OA
ATOM     13  H1  UNL     1      87.494  77.019  29.817  1.00  0.00     0.211 HD
ENDBRANCH  11  12
ENDBRANCH   1  11
BRANCH   1  14
HETATM   14  C4  UNL     1      87.741  73.154  29.807  1.00  0.00     0.157 C 
BRANCH  14  15
HETATM   15  O2  UNL     1      88.360  73.316  28.668  1.00  0.00    -0.347 OA
ATOM     16  H2  UNL     1      87.795  73.178  27.916  1.00  0.00     0.219 HD
ENDBRANCH  14  15
BRANCH  14  17
HETATM   17  C5  UNL     1      88.004  71.892  30.443  1.00  0.00     0.196 C 
HETATM   18  C6  UNL     1      88.655  72.029  31.817  1.00  0.00     0.058 C 
HETATM   19  C7  UNL     1      89.267  70.658  32.079  1.00  0.00     0.077 C 
HETATM   20  S1  UNL     1      87.903  69.576  31.485  1.00  0.00    -0.166 SA
HETATM   21  C8  UNL     1      86.924  70.895  30.626  1.00  0.00     0.121 C 
BRANCH  17  22
HETATM   22  N3  UNL     1      89.044  71.187  29.645  1.00  0.00    -0.062 N 
ATOM     23  H33 UNL     1      88.975  71.380  28.646  1.00  0.00     0.275 HD
ATOM     24  H32 UNL     1      89.979  71.566  29.792  1.00  0.00     0.275 HD
ATOM     25  H31 UNL     1      88.983  70.191  29.860  1.00  0.00     0.275 HD
ENDBRANCH  17  22
ENDBRANCH  14  17
ENDBRANCH   1  14
TORSDOF 9
ENDMDL
MODEL 3
REMARK VINA RESULT: -6.038122871      2.299      5.530
REMARK  9 active torsions:
REMARK  status: ('A' for Active; 'I' for Inactive)
REMARK    1  A    between atoms: N1_1  and  C1_5 
REMARK    2  A    between atoms: C1_5  and  C2_6 
REMARK    3  A    between atoms: C2_6  and  N2_7 
REMARK    4  A    between atoms: N2_7  and  C3_8 
REMARK    5  A    between atoms: N2_7  and  C4_11 
REMARK    6  A    between atoms: C3_8  and  O1_9 
REMARK    7  A    between atoms: C4_11  and  O2_12 
REMARK    8  A    between atoms: C4_11  and  C5_14 
REMARK    9  A    between atoms: C5_14  and  N3_15 
ROOT
HETATM    1  N2  UNL     1      87.992  74.135  30.564  1.00  0.00    -0.319 N 
ENDROOT
BRANCH   1   2
HETATM    2  C2  UNL     1      86.675  74.222  30.067  1.00  0.00     0.106 C 
BRANCH   2   3
HETATM    3  C1  UNL     1      85.505  73.944  30.880  1.00  0.00     0.155 C 
HETATM    4  C9  UNL     1      84.735  72.684  30.867  1.00  0.00     0.044 C 
HETATM    5  C10 UNL     1      83.567  73.538  31.408  1.00  0.00     0.005 C 
HETATM    6  C11 UNL     1      84.193  74.631  30.505  1.00  0.00     0.044 C 
BRANCH   3   7
HETATM    7  N1  UNL     1      85.788  74.311  32.287  1.00  0.00    -0.066 N 
ATOM      8  H13 UNL     1      85.249  73.751  32.949  1.00  0.00     0.275 HD
ATOM      9  H12 UNL     1      86.721  74.024  32.582  1.00  0.00     0.275 HD
ATOM     10  H11 UNL     1      85.633  75.311  32.413  1.00  0.00     0.275 HD
ENDBRANCH   3   7
ENDBRANCH   2   3
ENDBRANCH   1   2
BRANCH   1  11
HETATM   11  C3  UNL     1      88.713  75.451  30.643  1.00  0.00     0.296 C 
BRANCH  11  12
HETATM   12  O1  UNL     1      88.073  76.310  29.717  1.00  0.00    -0.382 OA
ATOM     13  H1  UNL     1      88.203  77.194  30.041  1.00  0.00     0.211 HD
ENDBRANCH  11  12
ENDBRANCH   1  11
BRANCH   1  14
HETATM   14  C4  UNL     1      88.744  73.046  31.029  1.00  0.00     0.157 C 
BRANCH  14  15
HETATM   15  O2  UNL     1      88.412  72.676  32.238  1.00  0.00    -0.347 OA
ATOM     16  H2  UNL     1      89.108  72.211  32.687  1.00  0.00     0.219 HD
ENDBRANCH  14  15
BRANCH  14  17
HETATM   17  C5  UNL     1      89.792  72.254  30.443  1.00  0.00     0.196 C 
HETATM   18  C6  UNL     1      91.180  72.866  30.613  1.00  0.00     0.058 C 
HETATM   19  C7  UNL     1      92.027  72.170  29.554  1.00  0.00     0.077 C 
HETATM   20  S1  UNL     1      91.430  70.441  29.748  1.00  0.00    -0.166 SA
HETATM   21  C8  UNL     1      89.953  70.826  30.799  1.00  0.00     0.121 C 
BRANCH  17  22
HETATM   22  N3  UNL     1      89.598  72.261  28.967  1.00  0.00    -0.062 N 
ATOM     23  H33 UNL     1      89.879  73.141  28.536  1.00  0.00     0.275 HD
ATOM     24  H32 UNL     1      90.257  71.654  28.479  1.00  0.00     0.275 HD
ATOM     25  H31 UNL     1      88.625  72.021  28.777  1.00  0.00     0.275 HD
ENDBRANCH  17  22
ENDBRANCH  14  17
ENDBRANCH   1  14
TORSDOF 9
ENDMDL
MODEL 4
REMARK VINA RESULT: -5.983504311      2.445      5.452
REMARK  9 active torsions:
REMARK  status: ('A' for Active; 'I' for Inactive)
REMARK    1  A    between atoms: N1_1  and  C1_5 
REMARK    2  A    between atoms: C1_5  and  C2_6 
REMARK    3  A    between atoms: C2_6  and  N2_7 
REMARK    4  A    between atoms: N2_7  and  C3_8 
REMARK    5  A    between atoms: N2_7  and  C4_11 
REMARK    6  A    between atoms: C3_8  and  O1_9 
REMARK    7  A    between atoms: C4_11  and  O2_12 
REMARK    8  A    between atoms: C4_11  and  C5_14 
REMARK    9  A    between atoms: C5_14  and  N3_15 
ROOT
HETATM    1  N2  UNL     1      87.017  74.050  30.755  1.00  0.00    -0.319 N 
ENDROOT
BRANCH   1   2
HETATM    2  C2  UNL     1      86.119  73.590  31.739  1.00  0.00     0.106 C 
BRANCH   2   3
HETATM    3  C1  UNL     1      84.772  73.145  31.433  1.00  0.00     0.155 C 
HETATM    4  C9  UNL     1      83.638  74.027  31.089  1.00  0.00     0.044 C 
HETATM    5  C10 UNL     1      82.748  72.862  31.575  1.00  0.00     0.005 C 
HETATM    6  C11 UNL     1      83.903  72.646  32.585  1.00  0.00     0.044 C 
BRANCH   3   7
HETATM    7  N1  UNL     1      84.833  72.045  30.442  1.00  0.00    -0.066 N 
ATOM      8  H13 UNL     1      83.916  71.824  30.053  1.00  0.00     0.275 HD
ATOM      9  H12 UNL     1      85.292  72.329  29.577  1.00  0.00     0.275 HD
ATOM     10  H11 UNL     1      85.278  71.232  30.868  1.00  0.00     0.275 HD
ENDBRANCH   3   7
ENDBRANCH   2   3
ENDBRANCH   1   2
BRANCH   1  11
HETATM   11  C3  UNL     1      86.700  75.417  30.216  1.00  0.00     0.296 C 
BRANCH  11  12
HETATM   12  O1  UNL     1      87.934  75.976  29.803  1.00  0.00    -0.382 OA
ATOM     13  H1  UNL     1      87.769  76.898  29.647  1.00  0.00     0.211 HD
ENDBRANCH  11  12
ENDBRANCH   1  11
BRANCH   1  14
HETATM   14  C4  UNL     1      88.176  73.478  30.207  1.00  0.00     0.157 C 
BRANCH  14  15
HETATM   15  O2  UNL     1      88.093  73.298  28.915  1.00  0.00    -0.347 OA
ATOM     16  H2  UNL     1      88.734  73.802  28.429  1.00  0.00     0.219 HD
ENDBRANCH  14  15
BRANCH  14  17
HETATM   17  C5  UNL     1      89.429  73.062  30.776  1.00  0.00     0.196 C 
HETATM   18  C6  UNL     1      89.273  72.289  32.084  1.00  0.00     0.058 C 
HETATM   19  C7  UNL     1      90.649  72.373  32.734  1.00  0.00     0.077 C 
HETATM   20  S1  UNL     1      91.718  72.075  31.267  1.00  0.00    -0.166 SA
HETATM   21  C8  UNL     1      90.402  72.279  29.980  1.00  0.00     0.121 C 
BRANCH  17  22
HETATM   22  N3  UNL     1      90.170  74.283  31.192  1.00  0.00    -0.062 N 
ATOM     23  H33 UNL     1      90.173  75.007  30.474  1.00  0.00     0.275 HD
ATOM     24  H32 UNL     1      89.685  74.813  31.916  1.00  0.00     0.275 HD
ATOM     25  H31 UNL     1      91.109  74.000  31.472  1.00  0.00     0.275 HD
ENDBRANCH  17  22
ENDBRANCH  14  17
ENDBRANCH   1  14
TORSDOF 9
ENDMDL
MODEL 5
REMARK VINA RESULT: -5.975756600      2.207      5.089
REMARK  9 active torsions:
REMARK  status: ('A' for Active; 'I' for Inactive)
REMARK    1  A    between atoms: N1_1  and  C1_5 
REMARK    2  A    between atoms: C1_5  and  C2_6 
REMARK    3  A    between atoms: C2_6  and  N2_7 
REMARK    4  A    between atoms: N2_7  and  C3_8 
REMARK    5  A    between atoms: N2_7  and  C4_11 
REMARK    6  A    between atoms: C3_8  and  O1_9 
REMARK    7  A    between atoms: C4_11  and  O2_12 
REMARK    8  A    between atoms: C4_11  and  C5_14 
REMARK    9  A    between atoms: C5_14  and  N3_15 
ROOT
HETATM    1  N2  UNL     1      87.229  74.474  30.302  1.00  0.00    -0.319 N 
ENDROOT
BRANCH   1   2
HETATM    2  C2  UNL     1      85.831  74.651  30.339  1.00  0.00     0.106 C 
BRANCH   2   3
HETATM    3  C1  UNL     1      84.967  73.925  31.251  1.00  0.00     0.155 C 
HETATM    4  C9  UNL     1      84.612  72.496  31.139  1.00  0.00     0.044 C 
HETATM    5  C10 UNL     1      83.368  72.868  31.975  1.00  0.00     0.005 C 
HETATM    6  C11 UNL     1      83.466  74.198  31.187  1.00  0.00     0.044 C 
BRANCH   3   7
HETATM    7  N1  UNL     1      85.387  74.199  32.646  1.00  0.00    -0.066 N 
ATOM      8  H13 UNL     1      84.627  74.062  33.313  1.00  0.00     0.275 HD
ATOM      9  H12 UNL     1      86.023  73.488  33.005  1.00  0.00     0.275 HD
ATOM     10  H11 UNL     1      85.784  75.137  32.700  1.00  0.00     0.275 HD
ENDBRANCH   3   7
ENDBRANCH   2   3
ENDBRANCH   1   2
BRANCH   1  11
HETATM   11  C3  UNL     1      88.018  75.652  30.799  1.00  0.00     0.296 C 
BRANCH  11  12
HETATM   12  O1  UNL     1      88.304  76.445  29.662  1.00  0.00    -0.382 OA
ATOM     13  H1  UNL     1      87.919  75.995  28.919  1.00  0.00     0.211 HD
ENDBRANCH  11  12
ENDBRANCH   1  11
BRANCH   1  14
HETATM   14  C4  UNL     1      88.021  73.382  29.912  1.00  0.00     0.157 C 
BRANCH  14  15
HETATM   15  O2  UNL     1      88.215  73.328  28.621  1.00  0.00    -0.347 OA
ATOM     16  H2  UNL     1      87.408  73.387  28.123  1.00  0.00     0.219 HD
ENDBRANCH  14  15
BRANCH  14  17
HETATM   17  C5  UNL     1      88.666  72.326  30.646  1.00  0.00     0.196 C 
HETATM   18  C6  UNL     1      87.948  70.984  30.530  1.00  0.00     0.058 C 
HETATM   19  C7  UNL     1      88.477  70.175  31.708  1.00  0.00     0.077 C 
HETATM   20  S1  UNL     1      90.263  70.608  31.622  1.00  0.00    -0.166 SA
HETATM   21  C8  UNL     1      90.098  72.017  30.429  1.00  0.00     0.121 C 
BRANCH  17  22
HETATM   22  N3  UNL     1      88.557  72.644  32.095  1.00  0.00    -0.062 N 
ATOM     23  H33 UNL     1      87.824  72.111  32.563  1.00  0.00     0.275 HD
ATOM     24  H32 UNL     1      89.347  72.293  32.637  1.00  0.00     0.275 HD
ATOM     25  H31 UNL     1      88.433  73.652  32.187  1.00  0.00     0.275 HD
ENDBRANCH  17  22
ENDBRANCH  14  17
ENDBRANCH   1  14
TORSDOF 9
ENDMDL
