MODEL 1
REMARK VINA RESULT: -6.445246528      0.000      0.000
REMARK  7 active torsions:
REMARK  status: ('A' for Active; 'I' for Inactive)
REMARK    1  A    between atoms: C1_4  and  O1_6 
REMARK    2  A    between atoms: O1_6  and  C2_7 
REMARK    3  A    between atoms: C2_7  and  C3_8 
REMARK    4  A    between atoms: C7_12  and  C8_13 
REMARK    5  A    between atoms: C7_12  and  C9_16 
REMARK    6  A    between atoms: C8_13  and  O2_14 
REMARK    7  A    between atoms: C12_19  and  O3_20 
ROOT
HETATM    1  C2  UNL     1      86.748  73.045  30.592  1.00  0.00     0.085 A 
HETATM    2  C6  UNL     1      86.389  73.766  31.915  1.00  0.00     0.055 A 
HETATM    3  C7  UNL     1      85.365  73.257  30.882  1.00  0.00     0.020 A 
ENDROOT
BRANCH   3   4
HETATM    4  C8  UNL     1      84.714  74.371  30.003  1.00  0.00     0.177 C 
BRANCH   4   5
HETATM    5  O2  UNL     1      85.097  75.586  30.537  1.00  0.00    -0.400 OA
ATOM      6  H2  UNL     1      85.326  76.151  29.809  1.00  0.00     0.209 HD
ENDBRANCH   4   5
ENDBRANCH   3   4
BRANCH   3   7
HETATM    7  C9  UNL     1      84.323  72.410  31.467  1.00  0.00     0.002 C 
HETATM    8  C10 UNL     1      83.923  71.173  30.705  1.00  0.00     0.008 C 
HETATM    9  C11 UNL     1      82.784  70.670  31.597  1.00  0.00     0.032 C 
HETATM   10  C12 UNL     1      82.135  71.916  32.154  1.00  0.00     0.118 C 
HETATM   11  C13 UNL     1      83.129  73.031  32.072  1.00  0.00     0.037 C 
BRANCH  10  12
HETATM   12  O3  UNL     1      81.720  71.690  33.464  1.00  0.00    -0.396 OA
ATOM     13  H3  UNL     1      81.051  72.319  33.705  1.00  0.00     0.210 HD
ENDBRANCH  10  12
ENDBRANCH   3   7
BRANCH   1  14
HETATM   14  O1  UNL     1      87.366  74.023  29.724  1.00  0.00    -0.312 OA
BRANCH  14  15
HETATM   15  C1  UNL     1      88.329  74.837  30.278  1.00  0.00     0.225 C 
HETATM   16  N1  UNL     1      89.425  74.397  30.791  1.00  0.00    -0.368 N 
ATOM     17  H12 UNL     1      90.139  75.000  31.201  1.00  0.00     0.159 HD
ATOM     18  H11 UNL     1      89.539  73.384  30.757  1.00  0.00     0.159 HD
HETATM   19  N2  UNL     1      88.169  76.267  30.325  1.00  0.00    -0.057 NA
ENDBRANCH  14  15
ENDBRANCH   1  14
BRANCH   1  20
HETATM   20  C3  UNL     1      87.649  71.882  30.755  1.00  0.00     0.022 A 
HETATM   21  C4  UNL     1      87.724  70.887  29.546  1.00  0.00     0.008 A 
HETATM   22  C5  UNL     1      87.324  70.476  30.884  1.00  0.00     0.008 A 
ENDBRANCH   1  20
TORSDOF 7
ENDMDL
MODEL 2
REMARK VINA RESULT: -6.188827830      3.044      4.560
REMARK  7 active torsions:
REMARK  status: ('A' for Active; 'I' for Inactive)
REMARK    1  A    between atoms: C1_4  and  O1_6 
REMARK    2  A    between atoms: O1_6  and  C2_7 
REMARK    3  A    between atoms: C2_7  and  C3_8 
REMARK    4  A    between atoms: C7_12  and  C8_13 
REMARK    5  A    between atoms: C7_12  and  C9_16 
REMARK    6  A    between atoms: C8_13  and  O2_14 
REMARK    7  A    between atoms: C12_19  and  O3_20 
ROOT
HETATM    1  C2  UNL     1      88.898  71.638  31.346  1.00  0.00     0.085 A 
HETATM    2  C6  UNL     1      88.642  71.965  29.854  1.00  0.00     0.055 A 
HETATM    3  C7  UNL     1      87.541  71.737  30.908  1.00  0.00     0.020 A 
ENDROOT
BRANCH   3   4
HETATM    4  C8  UNL     1      86.821  70.356  30.813  1.00  0.00     0.177 C 
BRANCH   4   5
HETATM    5  O2  UNL     1      87.191  69.787  29.609  1.00  0.00    -0.400 OA
ATOM      6  H2  UNL     1      86.695  68.982  29.517  1.00  0.00     0.209 HD
ENDBRANCH   4   5
ENDBRANCH   3   4
BRANCH   3   7
HETATM    7  C9  UNL     1      86.551  72.815  30.955  1.00  0.00     0.002 C 
HETATM    8  C10 UNL     1      85.098  72.430  30.846  1.00  0.00     0.008 C 
HETATM    9  C11 UNL     1      84.456  73.820  30.838  1.00  0.00     0.032 C 
HETATM   10  C12 UNL     1      85.448  74.712  30.127  1.00  0.00     0.118 C 
HETATM   11  C13 UNL     1      86.793  74.064  30.207  1.00  0.00     0.037 C 
BRANCH  10  12
HETATM   12  O3  UNL     1      85.449  75.978  30.707  1.00  0.00    -0.396 OA
ATOM     13  H3  UNL     1      86.016  76.560  30.215  1.00  0.00     0.210 HD
ENDBRANCH  10  12
ENDBRANCH   3   7
BRANCH   1  14
HETATM   14  O1  UNL     1      89.444  70.300  31.405  1.00  0.00    -0.312 OA
BRANCH  14  15
HETATM   15  C1  UNL     1      89.911  69.864  32.625  1.00  0.00     0.225 C 
HETATM   16  N1  UNL     1      91.071  69.334  32.797  1.00  0.00    -0.368 N 
ATOM     17  H12 UNL     1      91.417  69.011  33.701  1.00  0.00     0.159 HD
ATOM     18  H11 UNL     1      91.637  69.256  31.953  1.00  0.00     0.159 HD
HETATM   19  N2  UNL     1      89.112  69.973  33.819  1.00  0.00    -0.057 NA
ENDBRANCH  14  15
ENDBRANCH   1  14
BRANCH   1  20
HETATM   20  C3  UNL     1      89.811  72.580  32.031  1.00  0.00     0.022 A 
HETATM   21  C4  UNL     1      90.306  73.805  31.186  1.00  0.00     0.008 A 
HETATM   22  C5  UNL     1      91.215  72.842  31.790  1.00  0.00     0.008 A 
ENDBRANCH   1  20
TORSDOF 7
ENDMDL
MODEL 3
REMARK VINA RESULT: -6.055583653      3.885      5.827
REMARK  7 active torsions:
REMARK  status: ('A' for Active; 'I' for Inactive)
REMARK    1  A    between atoms: C1_4  and  O1_6 
REMARK    2  A    between atoms: O1_6  and  C2_7 
REMARK    3  A    between atoms: C2_7  and  C3_8 
REMARK    4  A    between atoms: C7_12  and  C8_13 
REMARK    5  A    between atoms: C7_12  and  C9_16 
REMARK    6  A    between atoms: C8_13  and  O2_14 
REMARK    7  A    between atoms: C12_19  and  O3_20 
ROOT
HETATM    1  C2  UNL     1      90.890  70.614  31.169  1.00  0.00     0.085 A 
HETATM    2  C6  UNL     1      89.566  69.822  31.307  1.00  0.00     0.055 A 
HETATM    3  C7  UNL     1      89.809  71.237  31.868  1.00  0.00     0.020 A 
ENDROOT
BRANCH   3   4
HETATM    4  C8  UNL     1      90.027  71.299  33.412  1.00  0.00     0.177 C 
BRANCH   4   5
HETATM    5  O2  UNL     1      89.347  70.230  33.962  1.00  0.00    -0.400 OA
ATOM      6  H2  UNL     1      89.998  69.654  34.347  1.00  0.00     0.209 HD
ENDBRANCH   4   5
ENDBRANCH   3   4
BRANCH   3   7
HETATM    7  C9  UNL     1      88.784  72.203  31.468  1.00  0.00     0.002 C 
HETATM    8  C10 UNL     1      87.678  71.714  30.569  1.00  0.00     0.008 C 
HETATM    9  C11 UNL     1      86.927  73.028  30.335  1.00  0.00     0.032 C 
HETATM   10  C12 UNL     1      87.991  74.101  30.341  1.00  0.00     0.118 C 
HETATM   11  C13 UNL     1      89.181  73.569  31.072  1.00  0.00     0.037 C 
BRANCH  10  12
HETATM   12  O3  UNL     1      87.494  75.259  30.935  1.00  0.00    -0.396 OA
ATOM     13  H3  UNL     1      88.209  75.769  31.298  1.00  0.00     0.210 HD
ENDBRANCH  10  12
ENDBRANCH   3   7
BRANCH   1  14
HETATM   14  O1  UNL     1      91.874  69.952  31.997  1.00  0.00    -0.312 OA
BRANCH  14  15
HETATM   15  C1  UNL     1      93.150  70.470  31.993  1.00  0.00     0.225 C 
HETATM   16  N1  UNL     1      94.174  69.843  31.528  1.00  0.00    -0.368 N 
ATOM     17  H12 UNL     1      95.119  70.227  31.525  1.00  0.00     0.159 HD
ATOM     18  H11 UNL     1      93.975  68.916  31.152  1.00  0.00     0.159 HD
HETATM   19  N2  UNL     1      93.432  71.779  32.523  1.00  0.00    -0.057 NA
ENDBRANCH  14  15
ENDBRANCH   1  14
BRANCH   1  20
HETATM   20  C3  UNL     1      91.395  70.724  29.783  1.00  0.00     0.022 A 
HETATM   21  C4  UNL     1      91.939  72.130  29.352  1.00  0.00     0.008 A 
HETATM   22  C5  UNL     1      90.849  71.457  28.659  1.00  0.00     0.008 A 
ENDBRANCH   1  20
TORSDOF 7
ENDMDL
MODEL 4
REMARK VINA RESULT: -5.947101106      3.443      5.075
REMARK  7 active torsions:
REMARK  status: ('A' for Active; 'I' for Inactive)
REMARK    1  A    between atoms: C1_4  and  O1_6 
REMARK    2  A    between atoms: O1_6  and  C2_7 
REMARK    3  A    between atoms: C2_7  and  C3_8 
REMARK    4  A    between atoms: C7_12  and  C8_13 
REMARK    5  A    between atoms: C7_12  and  C9_16 
REMARK    6  A    between atoms: C8_13  and  O2_14 
REMARK    7  A    between atoms: C12_19  and  O3_20 
ROOT
HETATM    1  C2  UNL     1      89.528  70.951  30.609  1.00  0.00     0.085 A 
HETATM    2  C6  UNL     1      89.486  71.929  29.408  1.00  0.00     0.055 A 
HETATM    3  C7  UNL     1      88.251  71.439  30.190  1.00  0.00     0.020 A 
ENDROOT
BRANCH   3   4
HETATM    4  C8  UNL     1      87.393  70.366  29.450  1.00  0.00     0.177 C 
BRANCH   4   5
HETATM    5  O2  UNL     1      87.754  70.405  28.118  1.00  0.00    -0.400 OA
ATOM      6  H2  UNL     1      87.400  71.210  27.756  1.00  0.00     0.209 HD
ENDBRANCH   4   5
ENDBRANCH   3   4
BRANCH   3   7
HETATM    7  C9  UNL     1      87.393  72.528  30.660  1.00  0.00     0.002 C 
HETATM    8  C10 UNL     1      85.926  72.232  30.836  1.00  0.00     0.008 C 
HETATM    9  C11 UNL     1      85.420  73.624  31.225  1.00  0.00     0.032 C 
HETATM   10  C12 UNL     1      86.296  74.593  30.464  1.00  0.00     0.118 C 
HETATM   11  C13 UNL     1      87.564  73.886  30.105  1.00  0.00     0.037 C 
BRANCH  10  12
HETATM   12  O3  UNL     1      86.537  75.725  31.240  1.00  0.00    -0.396 OA
ATOM     13  H3  UNL     1      87.125  76.313  30.780  1.00  0.00     0.210 HD
ENDBRANCH  10  12
ENDBRANCH   3   7
BRANCH   1  14
HETATM   14  O1  UNL     1      89.905  69.653  30.093  1.00  0.00    -0.312 OA
BRANCH  14  15
HETATM   15  C1  UNL     1      90.034  68.628  31.004  1.00  0.00     0.225 C 
HETATM   16  N1  UNL     1      89.041  68.108  31.638  1.00  0.00    -0.368 N 
ATOM     17  H12 UNL     1      89.136  67.349  32.312  1.00  0.00     0.159 HD
ATOM     18  H11 UNL     1      88.131  68.513  31.416  1.00  0.00     0.159 HD
HETATM   19  N2  UNL     1      91.318  68.057  31.318  1.00  0.00    -0.057 NA
ENDBRANCH  14  15
ENDBRANCH   1  14
BRANCH   1  20
HETATM   20  C3  UNL     1      90.458  71.349  31.689  1.00  0.00     0.022 A 
HETATM   21  C4  UNL     1      89.906  71.248  33.153  1.00  0.00     0.008 A 
HETATM   22  C5  UNL     1      90.402  72.491  32.579  1.00  0.00     0.008 A 
ENDBRANCH   1  20
TORSDOF 7
ENDMDL
MODEL 5
REMARK VINA RESULT: -5.937561273      1.651      2.141
REMARK  7 active torsions:
REMARK  status: ('A' for Active; 'I' for Inactive)
REMARK    1  A    between atoms: C1_4  and  O1_6 
REMARK    2  A    between atoms: O1_6  and  C2_7 
REMARK    3  A    between atoms: C2_7  and  C3_8 
REMARK    4  A    between atoms: C7_12  and  C8_13 
REMARK    5  A    between atoms: C7_12  and  C9_16 
REMARK    6  A    between atoms: C8_13  and  O2_14 
REMARK    7  A    between atoms: C12_19  and  O3_20 
ROOT
HETATM    1  C2  UNL     1      84.934  72.697  30.717  1.00  0.00     0.085 A 
HETATM    2  C6  UNL     1      85.147  73.207  32.164  1.00  0.00     0.055 A 
HETATM    3  C7  UNL     1      83.787  73.147  31.442  1.00  0.00     0.020 A 
ENDROOT
BRANCH   3   4
HETATM    4  C8  UNL     1      83.246  74.526  30.949  1.00  0.00     0.177 C 
BRANCH   4   5
HETATM    5  O2  UNL     1      84.169  75.482  31.328  1.00  0.00    -0.400 OA
ATOM      6  H2  UNL     1      83.779  75.981  32.036  1.00  0.00     0.209 HD
ENDBRANCH   4   5
ENDBRANCH   3   4
BRANCH   3   7
HETATM    7  C9  UNL     1      82.752  72.450  32.209  1.00  0.00     0.002 C 
HETATM    8  C10 UNL     1      83.192  71.663  33.416  1.00  0.00     0.008 C 
HETATM    9  C11 UNL     1      81.854  71.046  33.832  1.00  0.00     0.032 C 
HETATM   10  C12 UNL     1      81.105  70.814  32.540  1.00  0.00     0.118 C 
HETATM   11  C13 UNL     1      81.683  71.720  31.501  1.00  0.00     0.037 C 
BRANCH  10  12
HETATM   12  O3  UNL     1      79.745  71.048  32.732  1.00  0.00    -0.396 OA
ATOM     13  H3  UNL     1      79.517  70.906  33.643  1.00  0.00     0.210 HD
ENDBRANCH  10  12
ENDBRANCH   3   7
BRANCH   1  14
HETATM   14  O1  UNL     1      85.535  73.668  29.827  1.00  0.00    -0.312 OA
BRANCH  14  15
HETATM   15  C1  UNL     1      86.871  73.946  30.012  1.00  0.00     0.225 C 
HETATM   16  N1  UNL     1      87.306  74.851  30.818  1.00  0.00    -0.368 N 
ATOM     17  H12 UNL     1      88.296  75.057  30.955  1.00  0.00     0.159 HD
ATOM     18  H11 UNL     1      86.582  75.359  31.325  1.00  0.00     0.159 HD
HETATM   19  N2  UNL     1      87.895  73.229  29.297  1.00  0.00    -0.057 NA
ENDBRANCH  14  15
ENDBRANCH   1  14
BRANCH   1  20
HETATM   20  C3  UNL     1      85.501  71.357  30.451  1.00  0.00     0.022 A 
HETATM   21  C4  UNL     1      84.788  70.509  29.341  1.00  0.00     0.008 A 
HETATM   22  C5  UNL     1      84.938  70.049  30.715  1.00  0.00     0.008 A 
ENDBRANCH   1  20
TORSDOF 7
ENDMDL
