MODEL 1
REMARK VINA RESULT: -9.349990733      0.000      0.000
REMARK  4 active torsions:
REMARK  status: ('A' for Active; 'I' for Inactive)
REMARK    1  A    between atoms: C2_2  and  C3_3 
REMARK    2  A    between atoms: C5_5  and  C6_6 
REMARK    3  A    between atoms: C6_6  and  N1_7 
REMARK    4  A    between atoms: N1_7  and  C7_10 
ROOT
HETATM    1  C7  UNL     1      62.555  46.875  29.228  1.00  0.00     0.186 C 
HETATM    2  C8  UNL     1      63.552  47.110  28.162  1.00  0.00     0.038 C 
HETATM    3  C9  UNL     1      64.802  47.822  28.689  1.00  0.00    -0.008 C 
HETATM    4  C10 UNL     1      64.239  49.088  29.322  1.00  0.00     0.010 C 
HETATM    5  C11 UNL     1      63.842  48.483  30.686  1.00  0.00    -0.008 C 
HETATM    6  C12 UNL     1      62.670  47.577  30.506  1.00  0.00     0.038 C 
HETATM    7  C13 UNL     1      65.130  47.842  31.014  1.00  0.00    -0.005 C 
HETATM    8  C14 UNL     1      65.213  46.945  32.188  1.00  0.00     0.014 C 
HETATM    9  C15 UNL     1      66.614  46.389  32.247  1.00  0.00    -0.047 C 
HETATM   10  C16 UNL     1      67.584  47.347  32.891  1.00  0.00     0.015 C 
HETATM   11  C17 UNL     1      66.520  45.161  33.167  1.00  0.00     0.015 C 
HETATM   12  C18 UNL     1      67.166  45.903  30.959  1.00  0.00     0.009 C 
HETATM   13  C19 UNL     1      66.835  46.739  29.745  1.00  0.00     0.006 C 
HETATM   14  C20 UNL     1      65.353  46.984  29.775  1.00  0.00    -0.006 C 
ENDROOT
BRANCH   1  15
HETATM   15  N1  UNL     1      61.244  47.190  28.628  1.00  0.00    -0.070 N 
ATOM     16  H12 UNL     1      61.128  46.810  27.688  1.00  0.00     0.277 HD
ATOM     17  H11 UNL     1      61.141  48.175  28.381  1.00  0.00     0.277 HD
BRANCH  15  18
HETATM   18  C6  UNL     1      60.239  46.727  29.558  1.00  0.00     0.237 C 
BRANCH  18  19
HETATM   19  C5  UNL     1      58.914  46.478  28.886  1.00  0.00     0.016 A 
HETATM   20  C3  UNL     1      58.155  47.744  28.529  1.00  0.00    -0.009 A 
HETATM   21  C4  UNL     1      58.625  46.803  27.493  1.00  0.00     0.011 A 
BRANCH  20  22
HETATM   22  C2  UNL     1      56.715  47.846  28.940  1.00  0.00     0.000 C 
HETATM   23  C1  UNL     1      56.018  48.895  28.094  1.00  0.00     0.005 C 
ENDBRANCH  20  22
ENDBRANCH  18  19
ENDBRANCH  15  18
ENDBRANCH   1  15
TORSDOF 4
ENDMDL
MODEL 2
REMARK VINA RESULT: -9.301423163      0.852      1.102
REMARK  4 active torsions:
REMARK  status: ('A' for Active; 'I' for Inactive)
REMARK    1  A    between atoms: C2_2  and  C3_3 
REMARK    2  A    between atoms: C5_5  and  C6_6 
REMARK    3  A    between atoms: C6_6  and  N1_7 
REMARK    4  A    between atoms: N1_7  and  C7_10 
ROOT
HETATM    1  C7  UNL     1      62.886  46.924  28.790  1.00  0.00     0.186 C 
HETATM    2  C8  UNL     1      64.007  47.220  27.872  1.00  0.00     0.038 C 
HETATM    3  C9  UNL     1      65.163  47.929  28.583  1.00  0.00    -0.008 C 
HETATM    4  C10 UNL     1      64.497  49.158  29.189  1.00  0.00     0.010 C 
HETATM    5  C11 UNL     1      63.942  48.489  30.465  1.00  0.00    -0.008 C 
HETATM    6  C12 UNL     1      62.822  47.572  30.100  1.00  0.00     0.038 C 
HETATM    7  C13 UNL     1      65.191  47.855  30.930  1.00  0.00    -0.005 C 
HETATM    8  C14 UNL     1      65.143  46.910  32.069  1.00  0.00     0.014 C 
HETATM    9  C15 UNL     1      66.536  46.375  32.284  1.00  0.00    -0.047 C 
HETATM   10  C16 UNL     1      67.395  47.319  33.086  1.00  0.00     0.015 C 
HETATM   11  C17 UNL     1      66.351  45.107  33.135  1.00  0.00     0.015 C 
HETATM   12  C18 UNL     1      67.258  45.953  31.059  1.00  0.00     0.009 C 
HETATM   13  C19 UNL     1      67.067  46.835  29.847  1.00  0.00     0.006 C 
HETATM   14  C20 UNL     1      65.588  47.054  29.696  1.00  0.00    -0.006 C 
ENDROOT
BRANCH   1  15
HETATM   15  N1  UNL     1      61.656  47.243  28.040  1.00  0.00    -0.070 N 
ATOM     16  H12 UNL     1      61.472  46.596  27.273  1.00  0.00     0.277 HD
ATOM     17  H11 UNL     1      61.737  48.090  27.477  1.00  0.00     0.277 HD
BRANCH  15  18
HETATM   18  C6  UNL     1      60.583  47.301  29.006  1.00  0.00     0.237 C 
BRANCH  18  19
HETATM   19  C5  UNL     1      59.338  46.611  28.516  1.00  0.00     0.016 A 
HETATM   20  C3  UNL     1      58.051  47.184  29.082  1.00  0.00    -0.009 A 
HETATM   21  C4  UNL     1      58.348  47.227  27.638  1.00  0.00     0.011 A 
BRANCH  20  22
HETATM   22  C2  UNL     1      57.054  46.232  29.677  1.00  0.00     0.000 C 
HETATM   23  C1  UNL     1      57.228  46.188  31.183  1.00  0.00     0.005 C 
ENDBRANCH  20  22
ENDBRANCH  18  19
ENDBRANCH  15  18
ENDBRANCH   1  15
TORSDOF 4
ENDMDL
MODEL 3
REMARK VINA RESULT: -9.054309330      1.334      1.710
REMARK  4 active torsions:
REMARK  status: ('A' for Active; 'I' for Inactive)
REMARK    1  A    between atoms: C2_2  and  C3_3 
REMARK    2  A    between atoms: C5_5  and  C6_6 
REMARK    3  A    between atoms: C6_6  and  N1_7 
REMARK    4  A    between atoms: N1_7  and  C7_10 
ROOT
HETATM    1  C7  UNL     1      62.870  47.061  29.661  1.00  0.00     0.186 C 
HETATM    2  C8  UNL     1      63.596  46.228  28.679  1.00  0.00     0.038 C 
HETATM    3  C9  UNL     1      65.115  46.365  28.819  1.00  0.00    -0.008 C 
HETATM    4  C10 UNL     1      65.344  47.864  28.672  1.00  0.00     0.010 C 
HETATM    5  C11 UNL     1      65.036  48.268  30.130  1.00  0.00    -0.008 C 
HETATM    6  C12 UNL     1      63.575  48.115  30.391  1.00  0.00     0.038 C 
HETATM    7  C13 UNL     1      65.933  47.311  30.807  1.00  0.00    -0.005 C 
HETATM    8  C14 UNL     1      65.865  47.173  32.279  1.00  0.00     0.014 C 
HETATM    9  C15 UNL     1      66.837  46.094  32.687  1.00  0.00    -0.047 C 
HETATM   10  C16 UNL     1      68.252  46.605  32.785  1.00  0.00     0.015 C 
HETATM   11  C17 UNL     1      66.410  45.685  34.106  1.00  0.00     0.015 C 
HETATM   12  C18 UNL     1      66.803  44.857  31.869  1.00  0.00     0.009 C 
HETATM   13  C19 UNL     1      66.620  45.057  30.382  1.00  0.00     0.006 C 
HETATM   14  C20 UNL     1      65.458  45.993  30.208  1.00  0.00    -0.006 C 
ENDROOT
BRANCH   1  15
HETATM   15  N1  UNL     1      61.745  47.666  28.921  1.00  0.00    -0.070 N 
ATOM     16  H12 UNL     1      62.005  47.996  27.992  1.00  0.00     0.277 HD
ATOM     17  H11 UNL     1      61.452  48.566  29.301  1.00  0.00     0.277 HD
BRANCH  15  18
HETATM   18  C6  UNL     1      60.686  46.683  28.901  1.00  0.00     0.237 C 
BRANCH  18  19
HETATM   19  C5  UNL     1      59.953  46.608  30.214  1.00  0.00     0.016 A 
HETATM   20  C3  UNL     1      58.737  45.700  30.193  1.00  0.00    -0.009 A 
HETATM   21  C4  UNL     1      59.898  45.419  31.058  1.00  0.00     0.011 A 
BRANCH  20  22
HETATM   22  C2  UNL     1      57.441  46.240  30.724  1.00  0.00     0.000 C 
HETATM   23  C1  UNL     1      56.557  46.672  29.569  1.00  0.00     0.005 C 
ENDBRANCH  20  22
ENDBRANCH  18  19
ENDBRANCH  15  18
ENDBRANCH   1  15
TORSDOF 4
ENDMDL
MODEL 4
REMARK VINA RESULT: -8.628605172      1.444      2.192
REMARK  4 active torsions:
REMARK  status: ('A' for Active; 'I' for Inactive)
REMARK    1  A    between atoms: C2_2  and  C3_3 
REMARK    2  A    between atoms: C5_5  and  C6_6 
REMARK    3  A    between atoms: C6_6  and  N1_7 
REMARK    4  A    between atoms: N1_7  and  C7_10 
ROOT
HETATM    1  C7  UNL     1      62.727  47.126  28.759  1.00  0.00     0.186 C 
HETATM    2  C8  UNL     1      63.777  46.410  28.003  1.00  0.00     0.038 C 
HETATM    3  C9  UNL     1      65.185  46.787  28.473  1.00  0.00    -0.008 C 
HETATM    4  C10 UNL     1      65.210  48.301  28.314  1.00  0.00     0.010 C 
HETATM    5  C11 UNL     1      64.520  48.664  29.647  1.00  0.00    -0.008 C 
HETATM    6  C12 UNL     1      63.078  48.284  29.580  1.00  0.00     0.038 C 
HETATM    7  C13 UNL     1      65.373  47.867  30.549  1.00  0.00    -0.005 C 
HETATM    8  C14 UNL     1      64.994  47.732  31.974  1.00  0.00     0.014 C 
HETATM    9  C15 UNL     1      65.999  46.825  32.636  1.00  0.00    -0.047 C 
HETATM   10  C16 UNL     1      67.260  47.553  33.026  1.00  0.00     0.015 C 
HETATM   11  C17 UNL     1      65.326  46.365  33.941  1.00  0.00     0.015 C 
HETATM   12  C18 UNL     1      66.341  45.590  31.887  1.00  0.00     0.009 C 
HETATM   13  C19 UNL     1      66.474  45.747  30.390  1.00  0.00     0.006 C 
HETATM   14  C20 UNL     1      65.254  46.485  29.919  1.00  0.00    -0.006 C 
ENDROOT
BRANCH   1  15
HETATM   15  N1  UNL     1      61.722  47.539  27.760  1.00  0.00    -0.070 N 
ATOM     16  H12 UNL     1      61.656  46.900  26.967  1.00  0.00     0.277 HD
ATOM     17  H11 UNL     1      61.996  48.368  27.233  1.00  0.00     0.277 HD
BRANCH  15  18
HETATM   18  C6  UNL     1      60.473  47.699  28.468  1.00  0.00     0.237 C 
BRANCH  18  19
HETATM   19  C5  UNL     1      60.007  46.413  29.097  1.00  0.00     0.016 A 
HETATM   20  C3  UNL     1      59.380  46.587  30.469  1.00  0.00    -0.009 A 
HETATM   21  C4  UNL     1      58.607  46.068  29.324  1.00  0.00     0.011 A 
BRANCH  20  22
HETATM   22  C2  UNL     1      59.864  45.709  31.586  1.00  0.00     0.000 C 
HETATM   23  C1  UNL     1      60.767  46.508  32.507  1.00  0.00     0.005 C 
ENDBRANCH  20  22
ENDBRANCH  18  19
ENDBRANCH  15  18
ENDBRANCH   1  15
TORSDOF 4
ENDMDL
MODEL 5
REMARK VINA RESULT: -8.535059637      1.518      2.428
REMARK  4 active torsions:
REMARK  status: ('A' for Active; 'I' for Inactive)
REMARK    1  A    between atoms: C2_2  and  C3_3 
REMARK    2  A    between atoms: C5_5  and  C6_6 
REMARK    3  A    between atoms: C6_6  and  N1_7 
REMARK    4  A    between atoms: N1_7  and  C7_10 
ROOT
HETATM    1  C7  UNL     1      62.580  47.173  28.999  1.00  0.00     0.186 C 
HETATM    2  C8  UNL     1      63.866  46.582  28.570  1.00  0.00     0.038 C 
HETATM    3  C9  UNL     1      65.062  47.231  29.274  1.00  0.00    -0.008 C 
HETATM    4  C10 UNL     1      64.900  48.708  28.941  1.00  0.00     0.010 C 
HETATM    5  C11 UNL     1      63.883  49.063  30.048  1.00  0.00    -0.008 C 
HETATM    6  C12 UNL     1      62.565  48.440  29.729  1.00  0.00     0.038 C 
HETATM    7  C13 UNL     1      64.619  48.503  31.197  1.00  0.00    -0.005 C 
HETATM    8  C14 UNL     1      63.953  48.429  32.517  1.00  0.00     0.014 C 
HETATM    9  C15 UNL     1      64.906  47.765  33.479  1.00  0.00    -0.047 C 
HETATM   10  C16 UNL     1      65.927  48.728  34.031  1.00  0.00     0.015 C 
HETATM   11  C17 UNL     1      64.032  47.313  34.661  1.00  0.00     0.015 C 
HETATM   12  C18 UNL     1      65.584  46.547  32.973  1.00  0.00     0.009 C 
HETATM   13  C19 UNL     1      66.025  46.593  31.529  1.00  0.00     0.006 C 
HETATM   14  C20 UNL     1      64.848  47.071  30.728  1.00  0.00    -0.006 C 
ENDROOT
BRANCH   1  15
HETATM   15  N1  UNL     1      61.776  47.321  27.771  1.00  0.00    -0.070 N 
ATOM     16  H12 UNL     1      61.869  46.532  27.130  1.00  0.00     0.277 HD
ATOM     17  H11 UNL     1      62.132  48.041  27.141  1.00  0.00     0.277 HD
BRANCH  15  18
HETATM   18  C6  UNL     1      60.414  47.556  28.192  1.00  0.00     0.237 C 
BRANCH  18  19
HETATM   19  C5  UNL     1      59.818  46.358  28.884  1.00  0.00     0.016 A 
HETATM   20  C3  UNL     1      59.290  46.649  30.277  1.00  0.00    -0.009 A 
HETATM   21  C4  UNL     1      58.399  46.206  29.188  1.00  0.00     0.011 A 
BRANCH  20  22
HETATM   22  C2  UNL     1      59.714  45.744  31.398  1.00  0.00     0.000 C 
HETATM   23  C1  UNL     1      60.584  46.515  32.373  1.00  0.00     0.005 C 
ENDBRANCH  20  22
ENDBRANCH  18  19
ENDBRANCH  15  18
ENDBRANCH   1  15
TORSDOF 4
ENDMDL
