MODEL 1
REMARK VINA RESULT: -6.975727067      0.000      0.000
REMARK  3 active torsions:
REMARK  status: ('A' for Active; 'I' for Inactive)
REMARK    1  A    between atoms: N1_4  and  C3_6 
REMARK    2  A    between atoms: C4_8  and  N2_9 
REMARK    3  A    between atoms: N2_9  and  N3_11 
ROOT
HETATM    1  C3  UNL     1      15.215   4.137   0.565  1.00  0.00     0.116 A 
HETATM    2  S2  UNL     1      14.858   5.845   0.817  1.00  0.00    -0.032 SA
HETATM    3  C4  UNL     1      16.234   6.274   1.704  1.00  0.00     0.166 A 
HETATM    4  N4  UNL     1      16.900   5.132   1.777  1.00  0.00    -0.325 N 
ATOM      5  H4  UNL     1      17.794   5.087   2.267  1.00  0.00     0.169 HD
HETATM    6  C8  UNL     1      16.396   4.052   1.207  1.00  0.00     0.150 A 
HETATM    7  C9  UNL     1      17.155   2.787   1.306  1.00  0.00     0.120 C 
HETATM    8  N5  UNL     1      17.778   1.817   1.408  1.00  0.00    -0.190 NA
ENDROOT
BRANCH   1   9
HETATM    9  N1  UNL     1      14.334   3.314  -0.145  1.00  0.00    -0.343 N 
HETATM   10  C2  UNL     1      13.052   3.249  -0.583  1.00  0.00     0.074 C 
HETATM   11  C1  UNL     1      12.656   1.985  -1.376  1.00  0.00     0.081 C 
HETATM   12  S1  UNL     1      11.853   4.272  -0.414  1.00  0.00    -0.066 SA
ATOM     13  H1  UNL     1      14.828   2.469  -0.434  1.00  0.00     0.167 HD
ENDBRANCH   1   9
BRANCH   3  14
HETATM   14  N2  UNL     1      16.577   7.445   2.207  1.00  0.00    -0.280 N 
ATOM     15  H2  UNL     1      17.565   7.677   2.306  1.00  0.00     0.189 HD
BRANCH  14  16
HETATM   16  N3  UNL     1      15.621   8.364   2.604  1.00  0.00    -0.308 N 
HETATM   17  C5  UNL     1      15.660   9.539   2.056  1.00  0.00    -0.004 C 
HETATM   18  C6  UNL     1      16.658   9.927   1.051  1.00  0.00     0.064 C 
HETATM   19  C7  UNL     1      14.635  10.522   2.480  1.00  0.00     0.064 C 
ATOM     20  H3  UNL     1      14.914   8.126   3.299  1.00  0.00     0.186 HD
ENDBRANCH  14  16
ENDBRANCH   3  14
TORSDOF 3
ENDMDL
MODEL 2
REMARK VINA RESULT: -6.887367648      2.954      6.401
REMARK  3 active torsions:
REMARK  status: ('A' for Active; 'I' for Inactive)
REMARK    1  A    between atoms: N1_4  and  C3_6 
REMARK    2  A    between atoms: C4_8  and  N2_9 
REMARK    3  A    between atoms: N2_9  and  N3_11 
ROOT
HETATM    1  C3  UNL     1      14.254   3.956   0.019  1.00  0.00     0.116 A 
HETATM    2  S2  UNL     1      12.839   4.943  -0.343  1.00  0.00    -0.032 SA
HETATM    3  C4  UNL     1      11.868   3.759  -1.064  1.00  0.00     0.166 A 
HETATM    4  N4  UNL     1      12.635   2.680  -1.007  1.00  0.00    -0.325 N 
ATOM      5  H4  UNL     1      12.301   1.790  -1.378  1.00  0.00     0.169 HD
HETATM    6  C8  UNL     1      13.836   2.770  -0.464  1.00  0.00     0.150 A 
HETATM    7  C9  UNL     1      14.676   1.554  -0.416  1.00  0.00     0.120 C 
HETATM    8  N5  UNL     1      15.303   0.581  -0.400  1.00  0.00    -0.190 NA
ENDROOT
BRANCH   1   9
HETATM    9  N1  UNL     1      15.378   4.508   0.643  1.00  0.00    -0.343 N 
HETATM   10  C2  UNL     1      15.745   5.252   1.716  1.00  0.00     0.074 C 
HETATM   11  C1  UNL     1      17.253   5.545   1.870  1.00  0.00     0.081 C 
HETATM   12  S1  UNL     1      14.870   5.896   2.870  1.00  0.00    -0.066 SA
ATOM     13  H1  UNL     1      16.210   4.267   0.104  1.00  0.00     0.167 HD
ENDBRANCH   1   9
BRANCH   3  14
HETATM   14  N2  UNL     1      10.652   3.861  -1.565  1.00  0.00    -0.280 N 
ATOM     15  H2  UNL     1       9.892   3.322  -1.149  1.00  0.00     0.189 HD
BRANCH  14  16
HETATM   16  N3  UNL     1      10.387   4.687  -2.645  1.00  0.00    -0.308 N 
HETATM   17  C5  UNL     1       9.776   4.161  -3.661  1.00  0.00    -0.004 C 
HETATM   18  C6  UNL     1       9.360   2.754  -3.712  1.00  0.00     0.064 C 
HETATM   19  C7  UNL     1       9.493   5.045  -4.817  1.00  0.00     0.064 C 
ATOM     20  H3  UNL     1      10.663   5.669  -2.641  1.00  0.00     0.186 HD
ENDBRANCH  14  16
ENDBRANCH   3  14
TORSDOF 3
ENDMDL
MODEL 3
REMARK VINA RESULT: -6.807704184      2.727      7.071
REMARK  3 active torsions:
REMARK  status: ('A' for Active; 'I' for Inactive)
REMARK    1  A    between atoms: N1_4  and  C3_6 
REMARK    2  A    between atoms: C4_8  and  N2_9 
REMARK    3  A    between atoms: N2_9  and  N3_11 
ROOT
HETATM    1  C3  UNL     1      14.246   9.681   1.537  1.00  0.00     0.116 A 
HETATM    2  S2  UNL     1      13.152   8.307   1.385  1.00  0.00    -0.032 SA
HETATM    3  C4  UNL     1      14.111   7.314   0.404  1.00  0.00     0.166 A 
HETATM    4  N4  UNL     1      15.202   8.044   0.231  1.00  0.00    -0.325 N 
ATOM      5  H4  UNL     1      15.975   7.690  -0.333  1.00  0.00     0.169 HD
HETATM    6  C8  UNL     1      15.280   9.236   0.797  1.00  0.00     0.150 A 
HETATM    7  C9  UNL     1      16.505  10.035   0.585  1.00  0.00     0.120 C 
HETATM    8  N5  UNL     1      17.479  10.629   0.392  1.00  0.00    -0.190 NA
ENDROOT
BRANCH   1   9
HETATM    9  N1  UNL     1      13.888  10.809   2.284  1.00  0.00    -0.343 N 
HETATM   10  C2  UNL     1      14.355  11.645   3.245  1.00  0.00     0.074 C 
HETATM   11  C1  UNL     1      13.415  12.790   3.680  1.00  0.00     0.081 C 
HETATM   12  S1  UNL     1      15.735  11.649   4.025  1.00  0.00    -0.066 SA
ATOM     13  H1  UNL     1      12.950  11.104   2.012  1.00  0.00     0.167 HD
ENDBRANCH   1   9
BRANCH   3  14
HETATM   14  N2  UNL     1      13.856   6.113  -0.078  1.00  0.00    -0.280 N 
ATOM     15  H2  UNL     1      12.958   5.934  -0.527  1.00  0.00     0.189 HD
BRANCH  14  16
HETATM   16  N3  UNL     1      14.784   5.090   0.016  1.00  0.00    -0.308 N 
HETATM   17  C5  UNL     1      14.380   3.891  -0.268  1.00  0.00    -0.004 C 
HETATM   18  C6  UNL     1      13.005   3.580  -0.680  1.00  0.00     0.064 C 
HETATM   19  C7  UNL     1      15.374   2.796  -0.168  1.00  0.00     0.064 C 
ATOM     20  H3  UNL     1      15.747   5.273   0.299  1.00  0.00     0.186 HD
ENDBRANCH  14  16
ENDBRANCH   3  14
TORSDOF 3
ENDMDL
MODEL 4
REMARK VINA RESULT: -6.756036434      1.213      1.213
REMARK  3 active torsions:
REMARK  status: ('A' for Active; 'I' for Inactive)
REMARK    1  A    between atoms: N1_4  and  C3_6 
REMARK    2  A    between atoms: C4_8  and  N2_9 
REMARK    3  A    between atoms: N2_9  and  N3_11 
ROOT
HETATM    1  C3  UNL     1      15.149   4.292   0.655  1.00  0.00     0.116 A 
HETATM    2  S2  UNL     1      14.829   6.006   0.919  1.00  0.00    -0.032 SA
HETATM    3  C4  UNL     1      16.245   6.413   1.753  1.00  0.00     0.166 A 
HETATM    4  N4  UNL     1      16.896   5.260   1.800  1.00  0.00    -0.325 N 
ATOM      5  H4  UNL     1      17.807   5.200   2.256  1.00  0.00     0.169 HD
HETATM    6  C8  UNL     1      16.352   4.188   1.251  1.00  0.00     0.150 A 
HETATM    7  C9  UNL     1      17.094   2.911   1.321  1.00  0.00     0.120 C 
HETATM    8  N5  UNL     1      17.705   1.931   1.399  1.00  0.00    -0.190 NA
ENDROOT
BRANCH   1   9
HETATM    9  N1  UNL     1      14.228   3.483  -0.020  1.00  0.00    -0.343 N 
HETATM   10  C2  UNL     1      14.064   2.225  -0.501  1.00  0.00     0.074 C 
HETATM   11  C1  UNL     1      12.721   1.922  -1.198  1.00  0.00     0.081 C 
HETATM   12  S1  UNL     1      15.042   0.978  -0.476  1.00  0.00    -0.066 SA
ATOM     13  H1  UNL     1      13.389   4.028  -0.220  1.00  0.00     0.167 HD
ENDBRANCH   1   9
BRANCH   3  14
HETATM   14  N2  UNL     1      16.627   7.578   2.241  1.00  0.00    -0.280 N 
ATOM     15  H2  UNL     1      17.622   7.778   2.339  1.00  0.00     0.189 HD
BRANCH  14  16
HETATM   16  N3  UNL     1      15.700   8.533   2.625  1.00  0.00    -0.308 N 
HETATM   17  C5  UNL     1      15.766   9.692   2.047  1.00  0.00    -0.004 C 
HETATM   18  C6  UNL     1      16.764  10.027   1.023  1.00  0.00     0.064 C 
HETATM   19  C7  UNL     1      14.774  10.714   2.457  1.00  0.00     0.064 C 
ATOM     20  H3  UNL     1      14.994   8.332   3.333  1.00  0.00     0.186 HD
ENDBRANCH  14  16
ENDBRANCH   3  14
TORSDOF 3
ENDMDL
MODEL 5
REMARK VINA RESULT: -6.747689516      3.537      5.152
REMARK  3 active torsions:
REMARK  status: ('A' for Active; 'I' for Inactive)
REMARK    1  A    between atoms: N1_4  and  C3_6 
REMARK    2  A    between atoms: C4_8  and  N2_9 
REMARK    3  A    between atoms: N2_9  and  N3_11 
ROOT
HETATM    1  C3  UNL     1      13.459   4.527   0.243  1.00  0.00     0.116 A 
HETATM    2  S2  UNL     1      12.833   6.027   0.926  1.00  0.00    -0.032 SA
HETATM    3  C4  UNL     1      11.268   5.976   0.282  1.00  0.00     0.166 A 
HETATM    4  N4  UNL     1      11.276   4.849  -0.413  1.00  0.00    -0.325 N 
ATOM      5  H4  UNL     1      10.443   4.551  -0.922  1.00  0.00     0.169 HD
HETATM    6  C8  UNL     1      12.373   4.113  -0.439  1.00  0.00     0.150 A 
HETATM    7  C9  UNL     1      12.361   2.861  -1.225  1.00  0.00     0.120 C 
HETATM    8  N5  UNL     1      12.310   1.891  -1.853  1.00  0.00    -0.190 NA
ENDROOT
BRANCH   1   9
HETATM    9  N1  UNL     1      14.771   4.112   0.497  1.00  0.00    -0.343 N 
HETATM   10  C2  UNL     1      15.922   4.515   1.090  1.00  0.00     0.074 C 
HETATM   11  C1  UNL     1      17.111   3.532   1.030  1.00  0.00     0.081 C 
HETATM   12  S1  UNL     1      16.272   5.861   1.851  1.00  0.00    -0.066 SA
ATOM     13  H1  UNL     1      14.910   3.183   0.097  1.00  0.00     0.167 HD
ENDBRANCH   1   9
BRANCH   3  14
HETATM   14  N2  UNL     1      10.274   6.833   0.423  1.00  0.00    -0.280 N 
ATOM     15  H2  UNL     1       9.628   6.725   1.204  1.00  0.00     0.189 HD
BRANCH  14  16
HETATM   16  N3  UNL     1      10.092   7.875  -0.471  1.00  0.00    -0.308 N 
HETATM   17  C5  UNL     1      10.058   9.077   0.015  1.00  0.00    -0.004 C 
HETATM   18  C6  UNL     1      10.202   9.373   1.446  1.00  0.00     0.064 C 
HETATM   19  C7  UNL     1       9.864  10.192  -0.942  1.00  0.00     0.064 C 
ATOM     20  H3  UNL     1       9.990   7.703  -1.471  1.00  0.00     0.186 HD
ENDBRANCH  14  16
ENDBRANCH   3  14
TORSDOF 3
ENDMDL
