MODEL 1
REMARK VINA RESULT: -7.964172801      0.000      0.000
REMARK  6 active torsions:
REMARK  status: ('A' for Active; 'I' for Inactive)
REMARK    1  A    between atoms: C2_2  and  C3_3 
REMARK    2  A    between atoms: C3_3  and  C26_32 
REMARK    3  A    between atoms: C4_4  and  C5_5 
REMARK    4  A    between atoms: C8_8  and  O1_9 
REMARK    5  A    between atoms: N1_11  and  C9_12 
REMARK    6  A    between atoms: C15_18  and  O2_19 
ROOT
HETATM    1  C5  UNL     1       5.646 -15.168  17.154  1.00  0.00     0.052 C 
HETATM    2  C6  UNL     1       6.361 -16.484  17.350  1.00  0.00     0.012 A 
HETATM    3  C7  UNL     1       7.650 -16.295  17.726  1.00  0.00     0.016 A 
HETATM    4  C8  UNL     1       8.206 -17.549  17.875  1.00  0.00     0.152 A 
HETATM    5  N1  UNL     1       7.307 -18.507  17.604  1.00  0.00    -0.303 N 
HETATM    6  C15 UNL     1       6.186 -17.868  17.284  1.00  0.00     0.152 A 
HETATM    7  C16 UNL     1       7.939 -14.832  17.826  1.00  0.00     0.099 C 
HETATM    8  C17 UNL     1       8.562 -14.503  19.145  1.00  0.00     0.140 C 
HETATM    9  O3  UNL     1       9.579 -14.938  19.632  1.00  0.00    -0.297 OA
HETATM   10  C18 UNL     1       7.670 -13.506  19.774  1.00  0.00     0.064 C 
HETATM   11  C19 UNL     1       7.754 -13.449  21.253  1.00  0.00     0.040 C 
HETATM   12  C20 UNL     1       6.489 -12.816  21.768  1.00  0.00    -0.024 C 
HETATM   13  C21 UNL     1       5.394 -12.673  21.075  1.00  0.00    -0.087 C 
HETATM   14  C22 UNL     1       4.220 -12.013  21.762  1.00  0.00     0.043 C 
HETATM   15  C23 UNL     1       5.213 -13.114  19.650  1.00  0.00     0.039 C 
HETATM   16  C24 UNL     1       6.309 -14.055  19.320  1.00  0.00     0.007 C 
HETATM   17  C25 UNL     1       6.580 -14.200  17.845  1.00  0.00     0.019 C 
ENDROOT
BRANCH   1  18
HETATM   18  C4  UNL     1       5.668 -14.885  15.711  1.00  0.00    -0.014 C 
HETATM   19  C3  UNL     1       5.096 -13.862  15.110  1.00  0.00    -0.084 C 
BRANCH  19  20
HETATM   20  C2  UNL     1       4.348 -12.865  15.885  1.00  0.00     0.029 C 
HETATM   21  C1  UNL     1       3.300 -12.146  15.061  1.00  0.00     0.010 C 
ENDBRANCH  19  20
BRANCH  19  22
HETATM   22  C26 UNL     1       5.234 -13.747  13.622  1.00  0.00     0.029 C 
HETATM   23  C27 UNL     1       5.037 -15.138  13.057  1.00  0.00     0.010 C 
ENDBRANCH  19  22
ENDBRANCH   1  18
BRANCH   6  24
HETATM   24  O2  UNL     1       4.936 -18.395  16.916  1.00  0.00    -0.345 OA
ATOM     25  H2  UNL     1       4.219 -17.807  16.710  1.00  0.00     0.219 HD
ENDBRANCH   6  24
BRANCH   4  26
HETATM   26  O1  UNL     1       9.544 -17.713  18.261  1.00  0.00    -0.345 OA
ATOM     27  H1  UNL     1      10.068 -18.432  17.932  1.00  0.00     0.219 HD
ENDBRANCH   4  26
BRANCH   5  28
HETATM   28  C9  UNL     1       7.496 -19.910  17.645  1.00  0.00     0.094 C 
HETATM   29  C10 UNL     1       6.578 -20.690  16.701  1.00  0.00     0.026 C 
HETATM   30  C11 UNL     1       6.825 -20.290  15.265  1.00  0.00     0.002 C 
HETATM   31  C12 UNL     1       8.221 -20.837  14.927  1.00  0.00     0.000 C 
HETATM   32  C13 UNL     1       9.180 -20.008  15.793  1.00  0.00     0.002 C 
HETATM   33  C14 UNL     1       8.880 -20.371  17.235  1.00  0.00     0.026 C 
ENDBRANCH   5  28
TORSDOF 6
ENDMDL
MODEL 2
REMARK VINA RESULT: -7.733857289      1.149      1.942
REMARK  6 active torsions:
REMARK  status: ('A' for Active; 'I' for Inactive)
REMARK    1  A    between atoms: C2_2  and  C3_3 
REMARK    2  A    between atoms: C3_3  and  C26_32 
REMARK    3  A    between atoms: C4_4  and  C5_5 
REMARK    4  A    between atoms: C8_8  and  O1_9 
REMARK    5  A    between atoms: N1_11  and  C9_12 
REMARK    6  A    between atoms: C15_18  and  O2_19 
ROOT
HETATM    1  C5  UNL     1       5.711 -14.773  16.707  1.00  0.00     0.052 C 
HETATM    2  C6  UNL     1       6.216 -16.191  16.814  1.00  0.00     0.012 A 
HETATM    3  C7  UNL     1       7.459 -16.235  17.354  1.00  0.00     0.016 A 
HETATM    4  C8  UNL     1       7.822 -17.565  17.405  1.00  0.00     0.152 A 
HETATM    5  N1  UNL     1       6.847 -18.346  16.915  1.00  0.00    -0.303 N 
HETATM    6  C15 UNL     1       5.871 -17.520  16.555  1.00  0.00     0.152 A 
HETATM    7  C16 UNL     1       7.922 -14.850  17.670  1.00  0.00     0.099 C 
HETATM    8  C17 UNL     1       8.407 -14.761  19.082  1.00  0.00     0.140 C 
HETATM    9  O3  UNL     1       9.288 -15.390  19.622  1.00  0.00    -0.297 OA
HETATM   10  C18 UNL     1       7.581 -13.720  19.728  1.00  0.00     0.064 C 
HETATM   11  C19 UNL     1       7.480 -13.838  21.202  1.00  0.00     0.040 C 
HETATM   12  C20 UNL     1       6.253 -13.088  21.648  1.00  0.00    -0.024 C 
HETATM   13  C21 UNL     1       5.284 -12.712  20.860  1.00  0.00    -0.087 C 
HETATM   14  C22 UNL     1       4.129 -11.967  21.488  1.00  0.00     0.043 C 
HETATM   15  C23 UNL     1       5.233 -12.963  19.379  1.00  0.00     0.039 C 
HETATM   16  C24 UNL     1       6.230 -14.011  19.058  1.00  0.00     0.007 C 
HETATM   17  C25 UNL     1       6.667 -14.032  17.616  1.00  0.00     0.019 C 
ENDROOT
BRANCH   1  18
HETATM   18  C4  UNL     1       5.956 -14.339  15.324  1.00  0.00    -0.014 C 
HETATM   19  C3  UNL     1       5.070 -14.306  14.349  1.00  0.00    -0.084 C 
BRANCH  19  20
HETATM   20  C2  UNL     1       3.684 -14.725  14.589  1.00  0.00     0.029 C 
HETATM   21  C1  UNL     1       3.269 -15.899  13.728  1.00  0.00     0.010 C 
ENDBRANCH  19  20
BRANCH  19  22
HETATM   22  C26 UNL     1       5.517 -13.829  13.001  1.00  0.00     0.029 C 
HETATM   23  C27 UNL     1       4.434 -12.908  12.483  1.00  0.00     0.010 C 
ENDBRANCH  19  22
ENDBRANCH   1  18
BRANCH   6  24
HETATM   24  O2  UNL     1       4.620 -17.816  15.985  1.00  0.00    -0.345 OA
ATOM     25  H2  UNL     1       3.943 -18.216  16.517  1.00  0.00     0.219 HD
ENDBRANCH   6  24
BRANCH   4  26
HETATM   26  O1  UNL     1       9.065 -17.963  17.915  1.00  0.00    -0.345 OA
ATOM     27  H1  UNL     1       9.148 -18.723  18.478  1.00  0.00     0.219 HD
ENDBRANCH   4  26
BRANCH   5  28
HETATM   28  C9  UNL     1       6.844 -19.758  16.799  1.00  0.00     0.094 C 
HETATM   29  C10 UNL     1       7.526 -20.480  17.965  1.00  0.00     0.026 C 
HETATM   30  C11 UNL     1       6.816 -20.179  19.266  1.00  0.00     0.002 C 
HETATM   31  C12 UNL     1       5.457 -20.888  19.159  1.00  0.00     0.000 C 
HETATM   32  C13 UNL     1       4.709 -20.126  18.056  1.00  0.00     0.002 C 
HETATM   33  C14 UNL     1       5.466 -20.384  16.767  1.00  0.00     0.026 C 
ENDBRANCH   5  28
TORSDOF 6
ENDMDL
MODEL 3
REMARK VINA RESULT: -7.702772370      0.851      1.694
REMARK  6 active torsions:
REMARK  status: ('A' for Active; 'I' for Inactive)
REMARK    1  A    between atoms: C2_2  and  C3_3 
REMARK    2  A    between atoms: C3_3  and  C26_32 
REMARK    3  A    between atoms: C4_4  and  C5_5 
REMARK    4  A    between atoms: C8_8  and  O1_9 
REMARK    5  A    between atoms: N1_11  and  C9_12 
REMARK    6  A    between atoms: C15_18  and  O2_19 
ROOT
HETATM    1  C5  UNL     1       5.608 -15.037  17.083  1.00  0.00     0.052 C 
HETATM    2  C6  UNL     1       6.371 -16.330  17.236  1.00  0.00     0.012 A 
HETATM    3  C7  UNL     1       7.655 -16.106  17.612  1.00  0.00     0.016 A 
HETATM    4  C8  UNL     1       8.257 -17.343  17.721  1.00  0.00     0.152 A 
HETATM    5  N1  UNL     1       7.391 -18.324  17.426  1.00  0.00    -0.303 N 
HETATM    6  C15 UNL     1       6.247 -17.718  17.131  1.00  0.00     0.152 A 
HETATM    7  C16 UNL     1       7.891 -14.637  17.753  1.00  0.00     0.099 C 
HETATM    8  C17 UNL     1       8.509 -14.324  19.079  1.00  0.00     0.140 C 
HETATM    9  O3  UNL     1       9.545 -14.736  19.548  1.00  0.00    -0.297 OA
HETATM   10  C18 UNL     1       7.586 -13.379  19.742  1.00  0.00     0.064 C 
HETATM   11  C19 UNL     1       7.677 -13.362  21.221  1.00  0.00     0.040 C 
HETATM   12  C20 UNL     1       6.393 -12.792  21.761  1.00  0.00    -0.024 C 
HETATM   13  C21 UNL     1       5.289 -12.668  21.078  1.00  0.00    -0.087 C 
HETATM   14  C22 UNL     1       4.096 -12.072  21.789  1.00  0.00     0.043 C 
HETATM   15  C23 UNL     1       5.116 -13.073  19.641  1.00  0.00     0.039 C 
HETATM   16  C24 UNL     1       6.243 -13.964  19.278  1.00  0.00     0.007 C 
HETATM   17  C25 UNL     1       6.511 -14.056  17.798  1.00  0.00     0.019 C 
ENDROOT
BRANCH   1  18
HETATM   18  C4  UNL     1       5.611 -14.711  15.650  1.00  0.00    -0.014 C 
HETATM   19  C3  UNL     1       4.953 -13.725  15.073  1.00  0.00    -0.084 C 
BRANCH  19  20
HETATM   20  C2  UNL     1       4.115 -12.823  15.872  1.00  0.00     0.029 C 
HETATM   21  C1  UNL     1       3.226 -11.940  15.020  1.00  0.00     0.010 C 
ENDBRANCH  19  20
BRANCH  19  22
HETATM   22  C26 UNL     1       5.086 -13.556  13.591  1.00  0.00     0.029 C 
HETATM   23  C27 UNL     1       5.115 -14.946  12.993  1.00  0.00     0.010 C 
ENDBRANCH  19  22
ENDBRANCH   1  18
BRANCH   6  24
HETATM   24  O2  UNL     1       5.014 -18.279  16.754  1.00  0.00    -0.345 OA
ATOM     25  H2  UNL     1       4.387 -18.529  17.421  1.00  0.00     0.219 HD
ENDBRANCH   6  24
BRANCH   4  26
HETATM   26  O1  UNL     1       9.602 -17.469  18.096  1.00  0.00    -0.345 OA
ATOM     27  H1  UNL     1       9.881 -18.130  18.717  1.00  0.00     0.219 HD
ENDBRANCH   4  26
BRANCH   5  28
HETATM   28  C9  UNL     1       7.632 -19.720  17.425  1.00  0.00     0.094 C 
HETATM   29  C10 UNL     1       8.688 -20.171  18.437  1.00  0.00     0.026 C 
HETATM   30  C11 UNL     1       8.252 -19.837  19.846  1.00  0.00     0.002 C 
HETATM   31  C12 UNL     1       7.066 -20.770  20.136  1.00  0.00     0.000 C 
HETATM   32  C13 UNL     1       5.953 -20.284  19.196  1.00  0.00     0.002 C 
HETATM   33  C14 UNL     1       6.429 -20.567  17.784  1.00  0.00     0.026 C 
ENDBRANCH   5  28
TORSDOF 6
ENDMDL
MODEL 4
REMARK VINA RESULT: -7.081894077      1.933      2.691
REMARK  6 active torsions:
REMARK  status: ('A' for Active; 'I' for Inactive)
REMARK    1  A    between atoms: C2_2  and  C3_3 
REMARK    2  A    between atoms: C3_3  and  C26_32 
REMARK    3  A    between atoms: C4_4  and  C5_5 
REMARK    4  A    between atoms: C8_8  and  O1_9 
REMARK    5  A    between atoms: N1_11  and  C9_12 
REMARK    6  A    between atoms: C15_18  and  O2_19 
ROOT
HETATM    1  C5  UNL     1       5.829 -14.905  18.474  1.00  0.00     0.052 C 
HETATM    2  C6  UNL     1       6.657 -16.127  18.792  1.00  0.00     0.012 A 
HETATM    3  C7  UNL     1       7.911 -15.788  19.179  1.00  0.00     0.016 A 
HETATM    4  C8  UNL     1       8.576 -16.968  19.442  1.00  0.00     0.152 A 
HETATM    5  N1  UNL     1       7.778 -18.025  19.230  1.00  0.00    -0.303 N 
HETATM    6  C15 UNL     1       6.613 -17.523  18.835  1.00  0.00     0.152 A 
HETATM    7  C16 UNL     1       8.059 -14.301  19.166  1.00  0.00     0.099 C 
HETATM    8  C17 UNL     1       8.609 -13.810  20.468  1.00  0.00     0.140 C 
HETATM    9  O3  UNL     1       9.648 -14.107  21.011  1.00  0.00    -0.297 OA
HETATM   10  C18 UNL     1       7.611 -12.856  20.994  1.00  0.00     0.064 C 
HETATM   11  C19 UNL     1       7.646 -12.675  22.464  1.00  0.00     0.040 C 
HETATM   12  C20 UNL     1       6.313 -12.127  22.899  1.00  0.00    -0.024 C 
HETATM   13  C21 UNL     1       5.230 -12.143  22.173  1.00  0.00    -0.087 C 
HETATM   14  C22 UNL     1       3.980 -11.545  22.777  1.00  0.00     0.043 C 
HETATM   15  C23 UNL     1       5.133 -12.710  20.784  1.00  0.00     0.039 C 
HETATM   16  C24 UNL     1       6.321 -13.566  20.556  1.00  0.00     0.007 C 
HETATM   17  C25 UNL     1       6.648 -13.801  19.104  1.00  0.00     0.019 C 
ENDROOT
BRANCH   1  18
HETATM   18  C4  UNL     1       5.867 -14.736  17.014  1.00  0.00    -0.014 C 
HETATM   19  C3  UNL     1       5.327 -13.748  16.330  1.00  0.00    -0.084 C 
BRANCH  19  20
HETATM   20  C2  UNL     1       4.602 -12.674  17.019  1.00  0.00     0.029 C 
HETATM   21  C1  UNL     1       3.657 -11.922  16.105  1.00  0.00     0.010 C 
ENDBRANCH  19  20
BRANCH  19  22
HETATM   22  C26 UNL     1       5.476 -13.753  14.839  1.00  0.00     0.029 C 
HETATM   23  C27 UNL     1       4.887 -15.058  14.346  1.00  0.00     0.010 C 
ENDBRANCH  19  22
ENDBRANCH   1  18
BRANCH   6  24
HETATM   24  O2  UNL     1       5.428 -18.194  18.484  1.00  0.00    -0.345 OA
ATOM     25  H2  UNL     1       4.614 -17.709  18.422  1.00  0.00     0.219 HD
ENDBRANCH   6  24
BRANCH   4  26
HETATM   26  O1  UNL     1       9.911 -16.973  19.870  1.00  0.00    -0.345 OA
ATOM     27  H1  UNL     1      10.626 -16.846  19.258  1.00  0.00     0.219 HD
ENDBRANCH   4  26
BRANCH   5  28
HETATM   28  C9  UNL     1       8.096 -19.396  19.390  1.00  0.00     0.094 C 
HETATM   29  C10 UNL     1       9.131 -19.672  20.483  1.00  0.00     0.026 C 
HETATM   30  C11 UNL     1       8.617 -19.217  21.830  1.00  0.00     0.002 C 
HETATM   31  C12 UNL     1       7.474 -20.183  22.176  1.00  0.00     0.000 C 
HETATM   32  C13 UNL     1       6.377 -19.867  21.150  1.00  0.00     0.002 C 
HETATM   33  C14 UNL     1       6.928 -20.271  19.795  1.00  0.00     0.026 C 
ENDBRANCH   5  28
TORSDOF 6
ENDMDL
MODEL 5
REMARK VINA RESULT: -6.924507809      1.555      1.955
REMARK  6 active torsions:
REMARK  status: ('A' for Active; 'I' for Inactive)
REMARK    1  A    between atoms: C2_2  and  C3_3 
REMARK    2  A    between atoms: C3_3  and  C26_32 
REMARK    3  A    between atoms: C4_4  and  C5_5 
REMARK    4  A    between atoms: C8_8  and  O1_9 
REMARK    5  A    between atoms: N1_11  and  C9_12 
REMARK    6  A    between atoms: C15_18  and  O2_19 
ROOT
HETATM    1  C5  UNL     1       5.683 -14.959  18.831  1.00  0.00     0.052 C 
HETATM    2  C6  UNL     1       6.490 -16.175  19.220  1.00  0.00     0.012 A 
HETATM    3  C7  UNL     1       7.751 -15.835  19.587  1.00  0.00     0.016 A 
HETATM    4  C8  UNL     1       8.396 -17.009  19.918  1.00  0.00     0.152 A 
HETATM    5  N1  UNL     1       7.579 -18.062  19.770  1.00  0.00    -0.303 N 
HETATM    6  C15 UNL     1       6.423 -17.564  19.346  1.00  0.00     0.152 A 
HETATM    7  C16 UNL     1       7.925 -14.354  19.486  1.00  0.00     0.099 C 
HETATM    8  C17 UNL     1       8.486 -13.798  20.756  1.00  0.00     0.140 C 
HETATM    9  O3  UNL     1       9.520 -14.080  21.315  1.00  0.00    -0.297 OA
HETATM   10  C18 UNL     1       7.505 -12.796  21.226  1.00  0.00     0.064 C 
HETATM   11  C19 UNL     1       7.545 -12.530  22.683  1.00  0.00     0.040 C 
HETATM   12  C20 UNL     1       6.222 -11.934  23.085  1.00  0.00    -0.024 C 
HETATM   13  C21 UNL     1       5.138 -11.974  22.361  1.00  0.00    -0.087 C 
HETATM   14  C22 UNL     1       3.900 -11.320  22.930  1.00  0.00     0.043 C 
HETATM   15  C23 UNL     1       5.029 -12.620  21.009  1.00  0.00     0.039 C 
HETATM   16  C24 UNL     1       6.202 -13.509  20.831  1.00  0.00     0.007 C 
HETATM   17  C25 UNL     1       6.523 -13.834  19.395  1.00  0.00     0.019 C 
ENDROOT
BRANCH   1  18
HETATM   18  C4  UNL     1       5.722 -14.877  17.364  1.00  0.00    -0.014 C 
HETATM   19  C3  UNL     1       5.264 -13.885  16.627  1.00  0.00    -0.084 C 
BRANCH  19  20
HETATM   20  C2  UNL     1       4.642 -12.715  17.257  1.00  0.00     0.029 C 
HETATM   21  C1  UNL     1       3.873 -11.858  16.274  1.00  0.00     0.010 C 
ENDBRANCH  19  20
BRANCH  19  22
HETATM   22  C26 UNL     1       5.398 -13.989  15.138  1.00  0.00     0.029 C 
HETATM   23  C27 UNL     1       4.689 -15.260  14.723  1.00  0.00     0.010 C 
ENDBRANCH  19  22
ENDBRANCH   1  18
BRANCH   6  24
HETATM   24  O2  UNL     1       5.226 -18.234  19.035  1.00  0.00    -0.345 OA
ATOM     25  H2  UNL     1       4.890 -18.896  19.628  1.00  0.00     0.219 HD
ENDBRANCH   6  24
BRANCH   4  26
HETATM   26  O1  UNL     1       9.731 -17.012  20.345  1.00  0.00    -0.345 OA
ATOM     27  H1  UNL     1       9.970 -17.292  21.220  1.00  0.00     0.219 HD
ENDBRANCH   4  26
BRANCH   5  28
HETATM   28  C9  UNL     1       7.873 -19.427  20.009  1.00  0.00     0.094 C 
HETATM   29  C10 UNL     1       7.198 -20.391  19.031  1.00  0.00     0.026 C 
HETATM   30  C11 UNL     1       7.655 -20.121  17.615  1.00  0.00     0.002 C 
HETATM   31  C12 UNL     1       9.128 -20.556  17.576  1.00  0.00     0.000 C 
HETATM   32  C13 UNL     1       9.853 -19.548  18.479  1.00  0.00     0.002 C 
HETATM   33  C14 UNL     1       9.340 -19.786  19.887  1.00  0.00     0.026 C 
ENDBRANCH   5  28
TORSDOF 6
ENDMDL
