MODEL 1
REMARK VINA RESULT: -7.240401923      0.000      0.000
REMARK  6 active torsions:
REMARK  status: ('A' for Active; 'I' for Inactive)
REMARK    1  A    between atoms: O1_1  and  N1_3 
REMARK    2  A    between atoms: C1_5  and  O2_6 
REMARK    3  A    between atoms: C1_5  and  C2_8 
REMARK    4  A    between atoms: C3_11  and  N3_12 
REMARK    5  A    between atoms: C8_17  and  O3_18 
REMARK    6  A    between atoms: C9_20  and  O4_21 
ROOT
HETATM    1  C2  UNL     1       3.805   4.151  35.803  1.00  0.00     0.299 C 
HETATM    2  N2  UNL     1       5.190   4.106  35.475  1.00  0.00    -0.367 N 
ATOM      3  H2  UNL     1       5.678   4.925  35.113  1.00  0.00     0.158 HD
HETATM    4  C3  UNL     1       5.855   2.879  35.674  1.00  0.00     0.219 C 
HETATM    5  C8  UNL     1       5.021   1.654  35.583  1.00  0.00     0.215 C 
HETATM    6  C9  UNL     1       3.574   1.850  35.884  1.00  0.00     0.292 C 
HETATM    7  O5  UNL     1       3.086   3.038  35.390  1.00  0.00    -0.327 OA
ENDROOT
BRANCH   1   8
HETATM    8  C1  UNL     1       3.543   4.488  37.222  1.00  0.00     0.185 C 
HETATM    9  N1  UNL     1       4.423   5.036  37.984  1.00  0.00    -0.247 N 
ATOM     10  H1  UNL     1       5.336   5.243  37.579  1.00  0.00     0.196 HD
BRANCH   9  11
HETATM   11  O1  UNL     1       4.226   5.359  39.281  1.00  0.00    -0.288 OA
ATOM     12  H1  UNL     1       4.919   5.538  39.906  1.00  0.00     0.244 HD
ENDBRANCH   9  11
BRANCH   8  13
HETATM   13  O2  UNL     1       2.305   4.208  37.772  1.00  0.00    -0.345 OA
ATOM     14  H2  UNL     1       1.536   4.510  37.302  1.00  0.00     0.219 HD
ENDBRANCH   8  13
ENDBRANCH   1   8
BRANCH   4  15
HETATM   15  N3  UNL     1       6.974   2.743  34.727  1.00  0.00    -0.343 N 
HETATM   16  C4  UNL     1       6.910   2.515  33.411  1.00  0.00     0.092 A 
HETATM   17  C5  UNL     1       8.169   2.451  32.861  1.00  0.00     0.019 A 
HETATM   18  C6  UNL     1       9.061   2.650  33.895  1.00  0.00     0.019 A 
HETATM   19  C7  UNL     1       8.284   2.826  35.020  1.00  0.00     0.092 A 
ENDBRANCH   4  15
BRANCH   6  20
HETATM   20  O4  UNL     1       2.862   0.815  35.267  1.00  0.00    -0.368 OA
ATOM     21  H4  UNL     1       2.450   1.167  34.486  1.00  0.00     0.212 HD
ENDBRANCH   6  20
BRANCH   5  22
HETATM   22  O3  UNL     1       5.111   1.026  34.330  1.00  0.00    -0.387 OA
ATOM     23  H3  UNL     1       4.621   0.213  34.290  1.00  0.00     0.210 HD
ENDBRANCH   5  22
TORSDOF 6
ENDMDL
MODEL 2
REMARK VINA RESULT: -7.193681165      0.885      1.110
REMARK  6 active torsions:
REMARK  status: ('A' for Active; 'I' for Inactive)
REMARK    1  A    between atoms: O1_1  and  N1_3 
REMARK    2  A    between atoms: C1_5  and  O2_6 
REMARK    3  A    between atoms: C1_5  and  C2_8 
REMARK    4  A    between atoms: C3_11  and  N3_12 
REMARK    5  A    between atoms: C8_17  and  O3_18 
REMARK    6  A    between atoms: C9_20  and  O4_21 
ROOT
HETATM    1  C2  UNL     1       4.510   4.287  35.822  1.00  0.00     0.299 C 
HETATM    2  N2  UNL     1       5.771   4.068  35.199  1.00  0.00    -0.367 N 
ATOM      3  H2  UNL     1       6.279   4.827  34.744  1.00  0.00     0.158 HD
HETATM    4  C3  UNL     1       6.286   2.756  35.240  1.00  0.00     0.219 C 
HETATM    5  C8  UNL     1       5.290   1.658  35.327  1.00  0.00     0.215 C 
HETATM    6  C9  UNL     1       3.983   2.036  35.939  1.00  0.00     0.292 C 
HETATM    7  O5  UNL     1       3.571   3.296  35.571  1.00  0.00    -0.327 OA
ENDROOT
BRANCH   1   8
HETATM    8  C1  UNL     1       4.610   4.604  37.267  1.00  0.00     0.185 C 
HETATM    9  N1  UNL     1       3.648   5.142  37.932  1.00  0.00    -0.247 N 
ATOM     10  H1  UNL     1       2.786   5.353  37.430  1.00  0.00     0.196 HD
BRANCH   9  11
HETATM   11  O1  UNL     1       3.697   5.448  39.247  1.00  0.00    -0.288 OA
ATOM     12  H1  UNL     1       3.312   6.224  39.638  1.00  0.00     0.244 HD
ENDBRANCH   9  11
BRANCH   8  13
HETATM   13  O2  UNL     1       5.779   4.318  37.949  1.00  0.00    -0.345 OA
ATOM     14  H2  UNL     1       6.478   4.961  37.914  1.00  0.00     0.219 HD
ENDBRANCH   8  13
ENDBRANCH   1   8
BRANCH   4  15
HETATM   15  N3  UNL     1       7.143   2.505  34.071  1.00  0.00    -0.343 N 
HETATM   16  C4  UNL     1       6.776   2.424  32.787  1.00  0.00     0.092 A 
HETATM   17  C5  UNL     1       7.861   2.178  31.979  1.00  0.00     0.019 A 
HETATM   18  C6  UNL     1       8.961   2.102  32.809  1.00  0.00     0.019 A 
HETATM   19  C7  UNL     1       8.475   2.309  34.082  1.00  0.00     0.092 A 
ENDBRANCH   4  15
BRANCH   6  20
HETATM   20  O4  UNL     1       3.018   1.130  35.487  1.00  0.00    -0.368 OA
ATOM     21  H4  UNL     1       3.261   0.265  35.795  1.00  0.00     0.212 HD
ENDBRANCH   6  20
BRANCH   5  22
HETATM   22  O3  UNL     1       5.018   1.070  34.081  1.00  0.00    -0.387 OA
ATOM     23  H3  UNL     1       4.432   0.325  34.146  1.00  0.00     0.210 HD
ENDBRANCH   5  22
TORSDOF 6
ENDMDL
MODEL 3
REMARK VINA RESULT: -6.734528940      3.779      5.316
REMARK  6 active torsions:
REMARK  status: ('A' for Active; 'I' for Inactive)
REMARK    1  A    between atoms: O1_1  and  N1_3 
REMARK    2  A    between atoms: C1_5  and  O2_6 
REMARK    3  A    between atoms: C1_5  and  C2_8 
REMARK    4  A    between atoms: C3_11  and  N3_12 
REMARK    5  A    between atoms: C8_17  and  O3_18 
REMARK    6  A    between atoms: C9_20  and  O4_21 
ROOT
HETATM    1  C2  UNL     1       4.150   0.959  35.013  1.00  0.00     0.299 C 
HETATM    2  N2  UNL     1       2.891   0.634  34.435  1.00  0.00    -0.367 N 
ATOM      3  H2  UNL     1       2.221   0.036  34.919  1.00  0.00     0.158 HD
HETATM    4  C3  UNL     1       2.612   1.176  33.164  1.00  0.00     0.219 C 
HETATM    5  C8  UNL     1       3.783   1.469  32.299  1.00  0.00     0.215 C 
HETATM    6  C9  UNL     1       5.059   1.724  33.027  1.00  0.00     0.292 C 
HETATM    7  O5  UNL     1       5.215   0.909  34.125  1.00  0.00    -0.327 OA
ENDROOT
BRANCH   1   8
HETATM    8  C1  UNL     1       4.137   2.219  35.794  1.00  0.00     0.185 C 
HETATM    9  N1  UNL     1       3.058   2.876  36.042  1.00  0.00    -0.247 N 
ATOM     10  H1  UNL     1       2.182   2.500  35.679  1.00  0.00     0.196 HD
BRANCH   9  11
HETATM   11  O1  UNL     1       3.000   4.027  36.747  1.00  0.00    -0.288 OA
ATOM     12  H1  UNL     1       2.324   4.688  36.652  1.00  0.00     0.244 HD
ENDBRANCH   9  11
BRANCH   8  13
HETATM   13  O2  UNL     1       5.324   2.730  36.286  1.00  0.00    -0.345 OA
ATOM     14  H2  UNL     1       6.134   2.365  35.948  1.00  0.00     0.219 HD
ENDBRANCH   8  13
ENDBRANCH   1   8
BRANCH   4  15
HETATM   15  N3  UNL     1       1.701   0.292  32.419  1.00  0.00    -0.343 N 
HETATM   16  C4  UNL     1       1.527  -1.025  32.575  1.00  0.00     0.092 A 
HETATM   17  C5  UNL     1       0.587  -1.505  31.693  1.00  0.00     0.019 A 
HETATM   18  C6  UNL     1       0.156  -0.425  30.950  1.00  0.00     0.019 A 
HETATM   19  C7  UNL     1       0.865   0.656  31.428  1.00  0.00     0.092 A 
ENDBRANCH   4  15
BRANCH   6  20
HETATM   20  O4  UNL     1       6.116   1.455  32.151  1.00  0.00    -0.368 OA
ATOM     21  H4  UNL     1       6.921   1.746  32.565  1.00  0.00     0.212 HD
ENDBRANCH   6  20
BRANCH   5  22
HETATM   22  O3  UNL     1       4.029   0.457  31.356  1.00  0.00    -0.387 OA
ATOM     23  H3  UNL     1       4.098   0.790  30.469  1.00  0.00     0.210 HD
ENDBRANCH   5  22
TORSDOF 6
ENDMDL
MODEL 4
REMARK VINA RESULT: -6.474655555      2.796      4.891
REMARK  6 active torsions:
REMARK  status: ('A' for Active; 'I' for Inactive)
REMARK    1  A    between atoms: O1_1  and  N1_3 
REMARK    2  A    between atoms: C1_5  and  O2_6 
REMARK    3  A    between atoms: C1_5  and  C2_8 
REMARK    4  A    between atoms: C3_11  and  N3_12 
REMARK    5  A    between atoms: C8_17  and  O3_18 
REMARK    6  A    between atoms: C9_20  and  O4_21 
ROOT
HETATM    1  C2  UNL     1       7.376   3.555  34.434  1.00  0.00     0.299 C 
HETATM    2  N2  UNL     1       6.544   2.528  33.904  1.00  0.00    -0.367 N 
ATOM      3  H2  UNL     1       6.619   2.230  32.932  1.00  0.00     0.158 HD
HETATM    4  C3  UNL     1       5.613   1.942  34.785  1.00  0.00     0.219 C 
HETATM    5  C8  UNL     1       5.136   2.794  35.905  1.00  0.00     0.215 C 
HETATM    6  C9  UNL     1       6.073   3.878  36.319  1.00  0.00     0.292 C 
HETATM    7  O5  UNL     1       6.714   4.461  35.250  1.00  0.00    -0.327 OA
ENDROOT
BRANCH   1   8
HETATM    8  C1  UNL     1       8.619   3.046  35.062  1.00  0.00     0.185 C 
HETATM    9  N1  UNL     1       9.613   2.596  34.380  1.00  0.00    -0.247 N 
ATOM     10  H1  UNL     1       9.528   2.597  33.364  1.00  0.00     0.196 HD
BRANCH   9  11
HETATM   11  O1  UNL     1      10.762   2.123  34.911  1.00  0.00    -0.288 OA
ATOM     12  H1  UNL     1      11.051   1.219  34.859  1.00  0.00     0.244 HD
ENDBRANCH   9  11
BRANCH   8  13
HETATM   13  O2  UNL     1       8.735   3.044  36.441  1.00  0.00    -0.345 OA
ATOM     14  H2  UNL     1       8.243   2.390  36.923  1.00  0.00     0.219 HD
ENDBRANCH   8  13
ENDBRANCH   1   8
BRANCH   4  15
HETATM   15  N3  UNL     1       4.437   1.462  34.042  1.00  0.00    -0.343 N 
HETATM   16  C4  UNL     1       3.343   0.868  34.534  1.00  0.00     0.092 A 
HETATM   17  C5  UNL     1       2.456   0.561  33.529  1.00  0.00     0.019 A 
HETATM   18  C6  UNL     1       3.033   0.988  32.350  1.00  0.00     0.019 A 
HETATM   19  C7  UNL     1       4.246   1.534  32.712  1.00  0.00     0.092 A 
ENDBRANCH   4  15
BRANCH   6  20
HETATM   20  O4  UNL     1       5.325   4.874  36.955  1.00  0.00    -0.368 OA
ATOM     21  H4  UNL     1       5.913   5.371  37.512  1.00  0.00     0.212 HD
ENDBRANCH   6  20
BRANCH   5  22
HETATM   22  O3  UNL     1       3.891   3.389  35.643  1.00  0.00    -0.387 OA
ATOM     23  H3  UNL     1       3.440   3.661  36.434  1.00  0.00     0.210 HD
ENDBRANCH   5  22
TORSDOF 6
ENDMDL
MODEL 5
REMARK VINA RESULT: -6.365399318      3.940      6.316
REMARK  6 active torsions:
REMARK  status: ('A' for Active; 'I' for Inactive)
REMARK    1  A    between atoms: O1_1  and  N1_3 
REMARK    2  A    between atoms: C1_5  and  O2_6 
REMARK    3  A    between atoms: C1_5  and  C2_8 
REMARK    4  A    between atoms: C3_11  and  N3_12 
REMARK    5  A    between atoms: C8_17  and  O3_18 
REMARK    6  A    between atoms: C9_20  and  O4_21 
ROOT
HETATM    1  C2  UNL     1       6.051   0.486  29.815  1.00  0.00     0.299 C 
HETATM    2  N2  UNL     1       6.925   1.312  30.577  1.00  0.00    -0.367 N 
ATOM      3  H2  UNL     1       7.936   1.279  30.449  1.00  0.00     0.158 HD
HETATM    4  C3  UNL     1       6.328   2.177  31.517  1.00  0.00     0.219 C 
HETATM    5  C8  UNL     1       5.023   1.745  32.077  1.00  0.00     0.215 C 
HETATM    6  C9  UNL     1       4.235   0.825  31.208  1.00  0.00     0.292 C 
HETATM    7  O5  UNL     1       5.025  -0.089  30.550  1.00  0.00    -0.327 OA
ENDROOT
BRANCH   1   8
HETATM    8  C1  UNL     1       5.553   1.134  28.578  1.00  0.00     0.185 C 
HETATM    9  N1  UNL     1       5.973   2.281  28.172  1.00  0.00    -0.247 N 
ATOM     10  H1  UNL     1       6.680   2.753  28.736  1.00  0.00     0.196 HD
BRANCH   9  11
HETATM   11  O1  UNL     1       5.546   2.906  27.053  1.00  0.00    -0.288 OA
ATOM     12  H1  UNL     1       4.637   2.987  26.790  1.00  0.00     0.244 HD
ENDBRANCH   9  11
BRANCH   8  13
HETATM   13  O2  UNL     1       4.595   0.495  27.812  1.00  0.00    -0.345 OA
ATOM     14  H2  UNL     1       3.683   0.660  28.021  1.00  0.00     0.219 HD
ENDBRANCH   8  13
ENDBRANCH   1   8
BRANCH   4  15
HETATM   15  N3  UNL     1       7.248   2.428  32.639  1.00  0.00    -0.343 N 
HETATM   16  C4  UNL     1       6.971   3.009  33.811  1.00  0.00     0.092 A 
HETATM   17  C5  UNL     1       8.090   3.067  34.609  1.00  0.00     0.019 A 
HETATM   18  C6  UNL     1       9.116   2.490  33.890  1.00  0.00     0.019 A 
HETATM   19  C7  UNL     1       8.555   2.112  32.688  1.00  0.00     0.092 A 
ENDBRANCH   4  15
BRANCH   6  20
HETATM   20  O4  UNL     1       3.354   0.108  32.025  1.00  0.00    -0.368 OA
ATOM     21  H4  UNL     1       3.686   0.143  32.915  1.00  0.00     0.212 HD
ENDBRANCH   6  20
BRANCH   5  22
HETATM   22  O3  UNL     1       5.146   1.134  33.336  1.00  0.00    -0.387 OA
ATOM     23  H3  UNL     1       4.570   0.387  33.440  1.00  0.00     0.210 HD
ENDBRANCH   5  22
TORSDOF 6
ENDMDL
