MODEL 1
REMARK VINA RESULT: -7.295015338      0.000      0.000
REMARK  7 active torsions:
REMARK  status: ('A' for Active; 'I' for Inactive)
REMARK    1  A    between atoms: C4_4  and  C5_5 
REMARK       I    between atoms: C5_5  and  N1_7 
REMARK    2  A    between atoms: C6_8  and  C7_9 
REMARK       I    between atoms: C7_9  and  N2_11 
REMARK    3  A    between atoms: N2_11  and  C8_12 
REMARK    4  A    between atoms: C8_12  and  C9_13 
REMARK    5  A    between atoms: C8_12  and  C13_17 
REMARK    6  A    between atoms: C9_13  and  C10_14 
REMARK    7  A    between atoms: C16_22  and  C17_23 
ROOT
HETATM    1  C5  UNL     1      30.492 -25.813   7.019  1.00  0.00     0.273 C 
HETATM    2  O1  UNL     1      31.046 -25.482   8.128  1.00  0.00    -0.266 OA
HETATM    3  N1  UNL     1      30.794 -25.001   5.900  1.00  0.00    -0.326 N 
HETATM    4  C6  UNL     1      31.586 -23.856   5.676  1.00  0.00     0.195 C 
HETATM    5  C14 UNL     1      32.340 -24.250   4.384  1.00  0.00     0.044 C 
HETATM    6  C15 UNL     1      31.233 -24.835   3.565  1.00  0.00     0.028 A 
HETATM    7  C16 UNL     1      30.856 -26.271   3.690  1.00  0.00     0.116 A 
HETATM    8  C18 UNL     1      30.177 -25.304   4.588  1.00  0.00     0.108 A 
ENDROOT
BRANCH   4   9
HETATM    9  C7  UNL     1      32.614 -23.505   6.710  1.00  0.00     0.315 C 
HETATM   10  O2  UNL     1      33.604 -24.343   6.683  1.00  0.00    -0.255 OA
HETATM   11  N2  UNL     1      32.482 -22.464   7.504  1.00  0.00    -0.366 NA
BRANCH  11  12
HETATM   12  C8  UNL     1      32.345 -21.351   8.355  1.00  0.00     0.165 C 
BRANCH  12  13
HETATM   13  C9  UNL     1      32.495 -19.982   7.709  1.00  0.00     0.084 C 
BRANCH  13  14
HETATM   14  C10 UNL     1      31.929 -19.831   6.355  1.00  0.00    -0.016 C 
HETATM   15  C11 UNL     1      32.249 -18.626   5.567  1.00  0.00     0.010 C 
HETATM   16  C12 UNL     1      30.388 -19.837   6.544  1.00  0.00     0.010 C 
ENDBRANCH  13  14
ENDBRANCH  12  13
BRANCH  12  17
HETATM   17  C13 UNL     1      33.031 -21.437   9.655  1.00  0.00     0.237 C 
HETATM   18  O3  UNL     1      33.176 -20.406  10.358  1.00  0.00    -0.642 OA
HETATM   19  O4  UNL     1      33.529 -22.632  10.128  1.00  0.00    -0.642 OA
ENDBRANCH  12  17
ENDBRANCH  11  12
ENDBRANCH   4   9
BRANCH   1  20
HETATM   20  C4  UNL     1      29.618 -26.966   7.009  1.00  0.00     0.125 A 
HETATM   21  C3  UNL     1      28.286 -26.963   7.396  1.00  0.00     0.071 A 
HETATM   22  C2  UNL     1      27.784 -28.231   7.241  1.00  0.00     0.075 A 
HETATM   23  C1  UNL     1      26.410 -28.745   7.515  1.00  0.00     0.079 C 
HETATM   24  O7  UNL     1      28.793 -28.976   6.773  1.00  0.00    -0.242 OA
HETATM   25  N3  UNL     1      29.857 -28.221   6.643  1.00  0.00    -0.256 N 
ATOM     26  H3  UNL     1      30.758 -28.556   6.302  1.00  0.00     0.195 HD
ENDBRANCH   1  20
BRANCH   7  27
HETATM   27  C17 UNL     1      30.059 -26.751   2.531  1.00  0.00     0.179 C 
HETATM   28  O5  UNL     1      28.814 -26.629   2.442  1.00  0.00    -0.648 OA
HETATM   29  O6  UNL     1      30.741 -27.368   1.495  1.00  0.00    -0.648 OA
ENDBRANCH   7  27
TORSDOF 7
ENDMDL
MODEL 2
REMARK VINA RESULT: -7.176845474      1.691      2.906
REMARK  7 active torsions:
REMARK  status: ('A' for Active; 'I' for Inactive)
REMARK    1  A    between atoms: C4_4  and  C5_5 
REMARK       I    between atoms: C5_5  and  N1_7 
REMARK    2  A    between atoms: C6_8  and  C7_9 
REMARK       I    between atoms: C7_9  and  N2_11 
REMARK    3  A    between atoms: N2_11  and  C8_12 
REMARK    4  A    between atoms: C8_12  and  C9_13 
REMARK    5  A    between atoms: C8_12  and  C13_17 
REMARK    6  A    between atoms: C9_13  and  C10_14 
REMARK    7  A    between atoms: C16_22  and  C17_23 
ROOT
HETATM    1  C5  UNL     1      29.807 -26.055   6.990  1.00  0.00     0.273 C 
HETATM    2  O1  UNL     1      30.328 -26.133   8.159  1.00  0.00    -0.266 OA
HETATM    3  N1  UNL     1      30.437 -25.173   6.080  1.00  0.00    -0.326 N 
HETATM    4  C6  UNL     1      31.549 -24.306   6.130  1.00  0.00     0.195 C 
HETATM    5  C14 UNL     1      32.270 -24.653   4.805  1.00  0.00     0.044 C 
HETATM    6  C15 UNL     1      31.120 -24.697   3.848  1.00  0.00     0.028 A 
HETATM    7  C16 UNL     1      30.326 -25.942   3.652  1.00  0.00     0.116 A 
HETATM    8  C18 UNL     1      29.882 -25.008   4.716  1.00  0.00     0.108 A 
ENDROOT
BRANCH   4   9
HETATM    9  C7  UNL     1      32.535 -24.498   7.243  1.00  0.00     0.315 C 
HETATM   10  O2  UNL     1      32.941 -25.728   7.296  1.00  0.00    -0.255 OA
HETATM   11  N2  UNL     1      32.910 -23.508   8.024  1.00  0.00    -0.366 NA
BRANCH  11  12
HETATM   12  C8  UNL     1      33.315 -22.451   8.862  1.00  0.00     0.165 C 
BRANCH  12  13
HETATM   13  C9  UNL     1      33.768 -22.831  10.263  1.00  0.00     0.084 C 
BRANCH  13  14
HETATM   14  C10 UNL     1      35.212 -23.074  10.440  1.00  0.00    -0.016 C 
HETATM   15  C11 UNL     1      35.659 -24.183  11.304  1.00  0.00     0.010 C 
HETATM   16  C12 UNL     1      35.780 -21.771  11.066  1.00  0.00     0.010 C 
ENDBRANCH  13  14
ENDBRANCH  12  13
BRANCH  12  17
HETATM   17  C13 UNL     1      32.459 -21.252   8.854  1.00  0.00     0.237 C 
HETATM   18  O3  UNL     1      32.367 -20.539   9.884  1.00  0.00    -0.642 OA
HETATM   19  O4  UNL     1      31.743 -20.885   7.734  1.00  0.00    -0.642 OA
ENDBRANCH  12  17
ENDBRANCH  11  12
ENDBRANCH   4   9
BRANCH   1  20
HETATM   20  C4  UNL     1      28.636 -26.857   6.708  1.00  0.00     0.125 A 
HETATM   21  C3  UNL     1      28.135 -27.856   7.529  1.00  0.00     0.071 A 
HETATM   22  C2  UNL     1      27.015 -28.384   6.937  1.00  0.00     0.075 A 
HETATM   23  C1  UNL     1      26.117 -29.476   7.417  1.00  0.00     0.079 C 
HETATM   24  O7  UNL     1      26.849 -27.716   5.789  1.00  0.00    -0.242 OA
HETATM   25  N3  UNL     1      27.806 -26.827   5.671  1.00  0.00    -0.256 N 
ATOM     26  H3  UNL     1      27.900 -26.190   4.880  1.00  0.00     0.195 HD
ENDBRANCH   1  20
BRANCH   7  27
HETATM   27  C17 UNL     1      29.534 -25.918   2.395  1.00  0.00     0.179 C 
HETATM   28  O5  UNL     1      29.258 -26.940   1.724  1.00  0.00    -0.648 OA
HETATM   29  O6  UNL     1      29.079 -24.688   1.948  1.00  0.00    -0.648 OA
ENDBRANCH   7  27
TORSDOF 7
ENDMDL
MODEL 3
REMARK VINA RESULT: -7.164710897      3.572      6.885
REMARK  7 active torsions:
REMARK  status: ('A' for Active; 'I' for Inactive)
REMARK    1  A    between atoms: C4_4  and  C5_5 
REMARK       I    between atoms: C5_5  and  N1_7 
REMARK    2  A    between atoms: C6_8  and  C7_9 
REMARK       I    between atoms: C7_9  and  N2_11 
REMARK    3  A    between atoms: N2_11  and  C8_12 
REMARK    4  A    between atoms: C8_12  and  C9_13 
REMARK    5  A    between atoms: C8_12  and  C13_17 
REMARK    6  A    between atoms: C9_13  and  C10_14 
REMARK    7  A    between atoms: C16_22  and  C17_23 
ROOT
HETATM    1  C5  UNL     1      29.199 -26.162   1.442  1.00  0.00     0.273 C 
HETATM    2  O1  UNL     1      29.638 -27.117   2.177  1.00  0.00    -0.266 OA
HETATM    3  N1  UNL     1      29.242 -24.865   2.008  1.00  0.00    -0.326 N 
HETATM    4  C6  UNL     1      29.660 -24.322   3.240  1.00  0.00     0.195 C 
HETATM    5  C14 UNL     1      30.488 -23.101   2.774  1.00  0.00     0.044 C 
HETATM    6  C15 UNL     1      29.597 -22.528   1.717  1.00  0.00     0.028 A 
HETATM    7  C16 UNL     1      29.659 -23.011   0.309  1.00  0.00     0.116 A 
HETATM    8  C18 UNL     1      28.731 -23.711   1.232  1.00  0.00     0.108 A 
ENDROOT
BRANCH   4   9
HETATM    9  C7  UNL     1      30.546 -25.163   4.109  1.00  0.00     0.315 C 
HETATM   10  O2  UNL     1      31.791 -25.026   3.772  1.00  0.00    -0.255 OA
HETATM   11  N2  UNL     1      30.069 -25.912   5.080  1.00  0.00    -0.366 NA
BRANCH  11  12
HETATM   12  C8  UNL     1      29.561 -26.714   6.120  1.00  0.00     0.165 C 
BRANCH  12  13
HETATM   13  C9  UNL     1      28.052 -26.705   6.307  1.00  0.00     0.084 C 
BRANCH  13  14
HETATM   14  C10 UNL     1      27.358 -27.989   6.091  1.00  0.00    -0.016 C 
HETATM   15  C11 UNL     1      26.210 -28.045   5.167  1.00  0.00     0.010 C 
HETATM   16  C12 UNL     1      26.822 -28.413   7.485  1.00  0.00     0.010 C 
ENDBRANCH  13  14
ENDBRANCH  12  13
BRANCH  12  17
HETATM   17  C13 UNL     1      30.287 -26.655   7.400  1.00  0.00     0.237 C 
HETATM   18  O3  UNL     1      31.058 -25.692   7.640  1.00  0.00    -0.642 OA
HETATM   19  O4  UNL     1      30.146 -27.639   8.355  1.00  0.00    -0.642 OA
ENDBRANCH  12  17
ENDBRANCH  11  12
ENDBRANCH   4   9
BRANCH   1  20
HETATM   20  C4  UNL     1      28.702 -26.487   0.123  1.00  0.00     0.125 A 
HETATM   21  C3  UNL     1      29.491 -26.755  -0.985  1.00  0.00     0.071 A 
HETATM   22  C2  UNL     1      28.668 -27.029  -2.050  1.00  0.00     0.075 A 
HETATM   23  C1  UNL     1      29.026 -27.378  -3.456  1.00  0.00     0.079 C 
HETATM   24  O7  UNL     1      27.416 -26.927  -1.588  1.00  0.00    -0.242 OA
HETATM   25  N3  UNL     1      27.453 -26.610  -0.317  1.00  0.00    -0.256 N 
ATOM     26  H3  UNL     1      26.626 -26.474   0.264  1.00  0.00     0.195 HD
ENDBRANCH   1  20
BRANCH   7  27
HETATM   27  C17 UNL     1      29.031 -22.060  -0.645  1.00  0.00     0.179 C 
HETATM   28  O5  UNL     1      29.669 -21.423  -1.517  1.00  0.00    -0.648 OA
HETATM   29  O6  UNL     1      27.661 -21.875  -0.558  1.00  0.00    -0.648 OA
ENDBRANCH   7  27
TORSDOF 7
ENDMDL
MODEL 4
REMARK VINA RESULT: -7.142237994      1.478      2.641
REMARK  7 active torsions:
REMARK  status: ('A' for Active; 'I' for Inactive)
REMARK    1  A    between atoms: C4_4  and  C5_5 
REMARK       I    between atoms: C5_5  and  N1_7 
REMARK    2  A    between atoms: C6_8  and  C7_9 
REMARK       I    between atoms: C7_9  and  N2_11 
REMARK    3  A    between atoms: N2_11  and  C8_12 
REMARK    4  A    between atoms: C8_12  and  C9_13 
REMARK    5  A    between atoms: C8_12  and  C13_17 
REMARK    6  A    between atoms: C9_13  and  C10_14 
REMARK    7  A    between atoms: C16_22  and  C17_23 
ROOT
HETATM    1  C5  UNL     1      31.035 -25.790   6.944  1.00  0.00     0.273 C 
HETATM    2  O1  UNL     1      31.868 -25.727   7.917  1.00  0.00    -0.266 OA
HETATM    3  N1  UNL     1      31.136 -24.772   5.965  1.00  0.00    -0.326 N 
HETATM    4  C6  UNL     1      31.957 -23.642   5.775  1.00  0.00     0.195 C 
HETATM    5  C14 UNL     1      32.338 -23.784   4.282  1.00  0.00     0.044 C 
HETATM    6  C15 UNL     1      31.015 -24.132   3.674  1.00  0.00     0.028 A 
HETATM    7  C16 UNL     1      30.543 -25.544   3.609  1.00  0.00     0.116 A 
HETATM    8  C18 UNL     1      30.195 -24.761   4.821  1.00  0.00     0.108 A 
ENDROOT
BRANCH   4   9
HETATM    9  C7  UNL     1      33.232 -23.564   6.560  1.00  0.00     0.315 C 
HETATM   10  O2  UNL     1      34.168 -24.262   5.994  1.00  0.00    -0.255 OA
HETATM   11  N2  UNL     1      33.333 -22.856   7.663  1.00  0.00    -0.366 NA
BRANCH  11  12
HETATM   12  C8  UNL     1      33.445 -22.098   8.845  1.00  0.00     0.165 C 
BRANCH  12  13
HETATM   13  C9  UNL     1      33.589 -22.880  10.141  1.00  0.00     0.084 C 
BRANCH  13  14
HETATM   14  C10 UNL     1      34.951 -22.980  10.697  1.00  0.00    -0.016 C 
HETATM   15  C11 UNL     1      35.938 -21.927  10.391  1.00  0.00     0.010 C 
HETATM   16  C12 UNL     1      35.534 -24.305  10.135  1.00  0.00     0.010 C 
ENDBRANCH  13  14
ENDBRANCH  12  13
BRANCH  12  17
HETATM   17  C13 UNL     1      32.521 -20.958   8.975  1.00  0.00     0.237 C 
HETATM   18  O3  UNL     1      32.483 -20.299  10.045  1.00  0.00    -0.642 OA
HETATM   19  O4  UNL     1      31.682 -20.590   7.946  1.00  0.00    -0.642 OA
ENDBRANCH  12  17
ENDBRANCH  11  12
ENDBRANCH   4   9
BRANCH   1  20
HETATM   20  C4  UNL     1      30.077 -26.874   6.933  1.00  0.00     0.125 A 
HETATM   21  C3  UNL     1      28.817 -26.834   7.511  1.00  0.00     0.071 A 
HETATM   22  C2  UNL     1      28.198 -28.039   7.289  1.00  0.00     0.075 A 
HETATM   23  C1  UNL     1      26.838 -28.494   7.704  1.00  0.00     0.079 C 
HETATM   24  O7  UNL     1      29.067 -28.782   6.593  1.00  0.00    -0.242 OA
HETATM   25  N3  UNL     1      30.160 -28.086   6.394  1.00  0.00    -0.256 N 
ATOM     26  H3  UNL     1      30.974 -28.433   5.886  1.00  0.00     0.195 HD
ENDBRANCH   1  20
BRANCH   7  27
HETATM   27  C17 UNL     1      29.449 -25.731   2.621  1.00  0.00     0.179 C 
HETATM   28  O5  UNL     1      28.903 -26.835   2.384  1.00  0.00    -0.648 OA
HETATM   29  O6  UNL     1      29.013 -24.613   1.927  1.00  0.00    -0.648 OA
ENDBRANCH   7  27
TORSDOF 7
ENDMDL
MODEL 5
REMARK VINA RESULT: -7.123649690      1.214      2.258
REMARK  7 active torsions:
REMARK  status: ('A' for Active; 'I' for Inactive)
REMARK    1  A    between atoms: C4_4  and  C5_5 
REMARK       I    between atoms: C5_5  and  N1_7 
REMARK    2  A    between atoms: C6_8  and  C7_9 
REMARK       I    between atoms: C7_9  and  N2_11 
REMARK    3  A    between atoms: N2_11  and  C8_12 
REMARK    4  A    between atoms: C8_12  and  C9_13 
REMARK    5  A    between atoms: C8_12  and  C13_17 
REMARK    6  A    between atoms: C9_13  and  C10_14 
REMARK    7  A    between atoms: C16_22  and  C17_23 
ROOT
HETATM    1  C5  UNL     1      30.545 -25.824   7.001  1.00  0.00     0.273 C 
HETATM    2  O1  UNL     1      31.147 -25.505   8.087  1.00  0.00    -0.266 OA
HETATM    3  N1  UNL     1      30.825 -25.023   5.868  1.00  0.00    -0.326 N 
HETATM    4  C6  UNL     1      31.636 -23.898   5.612  1.00  0.00     0.195 C 
HETATM    5  C14 UNL     1      32.331 -24.313   4.293  1.00  0.00     0.044 C 
HETATM    6  C15 UNL     1      31.180 -24.872   3.518  1.00  0.00     0.028 A 
HETATM    7  C16 UNL     1      30.772 -26.298   3.661  1.00  0.00     0.116 A 
HETATM    8  C18 UNL     1      30.151 -25.312   4.581  1.00  0.00     0.108 A 
ENDROOT
BRANCH   4   9
HETATM    9  C7  UNL     1      32.710 -23.570   6.605  1.00  0.00     0.315 C 
HETATM   10  O2  UNL     1      33.561 -24.544   6.705  1.00  0.00    -0.255 OA
HETATM   11  N2  UNL     1      32.742 -22.425   7.251  1.00  0.00    -0.366 NA
BRANCH  11  12
HETATM   12  C8  UNL     1      32.779 -21.199   7.943  1.00  0.00     0.165 C 
BRANCH  12  13
HETATM   13  C9  UNL     1      32.655 -21.272   9.457  1.00  0.00     0.084 C 
BRANCH  13  14
HETATM   14  C10 UNL     1      33.919 -21.300  10.216  1.00  0.00    -0.016 C 
HETATM   15  C11 UNL     1      35.112 -20.633   9.661  1.00  0.00     0.010 C 
HETATM   16  C12 UNL     1      34.283 -22.802  10.365  1.00  0.00     0.010 C 
ENDBRANCH  13  14
ENDBRANCH  12  13
BRANCH  12  17
HETATM   17  C13 UNL     1      31.982 -20.102   7.366  1.00  0.00     0.237 C 
HETATM   18  O3  UNL     1      30.752 -20.260   7.162  1.00  0.00    -0.642 OA
HETATM   19  O4  UNL     1      32.555 -18.893   7.035  1.00  0.00    -0.642 OA
ENDBRANCH  12  17
ENDBRANCH  11  12
ENDBRANCH   4   9
BRANCH   1  20
HETATM   20  C4  UNL     1      29.642 -26.955   7.027  1.00  0.00     0.125 A 
HETATM   21  C3  UNL     1      28.303 -26.901   7.384  1.00  0.00     0.071 A 
HETATM   22  C2  UNL     1      27.773 -28.163   7.279  1.00  0.00     0.075 A 
HETATM   23  C1  UNL     1      26.381 -28.629   7.548  1.00  0.00     0.079 C 
HETATM   24  O7  UNL     1      28.772 -28.954   6.868  1.00  0.00    -0.242 OA
HETATM   25  N3  UNL     1      29.857 -28.232   6.726  1.00  0.00    -0.256 N 
ATOM     26  H3  UNL     1      30.756 -28.604   6.421  1.00  0.00     0.195 HD
ENDBRANCH   1  20
BRANCH   7  27
HETATM   27  C17 UNL     1      29.920 -26.760   2.534  1.00  0.00     0.179 C 
HETATM   28  O5  UNL     1      28.670 -26.668   2.522  1.00  0.00    -0.648 OA
HETATM   29  O6  UNL     1      30.556 -27.324   1.440  1.00  0.00    -0.648 OA
ENDBRANCH   7  27
TORSDOF 7
ENDMDL
