MODEL 1
REMARK VINA RESULT: -7.676776664      0.000      0.000
REMARK  9 active torsions:
REMARK  status: ('A' for Active; 'I' for Inactive)
REMARK    1  A    between atoms: O1_2  and  C2_3 
REMARK       I    between atoms: C2_3  and  N1_5 
REMARK    2  A    between atoms: C3_7  and  N2_8 
REMARK    3  A    between atoms: C3_7  and  C15_27 
REMARK    4  A    between atoms: N2_8  and  C4_10 
REMARK    5  A    between atoms: C4_10  and  C5_11 
REMARK    6  A    between atoms: C4_10  and  C12_24 
REMARK       I    between atoms: C5_11  and  N3_13 
REMARK    7  A    between atoms: N3_13  and  C6_15 
REMARK    8  A    between atoms: C6_15  and  C7_16 
REMARK    9  A    between atoms: C6_15  and  C8_19 
ROOT
HETATM    1  C4  UNL     1      29.717 -25.157   4.311  1.00  0.00     0.178 C 
ENDROOT
BRANCH   1   2
HETATM    2  N2  UNL     1      30.980 -24.508   4.470  1.00  0.00    -0.362 N 
ATOM      3  H2  UNL     1      31.710 -24.657   3.773  1.00  0.00     0.162 HD
BRANCH   2   4
HETATM    4  C3  UNL     1      31.243 -23.644   5.602  1.00  0.00     0.116 C 
HETATM    5  N1  UNL     1      31.750 -23.870   6.641  1.00  0.00    -0.288 N 
HETATM    6  C2  UNL     1      32.346 -24.590   7.593  1.00  0.00     0.365 C 
ATOM      7  H1  UNL     1      31.705 -22.953   7.085  1.00  0.00     0.172 HD
HETATM    8  O2  UNL     1      32.359 -25.858   7.588  1.00  0.00    -0.238 OA
BRANCH   6   9
HETATM    9  O1  UNL     1      33.014 -24.011   8.689  1.00  0.00    -0.309 OA
HETATM   10  C1  UNL     1      33.335 -22.657   8.857  1.00  0.00     0.215 C 
ENDBRANCH   6   9
BRANCH   4  11
HETATM   11  C15 UNL     1      30.798 -22.210   5.409  1.00  0.00     0.008 A 
HETATM   12  C16 UNL     1      30.243 -21.838   4.215  1.00  0.00     0.015 A 
HETATM   13  C17 UNL     1      29.763 -20.575   4.013  1.00  0.00     0.001 A 
HETATM   14  C18 UNL     1      29.864 -19.701   5.061  1.00  0.00     0.000 A 
HETATM   15  C19 UNL     1      30.423 -20.046   6.279  1.00  0.00     0.001 A 
HETATM   16  C20 UNL     1      30.896 -21.323   6.438  1.00  0.00     0.015 A 
ENDBRANCH   4  11
ENDBRANCH   2   4
ENDBRANCH   1   2
BRANCH   1  17
HETATM   17  C5  UNL     1      29.706 -26.424   5.119  1.00  0.00     0.241 C 
HETATM   18  O3  UNL     1      30.749 -27.147   5.101  1.00  0.00    -0.271 OA
HETATM   19  N3  UNL     1      28.613 -26.872   5.879  1.00  0.00    -0.341 N 
ATOM     20  H3  UNL     1      27.765 -26.307   5.843  1.00  0.00     0.163 HD
BRANCH  19  21
HETATM   21  C6  UNL     1      28.573 -28.052   6.703  1.00  0.00     0.231 C 
BRANCH  21  22
HETATM   22  C7  UNL     1      29.121 -27.686   8.046  1.00  0.00     0.260 C 
HETATM   23  N4  UNL     1      29.534 -28.629   9.031  1.00  0.00    -0.060 NA
HETATM   24  O4  UNL     1      29.225 -26.478   8.348  1.00  0.00    -0.274 OA
ENDBRANCH  21  22
BRANCH  21  25
HETATM   25  C8  UNL     1      27.296 -28.718   6.866  1.00  0.00     0.084 A 
HETATM   26  C9  UNL     1      26.228 -28.734   6.011  1.00  0.00     0.037 A 
HETATM   27  C10 UNL     1      25.202 -29.499   6.573  1.00  0.00     0.027 A 
HETATM   28  C11 UNL     1      25.721 -29.913   7.775  1.00  0.00     0.142 A 
HETATM   29  O5  UNL     1      26.901 -29.453   7.908  1.00  0.00    -0.324 OA
ENDBRANCH  21  25
ENDBRANCH  19  21
ENDBRANCH   1  17
BRANCH   1  30
HETATM   30  C12 UNL     1      29.138 -25.269   2.974  1.00  0.00     0.009 C 
HETATM   31  C13 UNL     1      29.651 -26.540   2.238  1.00  0.00     0.012 C 
HETATM   32  C14 UNL     1      29.508 -24.174   1.973  1.00  0.00     0.012 C 
ENDBRANCH   1  30
TORSDOF 9
ENDMDL
MODEL 2
REMARK VINA RESULT: -7.637146121      1.808      3.108
REMARK  9 active torsions:
REMARK  status: ('A' for Active; 'I' for Inactive)
REMARK    1  A    between atoms: O1_2  and  C2_3 
REMARK       I    between atoms: C2_3  and  N1_5 
REMARK    2  A    between atoms: C3_7  and  N2_8 
REMARK    3  A    between atoms: C3_7  and  C15_27 
REMARK    4  A    between atoms: N2_8  and  C4_10 
REMARK    5  A    between atoms: C4_10  and  C5_11 
REMARK    6  A    between atoms: C4_10  and  C12_24 
REMARK       I    between atoms: C5_11  and  N3_13 
REMARK    7  A    between atoms: N3_13  and  C6_15 
REMARK    8  A    between atoms: C6_15  and  C7_16 
REMARK    9  A    between atoms: C6_15  and  C8_19 
ROOT
HETATM    1  C4  UNL     1      29.690 -25.151   4.225  1.00  0.00     0.178 C 
ENDROOT
BRANCH   1   2
HETATM    2  N2  UNL     1      30.943 -24.485   4.394  1.00  0.00    -0.362 N 
ATOM      3  H2  UNL     1      31.776 -24.863   3.942  1.00  0.00     0.162 HD
BRANCH   2   4
HETATM    4  C3  UNL     1      31.054 -23.283   5.194  1.00  0.00     0.116 C 
HETATM    5  N1  UNL     1      30.598 -22.208   5.035  1.00  0.00    -0.288 N 
HETATM    6  C2  UNL     1      29.902 -21.238   4.440  1.00  0.00     0.365 C 
ATOM      7  H1  UNL     1      30.955 -21.720   5.856  1.00  0.00     0.172 HD
HETATM    8  O2  UNL     1      29.509 -21.315   3.236  1.00  0.00    -0.238 OA
BRANCH   6   9
HETATM    9  O1  UNL     1      29.539 -20.043   5.090  1.00  0.00    -0.309 OA
HETATM   10  C1  UNL     1      29.814 -19.693   6.420  1.00  0.00     0.215 C 
ENDBRANCH   6   9
BRANCH   4  11
HETATM   11  C15 UNL     1      31.889 -23.442   6.446  1.00  0.00     0.008 A 
HETATM   12  C16 UNL     1      32.325 -24.689   6.804  1.00  0.00     0.015 A 
HETATM   13  C17 UNL     1      33.137 -24.877   7.886  1.00  0.00     0.001 A 
HETATM   14  C18 UNL     1      33.494 -23.762   8.593  1.00  0.00     0.000 A 
HETATM   15  C19 UNL     1      33.068 -22.489   8.258  1.00  0.00     0.001 A 
HETATM   16  C20 UNL     1      32.250 -22.344   7.167  1.00  0.00     0.015 A 
ENDBRANCH   4  11
ENDBRANCH   2   4
ENDBRANCH   1   2
BRANCH   1  17
HETATM   17  C5  UNL     1      29.688 -26.414   5.037  1.00  0.00     0.241 C 
HETATM   18  O3  UNL     1      30.723 -27.147   4.997  1.00  0.00    -0.271 OA
HETATM   19  N3  UNL     1      28.609 -26.850   5.825  1.00  0.00    -0.341 N 
ATOM     20  H3  UNL     1      27.766 -26.277   5.808  1.00  0.00     0.163 HD
BRANCH  19  21
HETATM   21  C6  UNL     1      28.578 -28.027   6.654  1.00  0.00     0.231 C 
BRANCH  21  22
HETATM   22  C7  UNL     1      29.147 -27.657   7.988  1.00  0.00     0.260 C 
HETATM   23  N4  UNL     1      29.542 -28.597   8.983  1.00  0.00    -0.060 NA
HETATM   24  O4  UNL     1      29.289 -26.448   8.271  1.00  0.00    -0.274 OA
ENDBRANCH  21  22
BRANCH  21  25
HETATM   25  C8  UNL     1      27.303 -28.689   6.839  1.00  0.00     0.084 A 
HETATM   26  C9  UNL     1      26.231 -28.726   5.989  1.00  0.00     0.037 A 
HETATM   27  C10 UNL     1      25.207 -29.477   6.574  1.00  0.00     0.027 A 
HETATM   28  C11 UNL     1      25.732 -29.862   7.784  1.00  0.00     0.142 A 
HETATM   29  O5  UNL     1      26.912 -29.399   7.900  1.00  0.00    -0.324 OA
ENDBRANCH  21  25
ENDBRANCH  19  21
ENDBRANCH   1  17
BRANCH   1  30
HETATM   30  C12 UNL     1      29.126 -25.274   2.882  1.00  0.00     0.009 C 
HETATM   31  C13 UNL     1      29.647 -26.552   2.164  1.00  0.00     0.012 C 
HETATM   32  C14 UNL     1      29.507 -24.189   1.876  1.00  0.00     0.012 C 
ENDBRANCH   1  30
TORSDOF 9
ENDMDL
MODEL 3
REMARK VINA RESULT: -7.515306694      2.488      6.675
REMARK  9 active torsions:
REMARK  status: ('A' for Active; 'I' for Inactive)
REMARK    1  A    between atoms: O1_2  and  C2_3 
REMARK       I    between atoms: C2_3  and  N1_5 
REMARK    2  A    between atoms: C3_7  and  N2_8 
REMARK    3  A    between atoms: C3_7  and  C15_27 
REMARK    4  A    between atoms: N2_8  and  C4_10 
REMARK    5  A    between atoms: C4_10  and  C5_11 
REMARK    6  A    between atoms: C4_10  and  C12_24 
REMARK       I    between atoms: C5_11  and  N3_13 
REMARK    7  A    between atoms: N3_13  and  C6_15 
REMARK    8  A    between atoms: C6_15  and  C7_16 
REMARK    9  A    between atoms: C6_15  and  C8_19 
ROOT
HETATM    1  C4  UNL     1      30.258 -25.454   6.022  1.00  0.00     0.178 C 
ENDROOT
BRANCH   1   2
HETATM    2  N2  UNL     1      30.713 -25.403   4.668  1.00  0.00    -0.362 N 
ATOM      3  H2  UNL     1      31.424 -26.064   4.354  1.00  0.00     0.162 HD
BRANCH   2   4
HETATM    4  C3  UNL     1      30.185 -24.430   3.734  1.00  0.00     0.116 C 
HETATM    5  N1  UNL     1      30.144 -23.254   3.790  1.00  0.00    -0.288 N 
HETATM    6  C2  UNL     1      30.328 -22.035   4.301  1.00  0.00     0.365 C 
ATOM      7  H1  UNL     1      29.687 -23.032   2.906  1.00  0.00     0.172 HD
HETATM    8  O2  UNL     1      30.615 -21.838   5.520  1.00  0.00    -0.238 OA
BRANCH   6   9
HETATM    9  O1  UNL     1      30.219 -20.858   3.536  1.00  0.00    -0.309 OA
HETATM   10  C1  UNL     1      29.534 -19.687   3.888  1.00  0.00     0.215 C 
ENDBRANCH   6   9
BRANCH   4  11
HETATM   11  C15 UNL     1      29.596 -25.029   2.475  1.00  0.00     0.008 A 
HETATM   12  C16 UNL     1      29.159 -24.196   1.481  1.00  0.00     0.015 A 
HETATM   13  C17 UNL     1      28.682 -24.685   0.299  1.00  0.00     0.001 A 
HETATM   14  C18 UNL     1      28.664 -26.045   0.155  1.00  0.00     0.000 A 
HETATM   15  C19 UNL     1      29.096 -26.913   1.141  1.00  0.00     0.001 A 
HETATM   16  C20 UNL     1      29.564 -26.381   2.315  1.00  0.00     0.015 A 
ENDBRANCH   4  11
ENDBRANCH   2   4
ENDBRANCH   1   2
BRANCH   1  17
HETATM   17  C5  UNL     1      31.370 -25.022   6.935  1.00  0.00     0.241 C 
HETATM   18  O3  UNL     1      31.432 -25.551   8.087  1.00  0.00    -0.271 OA
HETATM   19  N3  UNL     1      32.338 -24.057   6.606  1.00  0.00    -0.341 N 
ATOM     20  H3  UNL     1      32.246 -23.605   5.696  1.00  0.00     0.163 HD
BRANCH  19  21
HETATM   21  C6  UNL     1      33.446 -23.646   7.427  1.00  0.00     0.231 C 
BRANCH  21  22
HETATM   22  C7  UNL     1      34.620 -23.421   6.527  1.00  0.00     0.260 C 
HETATM   23  N4  UNL     1      34.575 -23.516   5.106  1.00  0.00    -0.060 NA
HETATM   24  O4  UNL     1      35.725 -23.134   7.035  1.00  0.00    -0.274 OA
ENDBRANCH  21  22
BRANCH  21  25
HETATM   25  C8  UNL     1      33.260 -22.488   8.279  1.00  0.00     0.084 A 
HETATM   26  C9  UNL     1      33.329 -22.415   9.644  1.00  0.00     0.037 A 
HETATM   27  C10 UNL     1      33.079 -21.099  10.045  1.00  0.00     0.027 A 
HETATM   28  C11 UNL     1      32.863 -20.430   8.865  1.00  0.00     0.142 A 
HETATM   29  O5  UNL     1      32.971 -21.243   7.892  1.00  0.00    -0.324 OA
ENDBRANCH  21  25
ENDBRANCH  19  21
ENDBRANCH   1  17
BRANCH   1  30
HETATM   30  C12 UNL     1      29.502 -26.621   6.473  1.00  0.00     0.009 C 
HETATM   31  C13 UNL     1      30.220 -27.946   6.088  1.00  0.00     0.012 C 
HETATM   32  C14 UNL     1      28.126 -26.832   5.843  1.00  0.00     0.012 C 
ENDBRANCH   1  30
TORSDOF 9
ENDMDL
MODEL 4
REMARK VINA RESULT: -7.414053548      2.559      6.962
REMARK  9 active torsions:
REMARK  status: ('A' for Active; 'I' for Inactive)
REMARK    1  A    between atoms: O1_2  and  C2_3 
REMARK       I    between atoms: C2_3  and  N1_5 
REMARK    2  A    between atoms: C3_7  and  N2_8 
REMARK    3  A    between atoms: C3_7  and  C15_27 
REMARK    4  A    between atoms: N2_8  and  C4_10 
REMARK    5  A    between atoms: C4_10  and  C5_11 
REMARK    6  A    between atoms: C4_10  and  C12_24 
REMARK       I    between atoms: C5_11  and  N3_13 
REMARK    7  A    between atoms: N3_13  and  C6_15 
REMARK    8  A    between atoms: C6_15  and  C7_16 
REMARK    9  A    between atoms: C6_15  and  C8_19 
ROOT
HETATM    1  C4  UNL     1      32.090 -21.756   5.249  1.00  0.00     0.178 C 
ENDROOT
BRANCH   1   2
HETATM    2  N2  UNL     1      32.407 -23.032   4.689  1.00  0.00    -0.362 N 
ATOM      3  H2  UNL     1      33.217 -23.121   4.075  1.00  0.00     0.162 HD
BRANCH   2   4
HETATM    4  C3  UNL     1      31.602 -24.200   4.978  1.00  0.00     0.116 C 
HETATM    5  N1  UNL     1      31.437 -24.792   5.983  1.00  0.00    -0.288 N 
HETATM    6  C2  UNL     1      31.575 -25.092   7.276  1.00  0.00     0.365 C 
ATOM      7  H1  UNL     1      30.794 -25.522   5.678  1.00  0.00     0.172 HD
HETATM    8  O2  UNL     1      32.503 -24.613   7.996  1.00  0.00    -0.238 OA
BRANCH   6   9
HETATM    9  O1  UNL     1      30.708 -25.965   7.959  1.00  0.00    -0.309 OA
HETATM   10  C1  UNL     1      29.822 -26.889   7.385  1.00  0.00     0.215 C 
ENDBRANCH   6   9
BRANCH   4  11
HETATM   11  C15 UNL     1      30.842 -24.744   3.787  1.00  0.00     0.008 A 
HETATM   12  C16 UNL     1      30.815 -26.096   3.574  1.00  0.00     0.015 A 
HETATM   13  C17 UNL     1      30.088 -26.643   2.554  1.00  0.00     0.001 A 
HETATM   14  C18 UNL     1      29.389 -25.776   1.759  1.00  0.00     0.000 A 
HETATM   15  C19 UNL     1      29.399 -24.406   1.948  1.00  0.00     0.001 A 
HETATM   16  C20 UNL     1      30.144 -23.898   2.980  1.00  0.00     0.015 A 
ENDBRANCH   4  11
ENDBRANCH   2   4
ENDBRANCH   1   2
BRANCH   1  17
HETATM   17  C5  UNL     1      33.124 -21.395   6.276  1.00  0.00     0.241 C 
HETATM   18  O3  UNL     1      34.117 -20.700   5.900  1.00  0.00    -0.271 OA
HETATM   19  N3  UNL     1      33.076 -21.790   7.624  1.00  0.00    -0.341 N 
ATOM     20  H3  UNL     1      32.299 -22.389   7.901  1.00  0.00     0.163 HD
BRANCH  19  21
HETATM   21  C6  UNL     1      34.017 -21.430   8.652  1.00  0.00     0.231 C 
BRANCH  21  22
HETATM   22  C7  UNL     1      33.274 -20.662   9.700  1.00  0.00     0.260 C 
HETATM   23  N4  UNL     1      33.865 -19.685  10.553  1.00  0.00    -0.060 NA
HETATM   24  O4  UNL     1      32.054 -20.880   9.858  1.00  0.00    -0.274 OA
ENDBRANCH  21  22
BRANCH  21  25
HETATM   25  C8  UNL     1      34.772 -22.497   9.279  1.00  0.00     0.084 A 
HETATM   26  C9  UNL     1      35.805 -23.229   8.760  1.00  0.00     0.037 A 
HETATM   27  C10 UNL     1      36.234 -24.157   9.713  1.00  0.00     0.027 A 
HETATM   28  C11 UNL     1      35.407 -23.931  10.787  1.00  0.00     0.142 A 
HETATM   29  O5  UNL     1      34.596 -22.992  10.507  1.00  0.00    -0.324 OA
ENDBRANCH  21  25
ENDBRANCH  19  21
ENDBRANCH   1  17
BRANCH   1  30
HETATM   30  C12 UNL     1      30.708 -21.472   5.632  1.00  0.00     0.009 C 
HETATM   31  C13 UNL     1      29.864 -21.008   4.411  1.00  0.00     0.012 C 
HETATM   32  C14 UNL     1      30.491 -20.314   6.605  1.00  0.00     0.012 C 
ENDBRANCH   1  30
TORSDOF 9
ENDMDL
MODEL 5
REMARK VINA RESULT: -7.336041768      3.779      6.965
REMARK  9 active torsions:
REMARK  status: ('A' for Active; 'I' for Inactive)
REMARK    1  A    between atoms: O1_2  and  C2_3 
REMARK       I    between atoms: C2_3  and  N1_5 
REMARK    2  A    between atoms: C3_7  and  N2_8 
REMARK    3  A    between atoms: C3_7  and  C15_27 
REMARK    4  A    between atoms: N2_8  and  C4_10 
REMARK    5  A    between atoms: C4_10  and  C5_11 
REMARK    6  A    between atoms: C4_10  and  C12_24 
REMARK       I    between atoms: C5_11  and  N3_13 
REMARK    7  A    between atoms: N3_13  and  C6_15 
REMARK    8  A    between atoms: C6_15  and  C7_16 
REMARK    9  A    between atoms: C6_15  and  C8_19 
ROOT
HETATM    1  C4  UNL     1      29.575 -24.827   2.568  1.00  0.00     0.178 C 
ENDROOT
BRANCH   1   2
HETATM    2  N2  UNL     1      30.407 -25.602   3.434  1.00  0.00    -0.362 N 
ATOM      3  H2  UNL     1      31.176 -26.143   3.038  1.00  0.00     0.162 HD
BRANCH   2   4
HETATM    4  C3  UNL     1      30.179 -25.634   4.864  1.00  0.00     0.116 C 
HETATM    5  N1  UNL     1      29.261 -26.027   5.488  1.00  0.00    -0.288 N 
HETATM    6  C2  UNL     1      28.062 -26.569   5.712  1.00  0.00     0.365 C 
ATOM      7  H1  UNL     1      29.573 -25.835   6.439  1.00  0.00     0.172 HD
HETATM    8  O2  UNL     1      27.190 -26.709   4.802  1.00  0.00    -0.238 OA
BRANCH   6   9
HETATM    9  O1  UNL     1      27.655 -27.033   6.978  1.00  0.00    -0.309 OA
HETATM   10  C1  UNL     1      28.342 -27.933   7.805  1.00  0.00     0.215 C 
ENDBRANCH   6   9
BRANCH   4  11
HETATM   11  C15 UNL     1      31.317 -25.075   5.690  1.00  0.00     0.008 A 
HETATM   12  C16 UNL     1      31.337 -25.303   7.040  1.00  0.00     0.015 A 
HETATM   13  C17 UNL     1      32.375 -24.879   7.820  1.00  0.00     0.001 A 
HETATM   14  C18 UNL     1      33.393 -24.217   7.188  1.00  0.00     0.000 A 
HETATM   15  C19 UNL     1      33.400 -23.969   5.828  1.00  0.00     0.001 A 
HETATM   16  C20 UNL     1      32.337 -24.408   5.082  1.00  0.00     0.015 A 
ENDBRANCH   4  11
ENDBRANCH   2   4
ENDBRANCH   1   2
BRANCH   1  17
HETATM   17  C5  UNL     1      29.110 -25.689   1.428  1.00  0.00     0.241 C 
HETATM   18  O3  UNL     1      29.448 -26.912   1.433  1.00  0.00    -0.271 OA
HETATM   19  N3  UNL     1      28.339 -25.227   0.348  1.00  0.00    -0.341 N 
ATOM     20  H3  UNL     1      28.117 -24.232   0.333  1.00  0.00     0.163 HD
BRANCH  19  21
HETATM   21  C6  UNL     1      27.832 -26.023  -0.740  1.00  0.00     0.231 C 
BRANCH  21  22
HETATM   22  C7  UNL     1      26.574 -25.375  -1.228  1.00  0.00     0.260 C 
HETATM   23  N4  UNL     1      26.533 -24.302  -2.165  1.00  0.00    -0.060 NA
HETATM   24  O4  UNL     1      25.476 -25.783  -0.795  1.00  0.00    -0.274 OA
ENDBRANCH  21  22
BRANCH  21  25
HETATM   25  C8  UNL     1      28.715 -26.273  -1.861  1.00  0.00     0.084 A 
HETATM   26  C9  UNL     1      28.700 -27.322  -2.740  1.00  0.00     0.037 A 
HETATM   27  C10 UNL     1      29.737 -27.162  -3.663  1.00  0.00     0.027 A 
HETATM   28  C11 UNL     1      30.342 -25.990  -3.277  1.00  0.00     0.142 A 
HETATM   29  O5  UNL     1      29.742 -25.519  -2.259  1.00  0.00    -0.324 OA
ENDBRANCH  21  25
ENDBRANCH  19  21
ENDBRANCH   1  17
BRANCH   1  30
HETATM   30  C12 UNL     1      29.999 -23.479   2.194  1.00  0.00     0.009 C 
HETATM   31  C13 UNL     1      29.865 -22.492   3.388  1.00  0.00     0.012 C 
HETATM   32  C14 UNL     1      29.168 -22.771   1.125  1.00  0.00     0.012 C 
ENDBRANCH   1  30
TORSDOF 9
ENDMDL
