MODEL 1
REMARK VINA RESULT: -5.946582247      0.000      0.000
REMARK  1 active torsions:
REMARK  status: ('A' for Active; 'I' for Inactive)
REMARK    1  A    between atoms: N3_11  and  O1_12 
ROOT
HETATM    1  N1  UNL     1       4.000   6.048 -11.822  1.00  0.00    -0.195 NA
HETATM    2  C1  UNL     1       3.227   5.247 -12.078  1.00  0.00     0.082 C 
HETATM    3  C2  UNL     1       2.266   4.232 -12.422  1.00  0.00     0.198 C 
HETATM    4  C3  UNL     1       1.076   4.802 -13.159  1.00  0.00     0.022 C 
HETATM    5  C4  UNL     1       0.372   5.745 -12.236  1.00  0.00     0.010 C 
HETATM    6  C5  UNL     1      -0.382   4.882 -11.215  1.00  0.00     0.043 C 
HETATM    7  C6  UNL     1       0.233   3.522 -11.512  1.00  0.00     0.128 C 
HETATM    8  C7  UNL     1      -0.445   2.424 -10.938  1.00  0.00     0.087 C 
HETATM    9  N2  UNL     1      -0.987   1.522 -10.457  1.00  0.00    -0.195 NA
HETATM   10  C8  UNL     1       0.161   3.567 -13.049  1.00  0.00     0.050 C 
HETATM   11  N3  UNL     1       1.631   3.622 -11.280  1.00  0.00    -0.158 NA
ENDROOT
BRANCH  11  12
HETATM   12  O1  UNL     1       2.230   2.535 -10.829  1.00  0.00    -0.310 OA
ATOM     13  H1  UNL     1       2.851   2.685 -10.126  1.00  0.00     0.237 HD
ENDBRANCH  11  12
TORSDOF 1
ENDMDL
MODEL 2
REMARK VINA RESULT: -5.577786632      1.997      4.134
REMARK  1 active torsions:
REMARK  status: ('A' for Active; 'I' for Inactive)
REMARK    1  A    between atoms: N3_11  and  O1_12 
ROOT
HETATM    1  N1  UNL     1      -2.962   4.303 -10.556  1.00  0.00    -0.195 NA
HETATM    2  C1  UNL     1      -2.059   4.436 -11.244  1.00  0.00     0.082 C 
HETATM    3  C2  UNL     1      -0.937   4.604 -12.129  1.00  0.00     0.198 C 
HETATM    4  C3  UNL     1      -0.324   3.281 -12.528  1.00  0.00     0.022 C 
HETATM    5  C4  UNL     1       0.217   2.634 -11.293  1.00  0.00     0.010 C 
HETATM    6  C5  UNL     1       1.504   3.384 -10.928  1.00  0.00     0.043 C 
HETATM    7  C6  UNL     1       1.385   4.583 -11.858  1.00  0.00     0.128 C 
HETATM    8  C7  UNL     1       2.562   5.352 -11.993  1.00  0.00     0.087 C 
HETATM    9  N2  UNL     1       3.518   5.995 -12.094  1.00  0.00    -0.195 NA
HETATM   10  C8  UNL     1       0.975   3.839 -13.142  1.00  0.00     0.050 C 
HETATM   11  N3  UNL     1       0.189   5.271 -11.522  1.00  0.00    -0.158 NA
ENDROOT
BRANCH  11  12
HETATM   12  O1  UNL     1       0.203   6.582 -11.676  1.00  0.00    -0.310 OA
ATOM     13  H1  UNL     1      -0.526   6.933 -12.174  1.00  0.00     0.237 HD
ENDBRANCH  11  12
TORSDOF 1
ENDMDL
MODEL 3
REMARK VINA RESULT: -4.840641463      2.218      2.578
REMARK  1 active torsions:
REMARK  status: ('A' for Active; 'I' for Inactive)
REMARK    1  A    between atoms: N3_11  and  O1_12 
ROOT
HETATM    1  N1  UNL     1       2.267   7.145 -13.662  1.00  0.00    -0.195 NA
HETATM    2  C1  UNL     1       1.800   6.505 -12.839  1.00  0.00     0.082 C 
HETATM    3  C2  UNL     1       1.229   5.707 -11.786  1.00  0.00     0.198 C 
HETATM    4  C3  UNL     1       1.708   4.274 -11.836  1.00  0.00     0.022 C 
HETATM    5  C4  UNL     1       1.227   3.673 -13.118  1.00  0.00     0.010 C 
HETATM    6  C5  UNL     1      -0.274   3.408 -12.947  1.00  0.00     0.043 C 
HETATM    7  C6  UNL     1      -0.534   4.176 -11.659  1.00  0.00     0.128 C 
HETATM    8  C7  UNL     1      -1.778   3.908 -11.046  1.00  0.00     0.087 C 
HETATM    9  N2  UNL     1      -2.802   3.706 -10.549  1.00  0.00    -0.195 NA
HETATM   10  C8  UNL     1       0.680   3.685 -10.849  1.00  0.00     0.050 C 
HETATM   11  N3  UNL     1      -0.199   5.536 -11.894  1.00  0.00    -0.158 NA
ENDROOT
BRANCH  11  12
HETATM   12  O1  UNL     1      -0.914   6.437 -11.245  1.00  0.00    -0.310 OA
ATOM     13  H1  UNL     1      -1.756   6.127 -10.933  1.00  0.00     0.237 HD
ENDBRANCH  11  12
TORSDOF 1
ENDMDL
MODEL 4
REMARK VINA RESULT: -4.627287713      2.105      4.284
REMARK  1 active torsions:
REMARK  status: ('A' for Active; 'I' for Inactive)
REMARK    1  A    between atoms: N3_11  and  O1_12 
ROOT
HETATM    1  N1  UNL     1      -2.203   2.786 -10.096  1.00  0.00    -0.195 NA
HETATM    2  C1  UNL     1      -1.632   3.351 -10.909  1.00  0.00     0.082 C 
HETATM    3  C2  UNL     1      -0.930   4.053 -11.951  1.00  0.00     0.198 C 
HETATM    4  C3  UNL     1       0.236   3.255 -12.488  1.00  0.00     0.022 C 
HETATM    5  C4  UNL     1       1.219   3.072 -11.376  1.00  0.00     0.010 C 
HETATM    6  C5  UNL     1       1.929   4.419 -11.187  1.00  0.00     0.043 C 
HETATM    7  C6  UNL     1       1.039   5.309 -12.042  1.00  0.00     0.128 C 
HETATM    8  C7  UNL     1       1.573   6.585 -12.329  1.00  0.00     0.087 C 
HETATM    9  N2  UNL     1       1.998   7.637 -12.552  1.00  0.00    -0.195 NA
HETATM   10  C8  UNL     1       0.913   4.394 -13.274  1.00  0.00     0.050 C 
HETATM   11  N3  UNL     1      -0.272   5.255 -11.500  1.00  0.00    -0.158 NA
ENDROOT
BRANCH  11  12
HETATM   12  O1  UNL     1      -0.997   6.354 -11.606  1.00  0.00    -0.310 OA
ATOM     13  H1  UNL     1      -1.217   6.602 -12.496  1.00  0.00     0.237 HD
ENDBRANCH  11  12
TORSDOF 1
ENDMDL
MODEL 5
REMARK VINA RESULT: -4.411463574      2.048      2.483
REMARK  1 active torsions:
REMARK  status: ('A' for Active; 'I' for Inactive)
REMARK    1  A    between atoms: N3_11  and  O1_12 
ROOT
HETATM    1  N1  UNL     1       3.896   6.173 -12.699  1.00  0.00    -0.195 NA
HETATM    2  C1  UNL     1       3.022   5.716 -12.123  1.00  0.00     0.082 C 
HETATM    3  C2  UNL     1       1.935   5.140 -11.377  1.00  0.00     0.198 C 
HETATM    4  C3  UNL     1       1.902   3.633 -11.490  1.00  0.00     0.022 C 
HETATM    5  C4  UNL     1       1.652   3.284 -12.922  1.00  0.00     0.010 C 
HETATM    6  C5  UNL     1       0.169   3.567 -13.194  1.00  0.00     0.043 C 
HETATM    7  C6  UNL     1      -0.190   4.335 -11.929  1.00  0.00     0.128 C 
HETATM    8  C7  UNL     1      -1.575   4.509 -11.711  1.00  0.00     0.087 C 
HETATM    9  N2  UNL     1      -2.706   4.669 -11.535  1.00  0.00    -0.195 NA
HETATM   10  C8  UNL     1       0.495   3.418 -10.900  1.00  0.00     0.050 C 
HETATM   11  N3  UNL     1       0.631   5.494 -11.883  1.00  0.00    -0.158 NA
ENDROOT
BRANCH  11  12
HETATM   12  O1  UNL     1       0.097   6.569 -11.332  1.00  0.00    -0.310 OA
ATOM     13  H1  UNL     1      -0.511   6.393 -10.623  1.00  0.00     0.237 HD
ENDBRANCH  11  12
TORSDOF 1
ENDMDL
