MODEL 1
REMARK VINA RESULT: -6.791025735      0.000      0.000
REMARK  3 active torsions:
REMARK  status: ('A' for Active; 'I' for Inactive)
REMARK    1  A    between atoms: C1_4  and  N2_5 
REMARK    2  A    between atoms: C1_4  and  C8_15 
REMARK    3  A    between atoms: N2_5  and  N3_7 
ROOT
HETATM    1  N1  UNL     1      -3.414  -2.955   2.473  1.00  0.00    -0.382 N 
ATOM      2  H11 UNL     1      -4.119  -3.521   2.944  1.00  0.00     0.157 HD
ATOM      3  H12 UNL     1      -2.908  -2.216   2.962  1.00  0.00     0.157 HD
HETATM    4  C1  UNL     1      -3.122  -3.136   1.234  1.00  0.00     0.148 C 
ENDROOT
BRANCH   4   5
HETATM    5  N2  UNL     1      -2.148  -2.354   0.583  1.00  0.00    -0.284 N 
ATOM      6  H2  UNL     1      -2.372  -1.881  -0.292  1.00  0.00     0.188 HD
BRANCH   5   7
HETATM    7  N3  UNL     1      -0.891  -2.231   1.136  1.00  0.00    -0.307 N 
HETATM    8  C2  UNL     1       0.168  -2.815   0.752  1.00  0.00     0.004 C 
HETATM    9  C3  UNL     1       0.142  -3.732  -0.387  1.00  0.00     0.054 C 
HETATM   10  C7  UNL     1       1.435  -2.562   1.469  1.00  0.00     0.054 C 
HETATM   11  C4  UNL     1       1.376  -3.728  -1.221  1.00  0.00     0.006 C 
HETATM   12  C5  UNL     1       2.622  -3.336  -0.508  1.00  0.00     0.001 C 
HETATM   13  C6  UNL     1       2.457  -2.145   0.403  1.00  0.00     0.006 C 
ATOM     14  H3  UNL     1      -0.803  -1.605   1.937  1.00  0.00     0.186 HD
ENDBRANCH   5   7
ENDBRANCH   4   5
BRANCH   4  15
HETATM   15  C8  UNL     1      -3.857  -4.208   0.525  1.00  0.00     0.122 A 
HETATM   16  N4  UNL     1      -5.165  -4.331   0.353  1.00  0.00    -0.354 N 
HETATM   17  C9  UNL     1      -5.636  -5.340  -0.299  1.00  0.00     0.139 A 
ATOM     18  H4  UNL     1      -5.799  -3.629   0.735  1.00  0.00     0.166 HD
HETATM   19  C10 UNL     1      -4.745  -6.258  -0.794  1.00  0.00     0.174 A 
HETATM   20  F1  UNL     1      -5.032  -7.397  -1.511  1.00  0.00    -0.197 F 
HETATM   21  S1  UNL     1      -3.255  -5.596  -0.280  1.00  0.00    -0.037 SA
ENDBRANCH   4  15
TORSDOF 3
ENDMDL
MODEL 2
REMARK VINA RESULT: -6.713939143      1.676      1.906
REMARK  3 active torsions:
REMARK  status: ('A' for Active; 'I' for Inactive)
REMARK    1  A    between atoms: C1_4  and  N2_5 
REMARK    2  A    between atoms: C1_4  and  C8_15 
REMARK    3  A    between atoms: N2_5  and  N3_7 
ROOT
HETATM    1  N1  UNL     1      -2.191  -2.135  -0.668  1.00  0.00    -0.382 N 
ATOM      2  H11 UNL     1      -2.882  -2.189  -1.415  1.00  0.00     0.157 HD
ATOM      3  H12 UNL     1      -1.354  -1.559  -0.755  1.00  0.00     0.157 HD
HETATM    4  C1  UNL     1      -2.332  -2.792   0.428  1.00  0.00     0.148 C 
ENDROOT
BRANCH   4   5
HETATM    5  N2  UNL     1      -1.377  -2.718   1.460  1.00  0.00    -0.284 N 
ATOM      6  H2  UNL     1      -1.608  -3.050   2.397  1.00  0.00     0.188 HD
BRANCH   5   7
HETATM    7  N3  UNL     1      -0.128  -2.194   1.198  1.00  0.00    -0.307 N 
HETATM    8  C2  UNL     1       0.932  -2.846   0.952  1.00  0.00     0.004 C 
HETATM    9  C3  UNL     1       0.918  -4.308   0.923  1.00  0.00     0.054 C 
HETATM   10  C7  UNL     1       2.189  -2.114   0.694  1.00  0.00     0.054 C 
HETATM   11  C4  UNL     1       1.841  -4.923  -0.072  1.00  0.00     0.006 C 
HETATM   12  C5  UNL     1       3.034  -4.104  -0.420  1.00  0.00     0.001 C 
HETATM   13  C6  UNL     1       2.729  -2.643  -0.641  1.00  0.00     0.006 C 
ATOM     14  H3  UNL     1      -0.049  -1.178   1.204  1.00  0.00     0.186 HD
ENDBRANCH   5   7
ENDBRANCH   4   5
BRANCH   4  15
HETATM   15  C8  UNL     1      -3.547  -3.629   0.554  1.00  0.00     0.122 A 
HETATM   16  N4  UNL     1      -4.273  -4.172  -0.412  1.00  0.00    -0.354 N 
HETATM   17  C9  UNL     1      -5.310  -4.880  -0.117  1.00  0.00     0.139 A 
ATOM     18  H4  UNL     1      -4.012  -4.032  -1.388  1.00  0.00     0.166 HD
HETATM   19  C10 UNL     1      -5.622  -5.040   1.210  1.00  0.00     0.174 A 
HETATM   20  F1  UNL     1      -6.676  -5.749   1.740  1.00  0.00    -0.197 F 
HETATM   21  S1  UNL     1      -4.376  -4.145   1.963  1.00  0.00    -0.037 SA
ENDBRANCH   4  15
TORSDOF 3
ENDMDL
MODEL 3
REMARK VINA RESULT: -6.533003239      2.616      5.194
REMARK  3 active torsions:
REMARK  status: ('A' for Active; 'I' for Inactive)
REMARK    1  A    between atoms: C1_4  and  N2_5 
REMARK    2  A    between atoms: C1_4  and  C8_15 
REMARK    3  A    between atoms: N2_5  and  N3_7 
ROOT
HETATM    1  N1  UNL     1       0.054  -2.264   1.262  1.00  0.00    -0.382 N 
ATOM      2  H11 UNL     1       0.995  -2.528   0.974  1.00  0.00     0.157 HD
ATOM      3  H12 UNL     1      -0.116  -1.750   2.127  1.00  0.00     0.157 HD
HETATM    4  C1  UNL     1      -0.977  -2.564   0.555  1.00  0.00     0.148 C 
ENDROOT
BRANCH   4   5
HETATM    5  N2  UNL     1      -2.277  -2.200   0.953  1.00  0.00    -0.284 N 
ATOM      6  H2  UNL     1      -2.735  -1.393   0.529  1.00  0.00     0.188 HD
BRANCH   5   7
HETATM    7  N3  UNL     1      -2.928  -2.940   1.918  1.00  0.00    -0.307 N 
HETATM    8  C2  UNL     1      -3.855  -3.785   1.730  1.00  0.00     0.004 C 
HETATM    9  C3  UNL     1      -4.346  -4.065   0.382  1.00  0.00     0.054 C 
HETATM   10  C7  UNL     1      -4.440  -4.487   2.891  1.00  0.00     0.054 C 
HETATM   11  C4  UNL     1      -4.765  -5.475   0.149  1.00  0.00     0.006 C 
HETATM   12  C5  UNL     1      -5.223  -6.208   1.360  1.00  0.00     0.001 C 
HETATM   13  C6  UNL     1      -4.355  -5.986   2.574  1.00  0.00     0.006 C 
ATOM     14  H3  UNL     1      -2.633  -2.791   2.883  1.00  0.00     0.186 HD
ENDBRANCH   5   7
ENDBRANCH   4   5
BRANCH   4  15
HETATM   15  C8  UNL     1      -0.730  -3.312  -0.700  1.00  0.00     0.122 A 
HETATM   16  N4  UNL     1      -1.484  -3.360  -1.789  1.00  0.00    -0.354 N 
HETATM   17  C9  UNL     1      -1.110  -4.069  -2.799  1.00  0.00     0.139 A 
ATOM     18  H4  UNL     1      -2.358  -2.836  -1.828  1.00  0.00     0.166 HD
HETATM   19  C10 UNL     1       0.074  -4.756  -2.699  1.00  0.00     0.174 A 
HETATM   20  F1  UNL     1       0.653  -5.565  -3.650  1.00  0.00    -0.197 F 
HETATM   21  S1  UNL     1       0.584  -4.326  -1.125  1.00  0.00    -0.037 SA
ENDBRANCH   4  15
TORSDOF 3
ENDMDL
MODEL 4
REMARK VINA RESULT: -6.532385308      2.416      3.447
REMARK  3 active torsions:
REMARK  status: ('A' for Active; 'I' for Inactive)
REMARK    1  A    between atoms: C1_4  and  N2_5 
REMARK    2  A    between atoms: C1_4  and  C8_15 
REMARK    3  A    between atoms: N2_5  and  N3_7 
ROOT
HETATM    1  N1  UNL     1       0.484  -2.138   1.985  1.00  0.00    -0.382 N 
ATOM      2  H11 UNL     1      -0.201  -1.885   2.696  1.00  0.00     0.157 HD
ATOM      3  H12 UNL     1       1.470  -1.901   2.086  1.00  0.00     0.157 HD
HETATM    4  C1  UNL     1       0.145  -2.772   0.919  1.00  0.00     0.148 C 
ENDROOT
BRANCH   4   5
HETATM    5  N2  UNL     1       1.092  -3.123  -0.062  1.00  0.00    -0.284 N 
ATOM      6  H2  UNL     1       1.051  -2.697  -0.989  1.00  0.00     0.188 HD
BRANCH   5   7
HETATM    7  N3  UNL     1       2.074  -4.044   0.235  1.00  0.00    -0.307 N 
HETATM    8  C2  UNL     1       2.256  -5.168  -0.327  1.00  0.00     0.004 C 
HETATM    9  C3  UNL     1       1.380  -5.609  -1.411  1.00  0.00     0.054 C 
HETATM   10  C7  UNL     1       3.366  -6.031   0.126  1.00  0.00     0.054 C 
HETATM   11  C4  UNL     1       2.051  -6.419  -2.466  1.00  0.00     0.006 C 
HETATM   12  C5  UNL     1       3.251  -7.175  -2.017  1.00  0.00     0.001 C 
HETATM   13  C6  UNL     1       4.177  -6.382  -1.129  1.00  0.00     0.006 C 
ATOM     14  H3  UNL     1       2.720  -3.797   0.984  1.00  0.00     0.186 HD
ENDBRANCH   5   7
ENDBRANCH   4   5
BRANCH   4  15
HETATM   15  C8  UNL     1      -1.288  -3.116   0.774  1.00  0.00     0.122 A 
HETATM   16  N4  UNL     1      -2.274  -2.907   1.633  1.00  0.00    -0.354 N 
HETATM   17  C9  UNL     1      -3.474  -3.275   1.338  1.00  0.00     0.139 A 
ATOM     18  H4  UNL     1      -2.084  -2.455   2.528  1.00  0.00     0.166 HD
HETATM   19  C10 UNL     1      -3.680  -3.879   0.123  1.00  0.00     0.174 A 
HETATM   20  F1  UNL     1      -4.870  -4.345  -0.387  1.00  0.00    -0.197 F 
HETATM   21  S1  UNL     1      -2.100  -3.877  -0.530  1.00  0.00    -0.037 SA
ENDBRANCH   4  15
TORSDOF 3
ENDMDL
MODEL 5
REMARK VINA RESULT: -6.517220213      2.313      3.154
REMARK  3 active torsions:
REMARK  status: ('A' for Active; 'I' for Inactive)
REMARK    1  A    between atoms: C1_4  and  N2_5 
REMARK    2  A    between atoms: C1_4  and  C8_15 
REMARK    3  A    between atoms: N2_5  and  N3_7 
ROOT
HETATM    1  N1  UNL     1      -1.803  -2.937  -1.672  1.00  0.00    -0.382 N 
ATOM      2  H11 UNL     1      -2.714  -3.186  -2.056  1.00  0.00     0.157 HD
ATOM      3  H12 UNL     1      -1.012  -2.714  -2.276  1.00  0.00     0.157 HD
HETATM    4  C1  UNL     1      -1.596  -2.889  -0.404  1.00  0.00     0.148 C 
ENDROOT
BRANCH   4   5
HETATM    5  N2  UNL     1      -0.337  -2.545   0.125  1.00  0.00    -0.284 N 
ATOM      6  H2  UNL     1      -0.259  -1.797   0.814  1.00  0.00     0.188 HD
BRANCH   5   7
HETATM    7  N3  UNL     1       0.788  -3.224  -0.293  1.00  0.00    -0.307 N 
HETATM    8  C2  UNL     1       1.533  -3.969   0.415  1.00  0.00     0.004 C 
HETATM    9  C3  UNL     1       1.240  -4.183   1.831  1.00  0.00     0.054 C 
HETATM   10  C7  UNL     1       2.705  -4.619  -0.205  1.00  0.00     0.054 C 
HETATM   11  C4  UNL     1       1.580  -5.541   2.341  1.00  0.00     0.006 C 
HETATM   12  C5  UNL     1       2.675  -6.236   1.612  1.00  0.00     0.001 C 
HETATM   13  C6  UNL     1       2.583  -6.116   0.111  1.00  0.00     0.006 C 
ATOM     14  H3  UNL     1       1.049  -3.117  -1.273  1.00  0.00     0.186 HD
ENDBRANCH   5   7
ENDBRANCH   4   5
BRANCH   4  15
HETATM   15  C8  UNL     1      -2.744  -3.213   0.473  1.00  0.00     0.122 A 
HETATM   16  N4  UNL     1      -2.970  -2.807   1.713  1.00  0.00    -0.354 N 
HETATM   17  C9  UNL     1      -4.034  -3.192   2.332  1.00  0.00     0.139 A 
ATOM     18  H4  UNL     1      -2.303  -2.191   2.178  1.00  0.00     0.166 HD
HETATM   19  C10 UNL     1      -4.901  -4.020   1.666  1.00  0.00     0.174 A 
HETATM   20  F1  UNL     1      -6.084  -4.543   2.136  1.00  0.00    -0.197 F 
HETATM   21  S1  UNL     1      -4.113  -4.195   0.159  1.00  0.00    -0.037 SA
ENDBRANCH   4  15
TORSDOF 3
ENDMDL
