MODEL 1
REMARK VINA RESULT: -6.056068629      0.000      0.000
REMARK  2 active torsions:
REMARK  status: ('A' for Active; 'I' for Inactive)
REMARK    1  A    between atoms: C4_5  and  O1_6 
REMARK    2  A    between atoms: N1_8  and  C5_9 
ROOT
HETATM    1  C1  UNL     1      -5.797  -4.500   0.074  1.00  0.00     0.062 C 
HETATM    2  C2  UNL     1      -4.559  -5.258  -0.155  1.00  0.00     0.025 C 
HETATM    3  S1  UNL     1      -4.626  -6.666  -0.954  1.00  0.00    -0.084 SA
HETATM    4  C3  UNL     1      -3.292  -4.757   0.326  1.00  0.00     0.102 A 
HETATM    5  C4  UNL     1      -2.307  -4.086  -0.407  1.00  0.00     0.175 A 
HETATM    6  N1  UNL     1      -1.289  -3.794   0.407  1.00  0.00    -0.263 N 
HETATM    7  N2  UNL     1      -1.583  -4.248   1.623  1.00  0.00    -0.261 N 
ATOM      8  H2  UNL     1      -0.978  -4.158   2.439  1.00  0.00     0.190 HD
HETATM    9  C10 UNL     1      -2.784  -4.838   1.622  1.00  0.00     0.276 A 
HETATM   10  O2  UNL     1      -3.365  -5.374   2.602  1.00  0.00    -0.266 OA
ENDROOT
BRANCH   6  11
HETATM   11  C5  UNL     1      -0.088  -3.118   0.078  1.00  0.00     0.110 C 
HETATM   12  C6  UNL     1       0.878  -3.938  -0.753  1.00  0.00     0.027 C 
HETATM   13  C7  UNL     1       2.063  -2.963  -0.801  1.00  0.00     0.002 C 
HETATM   14  C8  UNL     1       1.998  -2.184   0.498  1.00  0.00     0.002 C 
HETATM   15  C9  UNL     1       0.775  -2.743   1.243  1.00  0.00     0.027 C 
ENDBRANCH   6  11
BRANCH   5  16
HETATM   16  O1  UNL     1      -2.454  -3.817  -1.747  1.00  0.00    -0.344 OA
ATOM     17  H1  UNL     1      -2.100  -3.030  -2.143  1.00  0.00     0.219 HD
ENDBRANCH   5  16
TORSDOF 2
ENDMDL
MODEL 2
REMARK VINA RESULT: -6.000923471      1.348      1.395
REMARK  2 active torsions:
REMARK  status: ('A' for Active; 'I' for Inactive)
REMARK    1  A    between atoms: C4_5  and  O1_6 
REMARK    2  A    between atoms: N1_8  and  C5_9 
ROOT
HETATM    1  C1  UNL     1      -4.982  -3.466   2.322  1.00  0.00     0.062 C 
HETATM    2  C2  UNL     1      -4.236  -4.044   1.196  1.00  0.00     0.025 C 
HETATM    3  S1  UNL     1      -5.050  -4.703  -0.041  1.00  0.00    -0.084 SA
HETATM    4  C3  UNL     1      -2.792  -4.029   1.187  1.00  0.00     0.102 A 
HETATM    5  C4  UNL     1      -1.953  -3.140   0.507  1.00  0.00     0.175 A 
HETATM    6  N1  UNL     1      -0.683  -3.467   0.760  1.00  0.00    -0.263 N 
HETATM    7  N2  UNL     1      -0.677  -4.523   1.570  1.00  0.00    -0.261 N 
ATOM      8  H2  UNL     1       0.163  -4.980   1.923  1.00  0.00     0.190 HD
HETATM    9  C10 UNL     1      -1.929  -4.898   1.856  1.00  0.00     0.276 A 
HETATM   10  O2  UNL     1      -2.284  -5.857   2.591  1.00  0.00    -0.266 OA
ENDROOT
BRANCH   6  11
HETATM   11  C5  UNL     1       0.486  -2.830   0.274  1.00  0.00     0.110 C 
HETATM   12  C6  UNL     1       1.264  -3.648  -0.737  1.00  0.00     0.027 C 
HETATM   13  C7  UNL     1       2.477  -2.727  -0.930  1.00  0.00     0.002 C 
HETATM   14  C8  UNL     1       2.659  -2.015   0.396  1.00  0.00     0.002 C 
HETATM   15  C9  UNL     1       1.540  -2.557   1.302  1.00  0.00     0.027 C 
ENDBRANCH   6  11
BRANCH   5  16
HETATM   16  O1  UNL     1      -2.450  -2.125  -0.275  1.00  0.00    -0.344 OA
ATOM     17  H1  UNL     1      -3.012  -1.447   0.080  1.00  0.00     0.219 HD
ENDBRANCH   5  16
TORSDOF 2
ENDMDL
MODEL 3
REMARK VINA RESULT: -5.854154364      3.552      4.615
REMARK  2 active torsions:
REMARK  status: ('A' for Active; 'I' for Inactive)
REMARK    1  A    between atoms: C4_5  and  O1_6 
REMARK    2  A    between atoms: N1_8  and  C5_9 
ROOT
HETATM    1  C1  UNL     1      -1.178  -4.093  -2.950  1.00  0.00     0.062 C 
HETATM    2  C2  UNL     1      -1.185  -3.800  -1.510  1.00  0.00     0.025 C 
HETATM    3  S1  UNL     1      -2.400  -2.930  -0.883  1.00  0.00    -0.084 SA
HETATM    4  C3  UNL     1      -0.123  -4.281  -0.658  1.00  0.00     0.102 A 
HETATM    5  C4  UNL     1      -0.143  -5.401   0.180  1.00  0.00     0.175 A 
HETATM    6  N1  UNL     1       1.038  -5.497   0.797  1.00  0.00    -0.263 N 
HETATM    7  N2  UNL     1       1.806  -4.490   0.390  1.00  0.00    -0.261 N 
ATOM      8  H2  UNL     1       2.762  -4.324   0.704  1.00  0.00     0.190 HD
HETATM    9  C10 UNL     1       1.147  -3.728  -0.490  1.00  0.00     0.276 A 
HETATM   10  O2  UNL     1       1.577  -2.697  -1.071  1.00  0.00    -0.266 OA
ENDROOT
BRANCH   6  11
HETATM   11  C5  UNL     1       1.446  -6.484   1.730  1.00  0.00     0.110 C 
HETATM   12  C6  UNL     1       1.464  -6.008   3.168  1.00  0.00     0.027 C 
HETATM   13  C7  UNL     1       2.054  -7.255   3.841  1.00  0.00     0.002 C 
HETATM   14  C8  UNL     1       2.957  -7.887   2.800  1.00  0.00     0.002 C 
HETATM   15  C9  UNL     1       2.850  -6.975   1.566  1.00  0.00     0.027 C 
ENDBRANCH   6  11
BRANCH   5  16
HETATM   16  O1  UNL     1      -1.247  -6.211   0.284  1.00  0.00    -0.344 OA
ATOM     17  H1  UNL     1      -1.190  -7.099   0.617  1.00  0.00     0.219 HD
ENDBRANCH   5  16
TORSDOF 2
ENDMDL
MODEL 4
REMARK VINA RESULT: -5.853377674      1.433      1.749
REMARK  2 active torsions:
REMARK  status: ('A' for Active; 'I' for Inactive)
REMARK    1  A    between atoms: C4_5  and  O1_6 
REMARK    2  A    between atoms: N1_8  and  C5_9 
ROOT
HETATM    1  C1  UNL     1      -5.852  -4.913  -0.130  1.00  0.00     0.062 C 
HETATM    2  C2  UNL     1      -4.821  -5.325   0.832  1.00  0.00     0.025 C 
HETATM    3  S1  UNL     1      -5.041  -6.674   1.704  1.00  0.00    -0.084 SA
HETATM    4  C3  UNL     1      -3.621  -4.539   1.004  1.00  0.00     0.102 A 
HETATM    5  C4  UNL     1      -2.356  -4.783   0.458  1.00  0.00     0.175 A 
HETATM    6  N1  UNL     1      -1.521  -3.821   0.860  1.00  0.00    -0.263 N 
HETATM    7  N2  UNL     1      -2.197  -2.978   1.636  1.00  0.00    -0.261 N 
ATOM      8  H2  UNL     1      -1.801  -2.149   2.079  1.00  0.00     0.190 HD
HETATM    9  C10 UNL     1      -3.471  -3.371   1.752  1.00  0.00     0.276 A 
HETATM   10  O2  UNL     1      -4.382  -2.804   2.412  1.00  0.00    -0.266 OA
ENDROOT
BRANCH   6  11
HETATM   11  C5  UNL     1      -0.148  -3.681   0.540  1.00  0.00     0.110 C 
HETATM   12  C6  UNL     1       0.551  -2.561   1.282  1.00  0.00     0.027 C 
HETATM   13  C7  UNL     1       1.930  -2.632   0.610  1.00  0.00     0.002 C 
HETATM   14  C8  UNL     1       1.667  -3.124  -0.800  1.00  0.00     0.002 C 
HETATM   15  C9  UNL     1       0.144  -3.317  -0.882  1.00  0.00     0.027 C 
ENDBRANCH   6  11
BRANCH   5  16
HETATM   16  O1  UNL     1      -2.110  -5.866  -0.351  1.00  0.00    -0.344 OA
ATOM     17  H1  UNL     1      -2.560  -5.988  -1.178  1.00  0.00     0.219 HD
ENDBRANCH   5  16
TORSDOF 2
ENDMDL
MODEL 5
REMARK VINA RESULT: -5.819631123      5.207      6.462
REMARK  2 active torsions:
REMARK  status: ('A' for Active; 'I' for Inactive)
REMARK    1  A    between atoms: C4_5  and  O1_6 
REMARK    2  A    between atoms: N1_8  and  C5_9 
ROOT
HETATM    1  C1  UNL     1       2.470  -2.503  -0.217  1.00  0.00     0.062 C 
HETATM    2  C2  UNL     1       1.839  -3.815  -0.417  1.00  0.00     0.025 C 
HETATM    3  S1  UNL     1       0.580  -3.943  -1.431  1.00  0.00    -0.084 SA
HETATM    4  C3  UNL     1       2.330  -4.980   0.280  1.00  0.00     0.102 A 
HETATM    5  C4  UNL     1       3.172  -5.980  -0.218  1.00  0.00     0.175 A 
HETATM    6  N1  UNL     1       3.388  -6.880   0.745  1.00  0.00    -0.263 N 
HETATM    7  N2  UNL     1       2.721  -6.498   1.831  1.00  0.00    -0.261 N 
ATOM      8  H2  UNL     1       2.712  -7.005   2.716  1.00  0.00     0.190 HD
HETATM    9  C10 UNL     1       2.067  -5.354   1.598  1.00  0.00     0.276 A 
HETATM   10  O2  UNL     1       1.341  -4.718   2.407  1.00  0.00    -0.266 OA
ENDROOT
BRANCH   6  11
HETATM   11  C5  UNL     1       4.181  -8.052   0.668  1.00  0.00     0.110 C 
HETATM   12  C6  UNL     1       4.382  -8.753   1.997  1.00  0.00     0.027 C 
HETATM   13  C7  UNL     1       5.354  -9.857   1.557  1.00  0.00     0.002 C 
HETATM   14  C8  UNL     1       6.146  -9.264   0.408  1.00  0.00     0.002 C 
HETATM   15  C9  UNL     1       5.597  -7.839   0.233  1.00  0.00     0.027 C 
ENDBRANCH   6  11
BRANCH   5  16
HETATM   16  O1  UNL     1       3.649  -5.953  -1.506  1.00  0.00    -0.344 OA
ATOM     17  H1  UNL     1       4.572  -5.836  -1.699  1.00  0.00     0.219 HD
ENDBRANCH   5  16
TORSDOF 2
ENDMDL
