MODEL 1
REMARK VINA RESULT: -8.371965449      0.000      0.000
REMARK  14 active torsions:
REMARK  status: ('A' for Active; 'I' for Inactive)
REMARK    1  A    between atoms: C2_2  and  C3_3 
REMARK    2  A    between atoms: C3_3  and  C4_4 
REMARK    3  A    between atoms: C4_4  and  C5_5 
REMARK    4  A    between atoms: C5_5  and  C6_6 
REMARK    5  A    between atoms: C7_7  and  C8_8 
REMARK    6  A    between atoms: C8_8  and  C9_9 
REMARK    7  A    between atoms: C10_11  and  O2_12 
REMARK    8  A    between atoms: O2_12  and  C11_13 
REMARK    9  A    between atoms: C14_18  and  C15_19 
REMARK   10  A    between atoms: C15_19  and  O5_20 
REMARK   11  A    between atoms: C17_23  and  O6_24 
REMARK   12  A    between atoms: C18_26  and  O7_27 
REMARK   13  A    between atoms: C19_29  and  O8_30 
REMARK   14  A    between atoms: N1_34  and  O9_36 
ROOT
HETATM    1  C9  UNL     1      15.166 -36.730   2.431  1.00  0.00     0.175 C 
HETATM    2  O1  UNL     1      15.701 -37.203   3.582  1.00  0.00    -0.347 OA
HETATM    3  C10 UNL     1      16.796 -36.526   4.104  1.00  0.00     0.292 C 
HETATM    4  C19 UNL     1      16.895 -35.182   3.487  1.00  0.00     0.178 C 
HETATM    5  C20 UNL     1      17.175 -35.261   1.999  1.00  0.00     0.093 C 
HETATM    6  C21 UNL     1      16.110 -36.140   1.480  1.00  0.00     0.041 C 
HETATM    7  N1  UNL     1      16.020 -36.371   0.239  1.00  0.00    -0.275 N 
ATOM      8  H1  UNL     1      15.274 -36.983  -0.093  1.00  0.00     0.193 HD
ENDROOT
BRANCH   3   9
HETATM    9  O2  UNL     1      17.877 -37.344   3.967  1.00  0.00    -0.326 OA
BRANCH   9  10
HETATM   10  C11 UNL     1      18.725 -37.435   5.046  1.00  0.00     0.294 C 
HETATM   11  O3  UNL     1      19.628 -36.401   4.897  1.00  0.00    -0.350 OA
HETATM   12  C12 UNL     1      20.615 -36.537   3.999  1.00  0.00     0.157 C 
HETATM   13  C13 UNL     1      21.903 -35.836   4.337  1.00  0.00     0.200 C 
HETATM   14  C16 UNL     1      21.062 -37.936   3.664  1.00  0.00     0.079 C 
HETATM   15  O4  UNL     1      22.913 -36.822   4.310  1.00  0.00    -0.381 OA
HETATM   16  C14 UNL     1      22.502 -37.727   3.333  1.00  0.00     0.154 C 
HETATM   17  C17 UNL     1      20.792 -38.840   4.818  1.00  0.00     0.161 C 
HETATM   18  C18 UNL     1      19.343 -38.781   5.247  1.00  0.00     0.202 C 
BRANCH  16  19
HETATM   19  C15 UNL     1      23.358 -38.941   3.320  1.00  0.00     0.196 C 
BRANCH  19  20
HETATM   20  O5  UNL     1      23.209 -39.722   2.193  1.00  0.00    -0.398 OA
ATOM     21  H5  UNL     1      24.030 -40.017   1.814  1.00  0.00     0.209 HD
ENDBRANCH  19  20
ENDBRANCH  16  19
BRANCH  17  22
HETATM   22  O6  UNL     1      21.201 -40.153   4.591  1.00  0.00    -0.392 OA
ATOM     23  H6  UNL     1      20.792 -40.777   5.178  1.00  0.00     0.210 HD
ENDBRANCH  17  22
BRANCH  18  24
HETATM   24  O7  UNL     1      18.678 -39.779   4.503  1.00  0.00    -0.388 OA
ATOM     25  H7  UNL     1      18.377 -40.491   5.056  1.00  0.00     0.210 HD
ENDBRANCH  18  24
ENDBRANCH   9  10
ENDBRANCH   3   9
BRANCH   4  26
HETATM   26  O8  UNL     1      17.763 -34.316   4.138  1.00  0.00    -0.390 OA
ATOM     27  H8  UNL     1      18.664 -34.367   3.841  1.00  0.00     0.210 HD
ENDBRANCH   4  26
BRANCH   1  28
HETATM   28  C8  UNL     1      14.440 -37.880   1.724  1.00  0.00     0.065 C 
BRANCH  28  29
HETATM   29  C7  UNL     1      13.091 -37.465   1.287  1.00  0.00    -0.028 C 
HETATM   30  C6  UNL     1      12.423 -36.527   1.944  1.00  0.00    -0.031 C 
BRANCH  30  31
HETATM   31  C5  UNL     1      11.071 -36.078   1.548  1.00  0.00     0.027 C 
BRANCH  31  32
HETATM   32  C4  UNL     1      10.712 -36.438   0.134  1.00  0.00     0.004 C 
BRANCH  32  33
HETATM   33  C3  UNL     1      10.392 -35.266  -0.742  1.00  0.00    -0.000 C 
BRANCH  33  34
HETATM   34  C2  UNL     1      11.191 -35.314  -2.039  1.00  0.00    -0.005 C 
HETATM   35  C1  UNL     1      12.615 -35.701  -1.779  1.00  0.00     0.005 C 
ENDBRANCH  33  34
ENDBRANCH  32  33
ENDBRANCH  31  32
ENDBRANCH  30  31
ENDBRANCH  28  29
ENDBRANCH   1  28
BRANCH   7  36
HETATM   36  O9  UNL     1      16.900 -35.825  -0.689  1.00  0.00    -0.290 OA
ATOM     37  H9  UNL     1      16.739 -35.855  -1.624  1.00  0.00     0.244 HD
ENDBRANCH   7  36
TORSDOF 14
ENDMDL
MODEL 2
REMARK VINA RESULT: -8.241529260      1.119      2.083
REMARK  14 active torsions:
REMARK  status: ('A' for Active; 'I' for Inactive)
REMARK    1  A    between atoms: C2_2  and  C3_3 
REMARK    2  A    between atoms: C3_3  and  C4_4 
REMARK    3  A    between atoms: C4_4  and  C5_5 
REMARK    4  A    between atoms: C5_5  and  C6_6 
REMARK    5  A    between atoms: C7_7  and  C8_8 
REMARK    6  A    between atoms: C8_8  and  C9_9 
REMARK    7  A    between atoms: C10_11  and  O2_12 
REMARK    8  A    between atoms: O2_12  and  C11_13 
REMARK    9  A    between atoms: C14_18  and  C15_19 
REMARK   10  A    between atoms: C15_19  and  O5_20 
REMARK   11  A    between atoms: C17_23  and  O6_24 
REMARK   12  A    between atoms: C18_26  and  O7_27 
REMARK   13  A    between atoms: C19_29  and  O8_30 
REMARK   14  A    between atoms: N1_34  and  O9_36 
ROOT
HETATM    1  C9  UNL     1      15.120 -36.645   2.415  1.00  0.00     0.175 C 
HETATM    2  O1  UNL     1      15.624 -37.128   3.577  1.00  0.00    -0.347 OA
HETATM    3  C10 UNL     1      16.736 -36.487   4.106  1.00  0.00     0.292 C 
HETATM    4  C19 UNL     1      16.892 -35.153   3.480  1.00  0.00     0.178 C 
HETATM    5  C20 UNL     1      17.187 -35.255   1.996  1.00  0.00     0.093 C 
HETATM    6  C21 UNL     1      16.096 -36.098   1.471  1.00  0.00     0.041 C 
HETATM    7  N1  UNL     1      16.012 -36.337   0.231  1.00  0.00    -0.275 N 
ATOM      8  H1  UNL     1      15.248 -36.923  -0.105  1.00  0.00     0.193 HD
ENDROOT
BRANCH   3   9
HETATM    9  O2  UNL     1      17.788 -37.345   3.989  1.00  0.00    -0.326 OA
BRANCH   9  10
HETATM   10  C11 UNL     1      18.620 -37.458   5.079  1.00  0.00     0.294 C 
HETATM   11  O3  UNL     1      19.534 -36.431   4.958  1.00  0.00    -0.350 OA
HETATM   12  C12 UNL     1      20.533 -36.564   4.073  1.00  0.00     0.157 C 
HETATM   13  C13 UNL     1      21.822 -35.880   4.439  1.00  0.00     0.200 C 
HETATM   14  C16 UNL     1      20.972 -37.962   3.726  1.00  0.00     0.079 C 
HETATM   15  O4  UNL     1      22.823 -36.875   4.414  1.00  0.00    -0.381 OA
HETATM   16  C14 UNL     1      22.419 -37.763   3.419  1.00  0.00     0.154 C 
HETATM   17  C17 UNL     1      20.676 -38.880   4.863  1.00  0.00     0.161 C 
HETATM   18  C18 UNL     1      19.222 -38.813   5.270  1.00  0.00     0.202 C 
BRANCH  16  19
HETATM   19  C15 UNL     1      23.264 -38.984   3.402  1.00  0.00     0.196 C 
BRANCH  19  20
HETATM   20  O5  UNL     1      23.182 -39.709   2.230  1.00  0.00    -0.398 OA
ATOM     21  H5  UNL     1      24.025 -39.953   1.866  1.00  0.00     0.209 HD
ENDBRANCH  19  20
ENDBRANCH  16  19
BRANCH  17  22
HETATM   22  O6  UNL     1      21.076 -40.193   4.624  1.00  0.00    -0.392 OA
ATOM     23  H6  UNL     1      21.976 -40.260   4.327  1.00  0.00     0.210 HD
ENDBRANCH  17  22
BRANCH  18  24
HETATM   24  O7  UNL     1      18.559 -39.795   4.503  1.00  0.00    -0.388 OA
ATOM     25  H7  UNL     1      18.338 -39.477   3.636  1.00  0.00     0.210 HD
ENDBRANCH  18  24
ENDBRANCH   9  10
ENDBRANCH   3   9
BRANCH   4  26
HETATM   26  O8  UNL     1      17.784 -34.314   4.135  1.00  0.00    -0.390 OA
ATOM     27  H8  UNL     1      18.268 -33.732   3.561  1.00  0.00     0.210 HD
ENDBRANCH   4  26
BRANCH   1  28
HETATM   28  C8  UNL     1      14.361 -37.773   1.709  1.00  0.00     0.065 C 
BRANCH  28  29
HETATM   29  C7  UNL     1      12.978 -37.361   1.390  1.00  0.00    -0.028 C 
HETATM   30  C6  UNL     1      12.408 -36.346   2.022  1.00  0.00    -0.031 C 
BRANCH  30  31
HETATM   31  C5  UNL     1      11.029 -35.896   1.739  1.00  0.00     0.027 C 
BRANCH  31  32
HETATM   32  C4  UNL     1      10.450 -35.029   2.822  1.00  0.00     0.004 C 
BRANCH  32  33
HETATM   33  C3  UNL     1       9.967 -35.781   4.025  1.00  0.00    -0.000 C 
BRANCH  33  34
HETATM   34  C2  UNL     1       9.268 -37.074   3.622  1.00  0.00    -0.005 C 
HETATM   35  C1  UNL     1       8.113 -37.366   4.529  1.00  0.00     0.005 C 
ENDBRANCH  33  34
ENDBRANCH  32  33
ENDBRANCH  31  32
ENDBRANCH  30  31
ENDBRANCH  28  29
ENDBRANCH   1  28
BRANCH   7  36
HETATM   36  O9  UNL     1      16.922 -35.831  -0.690  1.00  0.00    -0.290 OA
ATOM     37  H9  UNL     1      17.591 -36.369  -1.096  1.00  0.00     0.244 HD
ENDBRANCH   7  36
TORSDOF 14
ENDMDL
MODEL 3
REMARK VINA RESULT: -8.072737950      3.035      5.755
REMARK  14 active torsions:
REMARK  status: ('A' for Active; 'I' for Inactive)
REMARK    1  A    between atoms: C2_2  and  C3_3 
REMARK    2  A    between atoms: C3_3  and  C4_4 
REMARK    3  A    between atoms: C4_4  and  C5_5 
REMARK    4  A    between atoms: C5_5  and  C6_6 
REMARK    5  A    between atoms: C7_7  and  C8_8 
REMARK    6  A    between atoms: C8_8  and  C9_9 
REMARK    7  A    between atoms: C10_11  and  O2_12 
REMARK    8  A    between atoms: O2_12  and  C11_13 
REMARK    9  A    between atoms: C14_18  and  C15_19 
REMARK   10  A    between atoms: C15_19  and  O5_20 
REMARK   11  A    between atoms: C17_23  and  O6_24 
REMARK   12  A    between atoms: C18_26  and  O7_27 
REMARK   13  A    between atoms: C19_29  and  O8_30 
REMARK   14  A    between atoms: N1_34  and  O9_36 
ROOT
HETATM    1  C9  UNL     1      18.570 -41.377   5.869  1.00  0.00     0.175 C 
HETATM    2  O1  UNL     1      19.501 -40.844   5.042  1.00  0.00    -0.347 OA
HETATM    3  C10 UNL     1      20.694 -40.418   5.612  1.00  0.00     0.292 C 
HETATM    4  C19 UNL     1      20.845 -41.011   6.962  1.00  0.00     0.178 C 
HETATM    5  C20 UNL     1      19.775 -40.521   7.918  1.00  0.00     0.093 C 
HETATM    6  C21 UNL     1      18.509 -40.810   7.217  1.00  0.00     0.041 C 
HETATM    7  N1  UNL     1      17.399 -40.569   7.777  1.00  0.00    -0.275 N 
ATOM      8  H1  UNL     1      16.539 -40.778   7.270  1.00  0.00     0.193 HD
ENDROOT
BRANCH   3   9
HETATM    9  O2  UNL     1      20.714 -39.058   5.534  1.00  0.00    -0.326 OA
BRANCH   9  10
HETATM   10  C11 UNL     1      21.187 -38.511   4.364  1.00  0.00     0.294 C 
HETATM   11  O3  UNL     1      22.545 -38.761   4.359  1.00  0.00    -0.350 OA
HETATM   12  C12 UNL     1      23.338 -38.006   5.135  1.00  0.00     0.157 C 
HETATM   13  C13 UNL     1      24.730 -37.778   4.614  1.00  0.00     0.200 C 
HETATM   14  C16 UNL     1      22.863 -36.616   5.469  1.00  0.00     0.079 C 
HETATM   15  O4  UNL     1      24.911 -36.379   4.557  1.00  0.00    -0.381 OA
HETATM   16  C14 UNL     1      24.152 -35.878   5.613  1.00  0.00     0.154 C 
HETATM   17  C17 UNL     1      21.956 -36.122   4.395  1.00  0.00     0.161 C 
HETATM   18  C18 UNL     1      20.813 -37.081   4.145  1.00  0.00     0.202 C 
BRANCH  16  19
HETATM   19  C15 UNL     1      24.071 -34.396   5.571  1.00  0.00     0.196 C 
BRANCH  19  20
HETATM   20  O5  UNL     1      23.355 -33.841   6.612  1.00  0.00    -0.398 OA
ATOM     21  H5  UNL     1      22.420 -33.778   6.449  1.00  0.00     0.209 HD
ENDBRANCH  19  20
ENDBRANCH  16  19
BRANCH  17  22
HETATM   22  O6  UNL     1      21.491 -34.828   4.624  1.00  0.00    -0.392 OA
ATOM     23  H6  UNL     1      20.635 -34.807   5.033  1.00  0.00     0.210 HD
ENDBRANCH  17  22
BRANCH  18  24
HETATM   24  O7  UNL     1      19.770 -36.673   5.004  1.00  0.00    -0.388 OA
ATOM     25  H7  UNL     1      19.395 -37.406   5.478  1.00  0.00     0.210 HD
ENDBRANCH  18  24
ENDBRANCH   9  10
ENDBRANCH   3   9
BRANCH   4  26
HETATM   26  O8  UNL     1      22.120 -40.895   7.498  1.00  0.00    -0.390 OA
ATOM     27  H8  UNL     1      22.187 -40.282   8.220  1.00  0.00     0.210 HD
ENDBRANCH   4  26
BRANCH   1  28
HETATM   28  C8  UNL     1      17.191 -41.209   5.223  1.00  0.00     0.065 C 
BRANCH  28  29
HETATM   29  C7  UNL     1      17.179 -40.060   4.294  1.00  0.00    -0.028 C 
HETATM   30  C6  UNL     1      16.719 -38.878   4.680  1.00  0.00    -0.031 C 
BRANCH  30  31
HETATM   31  C5  UNL     1      16.685 -37.699   3.790  1.00  0.00     0.027 C 
BRANCH  31  32
HETATM   32  C4  UNL     1      15.298 -37.179   3.540  1.00  0.00     0.004 C 
BRANCH  32  33
HETATM   33  C3  UNL     1      14.711 -37.587   2.223  1.00  0.00    -0.000 C 
BRANCH  33  34
HETATM   34  C2  UNL     1      13.402 -36.855   1.954  1.00  0.00    -0.005 C 
HETATM   35  C1  UNL     1      12.977 -36.056   3.148  1.00  0.00     0.005 C 
ENDBRANCH  33  34
ENDBRANCH  32  33
ENDBRANCH  31  32
ENDBRANCH  30  31
ENDBRANCH  28  29
ENDBRANCH   1  28
BRANCH   7  36
HETATM   36  O9  UNL     1      17.308 -40.031   9.056  1.00  0.00    -0.290 OA
ATOM     37  H9  UNL     1      16.479 -39.916   9.503  1.00  0.00     0.244 HD
ENDBRANCH   7  36
TORSDOF 14
ENDMDL
MODEL 4
REMARK VINA RESULT: -7.983388951      1.310      1.699
REMARK  14 active torsions:
REMARK  status: ('A' for Active; 'I' for Inactive)
REMARK    1  A    between atoms: C2_2  and  C3_3 
REMARK    2  A    between atoms: C3_3  and  C4_4 
REMARK    3  A    between atoms: C4_4  and  C5_5 
REMARK    4  A    between atoms: C5_5  and  C6_6 
REMARK    5  A    between atoms: C7_7  and  C8_8 
REMARK    6  A    between atoms: C8_8  and  C9_9 
REMARK    7  A    between atoms: C10_11  and  O2_12 
REMARK    8  A    between atoms: O2_12  and  C11_13 
REMARK    9  A    between atoms: C14_18  and  C15_19 
REMARK   10  A    between atoms: C15_19  and  O5_20 
REMARK   11  A    between atoms: C17_23  and  O6_24 
REMARK   12  A    between atoms: C18_26  and  O7_27 
REMARK   13  A    between atoms: C19_29  and  O8_30 
REMARK   14  A    between atoms: N1_34  and  O9_36 
ROOT
HETATM    1  C9  UNL     1      14.215 -36.969   1.230  1.00  0.00     0.175 C 
HETATM    2  O1  UNL     1      14.438 -37.455   2.475  1.00  0.00    -0.347 OA
HETATM    3  C10 UNL     1      15.314 -36.749   3.289  1.00  0.00     0.292 C 
HETATM    4  C19 UNL     1      15.512 -35.383   2.748  1.00  0.00     0.178 C 
HETATM    5  C20 UNL     1      16.191 -35.405   1.393  1.00  0.00     0.093 C 
HETATM    6  C21 UNL     1      15.352 -36.310   0.586  1.00  0.00     0.041 C 
HETATM    7  N1  UNL     1      15.617 -36.507  -0.637  1.00  0.00    -0.275 N 
ATOM      8  H1  UNL     1      15.020 -37.139  -1.172  1.00  0.00     0.193 HD
ENDROOT
BRANCH   3   9
HETATM    9  O2  UNL     1      16.430 -37.516   3.440  1.00  0.00    -0.326 OA
BRANCH   9  10
HETATM   10  C11 UNL     1      17.021 -37.512   4.681  1.00  0.00     0.294 C 
HETATM   11  O3  UNL     1      17.835 -36.397   4.703  1.00  0.00    -0.350 OA
HETATM   12  C12 UNL     1      19.006 -36.446   4.049  1.00  0.00     0.157 C 
HETATM   13  C13 UNL     1      20.115 -35.620   4.640  1.00  0.00     0.200 C 
HETATM   14  C16 UNL     1      19.643 -37.799   3.866  1.00  0.00     0.079 C 
HETATM   15  O4  UNL     1      21.192 -36.504   4.869  1.00  0.00    -0.381 OA
HETATM   16  C14 UNL     1      21.095 -37.455   3.854  1.00  0.00     0.154 C 
HETATM   17  C17 UNL     1      19.208 -38.713   4.960  1.00  0.00     0.161 C 
HETATM   18  C18 UNL     1      17.700 -38.790   5.056  1.00  0.00     0.202 C 
BRANCH  16  19
HETATM   19  C15 UNL     1      22.041 -38.580   4.070  1.00  0.00     0.196 C 
BRANCH  19  20
HETATM   20  O5  UNL     1      22.766 -38.927   2.948  1.00  0.00    -0.398 OA
ATOM     21  H5  UNL     1      22.233 -39.108   2.182  1.00  0.00     0.209 HD
ENDBRANCH  19  20
ENDBRANCH  16  19
BRANCH  17  22
HETATM   22  O6  UNL     1      19.776 -39.982   4.871  1.00  0.00    -0.392 OA
ATOM     23  H6  UNL     1      19.704 -40.480   5.676  1.00  0.00     0.210 HD
ENDBRANCH  17  22
BRANCH  18  24
HETATM   24  O7  UNL     1      17.313 -39.856   4.216  1.00  0.00    -0.388 OA
ATOM     25  H7  UNL     1      16.575 -40.337   4.573  1.00  0.00     0.210 HD
ENDBRANCH  18  24
ENDBRANCH   9  10
ENDBRANCH   3   9
BRANCH   4  26
HETATM   26  O8  UNL     1      16.126 -34.502   3.628  1.00  0.00    -0.390 OA
ATOM     27  H8  UNL     1      16.890 -34.064   3.274  1.00  0.00     0.210 HD
ENDBRANCH   4  26
BRANCH   1  28
HETATM   28  C8  UNL     1      13.767 -38.126   0.330  1.00  0.00     0.065 C 
BRANCH  28  29
HETATM   29  C7  UNL     1      12.397 -37.903  -0.175  1.00  0.00    -0.028 C 
HETATM   30  C6  UNL     1      11.795 -36.733  -0.015  1.00  0.00    -0.031 C 
BRANCH  30  31
HETATM   31  C5  UNL     1      10.426 -36.460  -0.501  1.00  0.00     0.027 C 
BRANCH  31  32
HETATM   32  C4  UNL     1      10.344 -35.274  -1.420  1.00  0.00     0.004 C 
BRANCH  32  33
HETATM   33  C3  UNL     1      11.452 -35.192  -2.425  1.00  0.00    -0.000 C 
BRANCH  33  34
HETATM   34  C2  UNL     1      10.932 -34.732  -3.781  1.00  0.00    -0.005 C 
HETATM   35  C1  UNL     1      12.040 -34.665  -4.788  1.00  0.00     0.005 C 
ENDBRANCH  33  34
ENDBRANCH  32  33
ENDBRANCH  31  32
ENDBRANCH  30  31
ENDBRANCH  28  29
ENDBRANCH   1  28
BRANCH   7  36
HETATM   36  O9  UNL     1      16.689 -35.896  -1.277  1.00  0.00    -0.290 OA
ATOM     37  H9  UNL     1      17.132 -36.290  -2.019  1.00  0.00     0.244 HD
ENDBRANCH   7  36
TORSDOF 14
ENDMDL
MODEL 5
REMARK VINA RESULT: -7.891714243      2.913      5.484
REMARK  14 active torsions:
REMARK  status: ('A' for Active; 'I' for Inactive)
REMARK    1  A    between atoms: C2_2  and  C3_3 
REMARK    2  A    between atoms: C3_3  and  C4_4 
REMARK    3  A    between atoms: C4_4  and  C5_5 
REMARK    4  A    between atoms: C5_5  and  C6_6 
REMARK    5  A    between atoms: C7_7  and  C8_8 
REMARK    6  A    between atoms: C8_8  and  C9_9 
REMARK    7  A    between atoms: C10_11  and  O2_12 
REMARK    8  A    between atoms: O2_12  and  C11_13 
REMARK    9  A    between atoms: C14_18  and  C15_19 
REMARK   10  A    between atoms: C15_19  and  O5_20 
REMARK   11  A    between atoms: C17_23  and  O6_24 
REMARK   12  A    between atoms: C18_26  and  O7_27 
REMARK   13  A    between atoms: C19_29  and  O8_30 
REMARK   14  A    between atoms: N1_34  and  O9_36 
ROOT
HETATM    1  C9  UNL     1      18.757 -38.134   4.319  1.00  0.00     0.175 C 
HETATM    2  O1  UNL     1      19.585 -37.223   3.753  1.00  0.00    -0.347 OA
HETATM    3  C10 UNL     1      20.950 -37.473   3.817  1.00  0.00     0.292 C 
HETATM    4  C19 UNL     1      21.184 -38.898   4.149  1.00  0.00     0.178 C 
HETATM    5  C20 UNL     1      20.671 -39.248   5.533  1.00  0.00     0.093 C 
HETATM    6  C21 UNL     1      19.264 -38.805   5.517  1.00  0.00     0.041 C 
HETATM    7  N1  UNL     1      18.519 -39.005   6.520  1.00  0.00    -0.275 N 
ATOM      8  H1  UNL     1      17.550 -38.689   6.483  1.00  0.00     0.193 HD
ENDROOT
BRANCH   3   9
HETATM    9  O2  UNL     1      21.488 -36.550   4.662  1.00  0.00    -0.326 OA
BRANCH   9  10
HETATM   10  C11 UNL     1      22.685 -35.986   4.283  1.00  0.00     0.294 C 
HETATM   11  O3  UNL     1      23.646 -36.942   4.546  1.00  0.00    -0.350 OA
HETATM   12  C12 UNL     1      24.036 -37.126   5.816  1.00  0.00     0.157 C 
HETATM   13  C13 UNL     1      25.464 -37.559   6.002  1.00  0.00     0.200 C 
HETATM   14  C16 UNL     1      23.906 -35.958   6.759  1.00  0.00     0.079 C 
HETATM   15  O4  UNL     1      26.059 -36.614   6.865  1.00  0.00    -0.381 OA
HETATM   16  C14 UNL     1      25.029 -36.203   7.710  1.00  0.00     0.154 C 
HETATM   17  C17 UNL     1      23.978 -34.682   5.993  1.00  0.00     0.161 C 
HETATM   18  C18 UNL     1      22.959 -34.642   4.876  1.00  0.00     0.202 C 
BRANCH  16  19
HETATM   19  C15 UNL     1      25.442 -35.053   8.553  1.00  0.00     0.196 C 
BRANCH  19  20
HETATM   20  O5  UNL     1      24.565 -34.765   9.579  1.00  0.00    -0.398 OA
ATOM     21  H5  UNL     1      24.893 -34.125  10.201  1.00  0.00     0.209 HD
ENDBRANCH  19  20
ENDBRANCH  16  19
BRANCH  17  22
HETATM   22  O6  UNL     1      23.887 -33.552   6.803  1.00  0.00    -0.392 OA
ATOM     23  H6  UNL     1      24.670 -33.016   6.784  1.00  0.00     0.210 HD
ENDBRANCH  17  22
BRANCH  18  24
HETATM   24  O7  UNL     1      21.797 -34.066   5.432  1.00  0.00    -0.388 OA
ATOM     25  H7  UNL     1      21.590 -34.437   6.281  1.00  0.00     0.210 HD
ENDBRANCH  18  24
ENDBRANCH   9  10
ENDBRANCH   3   9
BRANCH   4  26
HETATM   26  O8  UNL     1      22.490 -39.325   3.951  1.00  0.00    -0.390 OA
ATOM     27  H8  UNL     1      23.002 -39.402   4.747  1.00  0.00     0.210 HD
ENDBRANCH   4  26
BRANCH   1  28
HETATM   28  C8  UNL     1      17.445 -37.434   4.689  1.00  0.00     0.065 C 
BRANCH  28  29
HETATM   29  C7  UNL     1      16.331 -37.920   3.849  1.00  0.00    -0.028 C 
HETATM   30  C6  UNL     1      15.641 -37.085   3.086  1.00  0.00    -0.031 C 
BRANCH  30  31
HETATM   31  C5  UNL     1      14.518 -37.521   2.229  1.00  0.00     0.027 C 
BRANCH  31  32
HETATM   32  C4  UNL     1      13.514 -36.436   1.961  1.00  0.00     0.004 C 
BRANCH  32  33
HETATM   33  C3  UNL     1      12.789 -35.949   3.178  1.00  0.00    -0.000 C 
BRANCH  33  34
HETATM   34  C2  UNL     1      11.281 -36.103   3.018  1.00  0.00    -0.005 C 
HETATM   35  C1  UNL     1      10.586 -34.786   3.187  1.00  0.00     0.005 C 
ENDBRANCH  33  34
ENDBRANCH  32  33
ENDBRANCH  31  32
ENDBRANCH  30  31
ENDBRANCH  28  29
ENDBRANCH   1  28
BRANCH   7  36
HETATM   36  O9  UNL     1      18.971 -39.640   7.672  1.00  0.00    -0.290 OA
ATOM     37  H9  UNL     1      18.425 -40.231   8.176  1.00  0.00     0.244 HD
ENDBRANCH   7  36
TORSDOF 14
ENDMDL
