MODEL 1
REMARK VINA RESULT: -9.503926713      0.000      0.000
REMARK  18 active torsions:
REMARK  status: ('A' for Active; 'I' for Inactive)
REMARK    1  A    between atoms: N1_1  and  C1_4 
REMARK    2  A    between atoms: C2_7  and  O1_8 
REMARK    3  A    between atoms: C3_10  and  C4_11 
REMARK    4  A    between atoms: C4_11  and  O2_12 
REMARK    5  A    between atoms: C4_11  and  C5_14 
REMARK    6  A    between atoms: C5_14  and  N3_15 
REMARK    7  A    between atoms: C7_17  and  C8_18 
REMARK    8  A    between atoms: N6_22  and  C9_23 
REMARK    9  A    between atoms: C9_23  and  C10_24 
REMARK   10  A    between atoms: C11_25  and  O3_26 
REMARK   11  A    between atoms: C12_28  and  O4_29 
REMARK   12  A    between atoms: C13_31  and  O5_32 
REMARK   13  A    between atoms: C14_34  and  C15_35 
REMARK   14  A    between atoms: C15_35  and  C16_36 
REMARK   15  A    between atoms: C16_36  and  O6_37 
REMARK   16  A    between atoms: C16_36  and  N7_39 
REMARK   17  A    between atoms: N7_39  and  O7_41 
REMARK   18  A    between atoms: C17_43  and  O8_44 
ROOT
HETATM    1  C8  UNL     1      18.026  47.487  -9.487  1.00  0.00     0.164 A 
HETATM    2  N4  UNL     1      18.200  48.638 -10.153  1.00  0.00    -0.265 N 
ATOM      3  H4  UNL     1      18.924  48.825 -10.846  1.00  0.00     0.186 HD
HETATM    4  N5  UNL     1      17.258  49.495  -9.747  1.00  0.00    -0.002 NA
HETATM    5  N6  UNL     1      16.492  48.902  -8.837  1.00  0.00    -0.212 N 
HETATM    6  N8  UNL     1      16.978  47.690  -8.700  1.00  0.00    -0.267 N 
ATOM      7  H8  UNL     1      16.597  46.989  -8.065  1.00  0.00     0.190 HD
ENDROOT
BRANCH   1   8
HETATM    8  C7  UNL     1      18.844  46.298  -9.633  1.00  0.00     0.113 A 
HETATM    9  C6  UNL     1      19.449  45.790 -10.762  1.00  0.00     0.146 A 
HETATM   10  N3  UNL     1      20.127  44.645 -10.451  1.00  0.00    -0.281 N 
HETATM   11  N10 UNL     1      19.932  44.472  -9.166  1.00  0.00    -0.240 N 
HETATM   12  N9  UNL     1      19.182  45.420  -8.641  1.00  0.00    -0.281 N 
ATOM     13  H10 UNL     1      20.316  43.692  -8.633  1.00  0.00     0.208 HD
ATOM     14  H9  UNL     1      18.902  45.487  -7.663  1.00  0.00     0.188 HD
BRANCH  10  15
HETATM   15  C5  UNL     1      20.897  43.838 -11.418  1.00  0.00     0.215 C 
BRANCH  15  16
HETATM   16  C4  UNL     1      22.320  43.926 -11.164  1.00  0.00     0.083 C 
BRANCH  16  17
HETATM   17  C3  UNL     1      23.324  44.404 -12.067  1.00  0.00     0.114 A 
HETATM   18  C2  UNL     1      23.199  45.576 -12.759  1.00  0.00     0.173 A 
HETATM   19  N2  UNL     1      24.203  45.968 -13.594  1.00  0.00    -0.170 N 
HETATM   20  C1  UNL     1      25.320  45.255 -13.774  1.00  0.00     0.680 A 
ATOM     21  H2  UNL     1      24.097  46.845 -14.104  1.00  0.00     0.186 HD
HETATM   22  N11 UNL     1      25.436  44.102 -13.090  1.00  0.00    -0.155 N 
HETATM   23  C18 UNL     1      24.500  43.650 -12.255  1.00  0.00     0.276 A 
ATOM     24  H11 UNL     1      26.282  43.546 -13.217  1.00  0.00     0.187 HD
HETATM   25  O9  UNL     1      24.648  42.569 -11.636  1.00  0.00    -0.267 OA
BRANCH  18  26
HETATM   26  O1  UNL     1      22.113  46.418 -12.685  1.00  0.00    -0.345 OA
ATOM     27  H1  UNL     1      21.705  46.646 -13.512  1.00  0.00     0.219 HD
ENDBRANCH  18  26
BRANCH  20  28
HETATM   28  N1  UNL     1      26.270  45.623 -14.563  1.00  0.00    -0.234 N 
ATOM     29  H12 UNL     1      26.139  46.439 -15.160  1.00  0.00     0.174 HD
ATOM     30  H11 UNL     1      27.163  45.134 -14.625  1.00  0.00     0.174 HD
ENDBRANCH  20  28
ENDBRANCH  16  17
BRANCH  16  31
HETATM   31  O2  UNL     1      22.748  43.532  -9.992  1.00  0.00    -0.362 OA
ATOM     32  H2  UNL     1      22.306  43.910  -9.241  1.00  0.00     0.217 HD
ENDBRANCH  16  31
ENDBRANCH  15  16
ENDBRANCH  10  15
ENDBRANCH   1   8
BRANCH   5  33
HETATM   33  C9  UNL     1      15.374  49.516  -8.155  1.00  0.00     0.211 C 
BRANCH  33  34
HETATM   34  C10 UNL     1      15.744  49.678  -6.724  1.00  0.00     0.033 A 
HETATM   35  C11 UNL     1      15.267  48.851  -5.733  1.00  0.00     0.112 A 
HETATM   36  C12 UNL     1      15.584  49.060  -4.389  1.00  0.00     0.133 A 
HETATM   37  C13 UNL     1      16.390  50.108  -4.041  1.00  0.00     0.111 A 
HETATM   38  C14 UNL     1      16.886  50.955  -5.008  1.00  0.00     0.019 A 
HETATM   39  C17 UNL     1      16.555  50.731  -6.354  1.00  0.00     0.086 A 
BRANCH  35  40
HETATM   40  O3  UNL     1      14.458  47.774  -6.033  1.00  0.00    -0.357 OA
ATOM     41  H3  UNL     1      13.807  47.463  -5.415  1.00  0.00     0.217 HD
ENDBRANCH  35  40
BRANCH  36  42
HETATM   42  O4  UNL     1      15.092  48.218  -3.419  1.00  0.00    -0.356 OA
ATOM     43  H4  UNL     1      14.156  48.143  -3.277  1.00  0.00     0.218 HD
ENDBRANCH  36  42
BRANCH  37  44
HETATM   44  O5  UNL     1      16.746  50.373  -2.720  1.00  0.00    -0.357 OA
ATOM     45  H5  UNL     1      17.227  49.752  -2.185  1.00  0.00     0.217 HD
ENDBRANCH  37  44
BRANCH  38  46
HETATM   46  C15 UNL     1      17.768  52.117  -4.703  1.00  0.00     0.130 C 
BRANCH  46  47
HETATM   47  C16 UNL     1      17.070  53.399  -4.675  1.00  0.00     0.139 C 
BRANCH  47  48
HETATM   48  O6  UNL     1      16.170  53.683  -3.667  1.00  0.00    -0.348 OA
ATOM     49  H6  UNL     1      15.340  54.099  -3.867  1.00  0.00     0.219 HD
ENDBRANCH  47  48
BRANCH  47  50
HETATM   50  N7  UNL     1      17.278  54.276  -5.584  1.00  0.00    -0.251 N 
ATOM     51  H7  UNL     1      16.893  55.209  -5.435  1.00  0.00     0.196 HD
BRANCH  50  52
HETATM   52  O7  UNL     1      17.978  54.059  -6.740  1.00  0.00    -0.288 OA
ATOM     53  H7  UNL     1      18.288  54.740  -7.326  1.00  0.00     0.244 HD
ENDBRANCH  50  52
ENDBRANCH  47  50
ENDBRANCH  46  47
ENDBRANCH  38  46
BRANCH  39  54
HETATM   54  O8  UNL     1      17.055  51.581  -7.297  1.00  0.00    -0.359 OA
ATOM     55  H8  UNL     1      17.980  51.800  -7.304  1.00  0.00     0.217 HD
ENDBRANCH  39  54
ENDBRANCH  33  34
ENDBRANCH   5  33
TORSDOF 18
ENDMDL
MODEL 2
REMARK VINA RESULT: -9.427804643      3.465      4.839
REMARK  18 active torsions:
REMARK  status: ('A' for Active; 'I' for Inactive)
REMARK    1  A    between atoms: N1_1  and  C1_4 
REMARK    2  A    between atoms: C2_7  and  O1_8 
REMARK    3  A    between atoms: C3_10  and  C4_11 
REMARK    4  A    between atoms: C4_11  and  O2_12 
REMARK    5  A    between atoms: C4_11  and  C5_14 
REMARK    6  A    between atoms: C5_14  and  N3_15 
REMARK    7  A    between atoms: C7_17  and  C8_18 
REMARK    8  A    between atoms: N6_22  and  C9_23 
REMARK    9  A    between atoms: C9_23  and  C10_24 
REMARK   10  A    between atoms: C11_25  and  O3_26 
REMARK   11  A    between atoms: C12_28  and  O4_29 
REMARK   12  A    between atoms: C13_31  and  O5_32 
REMARK   13  A    between atoms: C14_34  and  C15_35 
REMARK   14  A    between atoms: C15_35  and  C16_36 
REMARK   15  A    between atoms: C16_36  and  O6_37 
REMARK   16  A    between atoms: C16_36  and  N7_39 
REMARK   17  A    between atoms: N7_39  and  O7_41 
REMARK   18  A    between atoms: C17_43  and  O8_44 
ROOT
HETATM    1  C8  UNL     1      19.338  47.909  -8.980  1.00  0.00     0.164 A 
HETATM    2  N4  UNL     1      19.989  49.034  -9.310  1.00  0.00    -0.265 N 
ATOM      3  H4  UNL     1      20.974  49.104  -9.563  1.00  0.00     0.186 HD
HETATM    4  N5  UNL     1      19.118  50.046  -9.248  1.00  0.00    -0.002 NA
HETATM    5  N6  UNL     1      17.929  49.576  -8.885  1.00  0.00    -0.212 N 
HETATM    6  N8  UNL     1      18.091  48.282  -8.731  1.00  0.00    -0.267 N 
ATOM      7  H8  UNL     1      17.347  47.642  -8.454  1.00  0.00     0.190 HD
ENDROOT
BRANCH   1   8
HETATM    8  C7  UNL     1      19.926  46.584  -8.922  1.00  0.00     0.113 A 
HETATM    9  C6  UNL     1      21.002  46.075  -9.616  1.00  0.00     0.146 A 
HETATM   10  N3  UNL     1      21.216  44.775  -9.255  1.00  0.00    -0.281 N 
HETATM   11  N10 UNL     1      20.289  44.511  -8.367  1.00  0.00    -0.240 N 
HETATM   12  N9  UNL     1      19.506  45.545  -8.138  1.00  0.00    -0.281 N 
ATOM     13  H10 UNL     1      20.187  43.607  -7.905  1.00  0.00     0.208 HD
ATOM     14  H9  UNL     1      18.720  45.566  -7.488  1.00  0.00     0.188 HD
BRANCH  10  15
HETATM   15  C5  UNL     1      22.292  43.922  -9.797  1.00  0.00     0.215 C 
BRANCH  15  16
HETATM   16  C4  UNL     1      22.306  43.948 -11.245  1.00  0.00     0.083 C 
BRANCH  16  17
HETATM   17  C3  UNL     1      23.392  44.359 -12.085  1.00  0.00     0.114 A 
HETATM   18  C2  UNL     1      24.538  43.630 -12.222  1.00  0.00     0.173 A 
HETATM   19  N2  UNL     1      25.523  44.084 -13.048  1.00  0.00    -0.170 N 
HETATM   20  C1  UNL     1      25.424  45.223 -13.741  1.00  0.00     0.680 A 
ATOM     21  H2  UNL     1      26.374  43.529 -13.142  1.00  0.00     0.186 HD
HETATM   22  N11 UNL     1      24.292  45.938 -13.600  1.00  0.00    -0.155 N 
HETATM   23  C18 UNL     1      23.283  45.562 -12.813  1.00  0.00     0.276 A 
ATOM     24  H11 UNL     1      24.202  46.811 -14.122  1.00  0.00     0.187 HD
HETATM   25  O9  UNL     1      22.245  46.257 -12.710  1.00  0.00    -0.267 OA
BRANCH  18  26
HETATM   26  O1  UNL     1      24.792  42.441 -11.578  1.00  0.00    -0.345 OA
ATOM     27  H1  UNL     1      25.708  42.208 -11.478  1.00  0.00     0.219 HD
ENDBRANCH  18  26
BRANCH  20  28
HETATM   28  N1  UNL     1      26.354  45.656 -14.522  1.00  0.00    -0.234 N 
ATOM     29  H12 UNL     1      27.244  45.159 -14.565  1.00  0.00     0.174 HD
ATOM     30  H11 UNL     1      26.248  46.482 -15.109  1.00  0.00     0.174 HD
ENDBRANCH  20  28
ENDBRANCH  16  17
BRANCH  16  31
HETATM   31  O2  UNL     1      21.222  43.556 -11.865  1.00  0.00    -0.362 OA
ATOM     32  H2  UNL     1      20.996  44.040 -12.651  1.00  0.00     0.217 HD
ENDBRANCH  16  31
ENDBRANCH  15  16
ENDBRANCH  10  15
ENDBRANCH   1   8
BRANCH   5  33
HETATM   33  C9  UNL     1      16.736  50.373  -8.696  1.00  0.00     0.211 C 
BRANCH  33  34
HETATM   34  C10 UNL     1      16.414  51.028  -9.991  1.00  0.00     0.033 A 
HETATM   35  C11 UNL     1      16.384  50.343 -11.185  1.00  0.00     0.112 A 
HETATM   36  C12 UNL     1      16.133  50.994 -12.395  1.00  0.00     0.133 A 
HETATM   37  C13 UNL     1      15.910  52.342 -12.404  1.00  0.00     0.111 A 
HETATM   38  C14 UNL     1      15.932  53.058 -11.226  1.00  0.00     0.019 A 
HETATM   39  C17 UNL     1      16.187  52.388 -10.018  1.00  0.00     0.086 A 
BRANCH  35  40
HETATM   40  O3  UNL     1      16.594  48.980 -11.229  1.00  0.00    -0.357 OA
ATOM     41  H3  UNL     1      16.782  48.540 -12.050  1.00  0.00     0.217 HD
ENDBRANCH  35  40
BRANCH  36  42
HETATM   42  O4  UNL     1      16.110  50.284 -13.575  1.00  0.00    -0.356 OA
ATOM     43  H4  UNL     1      16.821  50.366 -14.199  1.00  0.00     0.218 HD
ENDBRANCH  36  42
BRANCH  37  44
HETATM   44  O5  UNL     1      15.654  53.053 -13.575  1.00  0.00    -0.357 OA
ATOM     45  H5  UNL     1      15.435  53.978 -13.575  1.00  0.00     0.217 HD
ENDBRANCH  37  44
BRANCH  38  46
HETATM   46  C15 UNL     1      15.698  54.528 -11.159  1.00  0.00     0.130 C 
BRANCH  46  47
HETATM   47  C16 UNL     1      14.293  54.897 -11.015  1.00  0.00     0.139 C 
BRANCH  47  48
HETATM   48  O6  UNL     1      13.718  54.990  -9.764  1.00  0.00    -0.348 OA
ATOM     49  H6  UNL     1      13.098  54.334  -9.469  1.00  0.00     0.219 HD
ENDBRANCH  47  48
BRANCH  47  50
HETATM   50  N7  UNL     1      13.573  55.137 -12.046  1.00  0.00    -0.251 N 
ATOM     51  H7  UNL     1      12.561  55.059 -11.943  1.00  0.00     0.196 HD
BRANCH  50  52
HETATM   52  O7  UNL     1      14.056  55.492 -13.277  1.00  0.00    -0.288 OA
ATOM     53  H7  UNL     1      13.696  56.178 -13.827  1.00  0.00     0.244 HD
ENDBRANCH  50  52
ENDBRANCH  47  50
ENDBRANCH  46  47
ENDBRANCH  38  46
BRANCH  39  54
HETATM   54  O8  UNL     1      16.205  53.114  -8.864  1.00  0.00    -0.359 OA
ATOM     55  H8  UNL     1      15.538  52.979  -8.201  1.00  0.00     0.217 HD
ENDBRANCH  39  54
ENDBRANCH  33  34
ENDBRANCH   5  33
TORSDOF 18
ENDMDL
MODEL 3
REMARK VINA RESULT: -9.424685839      3.075      4.352
REMARK  18 active torsions:
REMARK  status: ('A' for Active; 'I' for Inactive)
REMARK    1  A    between atoms: N1_1  and  C1_4 
REMARK    2  A    between atoms: C2_7  and  O1_8 
REMARK    3  A    between atoms: C3_10  and  C4_11 
REMARK    4  A    between atoms: C4_11  and  O2_12 
REMARK    5  A    between atoms: C4_11  and  C5_14 
REMARK    6  A    between atoms: C5_14  and  N3_15 
REMARK    7  A    between atoms: C7_17  and  C8_18 
REMARK    8  A    between atoms: N6_22  and  C9_23 
REMARK    9  A    between atoms: C9_23  and  C10_24 
REMARK   10  A    between atoms: C11_25  and  O3_26 
REMARK   11  A    between atoms: C12_28  and  O4_29 
REMARK   12  A    between atoms: C13_31  and  O5_32 
REMARK   13  A    between atoms: C14_34  and  C15_35 
REMARK   14  A    between atoms: C15_35  and  C16_36 
REMARK   15  A    between atoms: C16_36  and  O6_37 
REMARK   16  A    between atoms: C16_36  and  N7_39 
REMARK   17  A    between atoms: N7_39  and  O7_41 
REMARK   18  A    between atoms: C17_43  and  O8_44 
ROOT
HETATM    1  C8  UNL     1      18.464  47.506  -8.698  1.00  0.00     0.164 A 
HETATM    2  N4  UNL     1      19.016  48.428  -7.897  1.00  0.00    -0.265 N 
ATOM      3  H4  UNL     1      19.933  48.365  -7.454  1.00  0.00     0.186 HD
HETATM    4  N5  UNL     1      18.155  49.443  -7.781  1.00  0.00    -0.002 NA
HETATM    5  N6  UNL     1      17.068  49.175  -8.498  1.00  0.00    -0.212 N 
HETATM    6  N8  UNL     1      17.282  48.000  -9.041  1.00  0.00    -0.267 N 
ATOM      7  H8  UNL     1      16.621  47.524  -9.654  1.00  0.00     0.190 HD
ENDROOT
BRANCH   1   8
HETATM    8  C7  UNL     1      19.074  46.246  -9.077  1.00  0.00     0.113 A 
HETATM    9  C6  UNL     1      19.706  45.901 -10.252  1.00  0.00     0.146 A 
HETATM   10  N3  UNL     1      20.135  44.606 -10.187  1.00  0.00    -0.281 N 
HETATM   11  N10 UNL     1      19.767  44.184  -9.001  1.00  0.00    -0.240 N 
HETATM   12  N9  UNL     1      19.139  45.115  -8.311  1.00  0.00    -0.281 N 
ATOM     13  H10 UNL     1      19.948  43.243  -8.652  1.00  0.00     0.208 HD
ATOM     14  H9  UNL     1      18.766  45.009  -7.368  1.00  0.00     0.188 HD
BRANCH  10  15
HETATM   15  C5  UNL     1      20.857  43.908 -11.268  1.00  0.00     0.215 C 
BRANCH  15  16
HETATM   16  C4  UNL     1      22.289  43.952 -11.061  1.00  0.00     0.083 C 
BRANCH  16  17
HETATM   17  C3  UNL     1      23.276  44.414 -11.991  1.00  0.00     0.114 A 
HETATM   18  C2  UNL     1      23.138  45.573 -12.701  1.00  0.00     0.173 A 
HETATM   19  N2  UNL     1      24.126  45.951 -13.561  1.00  0.00    -0.170 N 
HETATM   20  C1  UNL     1      25.240  45.235 -13.749  1.00  0.00     0.680 A 
ATOM     21  H2  UNL     1      24.011  46.818 -14.084  1.00  0.00     0.186 HD
HETATM   22  N11 UNL     1      25.369  44.093 -13.047  1.00  0.00    -0.155 N 
HETATM   23  C18 UNL     1      24.449  43.656 -12.187  1.00  0.00     0.276 A 
ATOM     24  H11 UNL     1      26.213  43.535 -13.180  1.00  0.00     0.187 HD
HETATM   25  O9  UNL     1      24.608  42.587 -11.552  1.00  0.00    -0.267 OA
BRANCH  18  26
HETATM   26  O1  UNL     1      22.054  46.417 -12.621  1.00  0.00    -0.345 OA
ATOM     27  H1  UNL     1      21.217  46.003 -12.445  1.00  0.00     0.219 HD
ENDBRANCH  18  26
BRANCH  20  28
HETATM   28  N1  UNL     1      26.176  45.588 -14.562  1.00  0.00    -0.234 N 
ATOM     29  H12 UNL     1      26.069  46.443 -15.108  1.00  0.00     0.174 HD
ATOM     30  H11 UNL     1      27.033  45.051 -14.692  1.00  0.00     0.174 HD
ENDBRANCH  20  28
ENDBRANCH  16  17
BRANCH  16  31
HETATM   31  O2  UNL     1      22.744  43.530  -9.908  1.00  0.00    -0.362 OA
ATOM     32  H2  UNL     1      22.922  42.599  -9.849  1.00  0.00     0.217 HD
ENDBRANCH  16  31
ENDBRANCH  15  16
ENDBRANCH  10  15
ENDBRANCH   1   8
BRANCH   5  33
HETATM   33  C9  UNL     1      15.907  50.031  -8.609  1.00  0.00     0.211 C 
BRANCH  33  34
HETATM   34  C10 UNL     1      16.022  50.796  -9.878  1.00  0.00     0.033 A 
HETATM   35  C11 UNL     1      15.843  50.219 -11.114  1.00  0.00     0.112 A 
HETATM   36  C12 UNL     1      16.012  50.948 -12.294  1.00  0.00     0.133 A 
HETATM   37  C13 UNL     1      16.363  52.268 -12.228  1.00  0.00     0.111 A 
HETATM   38  C14 UNL     1      16.550  52.877 -11.006  1.00  0.00     0.019 A 
HETATM   39  C17 UNL     1      16.376  52.129  -9.830  1.00  0.00     0.086 A 
BRANCH  35  40
HETATM   40  O3  UNL     1      15.480  48.893 -11.235  1.00  0.00    -0.357 OA
ATOM     41  H3  UNL     1      14.602  48.603 -11.014  1.00  0.00     0.217 HD
ENDBRANCH  35  40
BRANCH  36  42
HETATM   42  O4  UNL     1      15.828  50.345 -13.517  1.00  0.00    -0.356 OA
ATOM     43  H4  UNL     1      15.391  50.810 -14.221  1.00  0.00     0.218 HD
ENDBRANCH  36  42
BRANCH  37  44
HETATM   44  O5  UNL     1      16.548  53.052 -13.364  1.00  0.00    -0.357 OA
ATOM     45  H5  UNL     1      17.265  53.672 -13.447  1.00  0.00     0.217 HD
ENDBRANCH  37  44
BRANCH  38  46
HETATM   46  C15 UNL     1      16.932  54.309 -10.856  1.00  0.00     0.130 C 
BRANCH  46  47
HETATM   47  C16 UNL     1      18.333  54.583 -11.164  1.00  0.00     0.139 C 
BRANCH  47  48
HETATM   48  O6  UNL     1      18.901  54.098 -12.325  1.00  0.00    -0.348 OA
ATOM     49  H6  UNL     1      19.845  54.033 -12.408  1.00  0.00     0.219 HD
ENDBRANCH  47  48
BRANCH  47  50
HETATM   50  N7  UNL     1      19.056  55.272 -10.363  1.00  0.00    -0.251 N 
ATOM     51  H7  UNL     1      18.856  56.270 -10.288  1.00  0.00     0.196 HD
BRANCH  50  52
HETATM   52  O7  UNL     1      20.076  54.773  -9.599  1.00  0.00    -0.288 OA
ATOM     53  H7  UNL     1      20.990  55.021  -9.680  1.00  0.00     0.244 HD
ENDBRANCH  50  52
ENDBRANCH  47  50
ENDBRANCH  46  47
ENDBRANCH  38  46
BRANCH  39  54
HETATM   54  O8  UNL     1      16.565  52.749  -8.631  1.00  0.00    -0.359 OA
ATOM     55  H8  UNL     1      17.334  53.288  -8.484  1.00  0.00     0.217 HD
ENDBRANCH  39  54
ENDBRANCH  33  34
ENDBRANCH   5  33
TORSDOF 18
ENDMDL
MODEL 4
REMARK VINA RESULT: -9.213095286      3.070      4.543
REMARK  18 active torsions:
REMARK  status: ('A' for Active; 'I' for Inactive)
REMARK    1  A    between atoms: N1_1  and  C1_4 
REMARK    2  A    between atoms: C2_7  and  O1_8 
REMARK    3  A    between atoms: C3_10  and  C4_11 
REMARK    4  A    between atoms: C4_11  and  O2_12 
REMARK    5  A    between atoms: C4_11  and  C5_14 
REMARK    6  A    between atoms: C5_14  and  N3_15 
REMARK    7  A    between atoms: C7_17  and  C8_18 
REMARK    8  A    between atoms: N6_22  and  C9_23 
REMARK    9  A    between atoms: C9_23  and  C10_24 
REMARK   10  A    between atoms: C11_25  and  O3_26 
REMARK   11  A    between atoms: C12_28  and  O4_29 
REMARK   12  A    between atoms: C13_31  and  O5_32 
REMARK   13  A    between atoms: C14_34  and  C15_35 
REMARK   14  A    between atoms: C15_35  and  C16_36 
REMARK   15  A    between atoms: C16_36  and  O6_37 
REMARK   16  A    between atoms: C16_36  and  N7_39 
REMARK   17  A    between atoms: N7_39  and  O7_41 
REMARK   18  A    between atoms: C17_43  and  O8_44 
ROOT
HETATM    1  C8  UNL     1      18.471  47.521  -8.708  1.00  0.00     0.164 A 
HETATM    2  N4  UNL     1      19.015  48.431  -7.888  1.00  0.00    -0.265 N 
ATOM      3  H4  UNL     1      19.929  48.363  -7.439  1.00  0.00     0.186 HD
HETATM    4  N5  UNL     1      18.150  49.442  -7.761  1.00  0.00    -0.002 NA
HETATM    5  N6  UNL     1      17.068  49.183  -8.489  1.00  0.00    -0.212 N 
HETATM    6  N8  UNL     1      17.291  48.017  -9.052  1.00  0.00    -0.267 N 
ATOM      7  H8  UNL     1      16.635  47.550  -9.677  1.00  0.00     0.190 HD
ENDROOT
BRANCH   1   8
HETATM    8  C7  UNL     1      19.088  46.269  -9.104  1.00  0.00     0.113 A 
HETATM    9  C6  UNL     1      19.729  45.947 -10.281  1.00  0.00     0.146 A 
HETATM   10  N3  UNL     1      20.161  44.652 -10.235  1.00  0.00    -0.281 N 
HETATM   11  N10 UNL     1      19.787  44.209  -9.060  1.00  0.00    -0.240 N 
HETATM   12  N9  UNL     1      19.151  45.125  -8.358  1.00  0.00    -0.281 N 
ATOM     13  H10 UNL     1      19.967  43.262  -8.726  1.00  0.00     0.208 HD
ATOM     14  H9  UNL     1      18.772  45.002  -7.420  1.00  0.00     0.188 HD
BRANCH  10  15
HETATM   15  C5  UNL     1      20.893  43.975 -11.323  1.00  0.00     0.215 C 
BRANCH  15  16
HETATM   16  C4  UNL     1      22.319  43.954 -11.067  1.00  0.00     0.083 C 
BRANCH  16  17
HETATM   17  C3  UNL     1      23.357  44.358 -11.968  1.00  0.00     0.114 A 
HETATM   18  C2  UNL     1      24.481  43.611 -12.183  1.00  0.00     0.173 A 
HETATM   19  N2  UNL     1      25.420  44.059 -13.064  1.00  0.00    -0.170 N 
HETATM   20  C1  UNL     1      25.298  45.208 -13.737  1.00  0.00     0.680 A 
ATOM     21  H2  UNL     1      26.255  43.492 -13.216  1.00  0.00     0.186 HD
HETATM   22  N11 UNL     1      24.188  45.938 -13.520  1.00  0.00    -0.155 N 
HETATM   23  C18 UNL     1      23.224  45.569 -12.676  1.00  0.00     0.276 A 
ATOM     24  H11 UNL     1      24.080  46.818 -14.026  1.00  0.00     0.187 HD
HETATM   25  O9  UNL     1      22.205  46.279 -12.503  1.00  0.00    -0.267 OA
BRANCH  18  26
HETATM   26  O1  UNL     1      24.755  42.412 -11.567  1.00  0.00    -0.345 OA
ATOM     27  H1  UNL     1      25.671  42.163 -11.527  1.00  0.00     0.219 HD
ENDBRANCH  18  26
BRANCH  20  28
HETATM   28  N1  UNL     1      26.185  45.634 -14.570  1.00  0.00    -0.234 N 
ATOM     29  H12 UNL     1      25.955  46.404 -15.197  1.00  0.00     0.174 HD
ATOM     30  H11 UNL     1      27.121  45.236 -14.638  1.00  0.00     0.174 HD
ENDBRANCH  20  28
ENDBRANCH  16  17
BRANCH  16  31
HETATM   31  O2  UNL     1      22.713  43.524  -9.896  1.00  0.00    -0.362 OA
ATOM     32  H2  UNL     1      22.901  42.595  -9.837  1.00  0.00     0.217 HD
ENDBRANCH  16  31
ENDBRANCH  15  16
ENDBRANCH  10  15
ENDBRANCH   1   8
BRANCH   5  33
HETATM   33  C9  UNL     1      15.906  50.037  -8.594  1.00  0.00     0.211 C 
BRANCH  33  34
HETATM   34  C10 UNL     1      16.013  50.803  -9.863  1.00  0.00     0.033 A 
HETATM   35  C11 UNL     1      15.829  50.227 -11.099  1.00  0.00     0.112 A 
HETATM   36  C12 UNL     1      15.992  50.957 -12.279  1.00  0.00     0.133 A 
HETATM   37  C13 UNL     1      16.340  52.277 -12.214  1.00  0.00     0.111 A 
HETATM   38  C14 UNL     1      16.532  52.886 -10.992  1.00  0.00     0.019 A 
HETATM   39  C17 UNL     1      16.365  52.136  -9.816  1.00  0.00     0.086 A 
BRANCH  35  40
HETATM   40  O3  UNL     1      15.468  48.900 -11.219  1.00  0.00    -0.357 OA
ATOM     41  H3  UNL     1      14.558  48.633 -11.161  1.00  0.00     0.217 HD
ENDBRANCH  35  40
BRANCH  36  42
HETATM   42  O4  UNL     1      15.802  50.354 -13.502  1.00  0.00    -0.356 OA
ATOM     43  H4  UNL     1      16.547  50.124 -14.045  1.00  0.00     0.218 HD
ENDBRANCH  36  42
BRANCH  37  44
HETATM   44  O5  UNL     1      16.518  53.062 -13.351  1.00  0.00    -0.357 OA
ATOM     45  H5  UNL     1      16.492  54.012 -13.325  1.00  0.00     0.217 HD
ENDBRANCH  37  44
BRANCH  38  46
HETATM   46  C15 UNL     1      16.912  54.318 -10.844  1.00  0.00     0.130 C 
BRANCH  46  47
HETATM   47  C16 UNL     1      18.313  54.593 -11.151  1.00  0.00     0.139 C 
BRANCH  47  48
HETATM   48  O6  UNL     1      18.877  54.127 -12.321  1.00  0.00    -0.348 OA
ATOM     49  H6  UNL     1      19.569  53.476 -12.295  1.00  0.00     0.219 HD
ENDBRANCH  47  48
BRANCH  47  50
HETATM   50  N7  UNL     1      19.039  55.268 -10.340  1.00  0.00    -0.251 N 
ATOM     51  H7  UNL     1      18.818  56.257 -10.221  1.00  0.00     0.196 HD
BRANCH  50  52
HETATM   52  O7  UNL     1      20.090  54.765  -9.622  1.00  0.00    -0.288 OA
ATOM     53  H7  UNL     1      20.279  53.840  -9.507  1.00  0.00     0.244 HD
ENDBRANCH  50  52
ENDBRANCH  47  50
ENDBRANCH  46  47
ENDBRANCH  38  46
BRANCH  39  54
HETATM   54  O8  UNL     1      16.559  52.757  -8.617  1.00  0.00    -0.359 OA
ATOM     55  H8  UNL     1      16.418  53.692  -8.532  1.00  0.00     0.217 HD
ENDBRANCH  39  54
ENDBRANCH  33  34
ENDBRANCH   5  33
TORSDOF 18
ENDMDL
MODEL 5
REMARK VINA RESULT: -9.138599775      1.326      2.885
REMARK  18 active torsions:
REMARK  status: ('A' for Active; 'I' for Inactive)
REMARK    1  A    between atoms: N1_1  and  C1_4 
REMARK    2  A    between atoms: C2_7  and  O1_8 
REMARK    3  A    between atoms: C3_10  and  C4_11 
REMARK    4  A    between atoms: C4_11  and  O2_12 
REMARK    5  A    between atoms: C4_11  and  C5_14 
REMARK    6  A    between atoms: C5_14  and  N3_15 
REMARK    7  A    between atoms: C7_17  and  C8_18 
REMARK    8  A    between atoms: N6_22  and  C9_23 
REMARK    9  A    between atoms: C9_23  and  C10_24 
REMARK   10  A    between atoms: C11_25  and  O3_26 
REMARK   11  A    between atoms: C12_28  and  O4_29 
REMARK   12  A    between atoms: C13_31  and  O5_32 
REMARK   13  A    between atoms: C14_34  and  C15_35 
REMARK   14  A    between atoms: C15_35  and  C16_36 
REMARK   15  A    between atoms: C16_36  and  O6_37 
REMARK   16  A    between atoms: C16_36  and  N7_39 
REMARK   17  A    between atoms: N7_39  and  O7_41 
REMARK   18  A    between atoms: C17_43  and  O8_44 
ROOT
HETATM    1  C8  UNL     1      18.038  47.739  -9.729  1.00  0.00     0.164 A 
HETATM    2  N4  UNL     1      18.214  48.828 -10.490  1.00  0.00    -0.265 N 
ATOM      3  H4  UNL     1      18.917  48.942 -11.220  1.00  0.00     0.186 HD
HETATM    4  N5  UNL     1      17.307  49.739 -10.122  1.00  0.00    -0.002 NA
HETATM    5  N6  UNL     1      16.561  49.239  -9.142  1.00  0.00    -0.212 N 
HETATM    6  N8  UNL     1      17.024  48.030  -8.926  1.00  0.00    -0.267 N 
ATOM      7  H8  UNL     1      16.649  47.391  -8.225  1.00  0.00     0.190 HD
ENDROOT
BRANCH   1   8
HETATM    8  C7  UNL     1      18.823  46.521  -9.808  1.00  0.00     0.113 A 
HETATM    9  C6  UNL     1      19.437  45.949 -10.901  1.00  0.00     0.146 A 
HETATM   10  N3  UNL     1      20.073  44.799 -10.528  1.00  0.00    -0.281 N 
HETATM   11  N10 UNL     1      19.844  44.685  -9.242  1.00  0.00    -0.240 N 
HETATM   12  N9  UNL     1      19.112  45.675  -8.774  1.00  0.00    -0.281 N 
ATOM     13  H10 UNL     1      20.194  43.917  -8.669  1.00  0.00     0.208 HD
ATOM     14  H9  UNL     1      18.813  45.791  -7.806  1.00  0.00     0.188 HD
BRANCH  10  15
HETATM   15  C5  UNL     1      20.839  43.931 -11.443  1.00  0.00     0.215 C 
BRANCH  15  16
HETATM   16  C4  UNL     1      22.256  43.968 -11.143  1.00  0.00     0.083 C 
BRANCH  16  17
HETATM   17  C3  UNL     1      23.306  44.390 -12.021  1.00  0.00     0.114 A 
HETATM   18  C2  UNL     1      23.239  45.540 -12.756  1.00  0.00     0.173 A 
HETATM   19  N2  UNL     1      24.285  45.878 -13.562  1.00  0.00    -0.170 N 
HETATM   20  C1  UNL     1      25.390  45.132 -13.674  1.00  0.00     0.680 A 
ATOM     21  H2  UNL     1      24.223  46.739 -14.105  1.00  0.00     0.186 HD
HETATM   22  N11 UNL     1      25.449  44.000 -12.948  1.00  0.00    -0.155 N 
HETATM   23  C18 UNL     1      24.469  43.600 -12.136  1.00  0.00     0.276 A 
ATOM     24  H11 UNL     1      26.284  43.419 -13.022  1.00  0.00     0.187 HD
HETATM   25  O9  UNL     1      24.564  42.538 -11.477  1.00  0.00    -0.267 OA
BRANCH  18  26
HETATM   26  O1  UNL     1      22.174  46.410 -12.753  1.00  0.00    -0.345 OA
ATOM     27  H1  UNL     1      21.434  46.165 -13.295  1.00  0.00     0.219 HD
ENDBRANCH  18  26
BRANCH  20  28
HETATM   28  N1  UNL     1      26.380  45.449 -14.436  1.00  0.00    -0.234 N 
ATOM     29  H12 UNL     1      26.217  46.042 -15.249  1.00  0.00     0.174 HD
ATOM     30  H11 UNL     1      27.335  45.134 -14.268  1.00  0.00     0.174 HD
ENDBRANCH  20  28
ENDBRANCH  16  17
BRANCH  16  31
HETATM   31  O2  UNL     1      22.629  43.579  -9.951  1.00  0.00    -0.362 OA
ATOM     32  H2  UNL     1      22.970  44.258  -9.381  1.00  0.00     0.217 HD
ENDBRANCH  16  31
ENDBRANCH  15  16
ENDBRANCH  10  15
ENDBRANCH   1   8
BRANCH   5  33
HETATM   33  C9  UNL     1      15.483  49.934  -8.474  1.00  0.00     0.211 C 
BRANCH  33  34
HETATM   34  C10 UNL     1      16.041  50.588  -7.262  1.00  0.00     0.033 A 
HETATM   35  C11 UNL     1      16.621  51.836  -7.289  1.00  0.00     0.112 A 
HETATM   36  C12 UNL     1      17.189  52.404  -6.147  1.00  0.00     0.133 A 
HETATM   37  C13 UNL     1      17.171  51.713  -4.968  1.00  0.00     0.111 A 
HETATM   38  C14 UNL     1      16.597  50.461  -4.905  1.00  0.00     0.019 A 
HETATM   39  C17 UNL     1      16.032  49.904  -6.064  1.00  0.00     0.086 A 
BRANCH  35  40
HETATM   40  O3  UNL     1      16.657  52.579  -8.452  1.00  0.00    -0.357 OA
ATOM     41  H3  UNL     1      17.280  53.288  -8.561  1.00  0.00     0.217 HD
ENDBRANCH  35  40
BRANCH  36  42
HETATM   42  O4  UNL     1      17.764  53.654  -6.203  1.00  0.00    -0.356 OA
ATOM     43  H4  UNL     1      18.709  53.747  -6.232  1.00  0.00     0.218 HD
ENDBRANCH  36  42
BRANCH  37  44
HETATM   44  O5  UNL     1      17.719  52.220  -3.792  1.00  0.00    -0.357 OA
ATOM     45  H5  UNL     1      18.375  51.751  -3.288  1.00  0.00     0.217 HD
ENDBRANCH  37  44
BRANCH  38  46
HETATM   46  C15 UNL     1      16.541  49.649  -3.657  1.00  0.00     0.130 C 
BRANCH  46  47
HETATM   47  C16 UNL     1      17.495  48.544  -3.626  1.00  0.00     0.139 C 
BRANCH  47  48
HETATM   48  O6  UNL     1      18.853  48.792  -3.632  1.00  0.00    -0.348 OA
ATOM     49  H6  UNL     1      19.447  48.229  -3.150  1.00  0.00     0.219 HD
ENDBRANCH  47  48
BRANCH  47  50
HETATM   50  N7  UNL     1      17.088  47.330  -3.597  1.00  0.00    -0.251 N 
ATOM     51  H7  UNL     1      17.790  46.601  -3.478  1.00  0.00     0.196 HD
BRANCH  50  52
HETATM   52  O7  UNL     1      15.782  46.937  -3.713  1.00  0.00    -0.288 OA
ATOM     53  H7  UNL     1      15.383  46.598  -4.506  1.00  0.00     0.244 HD
ENDBRANCH  50  52
ENDBRANCH  47  50
ENDBRANCH  46  47
ENDBRANCH  38  46
BRANCH  39  54
HETATM   54  O8  UNL     1      15.469  48.665  -5.981  1.00  0.00    -0.359 OA
ATOM     55  H8  UNL     1      15.464  48.193  -5.157  1.00  0.00     0.217 HD
ENDBRANCH  39  54
ENDBRANCH  33  34
ENDBRANCH   5  33
TORSDOF 18
ENDMDL
