MODEL 1
REMARK VINA RESULT: -6.815756783      0.000      0.000
REMARK  8 active torsions:
REMARK  status: ('A' for Active; 'I' for Inactive)
REMARK    1  A    between atoms: C2_2  and  N1_3 
REMARK    2  A    between atoms: N2_6  and  C4_7 
REMARK    3  A    between atoms: C8_13  and  N4_14 
REMARK    4  A    between atoms: N4_14  and  C9_16 
REMARK    5  A    between atoms: C9_16  and  C10_17 
REMARK    6  A    between atoms: C10_17  and  N5_18 
REMARK    7  A    between atoms: C13_23  and  C14_24 
REMARK    8  A    between atoms: C15_25  and  C16_26 
ROOT
HETATM    1  N1  UNL     1      24.255   4.771  12.278  1.00  0.00    -0.294 N 
HETATM    2  C3  UNL     1      23.700   3.714  11.604  1.00  0.00     0.331 A 
HETATM    3  O1  UNL     1      22.737   2.991  11.991  1.00  0.00    -0.246 OA
HETATM    4  N2  UNL     1      24.327   3.531  10.434  1.00  0.00    -0.279 N 
HETATM    5  C7  UNL     1      25.290   4.462  10.339  1.00  0.00     0.157 A 
HETATM    6  N3  UNL     1      26.176   4.687   9.366  1.00  0.00    -0.174 N 
ATOM      7  H3  UNL     1      26.185   4.101   8.531  1.00  0.00     0.186 HD
HETATM    8  C8  UNL     1      27.053   5.690   9.500  1.00  0.00     0.680 A 
HETATM    9  N6  UNL     1      27.014   6.440  10.609  1.00  0.00    -0.181 N 
ATOM     10  H6  UNL     1      27.687   7.202  10.700  1.00  0.00     0.185 HD
HETATM   11  C13 UNL     1      26.121   6.239  11.626  1.00  0.00     0.133 A 
HETATM   12  C17 UNL     1      25.241   5.229  11.486  1.00  0.00     0.120 A 
ENDROOT
BRANCH   8  13
HETATM   13  N4  UNL     1      27.904   5.897   8.554  1.00  0.00    -0.224 N 
ATOM     14  H4  UNL     1      28.234   5.119   7.983  1.00  0.00     0.177 HD
BRANCH  13  15
HETATM   15  C9  UNL     1      28.387   7.236   8.307  1.00  0.00     0.168 C 
BRANCH  15  16
HETATM   16  C10 UNL     1      29.889   7.329   8.467  1.00  0.00     0.291 C 
BRANCH  16  17
HETATM   17  N5  UNL     1      30.164   8.414   9.385  1.00  0.00     0.081 N 
HETATM   18  C11 UNL     1      29.114   9.407   9.376  1.00  0.00     0.309 C 
HETATM   19  C12 UNL     1      30.392   7.879  10.701  1.00  0.00     0.309 C 
ENDBRANCH  16  17
ENDBRANCH  15  16
ENDBRANCH  13  15
ENDBRANCH   8  13
BRANCH  11  20
HETATM   20  C14 UNL     1      26.149   7.084  12.784  1.00  0.00    -0.043 C 
HETATM   21  C15 UNL     1      26.159   7.841  13.751  1.00  0.00    -0.068 C 
BRANCH  21  22
HETATM   22  C16 UNL     1      26.149   8.747  14.886  1.00  0.00     0.316 C 
HETATM   23  F1  UNL     1      24.881   8.921  15.401  1.00  0.00    -0.242 F 
ENDBRANCH  21  22
ENDBRANCH  11  20
BRANCH   4  24
HETATM   24  C4  UNL     1      24.039   2.518   9.434  1.00  0.00     0.088 C 
HETATM   25  C5  UNL     1      24.319   3.047   8.049  1.00  0.00     0.032 C 
HETATM   26  C6  UNL     1      24.947   1.330   9.758  1.00  0.00     0.032 C 
ENDBRANCH   4  24
BRANCH   1  27
HETATM   27  C2  UNL     1      23.790   5.200  13.554  1.00  0.00     0.130 C 
HETATM   28  C1  UNL     1      24.633   4.548  14.636  1.00  0.00     0.027 C 
ENDBRANCH   1  27
TORSDOF 8
ENDMDL
MODEL 2
REMARK VINA RESULT: -6.796922721      2.664      4.776
REMARK  8 active torsions:
REMARK  status: ('A' for Active; 'I' for Inactive)
REMARK    1  A    between atoms: C2_2  and  N1_3 
REMARK    2  A    between atoms: N2_6  and  C4_7 
REMARK    3  A    between atoms: C8_13  and  N4_14 
REMARK    4  A    between atoms: N4_14  and  C9_16 
REMARK    5  A    between atoms: C9_16  and  C10_17 
REMARK    6  A    between atoms: C10_17  and  N5_18 
REMARK    7  A    between atoms: C13_23  and  C14_24 
REMARK    8  A    between atoms: C15_25  and  C16_26 
ROOT
HETATM    1  N1  UNL     1      24.747   4.499  11.889  1.00  0.00    -0.294 N 
HETATM    2  C3  UNL     1      24.233   4.638  13.152  1.00  0.00     0.331 A 
HETATM    3  O1  UNL     1      23.295   3.963  13.666  1.00  0.00    -0.246 OA
HETATM    4  N2  UNL     1      24.872   5.618  13.806  1.00  0.00    -0.279 N 
HETATM    5  C7  UNL     1      25.800   6.121  12.978  1.00  0.00     0.157 A 
HETATM    6  N3  UNL     1      26.681   7.106  13.170  1.00  0.00    -0.174 N 
ATOM      7  H3  UNL     1      26.715   7.602  14.061  1.00  0.00     0.186 HD
HETATM    8  C8  UNL     1      27.520   7.436  12.179  1.00  0.00     0.680 A 
HETATM    9  N6  UNL     1      27.449   6.765  11.021  1.00  0.00    -0.181 N 
ATOM     10  H6  UNL     1      28.093   7.024  10.273  1.00  0.00     0.185 HD
HETATM   11  C13 UNL     1      26.560   5.751  10.789  1.00  0.00     0.133 A 
HETATM   12  C17 UNL     1      25.719   5.423  11.789  1.00  0.00     0.120 A 
ENDROOT
BRANCH   8  13
HETATM   13  N4  UNL     1      28.365   8.388  12.376  1.00  0.00    -0.224 N 
ATOM     14  H4  UNL     1      28.190   9.087  13.098  1.00  0.00     0.177 HD
BRANCH  13  15
HETATM   15  C9  UNL     1      29.563   8.461  11.570  1.00  0.00     0.168 C 
BRANCH  15  16
HETATM   16  C10 UNL     1      29.798   9.858  11.040  1.00  0.00     0.291 C 
BRANCH  16  17
HETATM   17  N5  UNL     1      29.530   9.837   9.618  1.00  0.00     0.081 N 
HETATM   18  C11 UNL     1      29.787   8.538   9.040  1.00  0.00     0.309 C 
HETATM   19  C12 UNL     1      28.181  10.278   9.381  1.00  0.00     0.309 C 
ENDBRANCH  16  17
ENDBRANCH  15  16
ENDBRANCH  13  15
ENDBRANCH   8  13
BRANCH  11  20
HETATM   20  C14 UNL     1      26.545   5.086   9.518  1.00  0.00    -0.043 C 
HETATM   21  C15 UNL     1      26.516   4.481   8.451  1.00  0.00    -0.068 C 
BRANCH  21  22
HETATM   22  C16 UNL     1      26.460   3.753   7.194  1.00  0.00     0.316 C 
HETATM   23  F1  UNL     1      25.244   3.126   7.012  1.00  0.00    -0.242 F 
ENDBRANCH  21  22
ENDBRANCH  11  20
BRANCH   4  24
HETATM   24  C4  UNL     1      24.624   6.073  15.163  1.00  0.00     0.088 C 
HETATM   25  C5  UNL     1      23.202   6.557  15.306  1.00  0.00     0.032 C 
HETATM   26  C6  UNL     1      24.885   4.870  16.070  1.00  0.00     0.032 C 
ENDBRANCH   4  24
BRANCH   1  27
HETATM   27  C2  UNL     1      24.263   3.532  10.963  1.00  0.00     0.130 C 
HETATM   28  C1  UNL     1      23.166   4.155  10.119  1.00  0.00     0.027 C 
ENDBRANCH   1  27
TORSDOF 8
ENDMDL
MODEL 3
REMARK VINA RESULT: -6.750001953      2.901      4.997
REMARK  8 active torsions:
REMARK  status: ('A' for Active; 'I' for Inactive)
REMARK    1  A    between atoms: C2_2  and  N1_3 
REMARK    2  A    between atoms: N2_6  and  C4_7 
REMARK    3  A    between atoms: C8_13  and  N4_14 
REMARK    4  A    between atoms: N4_14  and  C9_16 
REMARK    5  A    between atoms: C9_16  and  C10_17 
REMARK    6  A    between atoms: C10_17  and  N5_18 
REMARK    7  A    between atoms: C13_23  and  C14_24 
REMARK    8  A    between atoms: C15_25  and  C16_26 
ROOT
HETATM    1  N1  UNL     1      24.791   4.498  11.838  1.00  0.00    -0.294 N 
HETATM    2  C3  UNL     1      24.288   4.658  13.104  1.00  0.00     0.331 A 
HETATM    3  O1  UNL     1      23.340   4.005  13.629  1.00  0.00    -0.246 OA
HETATM    4  N2  UNL     1      24.951   5.629  13.746  1.00  0.00    -0.279 N 
HETATM    5  C7  UNL     1      25.883   6.108  12.908  1.00  0.00     0.157 A 
HETATM    6  N3  UNL     1      26.785   7.076  13.086  1.00  0.00    -0.174 N 
ATOM      7  H3  UNL     1      26.835   7.578  13.973  1.00  0.00     0.186 HD
HETATM    8  C8  UNL     1      27.623   7.382  12.087  1.00  0.00     0.680 A 
HETATM    9  N6  UNL     1      27.532   6.704  10.936  1.00  0.00    -0.181 N 
ATOM     10  H6  UNL     1      28.175   6.944  10.181  1.00  0.00     0.185 HD
HETATM   11  C13 UNL     1      26.621   5.706  10.717  1.00  0.00     0.133 A 
HETATM   12  C17 UNL     1      25.781   5.402  11.725  1.00  0.00     0.120 A 
ENDROOT
BRANCH   8  13
HETATM   13  N4  UNL     1      28.489   8.318  12.272  1.00  0.00    -0.224 N 
ATOM     14  H4  UNL     1      29.116   8.286  13.075  1.00  0.00     0.177 HD
BRANCH  13  15
HETATM   15  C9  UNL     1      28.565   9.416  11.335  1.00  0.00     0.168 C 
BRANCH  15  16
HETATM   16  C10 UNL     1      27.731  10.596  11.784  1.00  0.00     0.291 C 
BRANCH  16  17
HETATM   17  N5  UNL     1      26.638  10.741  10.846  1.00  0.00     0.081 N 
HETATM   18  C11 UNL     1      26.941  10.138   9.568  1.00  0.00     0.309 C 
HETATM   19  C12 UNL     1      25.437  10.201  11.428  1.00  0.00     0.309 C 
ENDBRANCH  16  17
ENDBRANCH  15  16
ENDBRANCH  13  15
ENDBRANCH   8  13
BRANCH  11  20
HETATM   20  C14 UNL     1      26.584   5.032   9.452  1.00  0.00    -0.043 C 
HETATM   21  C15 UNL     1      26.524   4.425   8.386  1.00  0.00    -0.068 C 
BRANCH  21  22
HETATM   22  C16 UNL     1      26.427   3.704   7.128  1.00  0.00     0.316 C 
HETATM   23  F1  UNL     1      25.201   3.090   6.975  1.00  0.00    -0.242 F 
ENDBRANCH  21  22
ENDBRANCH  11  20
BRANCH   4  24
HETATM   24  C4  UNL     1      24.720   6.100  15.101  1.00  0.00     0.088 C 
HETATM   25  C5  UNL     1      23.307   6.606  15.251  1.00  0.00     0.032 C 
HETATM   26  C6  UNL     1      24.972   4.901  16.016  1.00  0.00     0.032 C 
ENDBRANCH   4  24
BRANCH   1  27
HETATM   27  C2  UNL     1      24.282   3.534  10.923  1.00  0.00     0.130 C 
HETATM   28  C1  UNL     1      23.200   4.176  10.073  1.00  0.00     0.027 C 
ENDBRANCH   1  27
TORSDOF 8
ENDMDL
MODEL 4
REMARK VINA RESULT: -6.726473597      2.737      5.100
REMARK  8 active torsions:
REMARK  status: ('A' for Active; 'I' for Inactive)
REMARK    1  A    between atoms: C2_2  and  N1_3 
REMARK    2  A    between atoms: N2_6  and  C4_7 
REMARK    3  A    between atoms: C8_13  and  N4_14 
REMARK    4  A    between atoms: N4_14  and  C9_16 
REMARK    5  A    between atoms: C9_16  and  C10_17 
REMARK    6  A    between atoms: C10_17  and  N5_18 
REMARK    7  A    between atoms: C13_23  and  C14_24 
REMARK    8  A    between atoms: C15_25  and  C16_26 
ROOT
HETATM    1  N1  UNL     1      24.646   8.082  14.115  1.00  0.00    -0.294 N 
HETATM    2  C3  UNL     1      24.330   7.069  14.983  1.00  0.00     0.331 A 
HETATM    3  O1  UNL     1      23.753   7.185  16.103  1.00  0.00    -0.246 OA
HETATM    4  N2  UNL     1      24.722   5.890  14.481  1.00  0.00    -0.279 N 
HETATM    5  C7  UNL     1      25.294   6.126  13.290  1.00  0.00     0.157 A 
HETATM    6  N3  UNL     1      25.836   5.277  12.413  1.00  0.00    -0.174 N 
ATOM      7  H3  UNL     1      25.857   4.276  12.609  1.00  0.00     0.186 HD
HETATM    8  C8  UNL     1      26.354   5.755  11.274  1.00  0.00     0.680 A 
HETATM    9  N6  UNL     1      26.311   7.075  11.048  1.00  0.00    -0.181 N 
ATOM     10  H6  UNL     1      26.707   7.429  10.177  1.00  0.00     0.185 HD
HETATM   11  C13 UNL     1      25.763   7.974  11.923  1.00  0.00     0.133 A 
HETATM   12  C17 UNL     1      25.244   7.487  13.067  1.00  0.00     0.120 A 
ENDROOT
BRANCH   8  13
HETATM   13  N4  UNL     1      26.874   4.926  10.437  1.00  0.00    -0.224 N 
ATOM     14  H4  UNL     1      27.664   4.344  10.715  1.00  0.00     0.177 HD
BRANCH  13  15
HETATM   15  C9  UNL     1      26.334   4.825   9.100  1.00  0.00     0.168 C 
BRANCH  15  16
HETATM   16  C10 UNL     1      25.930   3.407   8.763  1.00  0.00     0.291 C 
BRANCH  16  17
HETATM   17  N5  UNL     1      24.925   2.999   9.722  1.00  0.00     0.081 N 
HETATM   18  C11 UNL     1      23.703   3.755   9.576  1.00  0.00     0.309 C 
HETATM   19  C12 UNL     1      24.703   1.582   9.606  1.00  0.00     0.309 C 
ENDBRANCH  16  17
ENDBRANCH  15  16
ENDBRANCH  13  15
ENDBRANCH   8  13
BRANCH  11  20
HETATM   20  C14 UNL     1      25.763   9.373  11.608  1.00  0.00    -0.043 C 
HETATM   21  C15 UNL     1      25.807  10.570  11.336  1.00  0.00    -0.068 C 
BRANCH  21  22
HETATM   22  C16 UNL     1      25.877  11.981  10.997  1.00  0.00     0.316 C 
HETATM   23  F1  UNL     1      24.774  12.678  11.444  1.00  0.00    -0.242 F 
ENDBRANCH  21  22
ENDBRANCH  11  20
BRANCH   4  24
HETATM   24  C4  UNL     1      24.570   4.582  15.094  1.00  0.00     0.088 C 
HETATM   25  C5  UNL     1      25.372   4.500  16.369  1.00  0.00     0.032 C 
HETATM   26  C6  UNL     1      23.077   4.416  15.377  1.00  0.00     0.032 C 
ENDBRANCH   4  24
BRANCH   1  27
HETATM   27  C2  UNL     1      24.348   9.448  14.383  1.00  0.00     0.130 C 
HETATM   28  C1  UNL     1      25.479  10.055  15.195  1.00  0.00     0.027 C 
ENDBRANCH   1  27
TORSDOF 8
ENDMDL
MODEL 5
REMARK VINA RESULT: -6.691719209      2.961      5.017
REMARK  8 active torsions:
REMARK  status: ('A' for Active; 'I' for Inactive)
REMARK    1  A    between atoms: C2_2  and  N1_3 
REMARK    2  A    between atoms: N2_6  and  C4_7 
REMARK    3  A    between atoms: C8_13  and  N4_14 
REMARK    4  A    between atoms: N4_14  and  C9_16 
REMARK    5  A    between atoms: C9_16  and  C10_17 
REMARK    6  A    between atoms: C10_17  and  N5_18 
REMARK    7  A    between atoms: C13_23  and  C14_24 
REMARK    8  A    between atoms: C15_25  and  C16_26 
ROOT
HETATM    1  N1  UNL     1      24.725   4.467  11.878  1.00  0.00    -0.294 N 
HETATM    2  C3  UNL     1      24.205   4.597  13.140  1.00  0.00     0.331 A 
HETATM    3  O1  UNL     1      23.282   3.901  13.653  1.00  0.00    -0.246 OA
HETATM    4  N2  UNL     1      24.820   5.592  13.793  1.00  0.00    -0.279 N 
HETATM    5  C7  UNL     1      25.738   6.115  12.966  1.00  0.00     0.157 A 
HETATM    6  N3  UNL     1      26.596   7.120  13.157  1.00  0.00    -0.174 N 
ATOM      7  H3  UNL     1      26.617   7.618  14.048  1.00  0.00     0.186 HD
HETATM    8  C8  UNL     1      27.429   7.467  12.168  1.00  0.00     0.680 A 
HETATM    9  N6  UNL     1      27.376   6.793  11.011  1.00  0.00    -0.181 N 
ATOM     10  H6  UNL     1      28.014   7.065  10.264  1.00  0.00     0.185 HD
HETATM   11  C13 UNL     1      26.510   5.759  10.779  1.00  0.00     0.133 A 
HETATM   12  C17 UNL     1      25.676   5.413  11.778  1.00  0.00     0.120 A 
ENDROOT
BRANCH   8  13
HETATM   13  N4  UNL     1      28.252   8.439  12.365  1.00  0.00    -0.224 N 
ATOM     14  H4  UNL     1      28.359   9.171  11.663  1.00  0.00     0.177 HD
BRANCH  13  15
HETATM   15  C9  UNL     1      29.022   8.487  13.587  1.00  0.00     0.168 C 
BRANCH  15  16
HETATM   16  C10 UNL     1      30.506   8.601  13.311  1.00  0.00     0.291 C 
BRANCH  16  17
HETATM   17  N5  UNL     1      31.020   7.261  13.126  1.00  0.00     0.081 N 
HETATM   18  C11 UNL     1      31.383   7.008  11.751  1.00  0.00     0.309 C 
HETATM   19  C12 UNL     1      32.123   7.046  14.026  1.00  0.00     0.309 C 
ENDBRANCH  16  17
ENDBRANCH  15  16
ENDBRANCH  13  15
ENDBRANCH   8  13
BRANCH  11  20
HETATM   20  C14 UNL     1      26.512   5.092   9.509  1.00  0.00    -0.043 C 
HETATM   21  C15 UNL     1      26.511   4.482   8.444  1.00  0.00    -0.068 C 
BRANCH  21  22
HETATM   22  C16 UNL     1      26.490   3.745   7.192  1.00  0.00     0.316 C 
HETATM   23  F1  UNL     1      25.263   3.161   6.954  1.00  0.00    -0.242 F 
ENDBRANCH  21  22
ENDBRANCH  11  20
BRANCH   4  24
HETATM   24  C4  UNL     1      24.559   6.044  15.149  1.00  0.00     0.088 C 
HETATM   25  C5  UNL     1      23.117   6.462  15.297  1.00  0.00     0.032 C 
HETATM   26  C6  UNL     1      24.880   4.859  16.061  1.00  0.00     0.032 C 
ENDBRANCH   4  24
BRANCH   1  27
HETATM   27  C2  UNL     1      24.265   3.488  10.952  1.00  0.00     0.130 C 
HETATM   28  C1  UNL     1      23.128   4.071  10.132  1.00  0.00     0.027 C 
ENDBRANCH   1  27
TORSDOF 8
ENDMDL
