MODEL 1
REMARK VINA RESULT: -6.998151365      0.000      0.000
REMARK  5 active torsions:
REMARK  status: ('A' for Active; 'I' for Inactive)
REMARK    1  A    between atoms: C6_6  and  O1_7 
REMARK    2  A    between atoms: O1_7  and  C7_8 
REMARK    3  A    between atoms: C7_8  and  C8_10 
REMARK    4  A    between atoms: C13_15  and  C14_16 
REMARK    5  A    between atoms: C14_16  and  O3_17 
ROOT
HETATM    1  C1  UNL     1     -12.900 -13.299   7.416  1.00  0.00     0.010 C 
HETATM    2  C2  UNL     1     -12.812 -12.841   8.880  1.00  0.00    -0.018 C 
HETATM    3  C3  UNL     1     -14.186 -12.890   9.438  1.00  0.00     0.005 C 
HETATM    4  C4  UNL     1     -14.310 -11.800  10.484  1.00  0.00     0.008 C 
HETATM    5  C5  UNL     1     -14.248 -10.510   9.651  1.00  0.00     0.020 C 
HETATM    6  C6  UNL     1     -14.822  -9.413  10.478  1.00  0.00     0.136 C 
HETATM    7  C11 UNL     1     -13.771  -9.076  11.545  1.00  0.00     0.033 C 
HETATM    8  C12 UNL     1     -12.680  -8.422  10.758  1.00  0.00     0.009 C 
HETATM    9  C13 UNL     1     -12.032  -9.298   9.748  1.00  0.00     0.014 C 
HETATM   10  C15 UNL     1     -12.907 -10.317   9.096  1.00  0.00    -0.002 C 
HETATM   11  C16 UNL     1     -12.080 -11.581   8.975  1.00  0.00     0.010 C 
ENDROOT
BRANCH   6  12
HETATM   12  O1  UNL     1     -16.003  -9.781  11.105  1.00  0.00    -0.315 OA
BRANCH  12  13
HETATM   13  C7  UNL     1     -17.181  -9.736  10.371  1.00  0.00     0.262 C 
HETATM   14  O2  UNL     1     -17.354  -8.757   9.575  1.00  0.00    -0.265 OA
BRANCH  13  15
HETATM   15  C8  UNL     1     -18.241 -10.737  10.450  1.00  0.00     0.077 C 
HETATM   16  C9  UNL     1     -18.449 -11.274  11.847  1.00  0.00     0.020 C 
HETATM   17  C10 UNL     1     -19.535 -10.068   9.984  1.00  0.00     0.020 C 
ENDBRANCH  13  15
ENDBRANCH  12  13
ENDBRANCH   6  12
BRANCH   9  18
HETATM   18  C14 UNL     1     -11.375  -8.353   8.724  1.00  0.00     0.169 C 
BRANCH  18  19
HETATM   19  O3  UNL     1     -12.384  -7.760   8.008  1.00  0.00    -0.400 OA
ATOM     20  H3  UNL     1     -12.012  -7.007   7.564  1.00  0.00     0.209 HD
ENDBRANCH  18  19
ENDBRANCH   9  18
TORSDOF 5
ENDMDL
MODEL 2
REMARK VINA RESULT: -6.963130005      8.718     11.945
REMARK  5 active torsions:
REMARK  status: ('A' for Active; 'I' for Inactive)
REMARK    1  A    between atoms: C6_6  and  O1_7 
REMARK    2  A    between atoms: O1_7  and  C7_8 
REMARK    3  A    between atoms: C7_8  and  C8_10 
REMARK    4  A    between atoms: C13_15  and  C14_16 
REMARK    5  A    between atoms: C14_16  and  O3_17 
ROOT
HETATM    1  C1  UNL     1     -23.388 -17.729  15.911  1.00  0.00     0.010 C 
HETATM    2  C2  UNL     1     -23.970 -16.309  15.975  1.00  0.00    -0.018 C 
HETATM    3  C3  UNL     1     -25.319 -16.359  15.360  1.00  0.00     0.005 C 
HETATM    4  C4  UNL     1     -25.590 -15.019  14.706  1.00  0.00     0.008 C 
HETATM    5  C5  UNL     1     -24.600 -14.999  13.531  1.00  0.00     0.020 C 
HETATM    6  C6  UNL     1     -25.080 -13.981  12.557  1.00  0.00     0.136 C 
HETATM    7  C11 UNL     1     -24.772 -12.608  13.172  1.00  0.00     0.033 C 
HETATM    8  C12 UNL     1     -23.279 -12.526  13.097  1.00  0.00     0.009 C 
HETATM    9  C13 UNL     1     -22.560 -13.551  13.896  1.00  0.00     0.014 C 
HETATM   10  C15 UNL     1     -23.224 -14.883  14.016  1.00  0.00    -0.002 C 
HETATM   11  C16 UNL     1     -23.012 -15.343  15.445  1.00  0.00     0.010 C 
ENDROOT
BRANCH   6  12
HETATM   12  O1  UNL     1     -26.444 -14.074  12.317  1.00  0.00    -0.315 OA
BRANCH  12  13
HETATM   13  C7  UNL     1     -26.867 -14.387  11.032  1.00  0.00     0.262 C 
HETATM   14  O2  UNL     1     -26.229 -15.285  10.393  1.00  0.00    -0.265 OA
BRANCH  13  15
HETATM   15  C8  UNL     1     -27.998 -13.753  10.359  1.00  0.00     0.077 C 
HETATM   16  C9  UNL     1     -28.179 -14.220   8.934  1.00  0.00     0.020 C 
HETATM   17  C10 UNL     1     -29.256 -14.106  11.155  1.00  0.00     0.020 C 
ENDBRANCH  13  15
ENDBRANCH  12  13
ENDBRANCH   6  12
BRANCH   9  18
HETATM   18  C14 UNL     1     -21.151 -13.656  13.285  1.00  0.00     0.169 C 
BRANCH  18  19
HETATM   19  O3  UNL     1     -21.262 -14.367  12.117  1.00  0.00    -0.400 OA
ATOM     20  H3  UNL     1     -20.441 -14.826  11.985  1.00  0.00     0.209 HD
ENDBRANCH  18  19
ENDBRANCH   9  18
TORSDOF 5
ENDMDL
MODEL 3
REMARK VINA RESULT: -6.936952299      7.687     12.235
REMARK  5 active torsions:
REMARK  status: ('A' for Active; 'I' for Inactive)
REMARK    1  A    between atoms: C6_6  and  O1_7 
REMARK    2  A    between atoms: O1_7  and  C7_8 
REMARK    3  A    between atoms: C7_8  and  C8_10 
REMARK    4  A    between atoms: C13_15  and  C14_16 
REMARK    5  A    between atoms: C14_16  and  O3_17 
ROOT
HETATM    1  C1  UNL     1     -28.038 -14.074  14.756  1.00  0.00     0.010 C 
HETATM    2  C2  UNL     1     -26.794 -13.991  15.653  1.00  0.00    -0.018 C 
HETATM    3  C3  UNL     1     -25.946 -12.893  15.128  1.00  0.00     0.005 C 
HETATM    4  C4  UNL     1     -24.497 -13.243  15.401  1.00  0.00     0.008 C 
HETATM    5  C5  UNL     1     -24.247 -14.441  14.470  1.00  0.00     0.020 C 
HETATM    6  C6  UNL     1     -22.775 -14.573  14.294  1.00  0.00     0.136 C 
HETATM    7  C11 UNL     1     -22.228 -15.154  15.606  1.00  0.00     0.033 C 
HETATM    8  C12 UNL     1     -22.736 -16.561  15.597  1.00  0.00     0.009 C 
HETATM    9  C13 UNL     1     -24.216 -16.687  15.629  1.00  0.00     0.014 C 
HETATM   10  C15 UNL     1     -24.987 -15.617  14.931  1.00  0.00    -0.002 C 
HETATM   11  C16 UNL     1     -26.188 -15.311  15.804  1.00  0.00     0.010 C 
ENDROOT
BRANCH   6  12
HETATM   12  O1  UNL     1     -22.156 -13.356  14.045  1.00  0.00    -0.315 OA
BRANCH  12  13
HETATM   13  C7  UNL     1     -21.350 -13.245  12.920  1.00  0.00     0.262 C 
HETATM   14  O2  UNL     1     -20.913 -14.316  12.388  1.00  0.00    -0.265 OA
BRANCH  13  15
HETATM   15  C8  UNL     1     -20.964 -11.979  12.304  1.00  0.00     0.077 C 
HETATM   16  C9  UNL     1     -19.467 -11.801  12.197  1.00  0.00     0.020 C 
HETATM   17  C10 UNL     1     -21.563 -11.957  10.896  1.00  0.00     0.020 C 
ENDBRANCH  13  15
ENDBRANCH  12  13
ENDBRANCH   6  12
BRANCH   9  18
HETATM   18  C14 UNL     1     -24.535 -18.089  15.077  1.00  0.00     0.169 C 
BRANCH  18  19
HETATM   19  O3  UNL     1     -23.786 -18.264  13.942  1.00  0.00    -0.400 OA
ATOM     20  H3  UNL     1     -22.895 -18.444  14.214  1.00  0.00     0.209 HD
ENDBRANCH  18  19
ENDBRANCH   9  18
TORSDOF 5
ENDMDL
MODEL 4
REMARK VINA RESULT: -6.928054273      1.645      4.914
REMARK  5 active torsions:
REMARK  status: ('A' for Active; 'I' for Inactive)
REMARK    1  A    between atoms: C6_6  and  O1_7 
REMARK    2  A    between atoms: O1_7  and  C7_8 
REMARK    3  A    between atoms: C7_8  and  C8_10 
REMARK    4  A    between atoms: C13_15  and  C14_16 
REMARK    5  A    between atoms: C14_16  and  O3_17 
ROOT
HETATM    1  C1  UNL     1     -12.824 -13.614  10.144  1.00  0.00     0.010 C 
HETATM    2  C2  UNL     1     -13.373 -12.565   9.166  1.00  0.00    -0.018 C 
HETATM    3  C3  UNL     1     -12.412 -11.434   9.151  1.00  0.00     0.005 C 
HETATM    4  C4  UNL     1     -13.188 -10.159   8.892  1.00  0.00     0.008 C 
HETATM    5  C5  UNL     1     -14.011  -9.985  10.178  1.00  0.00     0.020 C 
HETATM    6  C6  UNL     1     -14.441  -8.561  10.248  1.00  0.00     0.136 C 
HETATM    7  C11 UNL     1     -15.557  -8.390   9.208  1.00  0.00     0.033 C 
HETATM    8  C12 UNL     1     -16.698  -9.156   9.800  1.00  0.00     0.009 C 
HETATM    9  C13 UNL     1     -16.451 -10.612   9.961  1.00  0.00     0.014 C 
HETATM   10  C15 UNL     1     -15.047 -11.015  10.272  1.00  0.00    -0.002 C 
HETATM   11  C16 UNL     1     -14.771 -12.270   9.469  1.00  0.00     0.010 C 
ENDROOT
BRANCH   6  12
HETATM   12  O1  UNL     1     -13.410  -7.679   9.956  1.00  0.00    -0.315 OA
BRANCH  12  13
HETATM   13  C7  UNL     1     -12.670  -7.158  11.009  1.00  0.00     0.262 C 
HETATM   14  O2  UNL     1     -13.263  -6.395  11.839  1.00  0.00    -0.265 OA
BRANCH  13  15
HETATM   15  C8  UNL     1     -11.252  -7.425  11.232  1.00  0.00     0.077 C 
HETATM   16  C9  UNL     1     -11.002  -8.681  12.035  1.00  0.00     0.020 C 
HETATM   17  C10 UNL     1     -10.598  -7.583   9.858  1.00  0.00     0.020 C 
ENDBRANCH  13  15
ENDBRANCH  12  13
ENDBRANCH   6  12
BRANCH   9  18
HETATM   18  C14 UNL     1     -17.446 -11.096  11.031  1.00  0.00     0.169 C 
BRANCH  18  19
HETATM   19  O3  UNL     1     -16.726 -11.379  12.164  1.00  0.00    -0.400 OA
ATOM     20  H3  UNL     1     -16.859 -12.298  12.363  1.00  0.00     0.209 HD
ENDBRANCH  18  19
ENDBRANCH   9  18
TORSDOF 5
ENDMDL
MODEL 5
REMARK VINA RESULT: -6.867797429      7.203     10.262
REMARK  5 active torsions:
REMARK  status: ('A' for Active; 'I' for Inactive)
REMARK    1  A    between atoms: C6_6  and  O1_7 
REMARK    2  A    between atoms: O1_7  and  C7_8 
REMARK    3  A    between atoms: C7_8  and  C8_10 
REMARK    4  A    between atoms: C13_15  and  C14_16 
REMARK    5  A    between atoms: C14_16  and  O3_17 
ROOT
HETATM    1  C1  UNL     1     -19.943 -10.758  11.282  1.00  0.00     0.010 C 
HETATM    2  C2  UNL     1     -20.822 -12.016  11.210  1.00  0.00    -0.018 C 
HETATM    3  C3  UNL     1     -22.235 -11.567  11.269  1.00  0.00     0.005 C 
HETATM    4  C4  UNL     1     -23.044 -12.646  11.961  1.00  0.00     0.008 C 
HETATM    5  C5  UNL     1     -22.532 -12.590  13.409  1.00  0.00     0.020 C 
HETATM    6  C6  UNL     1     -23.552 -13.249  14.271  1.00  0.00     0.136 C 
HETATM    7  C11 UNL     1     -23.430 -14.758  14.017  1.00  0.00     0.033 C 
HETATM    8  C12 UNL     1     -22.120 -15.108  14.649  1.00  0.00     0.009 C 
HETATM    9  C13 UNL     1     -20.938 -14.451  14.034  1.00  0.00     0.014 C 
HETATM   10  C15 UNL     1     -21.154 -13.078  13.489  1.00  0.00    -0.002 C 
HETATM   11  C16 UNL     1     -20.377 -13.004  12.190  1.00  0.00     0.010 C 
ENDROOT
BRANCH   6  12
HETATM   12  O1  UNL     1     -24.844 -12.841  13.974  1.00  0.00    -0.315 OA
BRANCH  12  13
HETATM   13  C7  UNL     1     -25.903 -13.577  14.491  1.00  0.00     0.262 C 
HETATM   14  O2  UNL     1     -26.091 -13.552  15.751  1.00  0.00    -0.265 OA
BRANCH  13  15
HETATM   15  C8  UNL     1     -26.818 -14.381  13.687  1.00  0.00     0.077 C 
HETATM   16  C9  UNL     1     -28.270 -14.168  14.047  1.00  0.00     0.020 C 
HETATM   17  C10 UNL     1     -26.611 -13.982  12.226  1.00  0.00     0.020 C 
ENDBRANCH  13  15
ENDBRANCH  12  13
ENDBRANCH   6  12
BRANCH   9  18
HETATM   18  C14 UNL     1     -19.829 -14.485  15.102  1.00  0.00     0.169 C 
BRANCH  18  19
HETATM   19  O3  UNL     1     -19.513 -15.802  15.323  1.00  0.00    -0.400 OA
ATOM     20  H3  UNL     1     -18.844 -15.825  15.996  1.00  0.00     0.209 HD
ENDBRANCH  18  19
ENDBRANCH   9  18
TORSDOF 5
ENDMDL
