MODEL 1
REMARK VINA RESULT: -7.121745554      0.000      0.000
REMARK  8 active torsions:
REMARK  status: ('A' for Active; 'I' for Inactive)
REMARK    1  A    between atoms: N1_1  and  N2_4 
REMARK    2  A    between atoms: N2_4  and  C1_6 
REMARK    3  A    between atoms: C2_9  and  C3_10 
REMARK    4  A    between atoms: C3_10  and  C4_12 
REMARK       I    between atoms: C4_12  and  N4_14 
REMARK    5  A    between atoms: N4_14  and  N5_16 
REMARK    6  A    between atoms: C5_19  and  N6_20 
REMARK    7  A    between atoms: N6_20  and  O3_22 
REMARK    8  A    between atoms: C6_24  and  O4_25 
ROOT
HETATM    1  C1  UNL     1     -34.895 -20.766  -4.011  1.00  0.00     0.699 A 
HETATM    2  N3  UNL     1     -36.012 -21.448  -4.360  1.00  0.00    -0.184 N 
ATOM      3  H3  UNL     1     -35.926 -22.436  -4.598  1.00  0.00     0.184 HD
HETATM    4  C2  UNL     1     -37.228 -20.880  -4.405  1.00  0.00     0.138 A 
HETATM    5  C5  UNL     1     -37.312 -19.556  -4.079  1.00  0.00     0.137 A 
HETATM    6  C6  UNL     1     -36.191 -18.863  -3.727  1.00  0.00     0.186 A 
HETATM    7  N7  UNL     1     -35.008 -19.485  -3.702  1.00  0.00    -0.167 N 
ATOM      8  H7  UNL     1     -34.174 -18.961  -3.438  1.00  0.00     0.186 HD
ENDROOT
BRANCH   4   9
HETATM    9  C3  UNL     1     -38.406 -21.626  -4.778  1.00  0.00     0.270 C 
HETATM   10  O1  UNL     1     -38.735 -21.713  -5.993  1.00  0.00    -0.280 OA
BRANCH   9  11
HETATM   11  C4  UNL     1     -39.193 -22.266  -3.724  1.00  0.00     0.312 C 
HETATM   12  O2  UNL     1     -39.272 -23.516  -3.652  1.00  0.00    -0.262 OA
HETATM   13  N4  UNL     1     -39.892 -21.502  -2.750  1.00  0.00    -0.270 N 
ATOM     14  H4  UNL     1     -39.844 -20.484  -2.788  1.00  0.00     0.189 HD
BRANCH  13  15
HETATM   15  N5  UNL     1     -40.640 -22.109  -1.746  1.00  0.00    -0.342 N 
ATOM     16  H52 UNL     1     -41.213 -22.916  -1.993  1.00  0.00     0.176 HD
ATOM     17  H51 UNL     1     -40.624 -21.767  -0.786  1.00  0.00     0.176 HD
ENDBRANCH  13  15
ENDBRANCH   9  11
ENDBRANCH   4   9
BRANCH   5  18
HETATM   18  N6  UNL     1     -38.550 -18.854  -4.093  1.00  0.00    -0.263 N 
ATOM     19  H6  UNL     1     -39.038 -18.650  -4.966  1.00  0.00     0.194 HD
BRANCH  18  20
HETATM   20  O3  UNL     1     -39.014 -18.500  -2.983  1.00  0.00    -0.289 OA
ATOM     21  H3  UNL     1     -39.423 -17.643  -2.942  1.00  0.00     0.244 HD
ENDBRANCH  18  20
ENDBRANCH   5  18
BRANCH   1  22
HETATM   22  N2  UNL     1     -33.802 -21.437  -4.012  1.00  0.00    -0.138 N 
ATOM     23  H2  UNL     1     -33.414 -21.683  -3.101  1.00  0.00     0.205 HD
BRANCH  22  24
HETATM   24  N1  UNL     1     -33.104 -21.857  -5.106  1.00  0.00    -0.331 N 
ATOM     25  H12 UNL     1     -33.670 -22.168  -5.895  1.00  0.00     0.177 HD
ATOM     26  H11 UNL     1     -32.090 -21.887  -5.206  1.00  0.00     0.177 HD
ENDBRANCH  22  24
ENDBRANCH   1  22
BRANCH   6  27
HETATM   27  O4  UNL     1     -36.278 -17.510  -3.396  1.00  0.00    -0.344 OA
ATOM     28  H4  UNL     1     -36.090 -17.223  -2.509  1.00  0.00     0.219 HD
ENDBRANCH   6  27
TORSDOF 8
ENDMDL
MODEL 2
REMARK VINA RESULT: -7.095600274      1.985      4.690
REMARK  8 active torsions:
REMARK  status: ('A' for Active; 'I' for Inactive)
REMARK    1  A    between atoms: N1_1  and  N2_4 
REMARK    2  A    between atoms: N2_4  and  C1_6 
REMARK    3  A    between atoms: C2_9  and  C3_10 
REMARK    4  A    between atoms: C3_10  and  C4_12 
REMARK       I    between atoms: C4_12  and  N4_14 
REMARK    5  A    between atoms: N4_14  and  N5_16 
REMARK    6  A    between atoms: C5_19  and  N6_20 
REMARK    7  A    between atoms: N6_20  and  O3_22 
REMARK    8  A    between atoms: C6_24  and  O4_25 
ROOT
HETATM    1  C1  UNL     1     -37.892 -22.171  -4.327  1.00  0.00     0.699 A 
HETATM    2  N3  UNL     1     -36.595 -21.782  -4.365  1.00  0.00    -0.184 N 
ATOM      3  H3  UNL     1     -35.880 -22.483  -4.562  1.00  0.00     0.184 HD
HETATM    4  C2  UNL     1     -36.209 -20.514  -4.154  1.00  0.00     0.138 A 
HETATM    5  C5  UNL     1     -37.187 -19.597  -3.894  1.00  0.00     0.137 A 
HETATM    6  C6  UNL     1     -38.496 -19.982  -3.855  1.00  0.00     0.186 A 
HETATM    7  N7  UNL     1     -38.816 -21.262  -4.073  1.00  0.00    -0.167 N 
ATOM      8  H7  UNL     1     -39.797 -21.542  -4.042  1.00  0.00     0.186 HD
ENDROOT
BRANCH   4   9
HETATM    9  C3  UNL     1     -34.820 -20.121  -4.199  1.00  0.00     0.270 C 
HETATM   10  O1  UNL     1     -34.290 -19.572  -3.194  1.00  0.00    -0.280 OA
BRANCH   9  11
HETATM   11  C4  UNL     1     -34.061 -20.373  -5.424  1.00  0.00     0.312 C 
HETATM   12  O2  UNL     1     -33.817 -19.443  -6.230  1.00  0.00    -0.262 OA
HETATM   13  N4  UNL     1     -33.575 -21.671  -5.744  1.00  0.00    -0.270 N 
ATOM     14  H4  UNL     1     -33.762 -22.443  -5.104  1.00  0.00     0.189 HD
BRANCH  13  15
HETATM   15  N5  UNL     1     -32.852 -21.912  -6.908  1.00  0.00    -0.342 N 
ATOM     16  H52 UNL     1     -33.348 -21.880  -7.799  1.00  0.00     0.176 HD
ATOM     17  H51 UNL     1     -31.854 -22.117  -6.884  1.00  0.00     0.176 HD
ENDBRANCH  13  15
ENDBRANCH   9  11
ENDBRANCH   4   9
BRANCH   5  18
HETATM   18  N6  UNL     1     -36.890 -18.226  -3.656  1.00  0.00    -0.263 N 
ATOM     19  H6  UNL     1     -36.698 -17.580  -4.422  1.00  0.00     0.194 HD
BRANCH  18  20
HETATM   20  O3  UNL     1     -36.877 -17.848  -2.460  1.00  0.00    -0.289 OA
ATOM     21  H3  UNL     1     -36.048 -17.532  -2.118  1.00  0.00     0.244 HD
ENDBRANCH  18  20
ENDBRANCH   5  18
BRANCH   1  22
HETATM   22  N2  UNL     1     -38.113 -23.416  -4.547  1.00  0.00    -0.138 N 
ATOM     23  H2  UNL     1     -39.063 -23.748  -4.382  1.00  0.00     0.205 HD
BRANCH  22  24
HETATM   24  N1  UNL     1     -37.209 -24.341  -4.979  1.00  0.00    -0.331 N 
ATOM     25  H12 UNL     1     -36.274 -24.261  -4.578  1.00  0.00     0.177 HD
ATOM     26  H11 UNL     1     -37.376 -25.089  -5.651  1.00  0.00     0.177 HD
ENDBRANCH  22  24
ENDBRANCH   1  22
BRANCH   6  27
HETATM   27  O4  UNL     1     -39.494 -19.045  -3.588  1.00  0.00    -0.344 OA
ATOM     28  H4  UNL     1     -40.203 -18.914  -4.207  1.00  0.00     0.219 HD
ENDBRANCH   6  27
TORSDOF 8
ENDMDL
MODEL 3
REMARK VINA RESULT: -7.004468870      1.433      1.729
REMARK  8 active torsions:
REMARK  status: ('A' for Active; 'I' for Inactive)
REMARK    1  A    between atoms: N1_1  and  N2_4 
REMARK    2  A    between atoms: N2_4  and  C1_6 
REMARK    3  A    between atoms: C2_9  and  C3_10 
REMARK    4  A    between atoms: C3_10  and  C4_12 
REMARK       I    between atoms: C4_12  and  N4_14 
REMARK    5  A    between atoms: N4_14  and  N5_16 
REMARK    6  A    between atoms: C5_19  and  N6_20 
REMARK    7  A    between atoms: N6_20  and  O3_22 
REMARK    8  A    between atoms: C6_24  and  O4_25 
ROOT
HETATM    1  C1  UNL     1     -35.038 -20.779  -4.876  1.00  0.00     0.699 A 
HETATM    2  N3  UNL     1     -36.377 -20.809  -4.668  1.00  0.00    -0.184 N 
ATOM      3  H3  UNL     1     -36.905 -21.612  -5.009  1.00  0.00     0.184 HD
HETATM    4  C2  UNL     1     -37.037 -19.827  -4.034  1.00  0.00     0.138 A 
HETATM    5  C5  UNL     1     -36.303 -18.766  -3.588  1.00  0.00     0.137 A 
HETATM    6  C6  UNL     1     -34.954 -18.729  -3.793  1.00  0.00     0.186 A 
HETATM    7  N7  UNL     1     -34.354 -19.738  -4.433  1.00  0.00    -0.167 N 
ATOM      8  H7  UNL     1     -33.345 -19.704  -4.583  1.00  0.00     0.186 HD
ENDROOT
BRANCH   4   9
HETATM    9  C3  UNL     1     -38.464 -19.880  -3.823  1.00  0.00     0.270 C 
HETATM   10  O1  UNL     1     -39.194 -18.932  -4.225  1.00  0.00    -0.280 OA
BRANCH   9  11
HETATM   11  C4  UNL     1     -39.029 -21.044  -3.141  1.00  0.00     0.312 C 
HETATM   12  O2  UNL     1     -38.320 -22.051  -2.898  1.00  0.00    -0.262 OA
HETATM   13  N4  UNL     1     -40.390 -21.079  -2.732  1.00  0.00    -0.270 N 
ATOM     14  H4  UNL     1     -40.987 -20.273  -2.919  1.00  0.00     0.189 HD
BRANCH  13  15
HETATM   15  N5  UNL     1     -40.928 -22.186  -2.083  1.00  0.00    -0.342 N 
ATOM     16  H52 UNL     1     -40.580 -22.415  -1.151  1.00  0.00     0.176 HD
ATOM     17  H51 UNL     1     -41.651 -22.761  -2.515  1.00  0.00     0.176 HD
ENDBRANCH  13  15
ENDBRANCH   9  11
ENDBRANCH   4   9
BRANCH   5  18
HETATM   18  N6  UNL     1     -36.901 -17.670  -2.903  1.00  0.00    -0.263 N 
ATOM     19  H6  UNL     1     -37.480 -17.811  -2.075  1.00  0.00     0.194 HD
BRANCH  18  20
HETATM   20  O3  UNL     1     -36.682 -16.525  -3.366  1.00  0.00    -0.289 OA
ATOM     21  H3  UNL     1     -36.231 -15.911  -2.797  1.00  0.00     0.244 HD
ENDBRANCH  18  20
ENDBRANCH   5  18
BRANCH   1  22
HETATM   22  N2  UNL     1     -34.542 -21.786  -5.497  1.00  0.00    -0.138 N 
ATOM     23  H2  UNL     1     -35.197 -22.374  -6.013  1.00  0.00     0.205 HD
BRANCH  22  24
HETATM   24  N1  UNL     1     -33.229 -22.152  -5.538  1.00  0.00    -0.331 N 
ATOM     25  H12 UNL     1     -32.676 -21.894  -4.721  1.00  0.00     0.177 HD
ATOM     26  H11 UNL     1     -32.759 -22.649  -6.294  1.00  0.00     0.177 HD
ENDBRANCH  22  24
ENDBRANCH   1  22
BRANCH   6  27
HETATM   27  O4  UNL     1     -34.205 -17.643  -3.338  1.00  0.00    -0.344 OA
ATOM     28  H4  UNL     1     -33.858 -17.640  -2.454  1.00  0.00     0.219 HD
ENDBRANCH   6  27
TORSDOF 8
ENDMDL
MODEL 4
REMARK VINA RESULT: -6.909299410      2.311      3.203
REMARK  8 active torsions:
REMARK  status: ('A' for Active; 'I' for Inactive)
REMARK    1  A    between atoms: N1_1  and  N2_4 
REMARK    2  A    between atoms: N2_4  and  C1_6 
REMARK    3  A    between atoms: C2_9  and  C3_10 
REMARK    4  A    between atoms: C3_10  and  C4_12 
REMARK       I    between atoms: C4_12  and  N4_14 
REMARK    5  A    between atoms: N4_14  and  N5_16 
REMARK    6  A    between atoms: C5_19  and  N6_20 
REMARK    7  A    between atoms: N6_20  and  O3_22 
REMARK    8  A    between atoms: C6_24  and  O4_25 
ROOT
HETATM    1  C1  UNL     1     -37.685 -21.345  -3.938  1.00  0.00     0.699 A 
HETATM    2  N3  UNL     1     -38.796 -22.052  -3.620  1.00  0.00    -0.184 N 
ATOM      3  H3  UNL     1     -38.782 -23.064  -3.744  1.00  0.00     0.184 HD
HETATM    4  C2  UNL     1     -39.914 -21.478  -3.150  1.00  0.00     0.138 A 
HETATM    5  C5  UNL     1     -39.904 -20.121  -2.993  1.00  0.00     0.137 A 
HETATM    6  C6  UNL     1     -38.788 -19.402  -3.312  1.00  0.00     0.186 A 
HETATM    7  N7  UNL     1     -37.705 -20.033  -3.776  1.00  0.00    -0.167 N 
ATOM      8  H7  UNL     1     -36.874 -19.489  -4.012  1.00  0.00     0.186 HD
ENDROOT
BRANCH   4   9
HETATM    9  C3  UNL     1     -41.088 -22.251  -2.817  1.00  0.00     0.270 C 
HETATM   10  O1  UNL     1     -41.600 -22.152  -1.668  1.00  0.00    -0.280 OA
BRANCH   9  11
HETATM   11  C4  UNL     1     -41.653 -23.137  -3.834  1.00  0.00     0.312 C 
HETATM   12  O2  UNL     1     -41.243 -23.098  -5.019  1.00  0.00    -0.262 OA
HETATM   13  N4  UNL     1     -42.681 -24.069  -3.521  1.00  0.00    -0.270 N 
ATOM     14  H4  UNL     1     -43.032 -24.119  -2.564  1.00  0.00     0.189 HD
BRANCH  13  15
HETATM   15  N5  UNL     1     -43.220 -24.913  -4.487  1.00  0.00    -0.342 N 
ATOM     16  H52 UNL     1     -43.123 -25.919  -4.356  1.00  0.00     0.176 HD
ATOM     17  H51 UNL     1     -43.701 -24.547  -5.308  1.00  0.00     0.176 HD
ENDBRANCH  13  15
ENDBRANCH   9  11
ENDBRANCH   4   9
BRANCH   5  18
HETATM   18  N6  UNL     1     -41.035 -19.410  -2.503  1.00  0.00    -0.263 N 
ATOM     19  H6  UNL     1     -41.851 -19.234  -3.089  1.00  0.00     0.194 HD
BRANCH  18  20
HETATM   20  O3  UNL     1     -40.982 -19.011  -1.314  1.00  0.00    -0.289 OA
ATOM     21  H3  UNL     1     -41.537 -18.275  -1.083  1.00  0.00     0.244 HD
ENDBRANCH  18  20
ENDBRANCH   5  18
BRANCH   1  22
HETATM   22  N2  UNL     1     -36.690 -22.026  -4.377  1.00  0.00    -0.138 N 
ATOM     23  H2  UNL     1     -36.828 -23.032  -4.467  1.00  0.00     0.205 HD
BRANCH  22  24
HETATM   24  N1  UNL     1     -35.467 -21.543  -4.735  1.00  0.00    -0.331 N 
ATOM     25  H12 UNL     1     -35.444 -20.559  -5.002  1.00  0.00     0.177 HD
ATOM     26  H11 UNL     1     -34.590 -22.062  -4.760  1.00  0.00     0.177 HD
ENDBRANCH  22  24
ENDBRANCH   1  22
BRANCH   6  27
HETATM   27  O4  UNL     1     -38.779 -18.016  -3.153  1.00  0.00    -0.344 OA
ATOM     28  H4  UNL     1     -38.662 -17.636  -2.290  1.00  0.00     0.219 HD
ENDBRANCH   6  27
TORSDOF 8
ENDMDL
MODEL 5
REMARK VINA RESULT: -6.881332204      2.188      3.199
REMARK  8 active torsions:
REMARK  status: ('A' for Active; 'I' for Inactive)
REMARK    1  A    between atoms: N1_1  and  N2_4 
REMARK    2  A    between atoms: N2_4  and  C1_6 
REMARK    3  A    between atoms: C2_9  and  C3_10 
REMARK    4  A    between atoms: C3_10  and  C4_12 
REMARK       I    between atoms: C4_12  and  N4_14 
REMARK    5  A    between atoms: N4_14  and  N5_16 
REMARK    6  A    between atoms: C5_19  and  N6_20 
REMARK    7  A    between atoms: N6_20  and  O3_22 
REMARK    8  A    between atoms: C6_24  and  O4_25 
ROOT
HETATM    1  C1  UNL     1     -37.438 -22.085  -4.459  1.00  0.00     0.699 A 
HETATM    2  N3  UNL     1     -38.374 -21.189  -4.063  1.00  0.00    -0.184 N 
ATOM      3  H3  UNL     1     -39.359 -21.441  -4.151  1.00  0.00     0.184 HD
HETATM    4  C2  UNL     1     -38.061 -19.984  -3.560  1.00  0.00     0.138 A 
HETATM    5  C5  UNL     1     -36.736 -19.676  -3.452  1.00  0.00     0.137 A 
HETATM    6  C6  UNL     1     -35.787 -20.573  -3.849  1.00  0.00     0.186 A 
HETATM    7  N7  UNL     1     -36.162 -21.758  -4.343  1.00  0.00    -0.167 N 
ATOM      8  H7  UNL     1     -35.448 -22.424  -4.638  1.00  0.00     0.186 HD
ENDROOT
BRANCH   4   9
HETATM    9  C3  UNL     1     -39.075 -19.044  -3.144  1.00  0.00     0.270 C 
HETATM   10  O1  UNL     1     -38.829 -17.807  -3.160  1.00  0.00    -0.280 OA
BRANCH   9  11
HETATM   11  C4  UNL     1     -40.374 -19.562  -2.711  1.00  0.00     0.312 C 
HETATM   12  O2  UNL     1     -40.916 -20.520  -3.313  1.00  0.00    -0.262 OA
HETATM   13  N4  UNL     1     -41.064 -19.002  -1.601  1.00  0.00    -0.270 N 
ATOM     14  H4  UNL     1     -40.645 -18.222  -1.096  1.00  0.00     0.189 HD
BRANCH  13  15
HETATM   15  N5  UNL     1     -42.299 -19.493  -1.188  1.00  0.00    -0.342 N 
ATOM     16  H52 UNL     1     -42.835 -18.946  -0.514  1.00  0.00     0.176 HD
ATOM     17  H51 UNL     1     -42.669 -20.375  -1.542  1.00  0.00     0.176 HD
ENDBRANCH  13  15
ENDBRANCH   9  11
ENDBRANCH   4   9
BRANCH   5  18
HETATM   18  N6  UNL     1     -36.292 -18.427  -2.933  1.00  0.00    -0.263 N 
ATOM     19  H6  UNL     1     -36.375 -18.202  -1.941  1.00  0.00     0.194 HD
BRANCH  18  20
HETATM   20  O3  UNL     1     -35.794 -17.617  -3.751  1.00  0.00    -0.289 OA
ATOM     21  H3  UNL     1     -35.679 -17.923  -4.643  1.00  0.00     0.244 HD
ENDBRANCH  18  20
ENDBRANCH   5  18
BRANCH   1  22
HETATM   22  N2  UNL     1     -37.882 -23.197  -4.921  1.00  0.00    -0.138 N 
ATOM     23  H2  UNL     1     -38.828 -23.188  -5.304  1.00  0.00     0.205 HD
BRANCH  22  24
HETATM   24  N1  UNL     1     -37.221 -24.388  -4.953  1.00  0.00    -0.331 N 
ATOM     25  H12 UNL     1     -36.818 -24.691  -4.066  1.00  0.00     0.177 HD
ATOM     26  H11 UNL     1     -37.094 -24.993  -5.764  1.00  0.00     0.177 HD
ENDBRANCH  22  24
ENDBRANCH   1  22
BRANCH   6  27
HETATM   27  O4  UNL     1     -34.433 -20.257  -3.740  1.00  0.00    -0.344 OA
ATOM     28  H4  UNL     1     -33.842 -20.434  -4.462  1.00  0.00     0.219 HD
ENDBRANCH   6  27
TORSDOF 8
ENDMDL
