MODEL 1
REMARK VINA RESULT: -8.077924223      0.000      0.000
REMARK  0 active torsions:
REMARK  status: ('A' for Active; 'I' for Inactive)
ROOT
HETATM    1  O1  UNL     1     -18.723  -1.608  -7.168  1.00  0.00    -0.289 OA
HETATM    2  C1  UNL     1     -17.974  -1.515  -6.180  1.00  0.00     0.172 C 
HETATM    3  C2  UNL     1     -17.574  -0.238  -5.781  1.00  0.00     0.055 C 
HETATM    4  C3  UNL     1     -17.094   0.140  -4.544  1.00  0.00     0.016 C 
HETATM    5  C4  UNL     1     -16.965  -0.615  -3.397  1.00  0.00    -0.026 A 
HETATM    6  C5  UNL     1     -16.780   0.144  -2.253  1.00  0.00     0.012 A 
HETATM    7  C6  UNL     1     -16.632  -0.433  -1.008  1.00  0.00     0.001 A 
HETATM    8  C7  UNL     1     -16.662  -1.804  -0.860  1.00  0.00     0.001 A 
HETATM    9  C8  UNL     1     -16.848  -2.563  -2.006  1.00  0.00     0.012 A 
HETATM   10  C9  UNL     1     -16.998  -1.988  -3.255  1.00  0.00    -0.026 A 
HETATM   11  C10 UNL     1     -17.171  -2.906  -4.274  1.00  0.00     0.016 C 
HETATM   12  C11 UNL     1     -17.617  -2.707  -5.580  1.00  0.00     0.055 C 
ENDROOT
TORSDOF 0
ENDMDL
MODEL 2
REMARK VINA RESULT: -8.005388726      1.667      2.087
REMARK  0 active torsions:
REMARK  status: ('A' for Active; 'I' for Inactive)
ROOT
HETATM    1  O1  UNL     1     -19.169  -1.700  -7.258  1.00  0.00    -0.289 OA
HETATM    2  C1  UNL     1     -19.007  -1.255  -6.108  1.00  0.00     0.172 C 
HETATM    3  C2  UNL     1     -20.085  -1.327  -5.223  1.00  0.00     0.055 C 
HETATM    4  C3  UNL     1     -20.041  -1.269  -3.845  1.00  0.00     0.016 C 
HETATM    5  C4  UNL     1     -18.941  -1.205  -3.015  1.00  0.00    -0.026 A 
HETATM    6  C5  UNL     1     -19.227  -1.506  -1.693  1.00  0.00     0.012 A 
HETATM    7  C6  UNL     1     -18.255  -1.495  -0.714  1.00  0.00     0.001 A 
HETATM    8  C7  UNL     1     -16.948  -1.179  -1.023  1.00  0.00     0.001 A 
HETATM    9  C8  UNL     1     -16.663  -0.878  -2.347  1.00  0.00     0.012 A 
HETATM   10  C9  UNL     1     -17.634  -0.888  -3.331  1.00  0.00    -0.026 A 
HETATM   11  C10 UNL     1     -17.159  -0.562  -4.587  1.00  0.00     0.016 C 
HETATM   12  C11 UNL     1     -17.759  -0.731  -5.834  1.00  0.00     0.055 C 
ENDROOT
TORSDOF 0
ENDMDL
MODEL 3
REMARK VINA RESULT: -7.970850515      1.599      1.645
REMARK  0 active torsions:
REMARK  status: ('A' for Active; 'I' for Inactive)
ROOT
HETATM    1  O1  UNL     1     -19.624  -1.280  -7.255  1.00  0.00    -0.289 OA
HETATM    2  C1  UNL     1     -19.103  -1.563  -6.162  1.00  0.00     0.172 C 
HETATM    3  C2  UNL     1     -17.745  -1.285  -5.995  1.00  0.00     0.055 C 
HETATM    4  C3  UNL     1     -17.060  -1.144  -4.805  1.00  0.00     0.016 C 
HETATM    5  C4  UNL     1     -17.551  -1.166  -3.516  1.00  0.00    -0.026 A 
HETATM    6  C5  UNL     1     -16.666  -0.655  -2.579  1.00  0.00     0.012 A 
HETATM    7  C6  UNL     1     -16.978  -0.593  -1.236  1.00  0.00     0.001 A 
HETATM    8  C7  UNL     1     -18.198  -1.045  -0.775  1.00  0.00     0.001 A 
HETATM    9  C8  UNL     1     -19.082  -1.555  -1.714  1.00  0.00     0.012 A 
HETATM   10  C9  UNL     1     -18.773  -1.619  -3.060  1.00  0.00    -0.026 A 
HETATM   11  C10 UNL     1     -19.779  -2.159  -3.839  1.00  0.00     0.016 C 
HETATM   12  C11 UNL     1     -19.942  -2.130  -5.224  1.00  0.00     0.055 C 
ENDROOT
TORSDOF 0
ENDMDL
MODEL 4
REMARK VINA RESULT: -7.835462053      2.332      4.546
REMARK  0 active torsions:
REMARK  status: ('A' for Active; 'I' for Inactive)
ROOT
HETATM    1  O1  UNL     1     -18.446   0.989  -0.194  1.00  0.00    -0.289 OA
HETATM    2  C1  UNL     1     -17.842   0.528  -1.179  1.00  0.00     0.172 C 
HETATM    3  C2  UNL     1     -17.276  -0.743  -1.060  1.00  0.00     0.055 C 
HETATM    4  C3  UNL     1     -16.917  -1.597  -2.084  1.00  0.00     0.016 C 
HETATM    5  C4  UNL     1     -17.094  -1.443  -3.443  1.00  0.00    -0.026 A 
HETATM    6  C5  UNL     1     -16.939  -2.620  -4.157  1.00  0.00     0.012 A 
HETATM    7  C6  UNL     1     -17.079  -2.667  -5.529  1.00  0.00     0.001 A 
HETATM    8  C7  UNL     1     -17.381  -1.527  -6.245  1.00  0.00     0.001 A 
HETATM    9  C8  UNL     1     -17.537  -0.350  -5.529  1.00  0.00     0.012 A 
HETATM   10  C9  UNL     1     -17.398  -0.299  -4.154  1.00  0.00    -0.026 A 
HETATM   11  C10 UNL     1     -17.590   0.961  -3.620  1.00  0.00     0.016 C 
HETATM   12  C11 UNL     1     -17.800   1.341  -2.294  1.00  0.00     0.055 C 
ENDROOT
TORSDOF 0
ENDMDL
MODEL 5
REMARK VINA RESULT: -7.833127935      2.796      4.631
REMARK  0 active torsions:
REMARK  status: ('A' for Active; 'I' for Inactive)
ROOT
HETATM    1  O1  UNL     1     -16.900  -0.483  -0.562  1.00  0.00    -0.289 OA
HETATM    2  C1  UNL     1     -17.487  -0.243  -1.631  1.00  0.00     0.172 C 
HETATM    3  C2  UNL     1     -16.710  -0.097  -2.783  1.00  0.00     0.055 C 
HETATM    4  C3  UNL     1     -17.127  -0.216  -4.093  1.00  0.00     0.016 C 
HETATM    5  C4  UNL     1     -18.367  -0.577  -4.579  1.00  0.00    -0.026 A 
HETATM    6  C5  UNL     1     -18.354  -0.933  -5.918  1.00  0.00     0.012 A 
HETATM    7  C6  UNL     1     -19.499  -1.325  -6.582  1.00  0.00     0.001 A 
HETATM    8  C7  UNL     1     -20.711  -1.374  -5.924  1.00  0.00     0.001 A 
HETATM    9  C8  UNL     1     -20.722  -1.018  -4.584  1.00  0.00     0.012 A 
HETATM   10  C9  UNL     1     -19.577  -0.626  -3.916  1.00  0.00    -0.026 A 
HETATM   11  C10 UNL     1     -19.787  -0.310  -2.587  1.00  0.00     0.016 C 
HETATM   12  C11 UNL     1     -18.862  -0.147  -1.556  1.00  0.00     0.055 C 
ENDROOT
TORSDOF 0
ENDMDL
