MODEL 1
REMARK VINA RESULT: -7.212722401      0.000      0.000
REMARK  11 active torsions:
REMARK  status: ('A' for Active; 'I' for Inactive)
REMARK    1  A    between atoms: C2_2  and  C3_3 
REMARK    2  A    between atoms: C2_2  and  C6_10 
REMARK    3  A    between atoms: C3_3  and  O1_4 
REMARK    4  A    between atoms: C3_3  and  C4_6 
REMARK    5  A    between atoms: C4_6  and  C5_7 
REMARK    6  A    between atoms: C5_7  and  O2_8 
REMARK    7  A    between atoms: C6_10  and  C8_12 
REMARK    8  A    between atoms: C13_17  and  O3_18 
REMARK    9  A    between atoms: C15_21  and  O4_22 
REMARK   10  A    between atoms: C16_24  and  O5_25 
REMARK   11  A    between atoms: C25_35  and  O6_36 
ROOT
HETATM    1  C8  UNL     1      27.275 -11.036  -9.390  1.00  0.00    -0.005 C 
HETATM    2  C9  UNL     1      27.888 -10.497 -10.734  1.00  0.00     0.011 C 
HETATM    3  C10 UNL     1      28.063 -11.596 -11.694  1.00  0.00    -0.001 C 
HETATM    4  C11 UNL     1      29.281 -12.371 -11.194  1.00  0.00     0.001 C 
HETATM    5  C12 UNL     1      30.579 -11.671 -11.632  1.00  0.00     0.038 C 
HETATM    6  C13 UNL     1      30.622 -11.700 -13.168  1.00  0.00     0.126 C 
HETATM    7  C14 UNL     1      29.489 -10.849 -13.642  1.00  0.00     0.054 C 
HETATM    8  C15 UNL     1      29.520 -10.721 -15.126  1.00  0.00     0.154 C 
HETATM    9  C16 UNL     1      28.450  -9.873 -15.706  1.00  0.00     0.147 C 
HETATM   10  C17 UNL     1      27.163  -9.852 -14.971  1.00  0.00     0.035 C 
HETATM   11  C18 UNL     1      27.240 -10.087 -13.498  1.00  0.00     0.012 C 
HETATM   12  C19 UNL     1      28.142 -11.269 -13.130  1.00  0.00    -0.032 C 
HETATM   13  C20 UNL     1      27.606 -12.478 -13.916  1.00  0.00     0.016 C 
HETATM   14  C21 UNL     1      29.220 -12.676  -9.763  1.00  0.00    -0.036 C 
HETATM   15  C22 UNL     1      30.640 -12.421  -9.221  1.00  0.00     0.016 C 
HETATM   16  C23 UNL     1      29.090 -14.204  -9.638  1.00  0.00     0.012 C 
HETATM   17  C24 UNL     1      29.509 -14.681  -8.279  1.00  0.00     0.032 C 
HETATM   18  C25 UNL     1      28.675 -13.959  -7.286  1.00  0.00     0.118 C 
HETATM   19  C26 UNL     1      27.555 -13.128  -7.975  1.00  0.00     0.037 C 
HETATM   20  C27 UNL     1      28.160 -12.085  -8.885  1.00  0.00     0.001 C 
ENDROOT
BRANCH   1  21
HETATM   21  C6  UNL     1      25.817 -11.195  -9.556  1.00  0.00    -0.008 C 
HETATM   22  C7  UNL     1      24.930 -10.824  -8.394  1.00  0.00     0.011 C 
BRANCH  21  23
HETATM   23  C2  UNL     1      25.182 -10.555 -10.748  1.00  0.00     0.014 C 
HETATM   24  C1  UNL     1      24.352 -11.657 -11.429  1.00  0.00     0.013 C 
BRANCH  23  25
HETATM   25  C3  UNL     1      24.432  -9.305 -10.690  1.00  0.00     0.124 C 
BRANCH  25  26
HETATM   26  O1  UNL     1      23.346  -9.153 -11.538  1.00  0.00    -0.395 OA
ATOM     27  H1  UNL     1      22.936  -8.298 -11.594  1.00  0.00     0.210 HD
ENDBRANCH  25  26
BRANCH  25  28
HETATM   28  C4  UNL     1      25.211  -8.012 -10.595  1.00  0.00     0.058 C 
BRANCH  28  29
HETATM   29  C5  UNL     1      25.099  -7.240 -11.932  1.00  0.00     0.166 C 
BRANCH  29  30
HETATM   30  O2  UNL     1      23.899  -6.529 -11.874  1.00  0.00    -0.401 OA
ATOM     31  H2  UNL     1      23.959  -5.850 -12.535  1.00  0.00     0.209 HD
ENDBRANCH  29  30
ENDBRANCH  28  29
ENDBRANCH  25  28
ENDBRANCH  23  25
ENDBRANCH  21  23
ENDBRANCH   1  21
BRANCH  18  32
HETATM   32  O6  UNL     1      27.947 -14.944  -6.569  1.00  0.00    -0.396 OA
ATOM     33  H6  UNL     1      28.567 -15.383  -5.998  1.00  0.00     0.210 HD
ENDBRANCH  18  32
BRANCH   6  34
HETATM   34  O3  UNL     1      30.670 -12.970 -13.672  1.00  0.00    -0.395 OA
ATOM     35  H3  UNL     1      30.795 -12.987 -14.614  1.00  0.00     0.210 HD
ENDBRANCH   6  34
BRANCH   8  36
HETATM   36  O4  UNL     1      29.635 -11.979 -15.762  1.00  0.00    -0.393 OA
ATOM     37  H4  UNL     1      29.964 -11.899 -16.650  1.00  0.00     0.210 HD
ENDBRANCH   8  36
BRANCH   9  38
HETATM   38  O5  UNL     1      28.920  -8.559 -15.942  1.00  0.00    -0.393 OA
ATOM     39  H5  UNL     1      29.261  -8.173 -15.144  1.00  0.00     0.210 HD
ENDBRANCH   9  38
TORSDOF 11
ENDMDL
MODEL 2
REMARK VINA RESULT: -7.187766628      2.130      6.140
REMARK  11 active torsions:
REMARK  status: ('A' for Active; 'I' for Inactive)
REMARK    1  A    between atoms: C2_2  and  C3_3 
REMARK    2  A    between atoms: C2_2  and  C6_10 
REMARK    3  A    between atoms: C3_3  and  O1_4 
REMARK    4  A    between atoms: C3_3  and  C4_6 
REMARK    5  A    between atoms: C4_6  and  C5_7 
REMARK    6  A    between atoms: C5_7  and  O2_8 
REMARK    7  A    between atoms: C6_10  and  C8_12 
REMARK    8  A    between atoms: C13_17  and  O3_18 
REMARK    9  A    between atoms: C15_21  and  O4_22 
REMARK   10  A    between atoms: C16_24  and  O5_25 
REMARK   11  A    between atoms: C25_35  and  O6_36 
ROOT
HETATM    1  C8  UNL     1      26.484 -10.909 -10.946  1.00  0.00    -0.005 C 
HETATM    2  C9  UNL     1      26.424 -12.106  -9.929  1.00  0.00     0.011 C 
HETATM    3  C10 UNL     1      27.485 -11.975  -8.921  1.00  0.00    -0.001 C 
HETATM    4  C11 UNL     1      28.771 -12.368  -9.645  1.00  0.00     0.001 C 
HETATM    5  C12 UNL     1      28.906 -13.899  -9.708  1.00  0.00     0.038 C 
HETATM    6  C13 UNL     1      29.024 -14.411  -8.263  1.00  0.00     0.126 C 
HETATM    7  C14 UNL     1      27.718 -14.116  -7.599  1.00  0.00     0.054 C 
HETATM    8  C15 UNL     1      27.695 -14.685  -6.222  1.00  0.00     0.154 C 
HETATM    9  C16 UNL     1      26.430 -14.473  -5.476  1.00  0.00     0.147 C 
HETATM   10  C17 UNL     1      25.683 -13.234  -5.796  1.00  0.00     0.035 C 
HETATM   11  C18 UNL     1      25.855 -12.698  -7.180  1.00  0.00     0.012 C 
HETATM   12  C19 UNL     1      27.319 -12.670  -7.630  1.00  0.00    -0.032 C 
HETATM   13  C20 UNL     1      28.080 -11.865  -6.563  1.00  0.00     0.016 C 
HETATM   14  C21 UNL     1      28.930 -11.700 -10.939  1.00  0.00    -0.036 C 
HETATM   15  C22 UNL     1      29.459 -12.779 -11.903  1.00  0.00     0.016 C 
HETATM   16  C23 UNL     1      30.137 -10.755 -10.808  1.00  0.00     0.012 C 
HETATM   17  C24 UNL     1      30.702 -10.399 -12.150  1.00  0.00     0.032 C 
HETATM   18  C25 UNL     1      29.600  -9.802 -12.944  1.00  0.00     0.118 C 
HETATM   19  C26 UNL     1      28.328  -9.576 -12.078  1.00  0.00     0.037 C 
HETATM   20  C27 UNL     1      27.820 -10.893 -11.539  1.00  0.00     0.001 C 
ENDROOT
BRANCH   1  21
HETATM   21  C6  UNL     1      25.836  -9.729 -10.339  1.00  0.00    -0.008 C 
HETATM   22  C7  UNL     1      26.081  -8.384 -10.974  1.00  0.00     0.011 C 
BRANCH  21  23
HETATM   23  C2  UNL     1      24.359  -9.788 -10.116  1.00  0.00     0.014 C 
HETATM   24  C1  UNL     1      23.766 -10.437 -11.379  1.00  0.00     0.013 C 
BRANCH  23  25
HETATM   25  C3  UNL     1      23.745 -10.341  -8.914  1.00  0.00     0.124 C 
BRANCH  25  26
HETATM   26  O1  UNL     1      22.374 -10.543  -8.913  1.00  0.00    -0.395 OA
ATOM     27  H1  UNL     1      21.807  -9.783  -8.981  1.00  0.00     0.210 HD
ENDBRANCH  25  26
BRANCH  25  28
HETATM   28  C4  UNL     1      24.200  -9.807  -7.573  1.00  0.00     0.058 C 
BRANCH  28  29
HETATM   29  C5  UNL     1      22.969  -9.362  -6.748  1.00  0.00     0.166 C 
BRANCH  29  30
HETATM   30  O2  UNL     1      22.409  -8.281  -7.431  1.00  0.00    -0.401 OA
ATOM     31  H2  UNL     1      22.395  -8.524  -8.349  1.00  0.00     0.209 HD
ENDBRANCH  29  30
ENDBRANCH  28  29
ENDBRANCH  25  28
ENDBRANCH  23  25
ENDBRANCH  21  23
ENDBRANCH   1  21
BRANCH  18  32
HETATM   32  O6  UNL     1      30.000  -8.480 -13.273  1.00  0.00    -0.396 OA
ATOM     33  H6  UNL     1      29.246  -8.053 -13.663  1.00  0.00     0.210 HD
ENDBRANCH  18  32
BRANCH   6  34
HETATM   34  O3  UNL     1      30.140 -13.944  -7.625  1.00  0.00    -0.395 OA
ATOM     35  H3  UNL     1      30.407 -14.497  -6.901  1.00  0.00     0.210 HD
ENDBRANCH   6  34
BRANCH   8  36
HETATM   36  O4  UNL     1      28.843 -14.319  -5.481  1.00  0.00    -0.393 OA
ATOM     37  H4  UNL     1      28.770 -13.441  -5.124  1.00  0.00     0.210 HD
ENDBRANCH   8  36
BRANCH   9  38
HETATM   38  O5  UNL     1      25.592 -15.609  -5.572  1.00  0.00    -0.393 OA
ATOM     39  H5  UNL     1      24.740 -15.434  -5.190  1.00  0.00     0.210 HD
ENDBRANCH   9  38
TORSDOF 11
ENDMDL
MODEL 3
REMARK VINA RESULT: -7.093210385      2.334      5.882
REMARK  11 active torsions:
REMARK  status: ('A' for Active; 'I' for Inactive)
REMARK    1  A    between atoms: C2_2  and  C3_3 
REMARK    2  A    between atoms: C2_2  and  C6_10 
REMARK    3  A    between atoms: C3_3  and  O1_4 
REMARK    4  A    between atoms: C3_3  and  C4_6 
REMARK    5  A    between atoms: C4_6  and  C5_7 
REMARK    6  A    between atoms: C5_7  and  O2_8 
REMARK    7  A    between atoms: C6_10  and  C8_12 
REMARK    8  A    between atoms: C13_17  and  O3_18 
REMARK    9  A    between atoms: C15_21  and  O4_22 
REMARK   10  A    between atoms: C16_24  and  O5_25 
REMARK   11  A    between atoms: C25_35  and  O6_36 
ROOT
HETATM    1  C8  UNL     1      28.507 -11.683 -13.941  1.00  0.00    -0.005 C 
HETATM    2  C9  UNL     1      27.389 -11.987 -12.879  1.00  0.00     0.011 C 
HETATM    3  C10 UNL     1      27.096 -10.785 -12.085  1.00  0.00    -0.001 C 
HETATM    4  C11 UNL     1      28.277 -10.644 -11.126  1.00  0.00     0.001 C 
HETATM    5  C12 UNL     1      28.103 -11.583  -9.920  1.00  0.00     0.038 C 
HETATM    6  C13 UNL     1      26.845 -11.131  -9.161  1.00  0.00     0.126 C 
HETATM    7  C14 UNL     1      25.687 -11.376 -10.073  1.00  0.00     0.054 C 
HETATM    8  C15 UNL     1      24.405 -11.076  -9.376  1.00  0.00     0.154 C 
HETATM    9  C16 UNL     1      23.182 -11.310 -10.183  1.00  0.00     0.147 C 
HETATM   10  C17 UNL     1      23.315 -11.106 -11.645  1.00  0.00     0.035 C 
HETATM   11  C18 UNL     1      24.671 -11.344 -12.223  1.00  0.00     0.012 C 
HETATM   12  C19 UNL     1      25.791 -10.693 -11.404  1.00  0.00    -0.032 C 
HETATM   13  C20 UNL     1      25.427  -9.203 -11.289  1.00  0.00     0.016 C 
HETATM   14  C21 UNL     1      29.576 -10.761 -11.792  1.00  0.00    -0.036 C 
HETATM   15  C22 UNL     1      30.447 -11.622 -10.859  1.00  0.00     0.016 C 
HETATM   16  C23 UNL     1      30.252  -9.382 -11.693  1.00  0.00     0.012 C 
HETATM   17  C24 UNL     1      31.737  -9.485 -11.880  1.00  0.00     0.032 C 
HETATM   18  C25 UNL     1      31.968 -10.136 -13.193  1.00  0.00     0.118 C 
HETATM   19  C26 UNL     1      30.643 -10.306 -13.989  1.00  0.00     0.037 C 
HETATM   20  C27 UNL     1      29.681 -11.184 -13.225  1.00  0.00     0.001 C 
ENDROOT
BRANCH   1  21
HETATM   21  C6  UNL     1      27.897 -11.001 -15.100  1.00  0.00    -0.008 C 
HETATM   22  C7  UNL     1      26.399 -11.084 -15.260  1.00  0.00     0.011 C 
BRANCH  21  23
HETATM   23  C2  UNL     1      28.229  -9.559 -15.309  1.00  0.00     0.014 C 
HETATM   24  C1  UNL     1      28.620  -9.426 -16.791  1.00  0.00     0.013 C 
BRANCH  23  25
HETATM   25  C3  UNL     1      27.358  -8.463 -14.904  1.00  0.00     0.124 C 
BRANCH  25  26
HETATM   26  O1  UNL     1      26.654  -7.786 -15.889  1.00  0.00    -0.395 OA
ATOM     27  H1  UNL     1      26.686  -8.125 -16.776  1.00  0.00     0.210 HD
ENDBRANCH  25  26
BRANCH  25  28
HETATM   28  C4  UNL     1      27.873  -7.492 -13.863  1.00  0.00     0.058 C 
BRANCH  28  29
HETATM   29  C5  UNL     1      28.946  -6.575 -14.497  1.00  0.00     0.166 C 
BRANCH  29  30
HETATM   30  O2  UNL     1      28.260  -5.679 -15.318  1.00  0.00    -0.401 OA
ATOM     31  H2  UNL     1      28.683  -4.836 -15.206  1.00  0.00     0.209 HD
ENDBRANCH  29  30
ENDBRANCH  28  29
ENDBRANCH  25  28
ENDBRANCH  23  25
ENDBRANCH  21  23
ENDBRANCH   1  21
BRANCH  18  32
HETATM   32  O6  UNL     1      32.700  -9.213 -13.985  1.00  0.00    -0.396 OA
ATOM     33  H6  UNL     1      33.478  -8.982 -13.490  1.00  0.00     0.210 HD
ENDBRANCH  18  32
BRANCH   6  34
HETATM   34  O3  UNL     1      26.956  -9.864  -8.660  1.00  0.00    -0.395 OA
ATOM     35  H3  UNL     1      26.474  -9.745  -7.850  1.00  0.00     0.210 HD
ENDBRANCH   6  34
BRANCH   8  36
HETATM   36  O4  UNL     1      24.425  -9.804  -8.757  1.00  0.00    -0.393 OA
ATOM     37  H4  UNL     1      23.980  -9.148  -9.282  1.00  0.00     0.210 HD
ENDBRANCH   8  36
BRANCH   9  38
HETATM   38  O5  UNL     1      22.624 -12.579  -9.898  1.00  0.00    -0.393 OA
ATOM     39  H5  UNL     1      21.733 -12.638 -10.220  1.00  0.00     0.210 HD
ENDBRANCH   9  38
TORSDOF 11
ENDMDL
MODEL 4
REMARK VINA RESULT: -7.084490642      1.702      7.063
REMARK  11 active torsions:
REMARK  status: ('A' for Active; 'I' for Inactive)
REMARK    1  A    between atoms: C2_2  and  C3_3 
REMARK    2  A    between atoms: C2_2  and  C6_10 
REMARK    3  A    between atoms: C3_3  and  O1_4 
REMARK    4  A    between atoms: C3_3  and  C4_6 
REMARK    5  A    between atoms: C4_6  and  C5_7 
REMARK    6  A    between atoms: C5_7  and  O2_8 
REMARK    7  A    between atoms: C6_10  and  C8_12 
REMARK    8  A    between atoms: C13_17  and  O3_18 
REMARK    9  A    between atoms: C15_21  and  O4_22 
REMARK   10  A    between atoms: C16_24  and  O5_25 
REMARK   11  A    between atoms: C25_35  and  O6_36 
ROOT
HETATM    1  C8  UNL     1      29.243 -10.164 -11.658  1.00  0.00    -0.005 C 
HETATM    2  C9  UNL     1      28.145  -9.766 -10.606  1.00  0.00     0.011 C 
HETATM    3  C10 UNL     1      26.861 -10.395 -10.945  1.00  0.00    -0.001 C 
HETATM    4  C11 UNL     1      26.327  -9.595 -12.131  1.00  0.00     0.001 C 
HETATM    5  C12 UNL     1      25.658  -8.297 -11.645  1.00  0.00     0.038 C 
HETATM    6  C13 UNL     1      24.448  -8.696 -10.785  1.00  0.00     0.126 C 
HETATM    7  C14 UNL     1      24.993  -9.383  -9.576  1.00  0.00     0.054 C 
HETATM    8  C15 UNL     1      23.895  -9.704  -8.622  1.00  0.00     0.154 C 
HETATM    9  C16 UNL     1      24.327 -10.368  -7.367  1.00  0.00     0.147 C 
HETATM   10  C17 UNL     1      25.522 -11.239  -7.468  1.00  0.00     0.035 C 
HETATM   11  C18 UNL     1      26.514 -10.879  -8.525  1.00  0.00     0.012 C 
HETATM   12  C19 UNL     1      25.860 -10.571  -9.875  1.00  0.00    -0.032 C 
HETATM   13  C20 UNL     1      25.007 -11.800 -10.229  1.00  0.00     0.016 C 
HETATM   14  C21 UNL     1      27.324  -9.395 -13.185  1.00  0.00    -0.036 C 
HETATM   15  C22 UNL     1      27.158  -7.933 -13.644  1.00  0.00     0.016 C 
HETATM   16  C23 UNL     1      26.836 -10.182 -14.414  1.00  0.00     0.012 C 
HETATM   17  C24 UNL     1      27.473  -9.679 -15.675  1.00  0.00     0.032 C 
HETATM   18  C25 UNL     1      28.942  -9.772 -15.490  1.00  0.00     0.118 C 
HETATM   19  C26 UNL     1      29.308 -10.516 -14.174  1.00  0.00     0.037 C 
HETATM   20  C27 UNL     1      28.759  -9.771 -12.981  1.00  0.00     0.001 C 
ENDROOT
BRANCH   1  21
HETATM   21  C6  UNL     1      29.756 -11.510 -11.334  1.00  0.00    -0.008 C 
HETATM   22  C7  UNL     1      30.926 -11.612 -10.388  1.00  0.00     0.011 C 
BRANCH  21  23
HETATM   23  C2  UNL     1      28.774 -12.525 -10.844  1.00  0.00     0.014 C 
HETATM   24  C1  UNL     1      28.140 -13.143 -12.103  1.00  0.00     0.013 C 
BRANCH  23  25
HETATM   25  C3  UNL     1      29.099 -13.559  -9.869  1.00  0.00     0.124 C 
BRANCH  25  26
HETATM   26  O1  UNL     1      29.476 -14.808 -10.340  1.00  0.00    -0.395 OA
ATOM     27  H1  UNL     1      30.065 -15.330  -9.807  1.00  0.00     0.210 HD
ENDBRANCH  25  26
BRANCH  25  28
HETATM   28  C4  UNL     1      28.206 -13.700  -8.656  1.00  0.00     0.058 C 
BRANCH  28  29
HETATM   29  C5  UNL     1      29.058 -13.592  -7.369  1.00  0.00     0.166 C 
BRANCH  29  30
HETATM   30  O2  UNL     1      30.088 -14.526  -7.501  1.00  0.00    -0.401 OA
ATOM     31  H2  UNL     1      29.684 -15.381  -7.416  1.00  0.00     0.209 HD
ENDBRANCH  29  30
ENDBRANCH  28  29
ENDBRANCH  25  28
ENDBRANCH  23  25
ENDBRANCH  21  23
ENDBRANCH   1  21
BRANCH  18  32
HETATM   32  O6  UNL     1      29.428 -10.646 -16.497  1.00  0.00    -0.396 OA
ATOM     33  H6  UNL     1      29.213 -11.530 -16.221  1.00  0.00     0.210 HD
ENDBRANCH  18  32
BRANCH   6  34
HETATM   34  O3  UNL     1      23.501  -9.386 -11.492  1.00  0.00    -0.395 OA
ATOM     35  H3  UNL     1      23.545  -9.217 -12.426  1.00  0.00     0.210 HD
ENDBRANCH   6  34
BRANCH   8  36
HETATM   36  O4  UNL     1      22.820 -10.369  -9.258  1.00  0.00    -0.393 OA
ATOM     37  H4  UNL     1      23.070 -10.714 -10.107  1.00  0.00     0.210 HD
ENDBRANCH   8  36
BRANCH   9  38
HETATM   38  O5  UNL     1      24.474  -9.425  -6.322  1.00  0.00    -0.393 OA
ATOM     39  H5  UNL     1      25.197  -8.835  -6.498  1.00  0.00     0.210 HD
ENDBRANCH   9  38
TORSDOF 11
ENDMDL
MODEL 5
REMARK VINA RESULT: -7.070906023      1.382      2.012
REMARK  11 active torsions:
REMARK  status: ('A' for Active; 'I' for Inactive)
REMARK    1  A    between atoms: C2_2  and  C3_3 
REMARK    2  A    between atoms: C2_2  and  C6_10 
REMARK    3  A    between atoms: C3_3  and  O1_4 
REMARK    4  A    between atoms: C3_3  and  C4_6 
REMARK    5  A    between atoms: C4_6  and  C5_7 
REMARK    6  A    between atoms: C5_7  and  O2_8 
REMARK    7  A    between atoms: C6_10  and  C8_12 
REMARK    8  A    between atoms: C13_17  and  O3_18 
REMARK    9  A    between atoms: C15_21  and  O4_22 
REMARK   10  A    between atoms: C16_24  and  O5_25 
REMARK   11  A    between atoms: C25_35  and  O6_36 
ROOT
HETATM    1  C8  UNL     1      27.383 -10.366 -10.450  1.00  0.00    -0.005 C 
HETATM    2  C9  UNL     1      28.245  -9.978 -11.706  1.00  0.00     0.011 C 
HETATM    3  C10 UNL     1      28.438 -11.146 -12.576  1.00  0.00    -0.001 C 
HETATM    4  C11 UNL     1      29.475 -12.009 -11.858  1.00  0.00     0.001 C 
HETATM    5  C12 UNL     1      30.893 -11.474 -12.121  1.00  0.00     0.038 C 
HETATM    6  C13 UNL     1      31.161 -11.603 -13.630  1.00  0.00     0.126 C 
HETATM    7  C14 UNL     1      30.212 -10.673 -14.312  1.00  0.00     0.054 C 
HETATM    8  C15 UNL     1      30.478 -10.642 -15.777  1.00  0.00     0.154 C 
HETATM    9  C16 UNL     1      29.607  -9.726 -16.555  1.00  0.00     0.147 C 
HETATM   10  C17 UNL     1      28.235  -9.528 -16.030  1.00  0.00     0.035 C 
HETATM   11  C18 UNL     1      28.065  -9.677 -14.554  1.00  0.00     0.012 C 
HETATM   12  C19 UNL     1      28.766 -10.920 -13.996  1.00  0.00    -0.032 C 
HETATM   13  C20 UNL     1      28.223 -12.114 -14.798  1.00  0.00     0.016 C 
HETATM   14  C21 UNL     1      29.168 -12.216 -10.441  1.00  0.00    -0.036 C 
HETATM   15  C22 UNL     1      30.511 -12.075  -9.698  1.00  0.00     0.016 C 
HETATM   16  C23 UNL     1      28.853 -13.712 -10.267  1.00  0.00     0.012 C 
HETATM   17  C24 UNL     1      29.009 -14.144  -8.840  1.00  0.00     0.032 C 
HETATM   18  C25 UNL     1      28.122 -13.280  -8.022  1.00  0.00     0.118 C 
HETATM   19  C26 UNL     1      27.216 -12.384  -8.914  1.00  0.00     0.037 C 
HETATM   20  C27 UNL     1      28.060 -11.467  -9.766  1.00  0.00     0.001 C 
ENDROOT
BRANCH   1  21
HETATM   21  C6  UNL     1      25.957 -10.385 -10.832  1.00  0.00    -0.008 C 
HETATM   22  C7  UNL     1      25.326 -11.720 -11.140  1.00  0.00     0.011 C 
BRANCH  21  23
HETATM   23  C2  UNL     1      24.988  -9.699  -9.925  1.00  0.00     0.014 C 
HETATM   24  C1  UNL     1      24.156  -8.766 -10.822  1.00  0.00     0.013 C 
BRANCH  23  25
HETATM   25  C3  UNL     1      24.132 -10.403  -8.976  1.00  0.00     0.124 C 
BRANCH  25  26
HETATM   26  O1  UNL     1      22.777 -10.489  -9.256  1.00  0.00    -0.395 OA
ATOM     27  H1  UNL     1      22.280 -11.193  -8.856  1.00  0.00     0.210 HD
ENDBRANCH  25  26
BRANCH  25  28
HETATM   28  C4  UNL     1      24.352 -10.154  -7.500  1.00  0.00     0.058 C 
BRANCH  28  29
HETATM   29  C5  UNL     1      23.091  -9.492  -6.894  1.00  0.00     0.166 C 
BRANCH  29  30
HETATM   30  O2  UNL     1      22.873  -8.322  -7.624  1.00  0.00    -0.401 OA
ATOM     31  H2  UNL     1      23.084  -7.602  -7.042  1.00  0.00     0.209 HD
ENDBRANCH  29  30
ENDBRANCH  28  29
ENDBRANCH  25  28
ENDBRANCH  23  25
ENDBRANCH  21  23
ENDBRANCH   1  21
BRANCH  18  32
HETATM   32  O6  UNL     1      27.191 -14.138  -7.382  1.00  0.00    -0.396 OA
ATOM     33  H6  UNL     1      27.445 -15.029  -7.596  1.00  0.00     0.210 HD
ENDBRANCH  18  32
BRANCH   6  34
HETATM   34  O3  UNL     1      31.143 -12.901 -14.061  1.00  0.00    -0.395 OA
ATOM     35  H3  UNL     1      30.729 -13.488 -13.440  1.00  0.00     0.210 HD
ENDBRANCH   6  34
BRANCH   8  36
HETATM   36  O4  UNL     1      30.547 -11.942 -16.330  1.00  0.00    -0.393 OA
ATOM     37  H4  UNL     1      31.445 -12.234 -16.438  1.00  0.00     0.210 HD
ENDBRANCH   8  36
BRANCH   9  38
HETATM   38  O5  UNL     1      30.248  -8.485 -16.775  1.00  0.00    -0.393 OA
ATOM     39  H5  UNL     1      30.839  -8.277 -16.061  1.00  0.00     0.210 HD
ENDBRANCH   9  38
TORSDOF 11
ENDMDL
