MODEL 1
REMARK VINA RESULT: -7.621858543      0.000      0.000
REMARK  12 active torsions:
REMARK  status: ('A' for Active; 'I' for Inactive)
REMARK    1  A    between atoms: C2_2  and  N1_3 
REMARK    2  A    between atoms: C2_2  and  C4_11 
REMARK    3  A    between atoms: N1_3  and  N2_5 
REMARK    4  A    between atoms: N2_5  and  C3_7 
REMARK    5  A    between atoms: C3_7  and  N3_8 
REMARK    6  A    between atoms: C4_11  and  C12_35 
REMARK       I    between atoms: N4_12  and  C5_14 
REMARK    7  A    between atoms: C5_14  and  C6_16 
REMARK    8  A    between atoms: N5_19  and  O3_20 
REMARK    9  A    between atoms: C10_27  and  C11_28 
REMARK   10  A    between atoms: C11_28  and  O4_29 
REMARK   11  A    between atoms: C11_28  and  O5_31 
REMARK   12  A    between atoms: C11_28  and  O6_33 
ROOT
HETATM    1  C4  UNL     1      57.509  17.092  48.615  1.00  0.00     0.082 C 
HETATM    2  N4  UNL     1      57.922  16.378  47.711  1.00  0.00    -0.325 N 
ATOM      3  H4  UNL     1      58.568  16.872  47.096  1.00  0.00     0.169 HD
HETATM    4  C5  UNL     1      57.731  15.078  47.320  1.00  0.00     0.235 C 
HETATM    5  O1  UNL     1      58.322  14.150  47.995  1.00  0.00    -0.272 OA
ENDROOT
BRANCH   1   6
HETATM    6  C2  UNL     1      58.010  18.536  48.663  1.00  0.00     0.149 C 
HETATM    7  C1  UNL     1      59.123  18.657  47.663  1.00  0.00     0.040 C 
BRANCH   6   8
HETATM    8  N1  UNL     1      56.932  19.446  48.474  1.00  0.00    -0.318 N 
ATOM      9  H1  UNL     1      56.595  20.015  49.250  1.00  0.00     0.181 HD
BRANCH   8  10
HETATM   10  N2  UNL     1      56.348  19.547  47.225  1.00  0.00    -0.255 N 
ATOM     11  H2  UNL     1      56.852  19.142  46.436  1.00  0.00     0.198 HD
BRANCH  10  12
HETATM   12  C3  UNL     1      55.238  20.102  46.983  1.00  0.00     0.060 C 
BRANCH  12  13
HETATM   13  N3  UNL     1      54.014  20.416  46.809  1.00  0.00    -0.351 N 
ATOM     14  H32 UNL     1      54.143  20.428  45.797  1.00  0.00     0.167 HD
ATOM     15  H31 UNL     1      53.027  20.660  46.890  1.00  0.00     0.167 HD
ENDBRANCH  12  13
ENDBRANCH  10  12
ENDBRANCH   8  10
ENDBRANCH   6   8
ENDBRANCH   1   6
BRANCH   1  16
HETATM   16  C12 UNL     1      56.571  16.738  49.672  1.00  0.00     0.154 A 
HETATM   17  N8  UNL     1      55.527  15.860  49.536  1.00  0.00    -0.239 N 
HETATM   18  O7  UNL     1      54.883  15.743  50.624  1.00  0.00    -0.199 OA
ATOM     19  H8  UNL     1      55.298  15.365  48.674  1.00  0.00     0.196 HD
HETATM   20  C13 UNL     1      55.423  16.499  51.528  1.00  0.00     0.242 A 
HETATM   21  N9  UNL     1      55.078  16.670  52.758  1.00  0.00    -0.364 N 
HETATM   22  N10 UNL     1      56.480  17.128  50.946  1.00  0.00    -0.304 N 
ATOM     23  H92 UNL     1      54.286  16.199  53.194  1.00  0.00     0.159 HD
ATOM     24  H91 UNL     1      55.503  17.266  53.470  1.00  0.00     0.159 HD
ATOM     25  H10 UNL     1      57.103  17.790  51.409  1.00  0.00     0.171 HD
ENDBRANCH   1  16
BRANCH   4  26
HETATM   26  C6  UNL     1      56.905  14.625  46.180  1.00  0.00     0.170 C 
HETATM   27  C7  UNL     1      55.778  15.578  45.986  1.00  0.00     0.124 A 
HETATM   28  O2  UNL     1      54.698  16.079  46.533  1.00  0.00    -0.210 OA
HETATM   29  C9  UNL     1      55.894  16.186  44.748  1.00  0.00     0.108 A 
HETATM   30  N5  UNL     1      54.130  16.942  45.752  1.00  0.00    -0.105 N 
HETATM   31  C8  UNL     1      54.822  17.066  44.609  1.00  0.00     0.198 A 
HETATM   32  N6  UNL     1      54.552  17.897  43.489  1.00  0.00    -0.075 NA
HETATM   33  N7  UNL     1      57.052  15.681  44.100  1.00  0.00    -0.372 N 
HETATM   34  C10 UNL     1      57.595  14.579  44.864  1.00  0.00     0.194 C 
ATOM     35  H7  UNL     1      57.442  16.040  43.228  1.00  0.00     0.160 HD
BRANCH  30  36
HETATM   36  O3  UNL     1      52.969  17.635  46.067  1.00  0.00    -0.261 OA
ATOM     37  H3  UNL     1      52.265  17.804  45.453  1.00  0.00     0.247 HD
ENDBRANCH  30  36
BRANCH  34  38
HETATM   38  C11 UNL     1      57.164  13.312  44.110  1.00  0.00     0.298 C 
BRANCH  38  39
HETATM   39  O4  UNL     1      56.025  13.530  43.361  1.00  0.00    -0.342 OA
ATOM     40  H4  UNL     1      55.996  12.967  42.596  1.00  0.00     0.215 HD
ENDBRANCH  38  39
BRANCH  38  41
HETATM   41  O5  UNL     1      58.241  12.962  43.296  1.00  0.00    -0.342 OA
ATOM     42  H5  UNL     1      58.384  12.033  43.435  1.00  0.00     0.215 HD
ENDBRANCH  38  41
BRANCH  38  43
HETATM   43  O6  UNL     1      56.970  12.284  45.037  1.00  0.00    -0.342 OA
ATOM     44  H6  UNL     1      56.440  11.607  44.634  1.00  0.00     0.215 HD
ENDBRANCH  38  43
ENDBRANCH  34  38
ENDBRANCH   4  26
TORSDOF 12
ENDMDL
MODEL 2
REMARK VINA RESULT: -7.447900685      5.929      9.171
REMARK  12 active torsions:
REMARK  status: ('A' for Active; 'I' for Inactive)
REMARK    1  A    between atoms: C2_2  and  N1_3 
REMARK    2  A    between atoms: C2_2  and  C4_11 
REMARK    3  A    between atoms: N1_3  and  N2_5 
REMARK    4  A    between atoms: N2_5  and  C3_7 
REMARK    5  A    between atoms: C3_7  and  N3_8 
REMARK    6  A    between atoms: C4_11  and  C12_35 
REMARK       I    between atoms: N4_12  and  C5_14 
REMARK    7  A    between atoms: C5_14  and  C6_16 
REMARK    8  A    between atoms: N5_19  and  O3_20 
REMARK    9  A    between atoms: C10_27  and  C11_28 
REMARK   10  A    between atoms: C11_28  and  O4_29 
REMARK   11  A    between atoms: C11_28  and  O5_31 
REMARK   12  A    between atoms: C11_28  and  O6_33 
ROOT
HETATM    1  C4  UNL     1      51.234  24.796  46.701  1.00  0.00     0.082 C 
HETATM    2  N4  UNL     1      51.945  23.971  46.141  1.00  0.00    -0.325 N 
ATOM      3  H4  UNL     1      51.548  23.662  45.253  1.00  0.00     0.169 HD
HETATM    4  C5  UNL     1      53.142  23.361  46.410  1.00  0.00     0.235 C 
HETATM    5  O1  UNL     1      54.222  24.046  46.242  1.00  0.00    -0.272 OA
ENDROOT
BRANCH   1   6
HETATM    6  C2  UNL     1      49.933  25.200  46.005  1.00  0.00     0.149 C 
HETATM    7  C1  UNL     1      50.297  25.720  44.645  1.00  0.00     0.040 C 
BRANCH   6   8
HETATM    8  N1  UNL     1      49.009  24.117  46.005  1.00  0.00    -0.318 N 
ATOM      9  H1  UNL     1      49.269  23.217  46.409  1.00  0.00     0.181 HD
BRANCH   8  10
HETATM   10  N2  UNL     1      47.756  24.301  45.452  1.00  0.00    -0.255 N 
ATOM     11  H2  UNL     1      47.148  24.996  45.886  1.00  0.00     0.198 HD
BRANCH  10  12
HETATM   12  C3  UNL     1      47.303  23.675  44.451  1.00  0.00     0.060 C 
BRANCH  12  13
HETATM   13  N3  UNL     1      47.029  23.197  43.301  1.00  0.00    -0.351 N 
ATOM     14  H32 UNL     1      47.768  22.500  43.395  1.00  0.00     0.167 HD
ATOM     15  H31 UNL     1      46.656  22.973  42.379  1.00  0.00     0.167 HD
ENDBRANCH  12  13
ENDBRANCH  10  12
ENDBRANCH   8  10
ENDBRANCH   6   8
ENDBRANCH   1   6
BRANCH   1  16
HETATM   16  C12 UNL     1      51.468  25.450  47.981  1.00  0.00     0.154 A 
HETATM   17  N8  UNL     1      50.669  25.324  49.087  1.00  0.00    -0.239 N 
HETATM   18  O7  UNL     1      51.123  26.004  50.059  1.00  0.00    -0.199 OA
ATOM     19  H8  UNL     1      49.821  24.758  49.125  1.00  0.00     0.196 HD
HETATM   20  C13 UNL     1      52.209  26.608  49.692  1.00  0.00     0.242 A 
HETATM   21  N9  UNL     1      52.976  27.390  50.373  1.00  0.00    -0.364 N 
HETATM   22  N10 UNL     1      52.438  26.271  48.394  1.00  0.00    -0.304 N 
ATOM     23  H92 UNL     1      52.804  27.642  51.346  1.00  0.00     0.159 HD
ATOM     24  H91 UNL     1      53.831  27.866  50.084  1.00  0.00     0.159 HD
ATOM     25  H10 UNL     1      53.222  26.593  47.828  1.00  0.00     0.171 HD
ENDBRANCH   1  16
BRANCH   4  26
HETATM   26  C6  UNL     1      53.323  21.970  46.878  1.00  0.00     0.170 C 
HETATM   27  C7  UNL     1      53.107  21.918  48.349  1.00  0.00     0.124 A 
HETATM   28  O2  UNL     1      53.553  22.336  49.508  1.00  0.00    -0.210 OA
HETATM   29  C9  UNL     1      52.011  21.122  48.629  1.00  0.00     0.108 A 
HETATM   30  N5  UNL     1      52.837  21.875  50.484  1.00  0.00    -0.105 N 
HETATM   31  C8  UNL     1      51.846  21.102  50.013  1.00  0.00     0.198 A 
HETATM   32  N6  UNL     1      50.839  20.406  50.734  1.00  0.00    -0.075 NA
HETATM   33  N7  UNL     1      51.479  20.634  47.406  1.00  0.00    -0.372 N 
HETATM   34  C10 UNL     1      52.371  20.974  46.318  1.00  0.00     0.194 C 
ATOM     35  H7  UNL     1      50.602  20.122  47.309  1.00  0.00     0.160 HD
BRANCH  30  36
HETATM   36  O3  UNL     1      53.072  22.151  51.824  1.00  0.00    -0.261 OA
ATOM     37  H3  UNL     1      52.464  21.952  52.525  1.00  0.00     0.247 HD
ENDBRANCH  30  36
BRANCH  34  38
HETATM   38  C11 UNL     1      53.126  19.676  45.994  1.00  0.00     0.298 C 
BRANCH  38  39
HETATM   39  O4  UNL     1      52.697  18.628  46.782  1.00  0.00    -0.342 OA
ATOM     40  H4  UNL     1      53.077  17.803  46.505  1.00  0.00     0.215 HD
ENDBRANCH  38  39
BRANCH  38  41
HETATM   41  O5  UNL     1      52.890  19.420  44.644  1.00  0.00    -0.342 OA
ATOM     42  H5  UNL     1      52.827  18.476  44.564  1.00  0.00     0.215 HD
ENDBRANCH  38  41
BRANCH  38  43
HETATM   43  O6  UNL     1      54.496  19.904  46.159  1.00  0.00    -0.342 OA
ATOM     44  H6  UNL     1      54.802  19.391  46.897  1.00  0.00     0.215 HD
ENDBRANCH  38  43
ENDBRANCH  34  38
ENDBRANCH   4  26
TORSDOF 12
ENDMDL
MODEL 3
REMARK VINA RESULT: -7.424814266      6.165      9.414
REMARK  12 active torsions:
REMARK  status: ('A' for Active; 'I' for Inactive)
REMARK    1  A    between atoms: C2_2  and  N1_3 
REMARK    2  A    between atoms: C2_2  and  C4_11 
REMARK    3  A    between atoms: N1_3  and  N2_5 
REMARK    4  A    between atoms: N2_5  and  C3_7 
REMARK    5  A    between atoms: C3_7  and  N3_8 
REMARK    6  A    between atoms: C4_11  and  C12_35 
REMARK       I    between atoms: N4_12  and  C5_14 
REMARK    7  A    between atoms: C5_14  and  C6_16 
REMARK    8  A    between atoms: N5_19  and  O3_20 
REMARK    9  A    between atoms: C10_27  and  C11_28 
REMARK   10  A    between atoms: C11_28  and  O4_29 
REMARK   11  A    between atoms: C11_28  and  O5_31 
REMARK   12  A    between atoms: C11_28  and  O6_33 
ROOT
HETATM    1  C4  UNL     1      51.287  25.063  47.355  1.00  0.00     0.082 C 
HETATM    2  N4  UNL     1      51.787  24.206  46.637  1.00  0.00    -0.325 N 
ATOM      3  H4  UNL     1      51.157  23.919  45.888  1.00  0.00     0.169 HD
HETATM    4  C5  UNL     1      52.982  23.537  46.591  1.00  0.00     0.235 C 
HETATM    5  O1  UNL     1      54.012  24.170  46.140  1.00  0.00    -0.272 OA
ENDROOT
BRANCH   1   6
HETATM    6  C2  UNL     1      49.870  25.532  47.019  1.00  0.00     0.149 C 
HETATM    7  C1  UNL     1      49.319  24.587  45.991  1.00  0.00     0.040 C 
BRANCH   6   8
HETATM    8  N1  UNL     1      49.090  25.652  48.203  1.00  0.00    -0.318 N 
ATOM      9  H1  UNL     1      49.512  25.493  49.118  1.00  0.00     0.181 HD
BRANCH   8  10
HETATM   10  N2  UNL     1      47.753  25.988  48.098  1.00  0.00    -0.255 N 
ATOM     11  H2  UNL     1      47.444  26.421  47.227  1.00  0.00     0.198 HD
BRANCH  10  12
HETATM   12  C3  UNL     1      46.883  25.801  48.995  1.00  0.00     0.060 C 
BRANCH  12  13
HETATM   13  N3  UNL     1      45.921  25.409  49.735  1.00  0.00    -0.351 N 
ATOM     14  H32 UNL     1      46.500  25.504  50.570  1.00  0.00     0.167 HD
ATOM     15  H31 UNL     1      45.042  25.080  50.135  1.00  0.00     0.167 HD
ENDBRANCH  12  13
ENDBRANCH  10  12
ENDBRANCH   8  10
ENDBRANCH   6   8
ENDBRANCH   1   6
BRANCH   1  16
HETATM   16  C12 UNL     1      51.878  25.703  48.522  1.00  0.00     0.154 A 
HETATM   17  N8  UNL     1      51.890  25.175  49.788  1.00  0.00    -0.239 N 
HETATM   18  O7  UNL     1      52.480  25.951  50.602  1.00  0.00    -0.199 OA
ATOM     19  H8  UNL     1      51.479  24.277  50.042  1.00  0.00     0.196 HD
HETATM   20  C13 UNL     1      52.888  27.007  49.971  1.00  0.00     0.242 A 
HETATM   21  N9  UNL     1      53.527  28.031  50.425  1.00  0.00    -0.364 N 
HETATM   22  N10 UNL     1      52.519  26.866  48.669  1.00  0.00    -0.304 N 
ATOM     23  H92 UNL     1      53.803  28.137  51.401  1.00  0.00     0.159 HD
ATOM     24  H91 UNL     1      53.848  28.862  49.929  1.00  0.00     0.159 HD
ATOM     25  H10 UNL     1      52.701  27.539  47.925  1.00  0.00     0.171 HD
ENDBRANCH   1  16
BRANCH   4  26
HETATM   26  C6  UNL     1      53.212  22.138  47.011  1.00  0.00     0.170 C 
HETATM   27  C7  UNL     1      53.013  22.031  48.481  1.00  0.00     0.124 A 
HETATM   28  O2  UNL     1      53.458  22.424  49.650  1.00  0.00    -0.210 OA
HETATM   29  C9  UNL     1      51.946  21.191  48.745  1.00  0.00     0.108 A 
HETATM   30  N5  UNL     1      52.767  21.908  50.616  1.00  0.00    -0.105 N 
HETATM   31  C8  UNL     1      51.796  21.119  50.129  1.00  0.00     0.198 A 
HETATM   32  N6  UNL     1      50.820  20.368  50.835  1.00  0.00    -0.075 NA
HETATM   33  N7  UNL     1      51.417  20.727  47.511  1.00  0.00    -0.372 N 
HETATM   34  C10 UNL     1      52.286  21.131  46.427  1.00  0.00     0.194 C 
ATOM     35  H7  UNL     1      50.556  20.190  47.405  1.00  0.00     0.160 HD
BRANCH  30  36
HETATM   36  O3  UNL     1      53.007  22.146  51.963  1.00  0.00    -0.261 OA
ATOM     37  H3  UNL     1      52.394  21.945  52.659  1.00  0.00     0.247 HD
ENDBRANCH  30  36
BRANCH  34  38
HETATM   38  C11 UNL     1      53.080  19.870  46.052  1.00  0.00     0.298 C 
BRANCH  38  39
HETATM   39  O4  UNL     1      54.429  20.028  46.297  1.00  0.00    -0.342 OA
ATOM     40  H4  UNL     1      54.954  19.463  45.741  1.00  0.00     0.215 HD
ENDBRANCH  38  39
BRANCH  38  41
HETATM   41  O5  UNL     1      52.547  18.837  46.822  1.00  0.00    -0.342 OA
ATOM     42  H5  UNL     1      53.103  18.768  47.589  1.00  0.00     0.215 HD
ENDBRANCH  38  41
BRANCH  38  43
HETATM   43  O6  UNL     1      52.841  19.577  44.706  1.00  0.00    -0.342 OA
ATOM     44  H6  UNL     1      53.614  19.158  44.345  1.00  0.00     0.215 HD
ENDBRANCH  38  43
ENDBRANCH  34  38
ENDBRANCH   4  26
TORSDOF 12
ENDMDL
MODEL 4
REMARK VINA RESULT: -7.372070483      5.936      9.437
REMARK  12 active torsions:
REMARK  status: ('A' for Active; 'I' for Inactive)
REMARK    1  A    between atoms: C2_2  and  N1_3 
REMARK    2  A    between atoms: C2_2  and  C4_11 
REMARK    3  A    between atoms: N1_3  and  N2_5 
REMARK    4  A    between atoms: N2_5  and  C3_7 
REMARK    5  A    between atoms: C3_7  and  N3_8 
REMARK    6  A    between atoms: C4_11  and  C12_35 
REMARK       I    between atoms: N4_12  and  C5_14 
REMARK    7  A    between atoms: C5_14  and  C6_16 
REMARK    8  A    between atoms: N5_19  and  O3_20 
REMARK    9  A    between atoms: C10_27  and  C11_28 
REMARK   10  A    between atoms: C11_28  and  O4_29 
REMARK   11  A    between atoms: C11_28  and  O5_31 
REMARK   12  A    between atoms: C11_28  and  O6_33 
ROOT
HETATM    1  C4  UNL     1      51.013  24.996  46.597  1.00  0.00     0.082 C 
HETATM    2  N4  UNL     1      51.497  23.927  46.247  1.00  0.00    -0.325 N 
ATOM      3  H4  UNL     1      50.997  23.520  45.457  1.00  0.00     0.169 HD
HETATM    4  C5  UNL     1      52.545  23.143  46.654  1.00  0.00     0.235 C 
HETATM    5  O1  UNL     1      53.738  23.512  46.331  1.00  0.00    -0.272 OA
ENDROOT
BRANCH   1   6
HETATM    6  C2  UNL     1      49.797  25.510  45.824  1.00  0.00     0.149 C 
HETATM    7  C1  UNL     1      49.999  25.148  44.381  1.00  0.00     0.040 C 
BRANCH   6   8
HETATM    8  N1  UNL     1      48.593  25.019  46.403  1.00  0.00    -0.318 N 
ATOM      9  H1  UNL     1      48.306  24.052  46.255  1.00  0.00     0.181 HD
BRANCH   8  10
HETATM   10  N2  UNL     1      47.818  25.870  47.169  1.00  0.00    -0.255 N 
ATOM     11  H2  UNL     1      47.736  26.839  46.858  1.00  0.00     0.198 HD
BRANCH  10  12
HETATM   12  C3  UNL     1      47.204  25.543  48.225  1.00  0.00     0.060 C 
BRANCH  12  13
HETATM   13  N3  UNL     1      46.409  25.413  49.213  1.00  0.00    -0.351 N 
ATOM     14  H32 UNL     1      47.137  25.715  49.861  1.00  0.00     0.167 HD
ATOM     15  H31 UNL     1      45.629  25.245  49.849  1.00  0.00     0.167 HD
ENDBRANCH  12  13
ENDBRANCH  10  12
ENDBRANCH   8  10
ENDBRANCH   6   8
ENDBRANCH   1   6
BRANCH   1  16
HETATM   16  C12 UNL     1      51.450  25.858  47.687  1.00  0.00     0.154 A 
HETATM   17  N8  UNL     1      51.025  25.759  48.987  1.00  0.00    -0.239 N 
HETATM   18  O7  UNL     1      51.580  26.638  49.717  1.00  0.00    -0.199 OA
ATOM     19  H8  UNL     1      50.353  25.069  49.323  1.00  0.00     0.196 HD
HETATM   20  C13 UNL     1      52.379  27.357  48.994  1.00  0.00     0.242 A 
HETATM   21  N9  UNL     1      53.128  28.346  49.346  1.00  0.00    -0.364 N 
HETATM   22  N10 UNL     1      52.308  26.880  47.721  1.00  0.00    -0.304 N 
ATOM     23  H92 UNL     1      53.181  28.703  50.300  1.00  0.00     0.159 HD
ATOM     24  H91 UNL     1      53.757  28.912  48.776  1.00  0.00     0.159 HD
ATOM     25  H10 UNL     1      52.827  27.245  46.922  1.00  0.00     0.171 HD
ENDBRANCH   1  16
BRANCH   4  26
HETATM   26  C6  UNL     1      52.442  21.892  47.437  1.00  0.00     0.170 C 
HETATM   27  C7  UNL     1      52.803  20.741  46.566  1.00  0.00     0.124 A 
HETATM   28  O2  UNL     1      52.465  20.065  45.495  1.00  0.00    -0.210 OA
HETATM   29  C9  UNL     1      53.939  20.125  47.060  1.00  0.00     0.108 A 
HETATM   30  N5  UNL     1      53.284  19.086  45.276  1.00  0.00    -0.105 N 
HETATM   31  C8  UNL     1      54.240  19.056  46.217  1.00  0.00     0.198 A 
HETATM   32  N6  UNL     1      55.328  18.153  46.354  1.00  0.00    -0.075 NA
HETATM   33  N7  UNL     1      54.358  20.813  48.229  1.00  0.00    -0.372 N 
HETATM   34  C10 UNL     1      53.356  21.787  48.605  1.00  0.00     0.194 C 
ATOM     35  H7  UNL     1      55.233  20.647  48.728  1.00  0.00     0.160 HD
BRANCH  30  36
HETATM   36  O3  UNL     1      53.176  18.200  44.212  1.00  0.00    -0.261 OA
ATOM     37  H3  UNL     1      53.312  17.263  44.281  1.00  0.00     0.247 HD
ENDBRANCH  30  36
BRANCH  34  38
HETATM   38  C11 UNL     1      52.601  21.157  49.784  1.00  0.00     0.298 C 
BRANCH  38  39
HETATM   39  O4  UNL     1      53.341  20.158  50.385  1.00  0.00    -0.342 OA
ATOM     40  H4  UNL     1      54.065  20.513  50.887  1.00  0.00     0.215 HD
ENDBRANCH  38  39
BRANCH  38  41
HETATM   41  O5  UNL     1      52.342  22.197  50.676  1.00  0.00    -0.342 OA
ATOM     42  H5  UNL     1      51.396  22.262  50.735  1.00  0.00     0.215 HD
ENDBRANCH  38  41
BRANCH  38  43
HETATM   43  O6  UNL     1      51.376  20.669  49.320  1.00  0.00    -0.342 OA
ATOM     44  H6  UNL     1      50.682  21.226  49.652  1.00  0.00     0.215 HD
ENDBRANCH  38  43
ENDBRANCH  34  38
ENDBRANCH   4  26
TORSDOF 12
ENDMDL
MODEL 5
REMARK VINA RESULT: -7.261665969      5.772      9.377
REMARK  12 active torsions:
REMARK  status: ('A' for Active; 'I' for Inactive)
REMARK    1  A    between atoms: C2_2  and  N1_3 
REMARK    2  A    between atoms: C2_2  and  C4_11 
REMARK    3  A    between atoms: N1_3  and  N2_5 
REMARK    4  A    between atoms: N2_5  and  C3_7 
REMARK    5  A    between atoms: C3_7  and  N3_8 
REMARK    6  A    between atoms: C4_11  and  C12_35 
REMARK       I    between atoms: N4_12  and  C5_14 
REMARK    7  A    between atoms: C5_14  and  C6_16 
REMARK    8  A    between atoms: N5_19  and  O3_20 
REMARK    9  A    between atoms: C10_27  and  C11_28 
REMARK   10  A    between atoms: C11_28  and  O4_29 
REMARK   11  A    between atoms: C11_28  and  O5_31 
REMARK   12  A    between atoms: C11_28  and  O6_33 
ROOT
HETATM    1  C4  UNL     1      51.119  24.964  46.409  1.00  0.00     0.082 C 
HETATM    2  N4  UNL     1      51.599  23.867  46.156  1.00  0.00    -0.325 N 
ATOM      3  H4  UNL     1      51.172  23.443  45.332  1.00  0.00     0.169 HD
HETATM    4  C5  UNL     1      52.568  23.067  46.703  1.00  0.00     0.235 C 
HETATM    5  O1  UNL     1      53.802  23.384  46.498  1.00  0.00    -0.272 OA
ENDROOT
BRANCH   1   6
HETATM    6  C2  UNL     1      50.013  25.484  45.490  1.00  0.00     0.149 C 
HETATM    7  C1  UNL     1      50.387  25.112  44.085  1.00  0.00     0.040 C 
BRANCH   6   8
HETATM    8  N1  UNL     1      48.742  25.007  45.919  1.00  0.00    -0.318 N 
ATOM      9  H1  UNL     1      48.179  25.554  46.570  1.00  0.00     0.181 HD
BRANCH   8  10
HETATM   10  N2  UNL     1      48.282  23.794  45.443  1.00  0.00    -0.255 N 
ATOM     11  H2  UNL     1      48.562  22.953  45.949  1.00  0.00     0.198 HD
BRANCH  10  12
HETATM   12  C3  UNL     1      47.541  23.644  44.429  1.00  0.00     0.060 C 
BRANCH  12  13
HETATM   13  N3  UNL     1      47.027  23.407  43.287  1.00  0.00    -0.351 N 
ATOM     14  H32 UNL     1      46.649  24.354  43.241  1.00  0.00     0.167 HD
ATOM     15  H31 UNL     1      46.706  23.018  42.400  1.00  0.00     0.167 HD
ENDBRANCH  12  13
ENDBRANCH  10  12
ENDBRANCH   8  10
ENDBRANCH   6   8
ENDBRANCH   1   6
BRANCH   1  16
HETATM   16  C12 UNL     1      51.468  25.857  47.507  1.00  0.00     0.154 A 
HETATM   17  N8  UNL     1      50.986  25.756  48.786  1.00  0.00    -0.239 N 
HETATM   18  O7  UNL     1      51.469  26.666  49.529  1.00  0.00    -0.199 OA
ATOM     19  H8  UNL     1      50.327  25.044  49.100  1.00  0.00     0.196 HD
HETATM   20  C13 UNL     1      52.272  27.408  48.835  1.00  0.00     0.242 A 
HETATM   21  N9  UNL     1      52.962  28.432  49.208  1.00  0.00    -0.364 N 
HETATM   22  N10 UNL     1      52.282  26.914  47.567  1.00  0.00    -0.304 N 
ATOM     23  H92 UNL     1      52.955  28.802  50.158  1.00  0.00     0.159 HD
ATOM     24  H91 UNL     1      53.595  29.017  48.661  1.00  0.00     0.159 HD
ATOM     25  H10 UNL     1      52.823  27.290  46.789  1.00  0.00     0.171 HD
ENDBRANCH   1  16
BRANCH   4  26
HETATM   26  C6  UNL     1      52.337  21.855  47.517  1.00  0.00     0.170 C 
HETATM   27  C7  UNL     1      52.733  20.656  46.730  1.00  0.00     0.124 A 
HETATM   28  O2  UNL     1      52.473  19.950  45.656  1.00  0.00    -0.210 OA
HETATM   29  C9  UNL     1      53.788  20.017  47.357  1.00  0.00     0.108 A 
HETATM   30  N5  UNL     1      53.268  18.932  45.556  1.00  0.00    -0.105 N 
HETATM   31  C8  UNL     1      54.125  18.904  46.588  1.00  0.00     0.198 A 
HETATM   32  N6  UNL     1      55.156  17.967  46.866  1.00  0.00    -0.075 NA
HETATM   33  N7  UNL     1      54.119  20.737  48.536  1.00  0.00    -0.372 N 
HETATM   34  C10 UNL     1      53.127  21.763  48.773  1.00  0.00     0.194 C 
ATOM     35  H7  UNL     1      54.933  20.558  49.125  1.00  0.00     0.160 HD
BRANCH  30  36
HETATM   36  O3  UNL     1      53.228  18.009  44.520  1.00  0.00    -0.261 OA
ATOM     37  H3  UNL     1      53.074  17.079  44.639  1.00  0.00     0.247 HD
ENDBRANCH  30  36
BRANCH  34  38
HETATM   38  C11 UNL     1      52.234  21.210  49.895  1.00  0.00     0.298 C 
BRANCH  38  39
HETATM   39  O4  UNL     1      52.936  20.371  50.736  1.00  0.00    -0.342 OA
ATOM     40  H4  UNL     1      53.735  20.056  50.329  1.00  0.00     0.215 HD
ENDBRANCH  38  39
BRANCH  38  41
HETATM   41  O5  UNL     1      51.748  22.321  50.583  1.00  0.00    -0.342 OA
ATOM     42  H5  UNL     1      52.512  22.789  50.897  1.00  0.00     0.215 HD
ENDBRANCH  38  41
BRANCH  38  43
HETATM   43  O6  UNL     1      51.147  20.549  49.315  1.00  0.00    -0.342 OA
ATOM     44  H6  UNL     1      50.386  21.115  49.365  1.00  0.00     0.215 HD
ENDBRANCH  38  43
ENDBRANCH  34  38
ENDBRANCH   4  26
TORSDOF 12
ENDMDL
