MODEL 1
REMARK VINA RESULT: -4.664080275      0.000      0.000
REMARK  1 active torsions:
REMARK  status: ('A' for Active; 'I' for Inactive)
REMARK    1  A    between atoms: N1_2  and  C2_5 
ROOT
HETATM    1  C2  UNL     1       5.760  12.198  45.094  1.00  0.00     0.212 C 
HETATM    2  C3  UNL     1       7.098  12.102  44.455  1.00  0.00     0.108 C 
HETATM    3  S1  UNL     1       7.553  10.431  43.948  1.00  0.00    -0.167 SA
HETATM    4  C4  UNL     1       6.821   9.978  42.355  1.00  0.00     0.074 C 
HETATM    5  C5  UNL     1       5.350  10.281  42.282  1.00  0.00     0.012 C 
HETATM    6  C6  UNL     1       4.765  10.377  43.668  1.00  0.00     0.022 C 
HETATM    7  C7  UNL     1       4.626  11.768  44.191  1.00  0.00     0.124 C 
HETATM    8  C8  UNL     1       4.404  12.759  43.135  1.00  0.00     0.066 C 
HETATM    9  N2  UNL     1       4.222  13.544  42.299  1.00  0.00    -0.197 NA
ENDROOT
BRANCH   1  10
HETATM   10  N1  UNL     1       5.639  11.465  46.327  1.00  0.00    -0.073 N 
HETATM   11  C1  UNL     1       4.570  12.042  47.106  1.00  0.00     0.267 C 
ATOM     12  H12 UNL     1       6.519  11.423  46.842  1.00  0.00     0.277 HD
ATOM     13  H11 UNL     1       5.516  10.465  46.176  1.00  0.00     0.277 HD
ENDBRANCH   1  10
TORSDOF 1
ENDMDL
MODEL 2
REMARK VINA RESULT: -4.657847800      5.256      7.306
REMARK  1 active torsions:
REMARK  status: ('A' for Active; 'I' for Inactive)
REMARK    1  A    between atoms: N1_2  and  C2_5 
ROOT
HETATM    1  C2  UNL     1       9.999   5.865  42.326  1.00  0.00     0.212 C 
HETATM    2  C3  UNL     1      10.257   7.266  41.903  1.00  0.00     0.108 C 
HETATM    3  S1  UNL     1       8.990   7.951  40.816  1.00  0.00    -0.167 SA
HETATM    4  C4  UNL     1       7.553   8.552  41.739  1.00  0.00     0.074 C 
HETATM    5  C5  UNL     1       7.048   7.557  42.746  1.00  0.00     0.012 C 
HETATM    6  C6  UNL     1       7.500   6.166  42.382  1.00  0.00     0.022 C 
HETATM    7  C7  UNL     1       8.716   5.696  43.108  1.00  0.00     0.124 C 
HETATM    8  C8  UNL     1       8.847   6.277  44.447  1.00  0.00     0.066 C 
HETATM    9  N2  UNL     1       8.948   6.733  45.509  1.00  0.00    -0.197 NA
ENDROOT
BRANCH   1  10
HETATM   10  N1  UNL     1       9.982   4.915  41.246  1.00  0.00    -0.073 N 
HETATM   11  C1  UNL     1      11.293   4.878  40.640  1.00  0.00     0.267 C 
ATOM     12  H12 UNL     1       9.245   5.108  40.569  1.00  0.00     0.277 HD
ATOM     13  H11 UNL     1       9.664   3.992  41.542  1.00  0.00     0.277 HD
ENDBRANCH   1  10
TORSDOF 1
ENDMDL
MODEL 3
REMARK VINA RESULT: -4.581369342      1.188      3.252
REMARK  1 active torsions:
REMARK  status: ('A' for Active; 'I' for Inactive)
REMARK    1  A    between atoms: N1_2  and  C2_5 
ROOT
HETATM    1  C2  UNL     1       4.617  11.730  43.703  1.00  0.00     0.212 C 
HETATM    2  C3  UNL     1       4.823  10.402  43.069  1.00  0.00     0.108 C 
HETATM    3  S1  UNL     1       6.264  10.320  41.986  1.00  0.00    -0.167 SA
HETATM    4  C4  UNL     1       7.798  10.056  42.910  1.00  0.00     0.074 C 
HETATM    5  C5  UNL     1       7.942  10.989  44.080  1.00  0.00     0.012 C 
HETATM    6  C6  UNL     1       7.081  12.211  43.887  1.00  0.00     0.022 C 
HETATM    7  C7  UNL     1       5.764  12.163  44.587  1.00  0.00     0.124 C 
HETATM    8  C8  UNL     1       5.796  11.368  45.818  1.00  0.00     0.066 C 
HETATM    9  N2  UNL     1       5.822  10.743  46.795  1.00  0.00    -0.197 NA
ENDROOT
BRANCH   1  10
HETATM   10  N1  UNL     1       4.355  12.795  42.772  1.00  0.00    -0.073 N 
HETATM   11  C1  UNL     1       3.605  13.827  43.448  1.00  0.00     0.267 C 
ATOM     12  H12 UNL     1       3.891  12.467  41.925  1.00  0.00     0.277 HD
ATOM     13  H11 UNL     1       5.205  13.152  42.337  1.00  0.00     0.277 HD
ENDBRANCH   1  10
TORSDOF 1
ENDMDL
MODEL 4
REMARK VINA RESULT: -4.529276289      3.902      5.875
REMARK  1 active torsions:
REMARK  status: ('A' for Active; 'I' for Inactive)
REMARK    1  A    between atoms: N1_2  and  C2_5 
ROOT
HETATM    1  C2  UNL     1       7.911   7.127  42.448  1.00  0.00     0.212 C 
HETATM    2  C3  UNL     1       8.740   8.335  42.199  1.00  0.00     0.108 C 
HETATM    3  S1  UNL     1       7.830   9.889  42.319  1.00  0.00    -0.167 SA
HETATM    4  C4  UNL     1       7.641  10.439  44.033  1.00  0.00     0.074 C 
HETATM    5  C5  UNL     1       7.150   9.350  44.944  1.00  0.00     0.012 C 
HETATM    6  C6  UNL     1       6.452   8.275  44.150  1.00  0.00     0.022 C 
HETATM    7  C7  UNL     1       7.299   7.088  43.830  1.00  0.00     0.124 C 
HETATM    8  C8  UNL     1       8.326   6.825  44.842  1.00  0.00     0.066 C 
HETATM    9  N2  UNL     1       9.136   6.614  45.646  1.00  0.00    -0.197 NA
ENDROOT
BRANCH   1  10
HETATM   10  N1  UNL     1       6.852   6.930  41.495  1.00  0.00    -0.073 N 
HETATM   11  C1  UNL     1       6.836   5.541  41.100  1.00  0.00     0.267 C 
ATOM     12  H12 UNL     1       6.923   7.562  40.697  1.00  0.00     0.277 HD
ATOM     13  H11 UNL     1       5.947   7.246  41.845  1.00  0.00     0.277 HD
ENDBRANCH   1  10
TORSDOF 1
ENDMDL
MODEL 5
REMARK VINA RESULT: -4.479146310      5.232      7.389
REMARK  1 active torsions:
REMARK  status: ('A' for Active; 'I' for Inactive)
REMARK    1  A    between atoms: N1_2  and  C2_5 
ROOT
HETATM    1  C2  UNL     1       9.884   6.917  40.433  1.00  0.00     0.212 C 
HETATM    2  C3  UNL     1      10.239   8.358  40.507  1.00  0.00     0.108 C 
HETATM    3  S1  UNL     1       8.816   9.460  40.642  1.00  0.00    -0.167 SA
HETATM    4  C4  UNL     1       8.205   9.580  42.342  1.00  0.00     0.074 C 
HETATM    5  C5  UNL     1       8.026   8.237  42.993  1.00  0.00     0.012 C 
HETATM    6  C6  UNL     1       7.887   7.160  41.947  1.00  0.00     0.022 C 
HETATM    7  C7  UNL     1       9.145   6.413  41.652  1.00  0.00     0.124 C 
HETATM    8  C8  UNL     1      10.047   6.327  42.804  1.00  0.00     0.066 C 
HETATM    9  N2  UNL     1      10.759   6.255  43.717  1.00  0.00    -0.197 NA
ENDROOT
BRANCH   1  10
HETATM   10  N1  UNL     1       9.113   6.557  39.273  1.00  0.00    -0.073 N 
HETATM   11  C1  UNL     1       9.085   5.117  39.164  1.00  0.00     0.267 C 
ATOM     12  H12 UNL     1       9.454   7.006  38.424  1.00  0.00     0.277 HD
ATOM     13  H11 UNL     1       8.178   6.965  39.283  1.00  0.00     0.277 HD
ENDBRANCH   1  10
TORSDOF 1
ENDMDL
