MODEL 1
REMARK VINA RESULT: -5.944268503      0.000      0.000
REMARK  8 active torsions:
REMARK  status: ('A' for Active; 'I' for Inactive)
REMARK    1  A    between atoms: C1_2  and  C2_4 
REMARK    2  A    between atoms: C2_4  and  C3_5 
REMARK    3  A    between atoms: C2_4  and  C4_7 
REMARK    4  A    between atoms: C4_7  and  O2_8 
REMARK    5  A    between atoms: C4_7  and  N2_10 
REMARK    6  A    between atoms: N2_10  and  C5_12 
REMARK    7  A    between atoms: C5_12  and  C6_13 
REMARK    8  A    between atoms: C5_12  and  C7_16 
ROOT
HETATM    1  N2  UNL     1      13.323  -6.613 -37.047  1.00  0.00    -0.379 N 
ATOM      2  H2  UNL     1      14.047  -6.402 -36.361  1.00  0.00     0.157 HD
ENDROOT
BRANCH   1   3
HETATM    3  C4  UNL     1      12.396  -7.609 -36.773  1.00  0.00     0.227 C 
BRANCH   3   4
HETATM    4  C2  UNL     1      11.712  -7.460 -35.422  1.00  0.00     0.133 C 
BRANCH   4   5
HETATM    5  C1  UNL     1      12.660  -7.408 -34.289  1.00  0.00     0.240 C 
HETATM    6  N1  UNL     1      12.947  -6.187 -33.611  1.00  0.00    -0.062 NA
HETATM    7  O1  UNL     1      13.197  -8.507 -33.958  1.00  0.00    -0.276 OA
ENDBRANCH   4   5
BRANCH   4   8
HETATM    8  C3  UNL     1      10.604  -8.405 -35.171  1.00  0.00     0.104 C 
HETATM    9  S1  UNL     1       8.960  -7.665 -35.329  1.00  0.00    -0.097 SA
ENDBRANCH   4   8
ENDBRANCH   3   4
BRANCH   3  10
HETATM   10  O2  UNL     1      13.026  -8.853 -36.765  1.00  0.00    -0.376 OA
ATOM     11  H2  UNL     1      13.747  -8.787 -36.150  1.00  0.00     0.212 HD
ENDBRANCH   3  10
ENDBRANCH   1   3
BRANCH   1  12
HETATM   12  C5  UNL     1      13.284  -5.881 -38.264  1.00  0.00     0.215 C 
BRANCH  12  13
HETATM   13  C6  UNL     1      13.771  -6.595 -39.430  1.00  0.00     0.201 C 
HETATM   14  O3  UNL     1      14.315  -5.878 -40.404  1.00  0.00    -0.646 OA
HETATM   15  O4  UNL     1      13.786  -7.925 -39.748  1.00  0.00    -0.646 OA
ENDBRANCH  12  13
BRANCH  12  16
HETATM   16  C7  UNL     1      11.942  -5.279 -38.383  1.00  0.00    -0.010 A 
HETATM   17  C8  UNL     1      11.040  -5.858 -39.303  1.00  0.00     0.012 A 
HETATM   18  C9  UNL     1       9.757  -5.402 -39.463  1.00  0.00     0.018 A 
HETATM   19  C10 UNL     1       9.294  -4.343 -38.717  1.00  0.00     0.087 A 
HETATM   20  N3  UNL     1      10.150  -3.795 -37.844  1.00  0.00    -0.375 N 
HETATM   21  C11 UNL     1      11.433  -4.234 -37.670  1.00  0.00     0.097 A 
ATOM     22  H3  UNL     1       9.827  -3.008 -37.280  1.00  0.00     0.164 HD
ENDBRANCH  12  16
ENDBRANCH   1  12
TORSDOF 8
ENDMDL
MODEL 2
REMARK VINA RESULT: -5.936290910      0.590      1.071
REMARK  8 active torsions:
REMARK  status: ('A' for Active; 'I' for Inactive)
REMARK    1  A    between atoms: C1_2  and  C2_4 
REMARK    2  A    between atoms: C2_4  and  C3_5 
REMARK    3  A    between atoms: C2_4  and  C4_7 
REMARK    4  A    between atoms: C4_7  and  O2_8 
REMARK    5  A    between atoms: C4_7  and  N2_10 
REMARK    6  A    between atoms: N2_10  and  C5_12 
REMARK    7  A    between atoms: C5_12  and  C6_13 
REMARK    8  A    between atoms: C5_12  and  C7_16 
ROOT
HETATM    1  N2  UNL     1      13.300  -6.598 -37.045  1.00  0.00    -0.379 N 
ATOM      2  H2  UNL     1      14.002  -6.356 -36.347  1.00  0.00     0.157 HD
ENDROOT
BRANCH   1   3
HETATM    3  C4  UNL     1      12.385  -7.605 -36.768  1.00  0.00     0.227 C 
BRANCH   3   4
HETATM    4  C2  UNL     1      11.705  -7.464 -35.415  1.00  0.00     0.133 C 
BRANCH   4   5
HETATM    5  C1  UNL     1      12.657  -7.402 -34.285  1.00  0.00     0.240 C 
HETATM    6  N1  UNL     1      12.934  -6.177 -33.608  1.00  0.00    -0.062 NA
HETATM    7  O1  UNL     1      13.208  -8.494 -33.957  1.00  0.00    -0.276 OA
ENDBRANCH   4   5
BRANCH   4   8
HETATM    8  C3  UNL     1      10.610  -8.422 -35.159  1.00  0.00     0.104 C 
HETATM    9  S1  UNL     1       8.957  -7.698 -35.296  1.00  0.00    -0.097 SA
ENDBRANCH   4   8
ENDBRANCH   3   4
BRANCH   3  10
HETATM   10  O2  UNL     1      13.030  -8.841 -36.764  1.00  0.00    -0.376 OA
ATOM     11  H2  UNL     1      13.725  -8.782 -36.119  1.00  0.00     0.212 HD
ENDBRANCH   3  10
ENDBRANCH   1   3
BRANCH   1  12
HETATM   12  C5  UNL     1      13.278  -5.899 -38.282  1.00  0.00     0.215 C 
BRANCH  12  13
HETATM   13  C6  UNL     1      13.854  -6.613 -39.406  1.00  0.00     0.201 C 
HETATM   14  O3  UNL     1      14.522  -5.903 -40.305  1.00  0.00    -0.646 OA
HETATM   15  O4  UNL     1      13.851  -7.938 -39.747  1.00  0.00    -0.646 OA
ENDBRANCH  12  13
BRANCH  12  16
HETATM   16  C7  UNL     1      11.913  -5.373 -38.476  1.00  0.00    -0.010 A 
HETATM   17  C8  UNL     1      11.506  -4.287 -37.670  1.00  0.00     0.012 A 
HETATM   18  C9  UNL     1      10.274  -3.697 -37.796  1.00  0.00     0.018 A 
HETATM   19  C10 UNL     1       9.374  -4.152 -38.731  1.00  0.00     0.087 A 
HETATM   20  N3  UNL     1       9.761  -5.182 -39.495  1.00  0.00    -0.375 N 
HETATM   21  C11 UNL     1      10.984  -5.785 -39.386  1.00  0.00     0.097 A 
ATOM     22  H3  UNL     1       9.109  -5.536 -40.196  1.00  0.00     0.164 HD
ENDBRANCH  12  16
ENDBRANCH   1  12
TORSDOF 8
ENDMDL
MODEL 3
REMARK VINA RESULT: -5.817242395      2.481      4.255
REMARK  8 active torsions:
REMARK  status: ('A' for Active; 'I' for Inactive)
REMARK    1  A    between atoms: C1_2  and  C2_4 
REMARK    2  A    between atoms: C2_4  and  C3_5 
REMARK    3  A    between atoms: C2_4  and  C4_7 
REMARK    4  A    between atoms: C4_7  and  O2_8 
REMARK    5  A    between atoms: C4_7  and  N2_10 
REMARK    6  A    between atoms: N2_10  and  C5_12 
REMARK    7  A    between atoms: C5_12  and  C6_13 
REMARK    8  A    between atoms: C5_12  and  C7_16 
ROOT
HETATM    1  N2  UNL     1      13.687  -6.522 -36.776  1.00  0.00    -0.379 N 
ATOM      2  H2  UNL     1      14.114  -6.238 -35.894  1.00  0.00     0.157 HD
ENDROOT
BRANCH   1   3
HETATM    3  C4  UNL     1      12.591  -7.372 -36.757  1.00  0.00     0.227 C 
BRANCH   3   4
HETATM    4  C2  UNL     1      11.797  -7.327 -35.460  1.00  0.00     0.133 C 
BRANCH   4   5
HETATM    5  C1  UNL     1      12.650  -7.300 -34.253  1.00  0.00     0.240 C 
HETATM    6  N1  UNL     1      12.842  -6.104 -33.499  1.00  0.00    -0.062 NA
HETATM    7  O1  UNL     1      13.197  -8.396 -33.929  1.00  0.00    -0.276 OA
ENDBRANCH   4   5
BRANCH   4   8
HETATM    8  C3  UNL     1      10.717  -8.329 -35.348  1.00  0.00     0.104 C 
HETATM    9  S1  UNL     1       9.056  -7.612 -35.298  1.00  0.00    -0.097 SA
ENDBRANCH   4   8
ENDBRANCH   3   4
BRANCH   3  10
HETATM   10  O2  UNL     1      13.013  -8.691 -36.920  1.00  0.00    -0.376 OA
ATOM     11  H2  UNL     1      13.954  -8.661 -37.047  1.00  0.00     0.212 HD
ENDBRANCH   3  10
ENDBRANCH   1   3
BRANCH   1  12
HETATM   12  C5  UNL     1      14.227  -6.038 -37.998  1.00  0.00     0.215 C 
BRANCH  12  13
HETATM   13  C6  UNL     1      13.649  -4.798 -38.481  1.00  0.00     0.201 C 
HETATM   14  O3  UNL     1      13.064  -4.008 -37.591  1.00  0.00    -0.646 OA
HETATM   15  O4  UNL     1      13.582  -4.246 -39.731  1.00  0.00    -0.646 OA
ENDBRANCH  12  13
BRANCH  12  16
HETATM   16  C7  UNL     1      15.698  -6.070 -37.883  1.00  0.00    -0.010 A 
HETATM   17  C8  UNL     1      16.297  -5.276 -36.881  1.00  0.00     0.012 A 
HETATM   18  C9  UNL     1      17.651  -5.263 -36.663  1.00  0.00     0.018 A 
HETATM   19  C10 UNL     1      18.489  -6.039 -37.428  1.00  0.00     0.087 A 
HETATM   20  N3  UNL     1      17.920  -6.793 -38.379  1.00  0.00    -0.375 N 
HETATM   21  C11 UNL     1      16.573  -6.820 -38.613  1.00  0.00     0.097 A 
ATOM     22  H3  UNL     1      18.523  -7.377 -38.958  1.00  0.00     0.164 HD
ENDBRANCH  12  16
ENDBRANCH   1  12
TORSDOF 8
ENDMDL
MODEL 4
REMARK VINA RESULT: -5.781993192      2.490      4.801
REMARK  8 active torsions:
REMARK  status: ('A' for Active; 'I' for Inactive)
REMARK    1  A    between atoms: C1_2  and  C2_4 
REMARK    2  A    between atoms: C2_4  and  C3_5 
REMARK    3  A    between atoms: C2_4  and  C4_7 
REMARK    4  A    between atoms: C4_7  and  O2_8 
REMARK    5  A    between atoms: C4_7  and  N2_10 
REMARK    6  A    between atoms: N2_10  and  C5_12 
REMARK    7  A    between atoms: C5_12  and  C6_13 
REMARK    8  A    between atoms: C5_12  and  C7_16 
ROOT
HETATM    1  N2  UNL     1      12.776  -5.458 -36.144  1.00  0.00    -0.379 N 
ATOM      2  H2  UNL     1      12.265  -4.607 -35.909  1.00  0.00     0.157 HD
ENDROOT
BRANCH   1   3
HETATM    3  C4  UNL     1      13.557  -5.486 -37.291  1.00  0.00     0.227 C 
BRANCH   3   4
HETATM    4  C2  UNL     1      12.832  -6.018 -38.519  1.00  0.00     0.133 C 
BRANCH   4   5
HETATM    5  C1  UNL     1      13.301  -7.355 -38.941  1.00  0.00     0.240 C 
HETATM    6  N1  UNL     1      14.247  -7.517 -39.996  1.00  0.00    -0.062 NA
HETATM    7  O1  UNL     1      12.815  -8.343 -38.313  1.00  0.00    -0.276 OA
ENDBRANCH   4   5
BRANCH   4   8
HETATM    8  C3  UNL     1      12.750  -5.079 -39.657  1.00  0.00     0.104 C 
HETATM    9  S1  UNL     1      11.096  -4.394 -39.922  1.00  0.00    -0.097 SA
ENDBRANCH   4   8
ENDBRANCH   3   4
BRANCH   3  10
HETATM   10  O2  UNL     1      14.661  -6.314 -37.091  1.00  0.00    -0.376 OA
ATOM     11  H2  UNL     1      15.266  -6.137 -37.802  1.00  0.00     0.212 HD
ENDBRANCH   3  10
ENDBRANCH   1   3
BRANCH   1  12
HETATM   12  C5  UNL     1      12.672  -6.590 -35.292  1.00  0.00     0.215 C 
BRANCH  12  13
HETATM   13  C6  UNL     1      13.255  -6.426 -33.973  1.00  0.00     0.201 C 
HETATM   14  O3  UNL     1      13.064  -5.265 -33.360  1.00  0.00    -0.646 OA
HETATM   15  O4  UNL     1      13.998  -7.266 -33.190  1.00  0.00    -0.646 OA
ENDBRANCH  12  13
BRANCH  12  16
HETATM   16  C7  UNL     1      11.273  -7.057 -35.332  1.00  0.00    -0.010 A 
HETATM   17  C8  UNL     1      10.345  -6.289 -36.069  1.00  0.00     0.012 A 
HETATM   18  C9  UNL     1       9.030  -6.654 -36.204  1.00  0.00     0.018 A 
HETATM   19  C10 UNL     1       8.560  -7.805 -35.615  1.00  0.00     0.087 A 
HETATM   20  N3  UNL     1       9.442  -8.533 -34.916  1.00  0.00    -0.375 N 
HETATM   21  C11 UNL     1      10.757  -8.186 -34.769  1.00  0.00     0.097 A 
ATOM     22  H3  UNL     1       9.115  -9.391 -34.471  1.00  0.00     0.164 HD
ENDBRANCH  12  16
ENDBRANCH   1  12
TORSDOF 8
ENDMDL
MODEL 5
REMARK VINA RESULT: -5.725893066      3.053      4.353
REMARK  8 active torsions:
REMARK  status: ('A' for Active; 'I' for Inactive)
REMARK    1  A    between atoms: C1_2  and  C2_4 
REMARK    2  A    between atoms: C2_4  and  C3_5 
REMARK    3  A    between atoms: C2_4  and  C4_7 
REMARK    4  A    between atoms: C4_7  and  O2_8 
REMARK    5  A    between atoms: C4_7  and  N2_10 
REMARK    6  A    between atoms: N2_10  and  C5_12 
REMARK    7  A    between atoms: C5_12  and  C6_13 
REMARK    8  A    between atoms: C5_12  and  C7_16 
ROOT
HETATM    1  N2  UNL     1      12.618  -7.593 -36.047  1.00  0.00    -0.379 N 
ATOM      2  H2  UNL     1      13.417  -8.155 -36.339  1.00  0.00     0.157 HD
ENDROOT
BRANCH   1   3
HETATM    3  C4  UNL     1      11.336  -8.102 -36.206  1.00  0.00     0.227 C 
BRANCH   3   4
HETATM    4  C2  UNL     1      10.260  -7.033 -36.334  1.00  0.00     0.133 C 
BRANCH   4   5
HETATM    5  C1  UNL     1       9.038  -7.339 -35.562  1.00  0.00     0.240 C 
HETATM    6  N1  UNL     1       8.817  -6.789 -34.263  1.00  0.00    -0.062 NA
HETATM    7  O1  UNL     1       8.202  -8.112 -36.118  1.00  0.00    -0.276 OA
ENDBRANCH   4   5
BRANCH   4   8
HETATM    8  C3  UNL     1       9.948  -6.618 -37.717  1.00  0.00     0.104 C 
HETATM    9  S1  UNL     1       9.601  -4.850 -37.890  1.00  0.00    -0.097 SA
ENDBRANCH   4   8
ENDBRANCH   3   4
BRANCH   3  10
HETATM   10  O2  UNL     1      10.995  -8.879 -35.099  1.00  0.00    -0.376 OA
ATOM     11  H2  UNL     1      11.599  -8.642 -34.405  1.00  0.00     0.212 HD
ENDBRANCH   3  10
ENDBRANCH   1   3
BRANCH   1  12
HETATM   12  C5  UNL     1      12.839  -6.307 -35.486  1.00  0.00     0.215 C 
BRANCH  12  13
HETATM   13  C6  UNL     1      13.191  -6.298 -34.079  1.00  0.00     0.201 C 
HETATM   14  O3  UNL     1      12.916  -5.202 -33.385  1.00  0.00    -0.646 OA
HETATM   15  O4  UNL     1      13.779  -7.238 -33.278  1.00  0.00    -0.646 OA
ENDBRANCH  12  13
BRANCH  12  16
HETATM   16  C7  UNL     1      13.746  -5.573 -36.389  1.00  0.00    -0.010 A 
HETATM   17  C8  UNL     1      13.185  -4.585 -37.227  1.00  0.00     0.012 A 
HETATM   18  C9  UNL     1      13.944  -3.818 -38.074  1.00  0.00     0.018 A 
HETATM   19  C10 UNL     1      15.307  -3.989 -38.137  1.00  0.00     0.087 A 
HETATM   20  N3  UNL     1      15.840  -4.927 -37.342  1.00  0.00    -0.375 N 
HETATM   21  C11 UNL     1      15.101  -5.701 -36.491  1.00  0.00     0.097 A 
ATOM     22  H3  UNL     1      16.849  -5.070 -37.372  1.00  0.00     0.164 HD
ENDBRANCH  12  16
ENDBRANCH   1  12
TORSDOF 8
ENDMDL
