MODEL 1
REMARK VINA RESULT: -6.616406255      0.000      0.000
REMARK  10 active torsions:
REMARK  status: ('A' for Active; 'I' for Inactive)
REMARK    1  A    between atoms: C2_2  and  C4_4 
REMARK    2  A    between atoms: C7_7  and  C8_8 
REMARK    3  A    between atoms: C8_8  and  O1_9 
REMARK    4  A    between atoms: C9_11  and  O2_12 
REMARK    5  A    between atoms: C9_11  and  C10_14 
REMARK    6  A    between atoms: C10_14  and  O3_15 
REMARK    7  A    between atoms: O3_15  and  C11_16 
REMARK    8  A    between atoms: C12_19  and  O5_20 
REMARK    9  A    between atoms: C15_24  and  C16_25 
REMARK   10  A    between atoms: C16_25  and  O6_26 
ROOT
HETATM    1  C4  UNL     1      12.763  76.655  27.163  1.00  0.00     0.021 C 
HETATM    2  C5  UNL     1      12.056  76.645  25.845  1.00  0.00     0.037 C 
HETATM    3  C6  UNL     1      12.385  75.583  24.916  1.00  0.00    -0.018 C 
HETATM    4  C7  UNL     1      11.604  74.801  24.165  1.00  0.00    -0.022 C 
HETATM    5  C9  UNL     1      10.114  74.858  24.205  1.00  0.00     0.131 C 
HETATM    6  C12 UNL     1       9.691  73.845  25.279  1.00  0.00     0.167 C 
HETATM    7  C13 UNL     1       8.925  74.328  26.411  1.00  0.00     0.044 C 
HETATM    8  C14 UNL     1       7.447  74.080  26.168  1.00  0.00     0.017 C 
HETATM    9  C15 UNL     1       9.311  73.862  27.783  1.00  0.00    -0.054 C 
HETATM   10  C17 UNL     1      10.140  74.419  28.632  1.00  0.00    -0.016 C 
HETATM   11  C18 UNL     1      10.937  75.644  28.521  1.00  0.00     0.021 C 
HETATM   12  C19 UNL     1      12.352  75.516  28.100  1.00  0.00     0.003 C 
HETATM   13  C20 UNL     1      12.755  75.799  29.553  1.00  0.00     0.015 C 
HETATM   14  C21 UNL     1      11.368  76.236  29.871  1.00  0.00    -0.040 C 
HETATM   15  C22 UNL     1      11.098  77.680  30.075  1.00  0.00     0.015 C 
HETATM   16  C23 UNL     1      10.801  75.439  31.053  1.00  0.00     0.015 C 
ENDROOT
BRANCH   5  17
HETATM   17  O2  UNL     1       9.573  76.089  24.411  1.00  0.00    -0.380 OA
ATOM     18  H2  UNL     1       8.942  76.377  23.763  1.00  0.00     0.211 HD
ENDBRANCH   5  17
BRANCH   5  19
HETATM   19  C10 UNL     1       9.587  74.452  22.849  1.00  0.00     0.225 C 
BRANCH  19  20
HETATM   20  O3  UNL     1       8.864  75.296  22.101  1.00  0.00    -0.303 OA
BRANCH  20  21
HETATM   21  C11 UNL     1       7.608  75.278  21.663  1.00  0.00     0.372 C 
HETATM   22  N1  UNL     1       6.496  74.847  22.484  1.00  0.00    -0.032 NA
HETATM   23  O4  UNL     1       7.288  75.629  20.516  1.00  0.00    -0.242 OA
ENDBRANCH  20  21
ENDBRANCH  19  20
ENDBRANCH   5  19
BRANCH   4  24
HETATM   24  C8  UNL     1      12.275  73.800  23.312  1.00  0.00     0.201 C 
BRANCH  24  25
HETATM   25  O1  UNL     1      12.934  72.774  23.921  1.00  0.00    -0.397 OA
ATOM     26  H1  UNL     1      12.485  71.942  24.009  1.00  0.00     0.209 HD
ENDBRANCH  24  25
ENDBRANCH   4  24
BRANCH   6  27
HETATM   27  O5  UNL     1      10.736  72.977  25.605  1.00  0.00    -0.391 OA
ATOM     28  H5  UNL     1      10.832  72.885  26.546  1.00  0.00     0.210 HD
ENDBRANCH   6  27
BRANCH   9  29
HETATM   29  C16 UNL     1       8.605  72.588  28.140  1.00  0.00     0.198 C 
BRANCH  29  30
HETATM   30  O6  UNL     1       9.142  71.955  29.244  1.00  0.00    -0.397 OA
ATOM     31  H6  UNL     1       8.685  72.156  30.051  1.00  0.00     0.209 HD
ENDBRANCH  29  30
ENDBRANCH   9  29
BRANCH   1  32
HETATM   32  C2  UNL     1      14.196  76.899  27.095  1.00  0.00    -0.088 C 
HETATM   33  C1  UNL     1      14.715  78.122  27.246  1.00  0.00     0.014 C 
HETATM   34  C3  UNL     1      15.167  75.802  26.883  1.00  0.00     0.043 C 
ENDBRANCH   1  32
TORSDOF 10
ENDMDL
MODEL 2
REMARK VINA RESULT: -6.506252949      3.975      7.296
REMARK  10 active torsions:
REMARK  status: ('A' for Active; 'I' for Inactive)
REMARK    1  A    between atoms: C2_2  and  C4_4 
REMARK    2  A    between atoms: C7_7  and  C8_8 
REMARK    3  A    between atoms: C8_8  and  O1_9 
REMARK    4  A    between atoms: C9_11  and  O2_12 
REMARK    5  A    between atoms: C9_11  and  C10_14 
REMARK    6  A    between atoms: C10_14  and  O3_15 
REMARK    7  A    between atoms: O3_15  and  C11_16 
REMARK    8  A    between atoms: C12_19  and  O5_20 
REMARK    9  A    between atoms: C15_24  and  C16_25 
REMARK   10  A    between atoms: C16_25  and  O6_26 
ROOT
HETATM    1  C4  UNL     1       8.019  69.462  23.363  1.00  0.00     0.021 C 
HETATM    2  C5  UNL     1       7.854  70.892  22.956  1.00  0.00     0.037 C 
HETATM    3  C6  UNL     1       7.567  71.857  23.999  1.00  0.00    -0.018 C 
HETATM    4  C7  UNL     1       8.078  73.068  24.238  1.00  0.00    -0.022 C 
HETATM    5  C9  UNL     1       9.179  73.664  23.426  1.00  0.00     0.131 C 
HETATM    6  C12 UNL     1      10.481  73.237  24.121  1.00  0.00     0.167 C 
HETATM    7  C13 UNL     1      11.441  72.463  23.359  1.00  0.00     0.044 C 
HETATM    8  C14 UNL     1      12.512  73.385  22.804  1.00  0.00     0.017 C 
HETATM    9  C15 UNL     1      12.071  71.269  24.012  1.00  0.00    -0.054 C 
HETATM   10  C17 UNL     1      11.670  70.022  23.994  1.00  0.00    -0.016 C 
HETATM   11  C18 UNL     1      10.508  69.403  23.347  1.00  0.00     0.021 C 
HETATM   12  C19 UNL     1       9.293  69.186  24.167  1.00  0.00     0.003 C 
HETATM   13  C20 UNL     1       9.639  67.692  24.190  1.00  0.00     0.015 C 
HETATM   14  C21 UNL     1      10.650  67.892  23.116  1.00  0.00    -0.040 C 
HETATM   15  C22 UNL     1      10.353  67.403  21.747  1.00  0.00     0.015 C 
HETATM   16  C23 UNL     1      12.025  67.372  23.556  1.00  0.00     0.015 C 
ENDROOT
BRANCH   5  17
HETATM   17  O2  UNL     1       9.173  73.355  22.101  1.00  0.00    -0.380 OA
ATOM     18  H2  UNL     1       8.884  72.477  21.882  1.00  0.00     0.211 HD
ENDBRANCH   5  17
BRANCH   5  19
HETATM   19  C10 UNL     1       9.027  75.166  23.449  1.00  0.00     0.225 C 
BRANCH  19  20
HETATM   20  O3  UNL     1       8.221  75.798  22.586  1.00  0.00    -0.303 OA
BRANCH  20  21
HETATM   21  C11 UNL     1       6.913  76.038  22.570  1.00  0.00     0.372 C 
HETATM   22  N1  UNL     1       6.349  77.343  22.841  1.00  0.00    -0.032 NA
HETATM   23  O4  UNL     1       6.070  75.161  22.320  1.00  0.00    -0.242 OA
ENDBRANCH  20  21
ENDBRANCH  19  20
ENDBRANCH   5  19
BRANCH   4  24
HETATM   24  C8  UNL     1       7.552  73.802  25.406  1.00  0.00     0.201 C 
BRANCH  24  25
HETATM   25  O1  UNL     1       6.325  74.386  25.299  1.00  0.00    -0.397 OA
ATOM     26  H1  UNL     1       6.278  75.273  24.963  1.00  0.00     0.209 HD
ENDBRANCH  24  25
ENDBRANCH   4  24
BRANCH   6  27
HETATM   27  O5  UNL     1      10.241  72.767  25.414  1.00  0.00    -0.391 OA
ATOM     28  H5  UNL     1      11.046  72.698  25.914  1.00  0.00     0.210 HD
ENDBRANCH   6  27
BRANCH   9  29
HETATM   29  C16 UNL     1      13.315  71.654  24.757  1.00  0.00     0.198 C 
BRANCH  29  30
HETATM   30  O6  UNL     1      13.087  71.947  26.087  1.00  0.00    -0.397 OA
ATOM     31  H6  UNL     1      13.738  71.575  26.670  1.00  0.00     0.209 HD
ENDBRANCH  29  30
ENDBRANCH   9  29
BRANCH   1  32
HETATM   32  C2  UNL     1       6.819  68.826  23.887  1.00  0.00    -0.088 C 
HETATM   33  C1  UNL     1       6.062  68.016  23.138  1.00  0.00     0.014 C 
HETATM   34  C3  UNL     1       6.383  69.014  25.289  1.00  0.00     0.043 C 
ENDBRANCH   1  32
TORSDOF 10
ENDMDL
MODEL 3
REMARK VINA RESULT: -6.269393464      3.279      5.299
REMARK  10 active torsions:
REMARK  status: ('A' for Active; 'I' for Inactive)
REMARK    1  A    between atoms: C2_2  and  C4_4 
REMARK    2  A    between atoms: C7_7  and  C8_8 
REMARK    3  A    between atoms: C8_8  and  O1_9 
REMARK    4  A    between atoms: C9_11  and  O2_12 
REMARK    5  A    between atoms: C9_11  and  C10_14 
REMARK    6  A    between atoms: C10_14  and  O3_15 
REMARK    7  A    between atoms: O3_15  and  C11_16 
REMARK    8  A    between atoms: C12_19  and  O5_20 
REMARK    9  A    between atoms: C15_24  and  C16_25 
REMARK   10  A    between atoms: C16_25  and  O6_26 
ROOT
HETATM    1  C4  UNL     1      11.560  70.194  24.307  1.00  0.00     0.021 C 
HETATM    2  C5  UNL     1      11.057  71.176  23.298  1.00  0.00     0.037 C 
HETATM    3  C6  UNL     1       9.631  71.435  23.267  1.00  0.00    -0.018 C 
HETATM    4  C7  UNL     1       8.949  72.581  23.188  1.00  0.00    -0.022 C 
HETATM    5  C9  UNL     1       9.605  73.921  23.174  1.00  0.00     0.131 C 
HETATM    6  C12 UNL     1       9.695  74.352  24.645  1.00  0.00     0.167 C 
HETATM    7  C13 UNL     1      11.007  74.621  25.200  1.00  0.00     0.044 C 
HETATM    8  C14 UNL     1      11.276  76.115  25.165  1.00  0.00     0.017 C 
HETATM    9  C15 UNL     1      11.335  74.067  26.554  1.00  0.00    -0.054 C 
HETATM   10  C17 UNL     1      11.897  72.921  26.853  1.00  0.00    -0.016 C 
HETATM   11  C18 UNL     1      12.377  71.840  25.987  1.00  0.00     0.021 C 
HETATM   12  C19 UNL     1      11.475  70.687  25.754  1.00  0.00     0.003 C 
HETATM   13  C20 UNL     1      12.371  69.865  26.690  1.00  0.00     0.015 C 
HETATM   14  C21 UNL     1      13.417  70.923  26.646  1.00  0.00    -0.040 C 
HETATM   15  C22 UNL     1      14.660  70.674  25.876  1.00  0.00     0.015 C 
HETATM   16  C23 UNL     1      13.779  71.392  28.061  1.00  0.00     0.015 C 
ENDROOT
BRANCH   5  17
HETATM   17  O2  UNL     1      10.807  73.986  22.540  1.00  0.00    -0.380 OA
ATOM     18  H2  UNL     1      10.779  73.931  21.592  1.00  0.00     0.211 HD
ENDBRANCH   5  17
BRANCH   5  19
HETATM   19  C10 UNL     1       8.730  74.871  22.391  1.00  0.00     0.225 C 
BRANCH  19  20
HETATM   20  O3  UNL     1       7.974  75.789  23.006  1.00  0.00    -0.303 OA
BRANCH  20  21
HETATM   21  C11 UNL     1       6.694  76.135  22.899  1.00  0.00     0.372 C 
HETATM   22  N1  UNL     1       6.253  77.513  22.860  1.00  0.00    -0.032 NA
HETATM   23  O4  UNL     1       5.775  75.304  22.824  1.00  0.00    -0.242 OA
ENDBRANCH  20  21
ENDBRANCH  19  20
ENDBRANCH   5  19
BRANCH   4  24
HETATM   24  C8  UNL     1       7.476  72.489  23.179  1.00  0.00     0.201 C 
BRANCH  24  25
HETATM   25  O1  UNL     1       6.845  72.153  24.340  1.00  0.00    -0.397 OA
ATOM     26  H1  UNL     1       5.996  71.731  24.282  1.00  0.00     0.209 HD
ENDBRANCH  24  25
ENDBRANCH   4  24
BRANCH   6  27
HETATM   27  O5  UNL     1       8.862  73.579  25.457  1.00  0.00    -0.391 OA
ATOM     28  H5  UNL     1       8.546  74.074  26.204  1.00  0.00     0.210 HD
ENDBRANCH   6  27
BRANCH   9  29
HETATM   29  C16 UNL     1      10.930  75.018  27.641  1.00  0.00     0.198 C 
BRANCH  29  30
HETATM   30  O6  UNL     1       9.618  74.864  28.042  1.00  0.00    -0.397 OA
ATOM     31  H6  UNL     1       9.321  75.549  28.630  1.00  0.00     0.209 HD
ENDBRANCH  29  30
ENDBRANCH   9  29
BRANCH   1  32
HETATM   32  C2  UNL     1      11.121  68.821  24.106  1.00  0.00    -0.088 C 
HETATM   33  C1  UNL     1      11.819  67.955  23.362  1.00  0.00     0.014 C 
HETATM   34  C3  UNL     1       9.891  68.292  24.738  1.00  0.00     0.043 C 
ENDBRANCH   1  32
TORSDOF 10
ENDMDL
MODEL 4
REMARK VINA RESULT: -6.180216523      2.782      5.927
REMARK  10 active torsions:
REMARK  status: ('A' for Active; 'I' for Inactive)
REMARK    1  A    between atoms: C2_2  and  C4_4 
REMARK    2  A    between atoms: C7_7  and  C8_8 
REMARK    3  A    between atoms: C8_8  and  O1_9 
REMARK    4  A    between atoms: C9_11  and  O2_12 
REMARK    5  A    between atoms: C9_11  and  C10_14 
REMARK    6  A    between atoms: C10_14  and  O3_15 
REMARK    7  A    between atoms: O3_15  and  C11_16 
REMARK    8  A    between atoms: C12_19  and  O5_20 
REMARK    9  A    between atoms: C15_24  and  C16_25 
REMARK   10  A    between atoms: C16_25  and  O6_26 
ROOT
HETATM    1  C4  UNL     1       7.822  70.499  25.304  1.00  0.00     0.021 C 
HETATM    2  C5  UNL     1       8.073  71.442  24.171  1.00  0.00     0.037 C 
HETATM    3  C6  UNL     1       7.260  72.640  24.102  1.00  0.00    -0.018 C 
HETATM    4  C7  UNL     1       7.591  73.913  23.867  1.00  0.00    -0.022 C 
HETATM    5  C9  UNL     1       9.000  74.367  23.674  1.00  0.00     0.131 C 
HETATM    6  C12 UNL     1       9.508  74.741  25.075  1.00  0.00     0.167 C 
HETATM    7  C13 UNL     1      10.667  74.040  25.591  1.00  0.00     0.044 C 
HETATM    8  C14 UNL     1      11.913  74.875  25.355  1.00  0.00     0.017 C 
HETATM    9  C15 UNL     1      10.630  73.552  27.008  1.00  0.00    -0.054 C 
HETATM   10  C17 UNL     1      10.237  72.386  27.460  1.00  0.00    -0.016 C 
HETATM   11  C18 UNL     1       9.721  71.212  26.749  1.00  0.00     0.021 C 
HETATM   12  C19 UNL     1       8.251  71.040  26.671  1.00  0.00     0.003 C 
HETATM   13  C20 UNL     1       8.380  69.920  27.711  1.00  0.00     0.015 C 
HETATM   14  C21 UNL     1       9.857  69.896  27.528  1.00  0.00    -0.040 C 
HETATM   15  C22 UNL     1      10.474  68.760  26.801  1.00  0.00     0.015 C 
HETATM   16  C23 UNL     1      10.578  70.096  28.868  1.00  0.00     0.015 C 
ENDROOT
BRANCH   5  17
HETATM   17  O2  UNL     1       9.823  73.490  23.040  1.00  0.00    -0.380 OA
ATOM     18  H2  UNL     1      10.582  73.869  22.613  1.00  0.00     0.211 HD
ENDBRANCH   5  17
BRANCH   5  19
HETATM   19  C10 UNL     1       8.989  75.575  22.769  1.00  0.00     0.225 C 
BRANCH  19  20
HETATM   20  O3  UNL     1       9.081  75.450  21.438  1.00  0.00    -0.303 OA
BRANCH  20  21
HETATM   21  C11 UNL     1       8.213  75.622  20.445  1.00  0.00     0.372 C 
HETATM   22  N1  UNL     1       8.620  75.814  19.070  1.00  0.00    -0.032 NA
HETATM   23  O4  UNL     1       6.984  75.630  20.618  1.00  0.00    -0.242 OA
ENDBRANCH  20  21
ENDBRANCH  19  20
ENDBRANCH   5  19
BRANCH   4  24
HETATM   24  C8  UNL     1       6.498  74.904  23.867  1.00  0.00     0.201 C 
BRANCH  24  25
HETATM   25  O1  UNL     1       5.586  74.856  22.854  1.00  0.00    -0.397 OA
ATOM     26  H1  UNL     1       4.845  74.268  22.945  1.00  0.00     0.209 HD
ENDBRANCH  24  25
ENDBRANCH   4  24
BRANCH   6  27
HETATM   27  O5  UNL     1       8.455  74.882  25.981  1.00  0.00    -0.391 OA
ATOM     28  H5  UNL     1       8.272  74.066  26.432  1.00  0.00     0.210 HD
ENDBRANCH   6  27
BRANCH   9  29
HETATM   29  C16 UNL     1      11.127  74.602  27.956  1.00  0.00     0.198 C 
BRANCH  29  30
HETATM   30  O6  UNL     1      10.128  75.435  28.422  1.00  0.00    -0.397 OA
ATOM     31  H6  UNL     1       9.279  75.011  28.471  1.00  0.00     0.209 HD
ENDBRANCH  29  30
ENDBRANCH   9  29
BRANCH   1  32
HETATM   32  C2  UNL     1       6.522  69.846  25.289  1.00  0.00    -0.088 C 
HETATM   33  C1  UNL     1       6.336  68.650  24.721  1.00  0.00     0.014 C 
HETATM   34  C3  UNL     1       5.333  70.455  25.928  1.00  0.00     0.043 C 
ENDBRANCH   1  32
TORSDOF 10
ENDMDL
MODEL 5
REMARK VINA RESULT: -6.139323584      2.552      4.159
REMARK  10 active torsions:
REMARK  status: ('A' for Active; 'I' for Inactive)
REMARK    1  A    between atoms: C2_2  and  C4_4 
REMARK    2  A    between atoms: C7_7  and  C8_8 
REMARK    3  A    between atoms: C8_8  and  O1_9 
REMARK    4  A    between atoms: C9_11  and  O2_12 
REMARK    5  A    between atoms: C9_11  and  C10_14 
REMARK    6  A    between atoms: C10_14  and  O3_15 
REMARK    7  A    between atoms: O3_15  and  C11_16 
REMARK    8  A    between atoms: C12_19  and  O5_20 
REMARK    9  A    between atoms: C15_24  and  C16_25 
REMARK   10  A    between atoms: C16_25  and  O6_26 
ROOT
HETATM    1  C4  UNL     1      11.706  74.503  27.287  1.00  0.00     0.021 C 
HETATM    2  C5  UNL     1      10.434  74.230  26.549  1.00  0.00     0.037 C 
HETATM    3  C6  UNL     1      10.263  74.857  25.253  1.00  0.00    -0.018 C 
HETATM    4  C7  UNL     1       9.825  74.364  24.091  1.00  0.00    -0.022 C 
HETATM    5  C9  UNL     1       9.456  72.931  23.901  1.00  0.00     0.131 C 
HETATM    6  C12 UNL     1      10.744  72.231  23.440  1.00  0.00     0.167 C 
HETATM    7  C13 UNL     1      11.259  71.144  24.249  1.00  0.00     0.044 C 
HETATM    8  C14 UNL     1      10.807  69.818  23.665  1.00  0.00     0.017 C 
HETATM    9  C15 UNL     1      12.729  71.109  24.541  1.00  0.00    -0.054 C 
HETATM   10  C17 UNL     1      13.371  71.624  25.561  1.00  0.00    -0.016 C 
HETATM   11  C18 UNL     1      12.877  72.381  26.715  1.00  0.00     0.021 C 
HETATM   12  C19 UNL     1      12.944  73.861  26.655  1.00  0.00     0.003 C 
HETATM   13  C20 UNL     1      14.118  73.795  27.640  1.00  0.00     0.015 C 
HETATM   14  C21 UNL     1      13.821  72.365  27.927  1.00  0.00    -0.040 C 
HETATM   15  C22 UNL     1      13.214  72.004  29.231  1.00  0.00     0.015 C 
HETATM   16  C23 UNL     1      15.056  71.490  27.678  1.00  0.00     0.015 C 
ENDROOT
BRANCH   5  17
HETATM   17  O2  UNL     1       8.888  72.317  24.974  1.00  0.00    -0.380 OA
ATOM     18  H2  UNL     1       8.007  71.987  24.843  1.00  0.00     0.211 HD
ENDBRANCH   5  17
BRANCH   5  19
HETATM   19  C10 UNL     1       8.393  72.852  22.832  1.00  0.00     0.225 C 
BRANCH  19  20
HETATM   20  O3  UNL     1       7.102  73.068  23.116  1.00  0.00    -0.303 OA
BRANCH  20  21
HETATM   21  C11 UNL     1       6.429  74.135  23.540  1.00  0.00     0.372 C 
HETATM   22  N1  UNL     1       6.424  74.561  24.923  1.00  0.00    -0.032 NA
HETATM   23  O4  UNL     1       5.752  74.850  22.784  1.00  0.00    -0.242 OA
ENDBRANCH  20  21
ENDBRANCH  19  20
ENDBRANCH   5  19
BRANCH   4  24
HETATM   24  C8  UNL     1       9.773  75.290  22.944  1.00  0.00     0.201 C 
BRANCH  24  25
HETATM   25  O1  UNL     1      10.950  75.772  22.452  1.00  0.00    -0.397 OA
ATOM     26  H1  UNL     1      11.377  75.287  21.756  1.00  0.00     0.209 HD
ENDBRANCH  24  25
ENDBRANCH   4  24
BRANCH   6  27
HETATM   27  O5  UNL     1      11.704  73.153  23.016  1.00  0.00    -0.391 OA
ATOM     28  H5  UNL     1      11.404  73.645  22.260  1.00  0.00     0.210 HD
ENDBRANCH   6  27
BRANCH   9  29
HETATM   29  C16 UNL     1      13.475  70.365  23.474  1.00  0.00     0.198 C 
BRANCH  29  30
HETATM   30  O6  UNL     1      14.300  71.175  22.719  1.00  0.00    -0.397 OA
ATOM     31  H6  UNL     1      13.826  71.740  22.119  1.00  0.00     0.209 HD
ENDBRANCH  29  30
ENDBRANCH   9  29
BRANCH   1  32
HETATM   32  C2  UNL     1      11.889  75.882  27.716  1.00  0.00    -0.088 C 
HETATM   33  C1  UNL     1      11.463  76.316  28.907  1.00  0.00     0.014 C 
HETATM   34  C3  UNL     1      12.585  76.878  26.871  1.00  0.00     0.043 C 
ENDBRANCH   1  32
TORSDOF 10
ENDMDL
