MODEL 1
REMARK VINA RESULT: -6.816526903      0.000      0.000
REMARK  7 active torsions:
REMARK  status: ('A' for Active; 'I' for Inactive)
REMARK    1  A    between atoms: C2_2  and  C4_4 
REMARK    2  A    between atoms: C6_6  and  C7_7 
REMARK    3  A    between atoms: C7_7  and  N1_8 
REMARK    4  A    between atoms: C10_11  and  C11_12 
REMARK    5  A    between atoms: C10_11  and  N2_15 
REMARK    6  A    between atoms: C19_23  and  N4_24 
REMARK    7  A    between atoms: C20_29  and  N6_30 
ROOT
HETATM    1  N1  UNL     1       7.441  69.900  29.979  1.00  0.00    -0.368 N 
HETATM    2  C8  UNL     1       7.738  70.193  28.618  1.00  0.00     0.130 C 
HETATM    3  C9  UNL     1       7.093  71.419  28.099  1.00  0.00     0.052 C 
HETATM    4  C10 UNL     1       5.561  71.451  28.098  1.00  0.00     0.043 C 
HETATM    5  C21 UNL     1       5.266  71.000  29.495  1.00  0.00     0.076 C 
HETATM    6  C22 UNL     1       6.456  70.797  30.407  1.00  0.00     0.066 C 
ENDROOT
BRANCH   4   7
HETATM    7  C11 UNL     1       5.086  70.644  26.981  1.00  0.00     0.006 C 
HETATM    8  C12 UNL     1       5.973  70.648  25.725  1.00  0.00     0.012 C 
HETATM    9  C13 UNL     1       4.732  69.221  27.210  1.00  0.00     0.012 C 
ENDBRANCH   4   7
BRANCH   4  10
HETATM   10  N2  UNL     1       5.274  72.876  27.880  1.00  0.00    -0.356 N 
HETATM   11  C14 UNL     1       6.296  73.787  27.380  1.00  0.00     0.125 C 
HETATM   12  C15 UNL     1       5.735  75.090  26.899  1.00  0.00     0.025 C 
HETATM   13  C16 UNL     1       5.020  75.707  28.125  1.00  0.00     0.048 C 
HETATM   14  C17 UNL     1       3.820  74.822  28.270  1.00  0.00     0.030 A 
HETATM   15  C18 UNL     1       3.996  73.443  28.120  1.00  0.00     0.130 A 
HETATM   16  C20 UNL     1       2.589  75.362  28.510  1.00  0.00     0.124 A 
HETATM   17  N3  UNL     1       2.914  72.694  28.220  1.00  0.00    -0.176 N 
HETATM   18  C19 UNL     1       1.686  73.208  28.455  1.00  0.00     0.679 A 
ATOM     19  H3  UNL     1       3.008  71.684  28.116  1.00  0.00     0.186 HD
HETATM   20  N5  UNL     1       1.500  74.542  28.604  1.00  0.00    -0.177 N 
ATOM     21  H5  UNL     1       0.572  74.925  28.782  1.00  0.00     0.185 HD
BRANCH  18  22
HETATM   22  N4  UNL     1       0.657  72.437  28.544  1.00  0.00    -0.234 N 
ATOM     23  H42 UNL     1       0.455  71.811  27.764  1.00  0.00     0.174 HD
ATOM     24  H41 UNL     1       0.064  72.455  29.374  1.00  0.00     0.174 HD
ENDBRANCH  18  22
BRANCH  16  25
HETATM   25  N6  UNL     1       2.487  76.642  28.640  1.00  0.00    -0.385 N 
ATOM     26  H62 UNL     1       3.303  77.252  28.594  1.00  0.00     0.157 HD
ATOM     27  H61 UNL     1       1.563  77.047  28.794  1.00  0.00     0.157 HD
ENDBRANCH  16  25
ENDBRANCH   4  10
BRANCH   1  28
HETATM   28  C7  UNL     1       7.384  68.550  30.366  1.00  0.00     0.121 C 
BRANCH  28  29
HETATM   29  C6  UNL     1       8.756  68.140  30.802  1.00  0.00     0.072 A 
HETATM   30  C5  UNL     1       9.330  66.951  30.405  1.00  0.00     0.068 A 
HETATM   31  C4  UNL     1      10.572  66.909  30.987  1.00  0.00     0.082 A 
HETATM   32  O1  UNL     1      10.714  68.022  31.690  1.00  0.00    -0.242 OA
HETATM   33  N7  UNL     1       9.634  68.756  31.581  1.00  0.00    -0.260 N 
ATOM     34  H7  UNL     1       9.491  69.662  32.027  1.00  0.00     0.195 HD
BRANCH  31  35
HETATM   35  C2  UNL     1      11.561  65.812  30.844  1.00  0.00     0.037 C 
HETATM   36  C1  UNL     1      11.474  65.292  29.420  1.00  0.00     0.016 C 
HETATM   37  C3  UNL     1      12.960  66.359  31.043  1.00  0.00     0.016 C 
ENDBRANCH  31  35
ENDBRANCH  28  29
ENDBRANCH   1  28
TORSDOF 7
ENDMDL
MODEL 2
REMARK VINA RESULT: -6.737176315      3.973      8.912
REMARK  7 active torsions:
REMARK  status: ('A' for Active; 'I' for Inactive)
REMARK    1  A    between atoms: C2_2  and  C4_4 
REMARK    2  A    between atoms: C6_6  and  C7_7 
REMARK    3  A    between atoms: C7_7  and  N1_8 
REMARK    4  A    between atoms: C10_11  and  C11_12 
REMARK    5  A    between atoms: C10_11  and  N2_15 
REMARK    6  A    between atoms: C19_23  and  N4_24 
REMARK    7  A    between atoms: C20_29  and  N6_30 
ROOT
HETATM    1  N1  UNL     1       3.118  72.985  28.374  1.00  0.00    -0.368 N 
HETATM    2  C8  UNL     1       4.532  72.966  28.216  1.00  0.00     0.130 C 
HETATM    3  C9  UNL     1       5.076  71.686  27.709  1.00  0.00     0.052 C 
HETATM    4  C10 UNL     1       4.842  70.442  28.573  1.00  0.00     0.043 C 
HETATM    5  C21 UNL     1       3.375  70.560  28.851  1.00  0.00     0.076 C 
HETATM    6  C22 UNL     1       2.643  71.687  28.157  1.00  0.00     0.066 C 
ENDROOT
BRANCH   4   7
HETATM    7  C11 UNL     1       5.777  70.478  29.692  1.00  0.00     0.006 C 
HETATM    8  C12 UNL     1       7.111  71.195  29.427  1.00  0.00     0.012 C 
HETATM    9  C13 UNL     1       5.315  70.976  31.010  1.00  0.00     0.012 C 
ENDBRANCH   4   7
BRANCH   4  10
HETATM   10  N2  UNL     1       5.167  69.348  27.648  1.00  0.00    -0.356 N 
HETATM   11  C14 UNL     1       5.538  69.611  26.263  1.00  0.00     0.125 C 
HETATM   12  C15 UNL     1       6.161  68.428  25.588  1.00  0.00     0.025 C 
HETATM   13  C16 UNL     1       5.094  67.308  25.654  1.00  0.00     0.048 C 
HETATM   14  C17 UNL     1       5.102  66.948  27.108  1.00  0.00     0.030 A 
HETATM   15  C18 UNL     1       5.160  67.985  28.044  1.00  0.00     0.130 A 
HETATM   16  C20 UNL     1       5.087  65.639  27.495  1.00  0.00     0.124 A 
HETATM   17  N3  UNL     1       5.200  67.634  29.315  1.00  0.00    -0.176 N 
HETATM   18  C19 UNL     1       5.188  66.344  29.720  1.00  0.00     0.679 A 
ATOM     19  H3  UNL     1       5.242  68.367  30.023  1.00  0.00     0.186 HD
HETATM   20  N5  UNL     1       5.131  65.328  28.824  1.00  0.00    -0.177 N 
ATOM     21  H5  UNL     1       5.121  64.357  29.135  1.00  0.00     0.185 HD
BRANCH  18  22
HETATM   22  N4  UNL     1       5.230  66.048  30.973  1.00  0.00    -0.234 N 
ATOM     23  H42 UNL     1       5.829  66.607  31.580  1.00  0.00     0.174 HD
ATOM     24  H41 UNL     1       4.677  65.275  31.344  1.00  0.00     0.174 HD
ENDBRANCH  18  22
BRANCH  16  25
HETATM   25  N6  UNL     1       5.033  64.723  26.586  1.00  0.00    -0.385 N 
ATOM     26  H62 UNL     1       4.152  64.279  26.326  1.00  0.00     0.157 HD
ATOM     27  H61 UNL     1       5.896  64.441  26.122  1.00  0.00     0.157 HD
ENDBRANCH  16  25
ENDBRANCH   4  10
BRANCH   1  28
HETATM   28  C7  UNL     1       2.581  73.769  29.410  1.00  0.00     0.121 C 
BRANCH  28  29
HETATM   29  C6  UNL     1       2.369  75.151  28.875  1.00  0.00     0.072 A 
HETATM   30  C5  UNL     1       3.213  76.198  29.182  1.00  0.00     0.068 A 
HETATM   31  C4  UNL     1       2.719  77.297  28.525  1.00  0.00     0.082 A 
HETATM   32  O1  UNL     1       1.638  76.908  27.866  1.00  0.00    -0.242 OA
HETATM   33  N7  UNL     1       1.429  75.632  28.073  1.00  0.00    -0.260 N 
ATOM     34  H7  UNL     1       0.660  75.090  27.678  1.00  0.00     0.195 HD
BRANCH  31  35
HETATM   35  C2  UNL     1       3.301  78.661  28.558  1.00  0.00     0.037 C 
HETATM   36  C1  UNL     1       4.794  78.535  28.311  1.00  0.00     0.016 C 
HETATM   37  C3  UNL     1       2.723  79.489  27.428  1.00  0.00     0.016 C 
ENDBRANCH  31  35
ENDBRANCH  28  29
ENDBRANCH   1  28
TORSDOF 7
ENDMDL
MODEL 3
REMARK VINA RESULT: -6.694070012      3.678      9.064
REMARK  7 active torsions:
REMARK  status: ('A' for Active; 'I' for Inactive)
REMARK    1  A    between atoms: C2_2  and  C4_4 
REMARK    2  A    between atoms: C6_6  and  C7_7 
REMARK    3  A    between atoms: C7_7  and  N1_8 
REMARK    4  A    between atoms: C10_11  and  C11_12 
REMARK    5  A    between atoms: C10_11  and  N2_15 
REMARK    6  A    between atoms: C19_23  and  N4_24 
REMARK    7  A    between atoms: C20_29  and  N6_30 
ROOT
HETATM    1  N1  UNL     1       3.028  73.586  29.018  1.00  0.00    -0.368 N 
HETATM    2  C8  UNL     1       2.633  72.942  30.225  1.00  0.00     0.130 C 
HETATM    3  C9  UNL     1       3.533  71.850  30.660  1.00  0.00     0.052 C 
HETATM    4  C10 UNL     1       3.691  70.660  29.708  1.00  0.00     0.043 C 
HETATM    5  C21 UNL     1       3.961  71.363  28.414  1.00  0.00     0.076 C 
HETATM    6  C22 UNL     1       4.101  72.869  28.478  1.00  0.00     0.066 C 
ENDROOT
BRANCH   4   7
HETATM    7  C11 UNL     1       2.503  69.822  29.820  1.00  0.00     0.006 C 
HETATM    8  C12 UNL     1       1.997  69.564  31.249  1.00  0.00     0.012 C 
HETATM    9  C13 UNL     1       1.295  70.162  29.028  1.00  0.00     0.012 C 
ENDBRANCH   4   7
BRANCH   4  10
HETATM   10  N2  UNL     1       4.873  69.976  30.250  1.00  0.00    -0.356 N 
HETATM   11  C14 UNL     1       5.678  70.575  31.307  1.00  0.00     0.125 C 
HETATM   12  C15 UNL     1       6.610  69.600  31.958  1.00  0.00     0.025 C 
HETATM   13  C16 UNL     1       7.521  69.080  30.820  1.00  0.00     0.048 C 
HETATM   14  C17 UNL     1       6.582  68.219  30.031  1.00  0.00     0.030 A 
HETATM   15  C18 UNL     1       5.289  68.697  29.797  1.00  0.00     0.130 A 
HETATM   16  C20 UNL     1       6.980  66.992  29.586  1.00  0.00     0.124 A 
HETATM   17  N3  UNL     1       4.476  67.901  29.129  1.00  0.00    -0.176 N 
HETATM   18  C19 UNL     1       4.849  66.681  28.681  1.00  0.00     0.679 A 
ATOM     19  H3  UNL     1       3.526  68.219  28.941  1.00  0.00     0.186 HD
HETATM   20  N5  UNL     1       6.100  66.206  28.899  1.00  0.00    -0.177 N 
ATOM     21  H5  UNL     1       6.377  65.285  28.558  1.00  0.00     0.185 HD
BRANCH  18  22
HETATM   22  N4  UNL     1       4.020  65.937  28.032  1.00  0.00    -0.234 N 
ATOM     23  H42 UNL     1       3.497  65.232  28.552  1.00  0.00     0.174 HD
ATOM     24  H41 UNL     1       3.894  66.055  27.027  1.00  0.00     0.174 HD
ENDBRANCH  18  22
BRANCH  16  25
HETATM   25  N6  UNL     1       8.187  66.603  29.831  1.00  0.00    -0.385 N 
ATOM     26  H62 UNL     1       8.840  67.184  30.357  1.00  0.00     0.157 HD
ATOM     27  H61 UNL     1       8.489  65.692  29.486  1.00  0.00     0.157 HD
ENDBRANCH  16  25
ENDBRANCH   4  10
BRANCH   1  28
HETATM   28  C7  UNL     1       2.018  74.087  28.178  1.00  0.00     0.121 C 
BRANCH  28  29
HETATM   29  C6  UNL     1       1.901  75.558  28.430  1.00  0.00     0.072 A 
HETATM   30  C5  UNL     1       2.963  76.422  28.257  1.00  0.00     0.068 A 
HETATM   31  C4  UNL     1       2.497  77.673  28.576  1.00  0.00     0.082 A 
HETATM   32  O1  UNL     1       1.224  77.543  28.918  1.00  0.00    -0.242 OA
HETATM   33  N7  UNL     1       0.869  76.285  28.831  1.00  0.00    -0.260 N 
ATOM     34  H7  UNL     1      -0.061  75.922  29.041  1.00  0.00     0.195 HD
BRANCH  31  35
HETATM   35  C2  UNL     1       3.288  78.928  28.538  1.00  0.00     0.037 C 
HETATM   36  C1  UNL     1       4.733  78.558  28.257  1.00  0.00     0.016 C 
HETATM   37  C3  UNL     1       2.810  79.796  27.391  1.00  0.00     0.016 C 
ENDBRANCH  31  35
ENDBRANCH  28  29
ENDBRANCH   1  28
TORSDOF 7
ENDMDL
MODEL 4
REMARK VINA RESULT: -6.632147159      3.755      4.564
REMARK  7 active torsions:
REMARK  status: ('A' for Active; 'I' for Inactive)
REMARK    1  A    between atoms: C2_2  and  C4_4 
REMARK    2  A    between atoms: C6_6  and  C7_7 
REMARK    3  A    between atoms: C7_7  and  N1_8 
REMARK    4  A    between atoms: C10_11  and  C11_12 
REMARK    5  A    between atoms: C10_11  and  N2_15 
REMARK    6  A    between atoms: C19_23  and  N4_24 
REMARK    7  A    between atoms: C20_29  and  N6_30 
ROOT
HETATM    1  N1  UNL     1       3.304  70.487  30.963  1.00  0.00    -0.368 N 
HETATM    2  C8  UNL     1       3.541  70.289  29.574  1.00  0.00     0.130 C 
HETATM    3  C9  UNL     1       3.957  71.506  28.842  1.00  0.00     0.052 C 
HETATM    4  C10 UNL     1       2.970  72.678  28.827  1.00  0.00     0.043 C 
HETATM    5  C21 UNL     1       2.620  72.776  30.279  1.00  0.00     0.076 C 
HETATM    6  C22 UNL     1       3.373  71.860  31.220  1.00  0.00     0.066 C 
ENDROOT
BRANCH   4   7
HETATM    7  C11 UNL     1       1.915  72.376  27.867  1.00  0.00     0.006 C 
HETATM    8  C12 UNL     1       2.312  71.457  26.700  1.00  0.00     0.012 C 
HETATM    9  C13 UNL     1       0.614  71.855  28.354  1.00  0.00     0.012 C 
ENDBRANCH   4   7
BRANCH   4  10
HETATM   10  N2  UNL     1       3.807  73.791  28.358  1.00  0.00    -0.356 N 
HETATM   11  C14 UNL     1       5.164  73.568  27.876  1.00  0.00     0.125 C 
HETATM   12  C15 UNL     1       5.722  74.741  27.131  1.00  0.00     0.025 C 
HETATM   13  C16 UNL     1       5.697  75.917  28.137  1.00  0.00     0.048 C 
HETATM   14  C17 UNL     1       4.231  76.212  28.244  1.00  0.00     0.030 A 
HETATM   15  C18 UNL     1       3.347  75.133  28.329  1.00  0.00     0.130 A 
HETATM   16  C20 UNL     1       3.784  77.501  28.223  1.00  0.00     0.124 A 
HETATM   17  N3  UNL     1       2.061  75.425  28.387  1.00  0.00    -0.176 N 
HETATM   18  C19 UNL     1       1.596  76.694  28.366  1.00  0.00     0.679 A 
ATOM     19  H3  UNL     1       1.389  74.660  28.450  1.00  0.00     0.186 HD
HETATM   20  N5  UNL     1       2.442  77.750  28.286  1.00  0.00    -0.177 N 
ATOM     21  H5  UNL     1       2.087  78.706  28.272  1.00  0.00     0.185 HD
BRANCH  18  22
HETATM   22  N4  UNL     1       0.331  76.931  28.425  1.00  0.00    -0.234 N 
ATOM     23  H42 UNL     1       0.027  77.854  28.736  1.00  0.00     0.174 HD
ATOM     24  H41 UNL     1      -0.345  76.212  28.166  1.00  0.00     0.174 HD
ENDBRANCH  18  22
BRANCH  16  25
HETATM   25  N6  UNL     1       4.647  78.458  28.144  1.00  0.00    -0.385 N 
ATOM     26  H62 UNL     1       4.382  79.394  27.837  1.00  0.00     0.157 HD
ATOM     27  H61 UNL     1       5.617  78.266  28.395  1.00  0.00     0.157 HD
ENDBRANCH  16  25
ENDBRANCH   4  10
BRANCH   1  28
HETATM   28  C7  UNL     1       2.316  69.701  31.582  1.00  0.00     0.121 C 
BRANCH  28  29
HETATM   29  C6  UNL     1       2.990  68.503  32.176  1.00  0.00     0.072 A 
HETATM   30  C5  UNL     1       3.146  67.324  31.477  1.00  0.00     0.068 A 
HETATM   31  C4  UNL     1       3.796  66.459  32.321  1.00  0.00     0.082 A 
HETATM   32  O1  UNL     1       4.009  67.104  33.458  1.00  0.00    -0.242 OA
HETATM   33  N7  UNL     1       3.529  68.321  33.372  1.00  0.00    -0.260 N 
ATOM     34  H7  UNL     1       3.566  69.020  34.114  1.00  0.00     0.195 HD
BRANCH  31  35
HETATM   35  C2  UNL     1       4.182  65.062  32.003  1.00  0.00     0.037 C 
HETATM   36  C1  UNL     1       5.379  65.114  31.069  1.00  0.00     0.016 C 
HETATM   37  C3  UNL     1       4.624  64.355  33.268  1.00  0.00     0.016 C 
ENDBRANCH  31  35
ENDBRANCH  28  29
ENDBRANCH   1  28
TORSDOF 7
ENDMDL
MODEL 5
REMARK VINA RESULT: -6.522425795      3.796      9.221
REMARK  7 active torsions:
REMARK  status: ('A' for Active; 'I' for Inactive)
REMARK    1  A    between atoms: C2_2  and  C4_4 
REMARK    2  A    between atoms: C6_6  and  C7_7 
REMARK    3  A    between atoms: C7_7  and  N1_8 
REMARK    4  A    between atoms: C10_11  and  C11_12 
REMARK    5  A    between atoms: C10_11  and  N2_15 
REMARK    6  A    between atoms: C19_23  and  N4_24 
REMARK    7  A    between atoms: C20_29  and  N6_30 
ROOT
HETATM    1  N1  UNL     1       2.385  73.942  28.213  1.00  0.00    -0.368 N 
HETATM    2  C8  UNL     1       3.726  73.880  28.687  1.00  0.00     0.130 C 
HETATM    3  C9  UNL     1       4.401  72.584  28.452  1.00  0.00     0.052 C 
HETATM    4  C10 UNL     1       3.779  71.348  29.112  1.00  0.00     0.043 C 
HETATM    5  C21 UNL     1       2.342  71.510  28.724  1.00  0.00     0.076 C 
HETATM    6  C22 UNL     1       2.016  72.659  27.794  1.00  0.00     0.066 C 
ENDROOT
BRANCH   4   7
HETATM    7  C11 UNL     1       4.133  71.356  30.526  1.00  0.00     0.006 C 
HETATM    8  C12 UNL     1       3.265  72.247  31.429  1.00  0.00     0.012 C 
HETATM    9  C13 UNL     1       4.265  70.069  31.251  1.00  0.00     0.012 C 
ENDBRANCH   4   7
BRANCH   4  10
HETATM   10  N2  UNL     1       4.445  70.244  28.407  1.00  0.00    -0.356 N 
HETATM   11  C14 UNL     1       3.689  69.293  27.601  1.00  0.00     0.125 C 
HETATM   12  C15 UNL     1       4.556  68.470  26.699  1.00  0.00     0.025 C 
HETATM   13  C16 UNL     1       5.531  67.720  27.638  1.00  0.00     0.048 C 
HETATM   14  C17 UNL     1       6.431  68.823  28.106  1.00  0.00     0.030 A 
HETATM   15  C18 UNL     1       5.849  70.046  28.452  1.00  0.00     0.130 A 
HETATM   16  C20 UNL     1       7.782  68.635  28.158  1.00  0.00     0.124 A 
HETATM   17  N3  UNL     1       6.672  71.007  28.827  1.00  0.00    -0.176 N 
HETATM   18  C19 UNL     1       8.013  70.844  28.884  1.00  0.00     0.679 A 
ATOM     19  H3  UNL     1       6.280  71.912  29.086  1.00  0.00     0.186 HD
HETATM   20  N5  UNL     1       8.591  69.663  28.554  1.00  0.00    -0.177 N 
ATOM     21  H5  UNL     1       9.602  69.545  28.599  1.00  0.00     0.185 HD
BRANCH  18  22
HETATM   22  N4  UNL     1       8.777  71.812  29.256  1.00  0.00    -0.234 N 
ATOM     23  H42 UNL     1       9.548  72.080  28.645  1.00  0.00     0.174 HD
ATOM     24  H41 UNL     1       8.612  72.294  30.140  1.00  0.00     0.174 HD
ENDBRANCH  18  22
BRANCH  16  25
HETATM   25  N6  UNL     1       8.263  67.484  27.828  1.00  0.00    -0.385 N 
ATOM     26  H62 UNL     1       9.268  67.325  27.751  1.00  0.00     0.157 HD
ATOM     27  H61 UNL     1       7.617  66.718  27.639  1.00  0.00     0.157 HD
ENDBRANCH  16  25
ENDBRANCH   4  10
BRANCH   1  28
HETATM   28  C7  UNL     1       1.472  74.743  28.922  1.00  0.00     0.121 C 
BRANCH  28  29
HETATM   29  C6  UNL     1       1.477  76.103  28.297  1.00  0.00     0.072 A 
HETATM   30  C5  UNL     1       2.534  76.978  28.444  1.00  0.00     0.068 A 
HETATM   31  C4  UNL     1       2.196  78.110  27.746  1.00  0.00     0.082 A 
HETATM   32  O1  UNL     1       0.999  77.905  27.218  1.00  0.00    -0.242 OA
HETATM   33  N7  UNL     1       0.571  76.711  27.545  1.00  0.00    -0.260 N 
ATOM     34  H7  UNL     1      -0.324  76.310  27.263  1.00  0.00     0.195 HD
BRANCH  31  35
HETATM   35  C2  UNL     1       3.030  79.331  27.618  1.00  0.00     0.037 C 
HETATM   36  C1  UNL     1       2.319  80.458  28.345  1.00  0.00     0.016 C 
HETATM   37  C3  UNL     1       4.361  79.113  28.309  1.00  0.00     0.016 C 
ENDBRANCH  31  35
ENDBRANCH  28  29
ENDBRANCH   1  28
TORSDOF 7
ENDMDL
