MODEL 1
REMARK VINA RESULT: -6.920741983      0.000      0.000
REMARK  11 active torsions:
REMARK  status: ('A' for Active; 'I' for Inactive)
REMARK    1  A    between atoms: O1_2  and  N1_3 
REMARK       I    between atoms: C2_5  and  N3_7 
REMARK    2  A    between atoms: N3_7  and  C3_9 
REMARK    3  A    between atoms: N5_13  and  N6_14 
REMARK    4  A    between atoms: C6_17  and  O2_18 
REMARK    5  A    between atoms: C8_24  and  C9_25 
REMARK    6  A    between atoms: C9_25  and  O3_27 
REMARK    7  A    between atoms: C11_29  and  O4_30 
REMARK    8  A    between atoms: O4_30  and  C12_31 
REMARK    9  A    between atoms: C12_31  and  O5_32 
REMARK   10  A    between atoms: O5_32  and  C13_33 
REMARK   11  A    between atoms: N9_36  and  O7_37 
ROOT
HETATM    1  C3  UNL     1       5.710  -2.487  -3.148  1.00  0.00     0.219 C 
HETATM    2  C4  UNL     1       5.895  -3.493  -2.000  1.00  0.00     0.154 C 
HETATM    3  C5  UNL     1       7.430  -3.463  -1.943  1.00  0.00     0.171 C 
HETATM    4  N4  UNL     1       7.722  -3.590  -3.329  1.00  0.00    -0.132 NA
HETATM    5  N5  UNL     1       6.964  -2.505  -3.852  1.00  0.00    -0.125 NA
HETATM    6  C6  UNL     1       8.010  -4.458  -1.017  1.00  0.00     0.180 C 
HETATM    7  S1  UNL     1       6.542  -5.233  -0.194  1.00  0.00    -0.080 SA
HETATM    8  C7  UNL     1       5.713  -5.884  -1.674  1.00  0.00     0.250 C 
HETATM    9  N7  UNL     1       6.697  -6.635  -2.419  1.00  0.00    -0.362 N 
ATOM     10  H7  UNL     1       6.340  -7.285  -3.119  1.00  0.00     0.162 HD
HETATM   11  C8  UNL     1       8.087  -6.566  -2.282  1.00  0.00     0.069 C 
HETATM   12  C11 UNL     1       8.720  -5.591  -1.650  1.00  0.00     0.120 C 
HETATM   13  N9  UNL     1       5.378  -4.734  -2.494  1.00  0.00    -0.157 NA
ENDROOT
BRANCH   1  14
HETATM   14  N3  UNL     1       5.507  -1.174  -2.529  1.00  0.00    -0.342 N 
HETATM   15  C2  UNL     1       5.899   0.023  -3.189  1.00  0.00     0.209 C 
HETATM   16  N1  UNL     1       5.858   0.095  -4.475  1.00  0.00    -0.239 N 
HETATM   17  N2  UNL     1       6.342   1.171  -2.476  1.00  0.00    -0.062 NA
ATOM     18  H1  UNL     1       5.540  -0.723  -4.994  1.00  0.00     0.197 HD
ATOM     19  H3  UNL     1       5.077  -1.118  -1.607  1.00  0.00     0.164 HD
BRANCH  16  20
HETATM   20  O1  UNL     1       6.215   1.197  -5.175  1.00  0.00    -0.283 OA
HETATM   21  C1  UNL     1       6.804   1.225  -6.441  1.00  0.00     0.237 C 
ENDBRANCH  16  20
ENDBRANCH   1  14
BRANCH   5  22
HETATM   22  N6  UNL     1       6.859  -2.544  -5.220  1.00  0.00    -0.347 NA
ATOM     23  H62 UNL     1       6.709  -3.488  -5.575  1.00  0.00     0.172 HD
ATOM     24  H61 UNL     1       6.125  -1.955  -5.611  1.00  0.00     0.172 HD
ENDBRANCH   5  22
BRANCH  13  25
HETATM   25  O7  UNL     1       5.651  -4.926  -3.785  1.00  0.00    -0.310 OA
ATOM     26  H7  UNL     1       4.944  -5.359  -4.248  1.00  0.00     0.237 HD
ENDBRANCH  13  25
BRANCH   6  27
HETATM   27  O2  UNL     1       8.707  -3.833  -0.021  1.00  0.00    -0.371 OA
ATOM     28  H2  UNL     1       9.540  -4.267   0.122  1.00  0.00     0.212 HD
ENDBRANCH   6  27
BRANCH  12  29
HETATM   29  O4  UNL     1      10.074  -5.622  -1.575  1.00  0.00    -0.324 OA
BRANCH  29  30
HETATM   30  C12 UNL     1      10.994  -4.955  -2.382  1.00  0.00     0.356 C 
BRANCH  30  31
HETATM   31  O5  UNL     1      12.326  -5.368  -2.146  1.00  0.00    -0.280 OA
BRANCH  31  32
HETATM   32  C13 UNL     1      12.696  -6.330  -1.243  1.00  0.00     0.374 C 
HETATM   33  N8  UNL     1      12.855  -7.706  -1.557  1.00  0.00    -0.032 NA
HETATM   34  O6  UNL     1      12.911  -5.977  -0.046  1.00  0.00    -0.242 OA
ENDBRANCH  31  32
ENDBRANCH  30  31
ENDBRANCH  29  30
ENDBRANCH  12  29
BRANCH  11  35
HETATM   35  C9  UNL     1       8.906  -7.676  -2.893  1.00  0.00     0.166 C 
HETATM   36  C10 UNL     1       7.905  -8.629  -3.514  1.00  0.00     0.046 C 
BRANCH  35  37
HETATM   37  O3  UNL     1       9.722  -8.279  -1.974  1.00  0.00    -0.390 OA
ATOM     38  H3  UNL     1      10.598  -8.418  -2.312  1.00  0.00     0.210 HD
ENDBRANCH  35  37
ENDBRANCH  11  35
TORSDOF 11
ENDMDL
MODEL 2
REMARK VINA RESULT: -6.688072807      3.401      5.430
REMARK  11 active torsions:
REMARK  status: ('A' for Active; 'I' for Inactive)
REMARK    1  A    between atoms: O1_2  and  N1_3 
REMARK       I    between atoms: C2_5  and  N3_7 
REMARK    2  A    between atoms: N3_7  and  C3_9 
REMARK    3  A    between atoms: N5_13  and  N6_14 
REMARK    4  A    between atoms: C6_17  and  O2_18 
REMARK    5  A    between atoms: C8_24  and  C9_25 
REMARK    6  A    between atoms: C9_25  and  O3_27 
REMARK    7  A    between atoms: C11_29  and  O4_30 
REMARK    8  A    between atoms: O4_30  and  C12_31 
REMARK    9  A    between atoms: C12_31  and  O5_32 
REMARK   10  A    between atoms: O5_32  and  C13_33 
REMARK   11  A    between atoms: N9_36  and  O7_37 
ROOT
HETATM    1  C3  UNL     1      10.021  -6.107  -2.497  1.00  0.00     0.219 C 
HETATM    2  C4  UNL     1       9.235  -7.422  -2.635  1.00  0.00     0.154 C 
HETATM    3  C5  UNL     1      10.107  -8.283  -1.707  1.00  0.00     0.171 C 
HETATM    4  N4  UNL     1      11.396  -7.929  -2.195  1.00  0.00    -0.132 NA
HETATM    5  N5  UNL     1      11.335  -6.513  -2.076  1.00  0.00    -0.125 NA
HETATM    6  C6  UNL     1       9.736  -9.713  -1.701  1.00  0.00     0.180 C 
HETATM    7  S1  UNL     1       8.216  -9.800  -2.758  1.00  0.00    -0.080 SA
HETATM    8  C7  UNL     1       8.922  -9.149  -4.301  1.00  0.00     0.250 C 
HETATM    9  N7  UNL     1      10.125  -9.902  -4.571  1.00  0.00    -0.362 N 
ATOM     10  H7  UNL     1      10.488  -9.855  -5.523  1.00  0.00     0.162 HD
HETATM   11  C8  UNL     1      10.845 -10.689  -3.667  1.00  0.00     0.069 C 
HETATM   12  C11 UNL     1      10.695 -10.631  -2.354  1.00  0.00     0.120 C 
HETATM   13  N9  UNL     1       9.352  -7.793  -4.013  1.00  0.00    -0.157 NA
ENDROOT
BRANCH   1  14
HETATM   14  N3  UNL     1       9.372  -5.339  -1.430  1.00  0.00    -0.342 N 
HETATM   15  C2  UNL     1       8.645  -4.150  -1.713  1.00  0.00     0.209 C 
HETATM   16  N1  UNL     1       8.020  -4.025  -2.832  1.00  0.00    -0.239 N 
HETATM   17  N2  UNL     1       8.575  -3.069  -0.792  1.00  0.00    -0.062 NA
ATOM     18  H1  UNL     1       8.064  -4.797  -3.498  1.00  0.00     0.197 HD
ATOM     19  H3  UNL     1       9.445  -5.664  -0.467  1.00  0.00     0.164 HD
BRANCH  16  20
HETATM   20  O1  UNL     1       7.308  -2.926  -3.174  1.00  0.00    -0.283 OA
HETATM   21  C1  UNL     1       6.272  -2.862  -4.108  1.00  0.00     0.237 C 
ENDBRANCH  16  20
ENDBRANCH   1  14
BRANCH   5  22
HETATM   22  N6  UNL     1      12.369  -5.883  -2.723  1.00  0.00    -0.347 NA
ATOM     23  H62 UNL     1      12.090  -4.993  -3.135  1.00  0.00     0.172 HD
ATOM     24  H61 UNL     1      13.190  -5.703  -2.146  1.00  0.00     0.172 HD
ENDBRANCH   5  22
BRANCH  13  25
HETATM   25  O7  UNL     1      10.554  -7.516  -4.520  1.00  0.00    -0.310 OA
ATOM     26  H7  UNL     1      11.079  -8.294  -4.661  1.00  0.00     0.237 HD
ENDBRANCH  13  25
BRANCH   6  27
HETATM   27  O2  UNL     1       9.340 -10.097  -0.449  1.00  0.00    -0.371 OA
ATOM     28  H2  UNL     1       8.741 -10.832  -0.503  1.00  0.00     0.212 HD
ENDBRANCH   6  27
BRANCH  12  29
HETATM   29  O4  UNL     1      11.444 -11.442  -1.566  1.00  0.00    -0.324 OA
BRANCH  29  30
HETATM   30  C12 UNL     1      12.533 -11.094  -0.769  1.00  0.00     0.356 C 
BRANCH  30  31
HETATM   31  O5  UNL     1      13.771 -11.262  -1.434  1.00  0.00    -0.280 OA
BRANCH  31  32
HETATM   32  C13 UNL     1      14.614 -10.239  -1.781  1.00  0.00     0.374 C 
HETATM   33  N8  UNL     1      16.002 -10.394  -2.039  1.00  0.00    -0.032 NA
HETATM   34  O6  UNL     1      14.129  -9.072  -1.881  1.00  0.00    -0.242 OA
ENDBRANCH  31  32
ENDBRANCH  30  31
ENDBRANCH  29  30
ENDBRANCH  12  29
BRANCH  11  35
HETATM   35  C9  UNL     1      11.851 -11.661  -4.232  1.00  0.00     0.166 C 
HETATM   36  C10 UNL     1      11.452 -11.867  -5.679  1.00  0.00     0.046 C 
BRANCH  35  37
HETATM   37  O3  UNL     1      11.896 -12.828  -3.517  1.00  0.00    -0.390 OA
ATOM     38  H3  UNL     1      12.209 -13.555  -4.041  1.00  0.00     0.210 HD
ENDBRANCH  35  37
ENDBRANCH  11  35
TORSDOF 11
ENDMDL
MODEL 3
REMARK VINA RESULT: -6.456970534      1.058      1.128
REMARK  11 active torsions:
REMARK  status: ('A' for Active; 'I' for Inactive)
REMARK    1  A    between atoms: O1_2  and  N1_3 
REMARK       I    between atoms: C2_5  and  N3_7 
REMARK    2  A    between atoms: N3_7  and  C3_9 
REMARK    3  A    between atoms: N5_13  and  N6_14 
REMARK    4  A    between atoms: C6_17  and  O2_18 
REMARK    5  A    between atoms: C8_24  and  C9_25 
REMARK    6  A    between atoms: C9_25  and  O3_27 
REMARK    7  A    between atoms: C11_29  and  O4_30 
REMARK    8  A    between atoms: O4_30  and  C12_31 
REMARK    9  A    between atoms: C12_31  and  O5_32 
REMARK   10  A    between atoms: O5_32  and  C13_33 
REMARK   11  A    between atoms: N9_36  and  O7_37 
ROOT
HETATM    1  C3  UNL     1       6.140  -2.951  -2.876  1.00  0.00     0.219 C 
HETATM    2  C4  UNL     1       6.450  -4.126  -1.934  1.00  0.00     0.154 C 
HETATM    3  C5  UNL     1       7.954  -4.239  -2.230  1.00  0.00     0.171 C 
HETATM    4  N4  UNL     1       7.921  -4.187  -3.651  1.00  0.00    -0.132 NA
HETATM    5  N5  UNL     1       7.201  -2.976  -3.847  1.00  0.00    -0.125 NA
HETATM    6  C6  UNL     1       8.598  -5.405  -1.591  1.00  0.00     0.180 C 
HETATM    7  S1  UNL     1       7.263  -6.160  -0.552  1.00  0.00    -0.080 SA
HETATM    8  C7  UNL     1       6.062  -6.514  -1.869  1.00  0.00     0.250 C 
HETATM    9  N7  UNL     1       6.766  -7.231  -2.907  1.00  0.00    -0.362 N 
ATOM     10  H7  UNL     1       6.191  -7.738  -3.580  1.00  0.00     0.162 HD
HETATM   11  C8  UNL     1       8.150  -7.305  -3.088  1.00  0.00     0.069 C 
HETATM   12  C11 UNL     1       9.015  -6.492  -2.505  1.00  0.00     0.120 C 
HETATM   13  N9  UNL     1       5.696  -5.232  -2.443  1.00  0.00    -0.157 NA
ENDROOT
BRANCH   1  14
HETATM   14  N3  UNL     1       6.233  -1.729  -2.072  1.00  0.00    -0.342 N 
HETATM   15  C2  UNL     1       6.429  -0.458  -2.677  1.00  0.00     0.209 C 
HETATM   16  N1  UNL     1       5.946  -0.218  -3.848  1.00  0.00    -0.239 N 
HETATM   17  N2  UNL     1       7.151   0.584  -2.033  1.00  0.00    -0.062 NA
ATOM     18  H1  UNL     1       5.425  -0.960  -4.316  1.00  0.00     0.197 HD
ATOM     19  H3  UNL     1       6.156  -1.793  -1.057  1.00  0.00     0.164 HD
BRANCH  16  20
HETATM   20  O1  UNL     1       6.090   0.964  -4.489  1.00  0.00    -0.283 OA
HETATM   21  C1  UNL     1       6.220   1.154  -5.867  1.00  0.00     0.237 C 
ENDBRANCH  16  20
ENDBRANCH   1  14
BRANCH   5  22
HETATM   22  N6  UNL     1       6.798  -2.806  -5.149  1.00  0.00    -0.347 NA
ATOM     23  H62 UNL     1       6.651  -3.692  -5.633  1.00  0.00     0.172 HD
ATOM     24  H61 UNL     1       5.949  -2.254  -5.267  1.00  0.00     0.172 HD
ENDBRANCH   5  22
BRANCH  13  25
HETATM   25  O7  UNL     1       5.657  -5.257  -3.776  1.00  0.00    -0.310 OA
ATOM     26  H7  UNL     1       5.344  -6.086  -4.117  1.00  0.00     0.237 HD
ENDBRANCH  13  25
BRANCH   6  27
HETATM   27  O2  UNL     1       9.564  -4.995  -0.715  1.00  0.00    -0.371 OA
ATOM     28  H2  UNL     1       9.822  -5.712  -0.147  1.00  0.00     0.212 HD
ENDBRANCH   6  27
BRANCH  12  29
HETATM   29  O4  UNL     1      10.340  -6.651  -2.748  1.00  0.00    -0.324 OA
BRANCH  29  30
HETATM   30  C12 UNL     1      11.246  -5.704  -3.221  1.00  0.00     0.356 C 
BRANCH  30  31
HETATM   31  O5  UNL     1      12.184  -5.309  -2.239  1.00  0.00    -0.280 OA
BRANCH  31  32
HETATM   32  C13 UNL     1      12.784  -6.159  -1.347  1.00  0.00     0.374 C 
HETATM   33  N8  UNL     1      12.795  -5.971   0.060  1.00  0.00    -0.032 NA
HETATM   34  O6  UNL     1      13.371  -7.186  -1.802  1.00  0.00    -0.242 OA
ENDBRANCH  31  32
ENDBRANCH  30  31
ENDBRANCH  29  30
ENDBRANCH  12  29
BRANCH  11  35
HETATM   35  C9  UNL     1       8.680  -8.381  -4.002  1.00  0.00     0.166 C 
HETATM   36  C10 UNL     1       7.461  -9.121  -4.513  1.00  0.00     0.046 C 
BRANCH  35  37
HETATM   37  O3  UNL     1       9.577  -9.199  -3.369  1.00  0.00    -0.390 OA
ATOM     38  H3  UNL     1       9.298 -10.107  -3.376  1.00  0.00     0.210 HD
ENDBRANCH  35  37
ENDBRANCH  11  35
TORSDOF 11
ENDMDL
MODEL 4
REMARK VINA RESULT: -6.319502089      4.033      7.200
REMARK  11 active torsions:
REMARK  status: ('A' for Active; 'I' for Inactive)
REMARK    1  A    between atoms: O1_2  and  N1_3 
REMARK       I    between atoms: C2_5  and  N3_7 
REMARK    2  A    between atoms: N3_7  and  C3_9 
REMARK    3  A    between atoms: N5_13  and  N6_14 
REMARK    4  A    between atoms: C6_17  and  O2_18 
REMARK    5  A    between atoms: C8_24  and  C9_25 
REMARK    6  A    between atoms: C9_25  and  O3_27 
REMARK    7  A    between atoms: C11_29  and  O4_30 
REMARK    8  A    between atoms: O4_30  and  C12_31 
REMARK    9  A    between atoms: C12_31  and  O5_32 
REMARK   10  A    between atoms: O5_32  and  C13_33 
REMARK   11  A    between atoms: N9_36  and  O7_37 
ROOT
HETATM    1  C3  UNL     1       7.506  -3.429  -1.615  1.00  0.00     0.219 C 
HETATM    2  C4  UNL     1       6.477  -2.330  -1.927  1.00  0.00     0.154 C 
HETATM    3  C5  UNL     1       7.298  -1.130  -1.430  1.00  0.00     0.171 C 
HETATM    4  N4  UNL     1       7.740  -1.645  -0.180  1.00  0.00    -0.132 NA
HETATM    5  N5  UNL     1       8.353  -2.857  -0.603  1.00  0.00    -0.125 NA
HETATM    6  C6  UNL     1       6.549   0.143  -1.431  1.00  0.00     0.180 C 
HETATM    7  S1  UNL     1       4.921  -0.279  -2.208  1.00  0.00    -0.080 SA
HETATM    8  C7  UNL     1       4.376  -1.543  -1.021  1.00  0.00     0.250 C 
HETATM    9  N7  UNL     1       4.504  -0.973   0.299  1.00  0.00    -0.362 N 
ATOM     10  H7  UNL     1       3.991  -1.437   1.048  1.00  0.00     0.162 HD
HETATM   11  C8  UNL     1       5.257   0.149   0.661  1.00  0.00     0.069 C 
HETATM   12  C11 UNL     1       6.196   0.685  -0.101  1.00  0.00     0.120 C 
HETATM   13  N9  UNL     1       5.348  -2.618  -1.093  1.00  0.00    -0.157 NA
ENDROOT
BRANCH   1  14
HETATM   14  N3  UNL     1       8.277  -3.646  -2.843  1.00  0.00    -0.342 N 
HETATM   15  C2  UNL     1       9.466  -4.425  -2.842  1.00  0.00     0.209 C 
HETATM   16  N1  UNL     1       9.591  -5.414  -2.025  1.00  0.00    -0.239 N 
HETATM   17  N2  UNL     1      10.549  -4.155  -3.723  1.00  0.00    -0.062 NA
ATOM     18  H1  UNL     1       8.818  -5.615  -1.390  1.00  0.00     0.197 HD
ATOM     19  H3  UNL     1       7.953  -3.229  -3.715  1.00  0.00     0.164 HD
BRANCH  16  20
HETATM   20  O1  UNL     1      10.690  -6.200  -1.963  1.00  0.00    -0.283 OA
HETATM   21  C1  UNL     1      10.755  -7.565  -2.254  1.00  0.00     0.237 C 
ENDBRANCH  16  20
ENDBRANCH   1  14
BRANCH   5  22
HETATM   22  N6  UNL     1       8.650  -3.693   0.444  1.00  0.00    -0.347 NA
ATOM     23  H62 UNL     1       7.908  -4.368   0.630  1.00  0.00     0.172 HD
ATOM     24  H61 UNL     1       9.517  -4.220   0.341  1.00  0.00     0.172 HD
ENDBRANCH   5  22
BRANCH  13  25
HETATM   25  O7  UNL     1       5.701  -3.073   0.109  1.00  0.00    -0.310 OA
ATOM     26  H7  UNL     1       4.952  -3.272   0.659  1.00  0.00     0.237 HD
ENDBRANCH  13  25
BRANCH   6  27
HETATM   27  O2  UNL     1       7.141   1.043  -2.275  1.00  0.00    -0.371 OA
ATOM     28  H2  UNL     1       6.615   1.158  -3.058  1.00  0.00     0.212 HD
ENDBRANCH   6  27
BRANCH  12  29
HETATM   29  O4  UNL     1       6.867   1.776   0.347  1.00  0.00    -0.324 OA
BRANCH  29  30
HETATM   30  C12 UNL     1       8.126   1.823   0.943  1.00  0.00     0.356 C 
BRANCH  30  31
HETATM   31  O5  UNL     1       9.178   1.784  -0.001  1.00  0.00    -0.280 OA
BRANCH  31  32
HETATM   32  C13 UNL     1      10.471   2.160   0.256  1.00  0.00     0.374 C 
HETATM   33  N8  UNL     1      10.876   2.922   1.385  1.00  0.00    -0.032 NA
HETATM   34  O6  UNL     1      11.371   1.809  -0.563  1.00  0.00    -0.242 OA
ENDBRANCH  31  32
ENDBRANCH  30  31
ENDBRANCH  29  30
ENDBRANCH  12  29
BRANCH  11  35
HETATM   35  C9  UNL     1       4.974   0.779   2.002  1.00  0.00     0.166 C 
HETATM   36  C10 UNL     1       4.076  -0.199   2.732  1.00  0.00     0.046 C 
BRANCH  35  37
HETATM   37  O3  UNL     1       4.420   2.025   1.878  1.00  0.00    -0.390 OA
ATOM     38  H3  UNL     1       4.292   2.443   2.721  1.00  0.00     0.210 HD
ENDBRANCH  35  37
ENDBRANCH  11  35
TORSDOF 11
ENDMDL
MODEL 5
REMARK VINA RESULT: -6.289976359      4.223      5.588
REMARK  11 active torsions:
REMARK  status: ('A' for Active; 'I' for Inactive)
REMARK    1  A    between atoms: O1_2  and  N1_3 
REMARK       I    between atoms: C2_5  and  N3_7 
REMARK    2  A    between atoms: N3_7  and  C3_9 
REMARK    3  A    between atoms: N5_13  and  N6_14 
REMARK    4  A    between atoms: C6_17  and  O2_18 
REMARK    5  A    between atoms: C8_24  and  C9_25 
REMARK    6  A    between atoms: C9_25  and  O3_27 
REMARK    7  A    between atoms: C11_29  and  O4_30 
REMARK    8  A    between atoms: O4_30  and  C12_31 
REMARK    9  A    between atoms: C12_31  and  O5_32 
REMARK   10  A    between atoms: O5_32  and  C13_33 
REMARK   11  A    between atoms: N9_36  and  O7_37 
ROOT
HETATM    1  C3  UNL     1       6.926  -8.636  -5.215  1.00  0.00     0.219 C 
HETATM    2  C4  UNL     1       7.351  -9.144  -3.827  1.00  0.00     0.154 C 
HETATM    3  C5  UNL     1       8.716  -8.442  -3.758  1.00  0.00     0.171 C 
HETATM    4  N4  UNL     1       9.218  -8.769  -5.049  1.00  0.00    -0.132 NA
HETATM    5  N5  UNL     1       8.159  -8.285  -5.866  1.00  0.00    -0.125 NA
HETATM    6  C6  UNL     1       9.523  -8.825  -2.582  1.00  0.00     0.180 C 
HETATM    7  S1  UNL     1       8.406  -9.926  -1.595  1.00  0.00    -0.080 SA
HETATM    8  C7  UNL     1       8.125 -11.216  -2.844  1.00  0.00     0.250 C 
HETATM    9  N7  UNL     1       9.420 -11.627  -3.332  1.00  0.00    -0.362 N 
ATOM     10  H7  UNL     1       9.459 -12.518  -3.826  1.00  0.00     0.162 HD
HETATM   11  C8  UNL     1      10.627 -10.934  -3.200  1.00  0.00     0.069 C 
HETATM   12  C11 UNL     1      10.713  -9.659  -2.860  1.00  0.00     0.120 C 
HETATM   13  N9  UNL     1       7.461 -10.566  -3.959  1.00  0.00    -0.157 NA
ENDROOT
BRANCH   1  14
HETATM   14  N3  UNL     1       6.121  -7.431  -4.994  1.00  0.00    -0.342 N 
HETATM   15  C2  UNL     1       6.069  -6.389  -5.960  1.00  0.00     0.209 C 
HETATM   16  N1  UNL     1       6.173  -6.665  -7.214  1.00  0.00    -0.239 N 
HETATM   17  N2  UNL     1       5.903  -5.025  -5.594  1.00  0.00    -0.062 NA
ATOM     18  H1  UNL     1       6.291  -7.641  -7.485  1.00  0.00     0.197 HD
ATOM     19  H3  UNL     1       5.588  -7.338  -4.129  1.00  0.00     0.164 HD
BRANCH  16  20
HETATM   20  O1  UNL     1       6.134  -5.730  -8.192  1.00  0.00    -0.283 OA
HETATM   21  C1  UNL     1       5.325  -5.749  -9.330  1.00  0.00     0.237 C 
ENDBRANCH  16  20
ENDBRANCH   1  14
BRANCH   5  22
HETATM   22  N6  UNL     1       8.264  -8.704  -7.169  1.00  0.00    -0.347 NA
ATOM     23  H62 UNL     1       8.550  -7.955  -7.800  1.00  0.00     0.172 HD
ATOM     24  H61 UNL     1       8.903  -9.485  -7.320  1.00  0.00     0.172 HD
ENDBRANCH   5  22
BRANCH  13  25
HETATM   25  O7  UNL     1       7.959 -10.936  -5.140  1.00  0.00    -0.310 OA
ATOM     26  H7  UNL     1       8.397 -10.223  -5.591  1.00  0.00     0.237 HD
ENDBRANCH  13  25
BRANCH   6  27
HETATM   27  O2  UNL     1       9.762  -7.735  -1.792  1.00  0.00    -0.371 OA
ATOM     28  H2  UNL     1       9.609  -7.947  -0.879  1.00  0.00     0.212 HD
ENDBRANCH   6  27
BRANCH  12  29
HETATM   29  O4  UNL     1      11.937  -9.082  -2.758  1.00  0.00    -0.324 OA
BRANCH  29  30
HETATM   30  C12 UNL     1      12.698  -8.880  -1.608  1.00  0.00     0.356 C 
BRANCH  30  31
HETATM   31  O5  UNL     1      13.367  -7.634  -1.610  1.00  0.00    -0.280 OA
BRANCH  31  32
HETATM   32  C13 UNL     1      12.767  -6.426  -1.366  1.00  0.00     0.374 C 
HETATM   33  N8  UNL     1      12.167  -5.611  -2.363  1.00  0.00    -0.032 NA
HETATM   34  O6  UNL     1      12.741  -6.001  -0.173  1.00  0.00    -0.242 OA
ENDBRANCH  31  32
ENDBRANCH  30  31
ENDBRANCH  29  30
ENDBRANCH  12  29
BRANCH  11  35
HETATM   35  C9  UNL     1      11.903 -11.695  -3.462  1.00  0.00     0.166 C 
HETATM   36  C10 UNL     1      11.532 -12.792  -4.438  1.00  0.00     0.046 C 
BRANCH  35  37
HETATM   37  O3  UNL     1      12.464 -12.171  -2.308  1.00  0.00    -0.390 OA
ATOM     38  H3  UNL     1      12.634 -13.104  -2.352  1.00  0.00     0.210 HD
ENDBRANCH  35  37
ENDBRANCH  11  35
TORSDOF 11
ENDMDL
