MODEL 1
REMARK VINA RESULT: -6.615421868      0.000      0.000
REMARK  14 active torsions:
REMARK  status: ('A' for Active; 'I' for Inactive)
REMARK    1  A    between atoms: C2_2  and  O1_3 
REMARK    2  A    between atoms: C2_2  and  C3_5 
REMARK    3  A    between atoms: C4_7  and  C5_8 
REMARK    4  A    between atoms: N1_9  and  O3_11 
REMARK    5  A    between atoms: C7_14  and  O4_15 
REMARK    6  A    between atoms: O4_15  and  C8_16 
REMARK    7  A    between atoms: C9_18  and  O6_19 
REMARK    8  A    between atoms: O6_19  and  C10_20 
REMARK    9  A    between atoms: C11_21  and  N2_22 
REMARK   10  A    between atoms: C13_27  and  N3_28 
REMARK   11  A    between atoms: C14_32  and  O7_33 
REMARK   12  A    between atoms: C15_35  and  O8_36 
REMARK   13  A    between atoms: C16_38  and  N4_39 
REMARK   14  A    between atoms: C18_44  and  N5_45 
ROOT
HETATM    1  C8  UNL     1       9.457 -10.070  -0.947  1.00  0.00     0.293 C 
HETATM    2  O5  UNL     1       8.603  -9.466  -1.945  1.00  0.00    -0.327 OA
HETATM    3  C9  UNL     1       7.447  -9.095  -1.276  1.00  0.00     0.294 C 
HETATM    4  C16 UNL     1       6.596 -10.349  -1.176  1.00  0.00     0.240 C 
HETATM    5  C17 UNL     1       7.516 -11.566  -1.345  1.00  0.00     0.075 C 
HETATM    6  C18 UNL     1       8.833 -11.372  -0.660  1.00  0.00     0.240 C 
ENDROOT
BRANCH   3   7
HETATM    7  O6  UNL     1       6.821  -7.971  -1.722  1.00  0.00    -0.349 OA
BRANCH   7   8
HETATM    8  C10 UNL     1       7.427  -6.780  -1.475  1.00  0.00     0.186 C 
HETATM    9  C11 UNL     1       6.639  -5.849  -0.555  1.00  0.00     0.217 C 
HETATM   10  C12 UNL     1       7.423  -4.565  -0.393  1.00  0.00     0.071 C 
HETATM   11  C13 UNL     1       7.454  -3.815  -1.704  1.00  0.00     0.216 C 
HETATM   12  C14 UNL     1       8.160  -4.696  -2.703  1.00  0.00     0.179 C 
HETATM   13  C15 UNL     1       7.554  -6.053  -2.799  1.00  0.00     0.180 C 
BRANCH   9  14
HETATM   14  N2  UNL     1       5.329  -5.567  -1.070  1.00  0.00    -0.072 N 
ATOM     15  H23 UNL     1       5.379  -5.016  -1.928  1.00  0.00     0.274 HD
ATOM     16  H22 UNL     1       4.888  -6.407  -1.444  1.00  0.00     0.274 HD
ATOM     17  H21 UNL     1       4.734  -5.115  -0.374  1.00  0.00     0.274 HD
ENDBRANCH   9  14
BRANCH  11  18
HETATM   18  N3  UNL     1       8.210  -2.601  -1.550  1.00  0.00    -0.072 N 
ATOM     19  H33 UNL     1       8.381  -2.376  -0.569  1.00  0.00     0.274 HD
ATOM     20  H32 UNL     1       9.180  -2.711  -1.846  1.00  0.00     0.274 HD
ATOM     21  H31 UNL     1       7.743  -1.840  -2.042  1.00  0.00     0.274 HD
ENDBRANCH  11  18
BRANCH  12  22
HETATM   22  O7  UNL     1       8.028  -4.105  -3.967  1.00  0.00    -0.391 OA
ATOM     23  H7  UNL     1       8.354  -4.721  -4.613  1.00  0.00     0.210 HD
ENDBRANCH  12  22
BRANCH  13  24
HETATM   24  O8  UNL     1       8.262  -6.809  -3.732  1.00  0.00    -0.390 OA
ATOM     25  H8  UNL     1       8.274  -6.389  -4.583  1.00  0.00     0.210 HD
ENDBRANCH  13  24
ENDBRANCH   7   8
ENDBRANCH   3   7
BRANCH   4  26
HETATM   26  N4  UNL     1       5.869 -10.441   0.072  1.00  0.00    -0.070 N 
ATOM     27  H43 UNL     1       6.263  -9.810   0.769  1.00  0.00     0.274 HD
ATOM     28  H42 UNL     1       4.939 -10.033  -0.017  1.00  0.00     0.274 HD
ATOM     29  H41 UNL     1       5.815 -11.394   0.431  1.00  0.00     0.274 HD
ENDBRANCH   4  26
BRANCH   1  30
HETATM   30  O4  UNL     1      10.630  -9.862  -1.307  1.00  0.00    -0.351 OA
BRANCH  30  31
HETATM   31  C7  UNL     1      11.782  -9.658  -1.665  1.00  0.00     0.159 C 
HETATM   32  C3  UNL     1      12.587  -8.399  -1.332  1.00  0.00     0.179 C 
HETATM   33  O2  UNL     1      13.759  -8.647  -2.092  1.00  0.00    -0.370 OA
HETATM   34  C4  UNL     1      13.973  -9.989  -2.172  1.00  0.00     0.165 C 
HETATM   35  C6  UNL     1      12.897 -10.654  -1.333  1.00  0.00     0.072 C 
BRANCH  32  36
HETATM   36  C2  UNL     1      11.935  -7.135  -1.845  1.00  0.00     0.145 C 
HETATM   37  C1  UNL     1      12.435  -6.000  -0.951  1.00  0.00     0.042 C 
BRANCH  36  38
HETATM   38  O1  UNL     1      10.562  -7.167  -1.881  1.00  0.00    -0.393 OA
ATOM     39  H1  UNL     1      10.228  -7.949  -1.458  1.00  0.00     0.210 HD
ENDBRANCH  36  38
ENDBRANCH  32  36
BRANCH  34  40
HETATM   40  C5  UNL     1      15.338 -10.369  -1.755  1.00  0.00     0.118 C 
HETATM   41  N1  UNL     1      16.322 -10.288  -2.585  1.00  0.00    -0.282 N 
ATOM     42  H1  UNL     1      17.261 -10.553  -2.285  1.00  0.00     0.193 HD
BRANCH  41  43
HETATM   43  O3  UNL     1      16.115  -9.849  -3.865  1.00  0.00    -0.290 OA
ATOM     44  H3  UNL     1      16.306  -8.949  -4.101  1.00  0.00     0.244 HD
ENDBRANCH  41  43
ENDBRANCH  34  40
ENDBRANCH  30  31
ENDBRANCH   1  30
BRANCH   6  45
HETATM   45  N5  UNL     1       8.559 -11.577   0.775  1.00  0.00    -0.070 N 
ATOM     46  H53 UNL     1       9.297 -12.128   1.211  1.00  0.00     0.274 HD
ATOM     47  H52 UNL     1       8.671 -10.707   1.294  1.00  0.00     0.274 HD
ATOM     48  H51 UNL     1       7.643 -11.991   0.951  1.00  0.00     0.274 HD
ENDBRANCH   6  45
TORSDOF 14
ENDMDL
MODEL 2
REMARK VINA RESULT: -6.425919665      2.033      2.354
REMARK  14 active torsions:
REMARK  status: ('A' for Active; 'I' for Inactive)
REMARK    1  A    between atoms: C2_2  and  O1_3 
REMARK    2  A    between atoms: C2_2  and  C3_5 
REMARK    3  A    between atoms: C4_7  and  C5_8 
REMARK    4  A    between atoms: N1_9  and  O3_11 
REMARK    5  A    between atoms: C7_14  and  O4_15 
REMARK    6  A    between atoms: O4_15  and  C8_16 
REMARK    7  A    between atoms: C9_18  and  O6_19 
REMARK    8  A    between atoms: O6_19  and  C10_20 
REMARK    9  A    between atoms: C11_21  and  N2_22 
REMARK   10  A    between atoms: C13_27  and  N3_28 
REMARK   11  A    between atoms: C14_32  and  O7_33 
REMARK   12  A    between atoms: C15_35  and  O8_36 
REMARK   13  A    between atoms: C16_38  and  N4_39 
REMARK   14  A    between atoms: C18_44  and  N5_45 
ROOT
HETATM    1  C8  UNL     1       9.344  -9.114  -3.180  1.00  0.00     0.293 C 
HETATM    2  O5  UNL     1       9.028  -8.027  -4.078  1.00  0.00    -0.327 OA
HETATM    3  C9  UNL     1       7.693  -7.729  -3.852  1.00  0.00     0.294 C 
HETATM    4  C16 UNL     1       6.892  -8.742  -4.651  1.00  0.00     0.240 C 
HETATM    5  C17 UNL     1       7.794  -9.954  -4.929  1.00  0.00     0.075 C 
HETATM    6  C18 UNL     1       8.662 -10.286  -3.755  1.00  0.00     0.240 C 
ENDROOT
BRANCH   3   7
HETATM    7  O6  UNL     1       7.330  -6.423  -3.992  1.00  0.00    -0.349 OA
BRANCH   7   8
HETATM    8  C10 UNL     1       7.076  -5.722  -2.856  1.00  0.00     0.186 C 
HETATM    9  C11 UNL     1       5.611  -5.732  -2.422  1.00  0.00     0.217 C 
HETATM   10  C12 UNL     1       5.481  -4.898  -1.166  1.00  0.00     0.071 C 
HETATM   11  C13 UNL     1       5.741  -3.445  -1.487  1.00  0.00     0.216 C 
HETATM   12  C14 UNL     1       7.157  -3.348  -1.994  1.00  0.00     0.179 C 
HETATM   13  C15 UNL     1       7.424  -4.273  -3.131  1.00  0.00     0.180 C 
BRANCH   9  14
HETATM   14  N2  UNL     1       4.744  -5.221  -3.446  1.00  0.00    -0.072 N 
ATOM     15  H23 UNL     1       4.144  -4.479  -3.086  1.00  0.00     0.274 HD
ATOM     16  H22 UNL     1       5.266  -4.683  -4.139  1.00  0.00     0.274 HD
ATOM     17  H21 UNL     1       4.195  -5.960  -3.887  1.00  0.00     0.274 HD
ENDBRANCH   9  14
BRANCH  11  18
HETATM   18  N3  UNL     1       5.629  -2.656  -0.289  1.00  0.00    -0.072 N 
ATOM     19  H33 UNL     1       5.353  -3.218   0.517  1.00  0.00     0.274 HD
ATOM     20  H32 UNL     1       6.538  -2.345   0.054  1.00  0.00     0.274 HD
ATOM     21  H31 UNL     1       4.992  -1.876  -0.449  1.00  0.00     0.274 HD
ENDBRANCH  11  18
BRANCH  12  22
HETATM   22  O7  UNL     1       7.354  -2.047  -2.479  1.00  0.00    -0.391 OA
ATOM     23  H7  UNL     1       8.235  -1.996  -2.830  1.00  0.00     0.210 HD
ENDBRANCH  12  22
BRANCH  13  24
HETATM   24  O8  UNL     1       8.749  -4.133  -3.537  1.00  0.00    -0.390 OA
ATOM     25  H8  UNL     1       8.951  -3.233  -3.762  1.00  0.00     0.210 HD
ENDBRANCH  13  24
ENDBRANCH   7   8
ENDBRANCH   3   7
BRANCH   4  26
HETATM   26  N4  UNL     1       5.682  -9.164  -3.978  1.00  0.00    -0.070 N 
ATOM     27  H43 UNL     1       5.824 -10.053  -3.498  1.00  0.00     0.274 HD
ATOM     28  H42 UNL     1       5.487  -8.569  -3.173  1.00  0.00     0.274 HD
ATOM     29  H41 UNL     1       4.876  -9.211  -4.600  1.00  0.00     0.274 HD
ENDBRANCH   4  26
BRANCH   1  30
HETATM   30  O4  UNL     1      10.554  -9.009  -2.904  1.00  0.00    -0.351 OA
BRANCH  30  31
HETATM   31  C7  UNL     1      11.740  -8.905  -2.630  1.00  0.00     0.159 C 
HETATM   32  C3  UNL     1      12.285  -8.249  -1.358  1.00  0.00     0.179 C 
HETATM   33  O2  UNL     1      13.677  -8.294  -1.634  1.00  0.00    -0.370 OA
HETATM   34  C4  UNL     1      13.952  -9.381  -2.405  1.00  0.00     0.165 C 
HETATM   35  C6  UNL     1      12.648 -10.138  -2.575  1.00  0.00     0.072 C 
BRANCH  32  36
HETATM   36  C2  UNL     1      11.865  -6.803  -1.219  1.00  0.00     0.145 C 
HETATM   37  C1  UNL     1      11.899  -6.209  -2.627  1.00  0.00     0.042 C 
BRANCH  36  38
HETATM   38  O1  UNL     1      12.630  -6.061  -0.351  1.00  0.00    -0.393 OA
ATOM     39  H1  UNL     1      12.351  -6.192   0.547  1.00  0.00     0.210 HD
ENDBRANCH  36  38
ENDBRANCH  32  36
BRANCH  34  40
HETATM   40  C5  UNL     1      15.028 -10.218  -1.836  1.00  0.00     0.118 C 
HETATM   41  N1  UNL     1      16.098 -10.458  -2.514  1.00  0.00    -0.282 N 
ATOM     42  H1  UNL     1      16.835 -11.037  -2.111  1.00  0.00     0.193 HD
BRANCH  41  43
HETATM   43  O3  UNL     1      16.253  -9.939  -3.772  1.00  0.00    -0.290 OA
ATOM     44  H3  UNL     1      16.723 -10.426  -4.439  1.00  0.00     0.244 HD
ENDBRANCH  41  43
ENDBRANCH  34  40
ENDBRANCH  30  31
ENDBRANCH   1  30
BRANCH   6  45
HETATM   45  N5  UNL     1       7.773 -10.966  -2.794  1.00  0.00    -0.070 N 
ATOM     46  H53 UNL     1       7.860 -11.979  -2.872  1.00  0.00     0.274 HD
ATOM     47  H52 UNL     1       8.108 -10.843  -1.839  1.00  0.00     0.274 HD
ATOM     48  H51 UNL     1       6.799 -10.676  -2.878  1.00  0.00     0.274 HD
ENDBRANCH   6  45
TORSDOF 14
ENDMDL
MODEL 3
REMARK VINA RESULT: -6.347798508      1.537      1.654
REMARK  14 active torsions:
REMARK  status: ('A' for Active; 'I' for Inactive)
REMARK    1  A    between atoms: C2_2  and  O1_3 
REMARK    2  A    between atoms: C2_2  and  C3_5 
REMARK    3  A    between atoms: C4_7  and  C5_8 
REMARK    4  A    between atoms: N1_9  and  O3_11 
REMARK    5  A    between atoms: C7_14  and  O4_15 
REMARK    6  A    between atoms: O4_15  and  C8_16 
REMARK    7  A    between atoms: C9_18  and  O6_19 
REMARK    8  A    between atoms: O6_19  and  C10_20 
REMARK    9  A    between atoms: C11_21  and  N2_22 
REMARK   10  A    between atoms: C13_27  and  N3_28 
REMARK   11  A    between atoms: C14_32  and  O7_33 
REMARK   12  A    between atoms: C15_35  and  O8_36 
REMARK   13  A    between atoms: C16_38  and  N4_39 
REMARK   14  A    between atoms: C18_44  and  N5_45 
ROOT
HETATM    1  C8  UNL     1       9.367  -9.782  -2.615  1.00  0.00     0.293 C 
HETATM    2  O5  UNL     1       8.810  -8.818  -3.536  1.00  0.00    -0.327 OA
HETATM    3  C9  UNL     1       7.490  -8.645  -3.148  1.00  0.00     0.294 C 
HETATM    4  C16 UNL     1       6.717  -9.805  -3.753  1.00  0.00     0.240 C 
HETATM    5  C17 UNL     1       7.712 -10.932  -4.065  1.00  0.00     0.075 C 
HETATM    6  C18 UNL     1       8.759 -11.065  -3.003  1.00  0.00     0.240 C 
ENDROOT
BRANCH   3   7
HETATM    7  O6  UNL     1       6.961  -7.404  -3.330  1.00  0.00    -0.349 OA
BRANCH   7   8
HETATM    8  C10 UNL     1       7.701  -6.344  -2.910  1.00  0.00     0.186 C 
HETATM    9  C11 UNL     1       7.743  -6.164  -1.394  1.00  0.00     0.217 C 
HETATM   10  C12 UNL     1       8.578  -4.940  -1.084  1.00  0.00     0.071 C 
HETATM   11  C13 UNL     1       7.864  -3.698  -1.562  1.00  0.00     0.216 C 
HETATM   12  C14 UNL     1       7.714  -3.821  -3.058  1.00  0.00     0.179 C 
HETATM   13  C15 UNL     1       7.052  -5.091  -3.465  1.00  0.00     0.180 C 
BRANCH   9  14
HETATM   14  N2  UNL     1       6.429  -6.020  -0.832  1.00  0.00    -0.072 N 
ATOM     15  H23 UNL     1       5.929  -5.238  -1.256  1.00  0.00     0.274 HD
ATOM     16  H22 UNL     1       5.816  -6.781  -1.126  1.00  0.00     0.274 HD
ATOM     17  H21 UNL     1       6.455  -5.937   0.184  1.00  0.00     0.274 HD
ENDBRANCH   9  14
BRANCH  11  18
HETATM   18  N3  UNL     1       8.667  -2.538  -1.277  1.00  0.00    -0.072 N 
ATOM     19  H33 UNL     1       9.661  -2.761  -1.224  1.00  0.00     0.274 HD
ATOM     20  H32 UNL     1       8.704  -1.892  -2.066  1.00  0.00     0.274 HD
ATOM     21  H31 UNL     1       8.329  -2.087  -0.427  1.00  0.00     0.274 HD
ENDBRANCH  11  18
BRANCH  12  22
HETATM   22  O7  UNL     1       6.887  -2.777  -3.495  1.00  0.00    -0.391 OA
ATOM     23  H7  UNL     1       6.540  -3.016  -4.346  1.00  0.00     0.210 HD
ENDBRANCH  12  22
BRANCH  13  24
HETATM   24  O8  UNL     1       6.956  -5.137  -4.854  1.00  0.00    -0.390 OA
ATOM     25  H8  UNL     1       6.771  -4.279  -5.219  1.00  0.00     0.210 HD
ENDBRANCH  13  24
ENDBRANCH   7   8
ENDBRANCH   3   7
BRANCH   4  26
HETATM   26  N4  UNL     1       5.664 -10.294  -2.889  1.00  0.00    -0.070 N 
ATOM     27  H43 UNL     1       5.318  -9.552  -2.281  1.00  0.00     0.274 HD
ATOM     28  H42 UNL     1       4.815 -10.483  -3.421  1.00  0.00     0.274 HD
ATOM     29  H41 UNL     1       5.942 -11.111  -2.345  1.00  0.00     0.274 HD
ENDBRANCH   4  26
BRANCH   1  30
HETATM   30  O4  UNL     1      10.581  -9.524  -2.519  1.00  0.00    -0.351 OA
BRANCH  30  31
HETATM   31  C7  UNL     1      11.773  -9.268  -2.426  1.00  0.00     0.159 C 
HETATM   32  C3  UNL     1      12.389  -8.370  -1.351  1.00  0.00     0.179 C 
HETATM   33  O2  UNL     1      13.734  -8.330  -1.803  1.00  0.00    -0.370 OA
HETATM   34  C4  UNL     1      14.035  -9.496  -2.437  1.00  0.00     0.165 C 
HETATM   35  C6  UNL     1      12.813 -10.388  -2.315  1.00  0.00     0.072 C 
BRANCH  32  36
HETATM   36  C2  UNL     1      11.830  -6.965  -1.370  1.00  0.00     0.145 C 
HETATM   37  C1  UNL     1      11.582  -6.621  -2.839  1.00  0.00     0.042 C 
BRANCH  36  38
HETATM   38  O1  UNL     1      12.625  -6.019  -0.769  1.00  0.00    -0.393 OA
ATOM     39  H1  UNL     1      13.523  -6.087  -1.070  1.00  0.00     0.210 HD
ENDBRANCH  36  38
ENDBRANCH  32  36
BRANCH  34  40
HETATM   40  C5  UNL     1      15.259 -10.129  -1.903  1.00  0.00     0.118 C 
HETATM   41  N1  UNL     1      16.298 -10.277  -2.651  1.00  0.00    -0.282 N 
ATOM     42  H1  UNL     1      17.138 -10.715  -2.272  1.00  0.00     0.193 HD
BRANCH  41  43
HETATM   43  O3  UNL     1      16.283  -9.850  -3.952  1.00  0.00    -0.290 OA
ATOM     44  H3  UNL     1      15.488  -9.495  -4.333  1.00  0.00     0.244 HD
ENDBRANCH  41  43
ENDBRANCH  34  40
ENDBRANCH  30  31
ENDBRANCH   1  30
BRANCH   6  45
HETATM   45  N5  UNL     1       8.090 -11.750  -1.881  1.00  0.00    -0.070 N 
ATOM     46  H53 UNL     1       7.667 -12.625  -2.189  1.00  0.00     0.274 HD
ATOM     47  H52 UNL     1       8.773 -12.118  -1.220  1.00  0.00     0.274 HD
ATOM     48  H51 UNL     1       7.404 -11.163  -1.406  1.00  0.00     0.274 HD
ENDBRANCH   6  45
TORSDOF 14
ENDMDL
MODEL 4
REMARK VINA RESULT: -6.121084215      4.756      9.109
REMARK  14 active torsions:
REMARK  status: ('A' for Active; 'I' for Inactive)
REMARK    1  A    between atoms: C2_2  and  O1_3 
REMARK    2  A    between atoms: C2_2  and  C3_5 
REMARK    3  A    between atoms: C4_7  and  C5_8 
REMARK    4  A    between atoms: N1_9  and  O3_11 
REMARK    5  A    between atoms: C7_14  and  O4_15 
REMARK    6  A    between atoms: O4_15  and  C8_16 
REMARK    7  A    between atoms: C9_18  and  O6_19 
REMARK    8  A    between atoms: O6_19  and  C10_20 
REMARK    9  A    between atoms: C11_21  and  N2_22 
REMARK   10  A    between atoms: C13_27  and  N3_28 
REMARK   11  A    between atoms: C14_32  and  O7_33 
REMARK   12  A    between atoms: C15_35  and  O8_36 
REMARK   13  A    between atoms: C16_38  and  N4_39 
REMARK   14  A    between atoms: C18_44  and  N5_45 
ROOT
HETATM    1  C8  UNL     1       6.478  -1.131  -0.843  1.00  0.00     0.293 C 
HETATM    2  O5  UNL     1       7.408  -2.226  -0.996  1.00  0.00    -0.327 OA
HETATM    3  C9  UNL     1       6.888  -3.023  -2.005  1.00  0.00     0.294 C 
HETATM    4  C16 UNL     1       5.829  -3.894  -1.352  1.00  0.00     0.240 C 
HETATM    5  C17 UNL     1       5.389  -3.215  -0.047  1.00  0.00     0.075 C 
HETATM    6  C18 UNL     1       5.300  -1.727  -0.192  1.00  0.00     0.240 C 
ENDROOT
BRANCH   3   7
HETATM    7  O6  UNL     1       7.791  -3.659  -2.801  1.00  0.00    -0.349 OA
BRANCH   7   8
HETATM    8  C10 UNL     1       8.429  -4.740  -2.281  1.00  0.00     0.186 C 
HETATM    9  C11 UNL     1       9.919  -4.529  -2.021  1.00  0.00     0.217 C 
HETATM   10  C12 UNL     1      10.492  -5.816  -1.468  1.00  0.00     0.071 C 
HETATM   11  C13 UNL     1      10.472  -6.886  -2.535  1.00  0.00     0.216 C 
HETATM   12  C14 UNL     1       9.029  -7.114  -2.907  1.00  0.00     0.179 C 
HETATM   13  C15 UNL     1       8.333  -5.857  -3.301  1.00  0.00     0.180 C 
BRANCH   9  14
HETATM   14  N2  UNL     1      10.623  -4.147  -3.213  1.00  0.00    -0.072 N 
ATOM     15  H23 UNL     1      10.011  -4.169  -4.028  1.00  0.00     0.274 HD
ATOM     16  H22 UNL     1      10.847  -3.151  -3.208  1.00  0.00     0.274 HD
ATOM     17  H21 UNL     1      11.459  -4.714  -3.362  1.00  0.00     0.274 HD
ENDBRANCH   9  14
BRANCH  11  18
HETATM   18  N3  UNL     1      11.006  -8.111  -2.002  1.00  0.00    -0.072 N 
ATOM     19  H33 UNL     1      10.984  -8.129  -0.982  1.00  0.00     0.274 HD
ATOM     20  H32 UNL     1      10.391  -8.907  -2.175  1.00  0.00     0.274 HD
ATOM     21  H31 UNL     1      11.945  -8.265  -2.368  1.00  0.00     0.274 HD
ENDBRANCH  11  18
BRANCH  12  22
HETATM   22  O7  UNL     1       9.000  -7.958  -4.026  1.00  0.00    -0.391 OA
ATOM     23  H7  UNL     1       8.186  -7.802  -4.488  1.00  0.00     0.210 HD
ENDBRANCH  12  22
BRANCH  13  24
HETATM   24  O8  UNL     1       7.008  -6.145  -3.621  1.00  0.00    -0.390 OA
ATOM     25  H8  UNL     1       6.841  -7.080  -3.604  1.00  0.00     0.210 HD
ENDBRANCH  13  24
ENDBRANCH   7   8
ENDBRANCH   3   7
BRANCH   4  26
HETATM   26  N4  UNL     1       4.683  -4.126  -2.205  1.00  0.00    -0.070 N 
ATOM     27  H43 UNL     1       3.828  -3.785  -1.766  1.00  0.00     0.274 HD
ATOM     28  H42 UNL     1       4.707  -3.515  -3.021  1.00  0.00     0.274 HD
ATOM     29  H41 UNL     1       4.586  -5.102  -2.484  1.00  0.00     0.274 HD
ENDBRANCH   4  26
BRANCH   1  30
HETATM   30  O4  UNL     1       7.139  -0.152  -0.448  1.00  0.00    -0.351 OA
BRANCH  30  31
HETATM   31  C7  UNL     1       7.791   0.806  -0.059  1.00  0.00     0.159 C 
HETATM   32  C3  UNL     1       7.462   1.637   1.184  1.00  0.00     0.179 C 
HETATM   33  O2  UNL     1       8.444   2.655   1.067  1.00  0.00    -0.370 OA
HETATM   34  C4  UNL     1       9.551   2.151   0.455  1.00  0.00     0.165 C 
HETATM   35  C6  UNL     1       9.291   0.673   0.229  1.00  0.00     0.072 C 
BRANCH  32  36
HETATM   36  C2  UNL     1       6.093   2.275   1.115  1.00  0.00     0.145 C 
HETATM   37  C1  UNL     1       5.224   1.537   2.134  1.00  0.00     0.042 C 
BRANCH  36  38
HETATM   38  O1  UNL     1       5.512   2.262  -0.131  1.00  0.00    -0.393 OA
ATOM     39  H1  UNL     1       4.582   2.446  -0.075  1.00  0.00     0.210 HD
ENDBRANCH  36  38
ENDBRANCH  32  36
BRANCH  34  40
HETATM   40  C5  UNL     1      10.786   2.401   1.226  1.00  0.00     0.118 C 
HETATM   41  N1  UNL     1      11.792   2.991   0.677  1.00  0.00    -0.282 N 
ATOM     42  H1  UNL     1      12.639   3.159   1.219  1.00  0.00     0.193 HD
BRANCH  41  43
HETATM   43  O3  UNL     1      11.730   3.394  -0.631  1.00  0.00    -0.290 OA
ATOM     44  H3  UNL     1      11.859   2.768  -1.333  1.00  0.00     0.244 HD
ENDBRANCH  41  43
ENDBRANCH  34  40
ENDBRANCH  30  31
ENDBRANCH   1  30
BRANCH   6  45
HETATM   45  N5  UNL     1       4.046  -1.483  -0.929  1.00  0.00    -0.070 N 
ATOM     46  H53 UNL     1       3.272  -1.317  -0.287  1.00  0.00     0.274 HD
ATOM     47  H52 UNL     1       4.071  -0.578  -1.399  1.00  0.00     0.274 HD
ATOM     48  H51 UNL     1       3.818  -2.228  -1.588  1.00  0.00     0.274 HD
ENDBRANCH   6  45
TORSDOF 14
ENDMDL
MODEL 5
REMARK VINA RESULT: -6.020425321      4.647      8.812
REMARK  14 active torsions:
REMARK  status: ('A' for Active; 'I' for Inactive)
REMARK    1  A    between atoms: C2_2  and  O1_3 
REMARK    2  A    between atoms: C2_2  and  C3_5 
REMARK    3  A    between atoms: C4_7  and  C5_8 
REMARK    4  A    between atoms: N1_9  and  O3_11 
REMARK    5  A    between atoms: C7_14  and  O4_15 
REMARK    6  A    between atoms: O4_15  and  C8_16 
REMARK    7  A    between atoms: C9_18  and  O6_19 
REMARK    8  A    between atoms: O6_19  and  C10_20 
REMARK    9  A    between atoms: C11_21  and  N2_22 
REMARK   10  A    between atoms: C13_27  and  N3_28 
REMARK   11  A    between atoms: C14_32  and  O7_33 
REMARK   12  A    between atoms: C15_35  and  O8_36 
REMARK   13  A    between atoms: C16_38  and  N4_39 
REMARK   14  A    between atoms: C18_44  and  N5_45 
ROOT
HETATM    1  C8  UNL     1       5.897  -1.376  -0.827  1.00  0.00     0.293 C 
HETATM    2  O5  UNL     1       6.162  -2.518   0.017  1.00  0.00    -0.327 OA
HETATM    3  C9  UNL     1       5.774  -3.628  -0.718  1.00  0.00     0.294 C 
HETATM    4  C16 UNL     1       4.269  -3.740  -0.551  1.00  0.00     0.240 C 
HETATM    5  C17 UNL     1       3.731  -2.365  -0.125  1.00  0.00     0.075 C 
HETATM    6  C18 UNL     1       4.430  -1.247  -0.832  1.00  0.00     0.240 C 
ENDROOT
BRANCH   3   7
HETATM    7  O6  UNL     1       6.492  -4.768  -0.523  1.00  0.00    -0.349 OA
BRANCH   7   8
HETATM    8  C10 UNL     1       7.372  -5.125  -1.494  1.00  0.00     0.186 C 
HETATM    9  C11 UNL     1       7.227  -6.566  -1.980  1.00  0.00     0.217 C 
HETATM   10  C12 UNL     1       8.280  -6.821  -3.036  1.00  0.00     0.071 C 
HETATM   11  C13 UNL     1       9.653  -6.802  -2.405  1.00  0.00     0.216 C 
HETATM   12  C14 UNL     1       9.859  -5.423  -1.832  1.00  0.00     0.179 C 
HETATM   13  C15 UNL     1       8.765  -5.018  -0.906  1.00  0.00     0.180 C 
BRANCH   9  14
HETATM   14  N2  UNL     1       7.364  -7.511  -0.908  1.00  0.00    -0.072 N 
ATOM     15  H23 UNL     1       6.607  -7.415  -0.231  1.00  0.00     0.274 HD
ATOM     16  H22 UNL     1       7.176  -8.462  -1.226  1.00  0.00     0.274 HD
ATOM     17  H21 UNL     1       8.276  -7.446  -0.454  1.00  0.00     0.274 HD
ENDBRANCH   9  14
BRANCH  11  18
HETATM   18  N3  UNL     1      10.653  -7.032  -3.414  1.00  0.00    -0.072 N 
ATOM     19  H33 UNL     1      10.248  -7.112  -4.347  1.00  0.00     0.274 HD
ATOM     20  H32 UNL     1      11.233  -6.208  -3.576  1.00  0.00     0.274 HD
ATOM     21  H31 UNL     1      11.210  -7.850  -3.166  1.00  0.00     0.274 HD
ENDBRANCH  11  18
BRANCH  12  22
HETATM   22  O7  UNL     1      11.040  -5.442  -1.076  1.00  0.00    -0.391 OA
ATOM     23  H7  UNL     1      11.758  -5.651  -1.661  1.00  0.00     0.210 HD
ENDBRANCH  12  22
BRANCH  13  24
HETATM   24  O8  UNL     1       9.020  -3.735  -0.425  1.00  0.00    -0.390 OA
ATOM     25  H8  UNL     1       9.951  -3.555  -0.390  1.00  0.00     0.210 HD
ENDBRANCH  13  24
ENDBRANCH   7   8
ENDBRANCH   3   7
BRANCH   4  26
HETATM   26  N4  UNL     1       3.598  -4.187  -1.752  1.00  0.00    -0.070 N 
ATOM     27  H43 UNL     1       2.629  -4.440  -1.555  1.00  0.00     0.274 HD
ATOM     28  H42 UNL     1       3.441  -3.410  -2.393  1.00  0.00     0.274 HD
ATOM     29  H41 UNL     1       4.085  -4.951  -2.220  1.00  0.00     0.274 HD
ENDBRANCH   4  26
BRANCH   1  30
HETATM   30  O4  UNL     1       6.727  -0.501  -0.517  1.00  0.00    -0.351 OA
BRANCH  30  31
HETATM   31  C7  UNL     1       7.539   0.361  -0.214  1.00  0.00     0.159 C 
HETATM   32  C3  UNL     1       7.413   1.288   0.999  1.00  0.00     0.179 C 
HETATM   33  O2  UNL     1       8.531   2.135   0.778  1.00  0.00    -0.370 OA
HETATM   34  C4  UNL     1       9.510   1.438   0.139  1.00  0.00     0.165 C 
HETATM   35  C6  UNL     1       9.015   0.010   0.005  1.00  0.00     0.072 C 
BRANCH  32  36
HETATM   36  C2  UNL     1       6.156   2.126   0.966  1.00  0.00     0.145 C 
HETATM   37  C1  UNL     1       5.240   1.571   2.057  1.00  0.00     0.042 C 
BRANCH  36  38
HETATM   38  O1  UNL     1       5.514   2.157  -0.249  1.00  0.00    -0.393 OA
ATOM     39  H1  UNL     1       5.811   1.450  -0.810  1.00  0.00     0.210 HD
ENDBRANCH  36  38
ENDBRANCH  32  36
BRANCH  34  40
HETATM   40  C5  UNL     1      10.812   1.528   0.832  1.00  0.00     0.118 C 
HETATM   41  N1  UNL     1      11.911   1.556   0.158  1.00  0.00    -0.282 N 
ATOM     42  H1  UNL     1      12.804   1.619   0.647  1.00  0.00     0.193 HD
BRANCH  41  43
HETATM   43  O3  UNL     1      11.887   1.502  -1.210  1.00  0.00    -0.290 OA
ATOM     44  H3  UNL     1      11.499   2.209  -1.712  1.00  0.00     0.244 HD
ENDBRANCH  41  43
ENDBRANCH  34  40
ENDBRANCH  30  31
ENDBRANCH   1  30
BRANCH   6  45
HETATM   45  N5  UNL     1       3.857  -1.228  -2.191  1.00  0.00    -0.070 N 
ATOM     46  H53 UNL     1       3.045  -1.841  -2.252  1.00  0.00     0.274 HD
ATOM     47  H52 UNL     1       3.406  -0.334  -2.383  1.00  0.00     0.274 HD
ATOM     48  H51 UNL     1       4.538  -1.454  -2.916  1.00  0.00     0.274 HD
ENDBRANCH   6  45
TORSDOF 14
ENDMDL
