MODEL 1
REMARK VINA RESULT: -8.058581402      0.000      0.000
REMARK  12 active torsions:
REMARK  status: ('A' for Active; 'I' for Inactive)
REMARK    1  A    between atoms: O1_2  and  C2_3 
REMARK    2  A    between atoms: C5_6  and  C6_7 
REMARK    3  A    between atoms: N1_8  and  N2_10 
REMARK    4  A    between atoms: N2_10  and  C7_12 
REMARK    5  A    between atoms: C8_15  and  N4_16 
REMARK    6  A    between atoms: N4_16  and  O2_17 
REMARK    7  A    between atoms: N4_16  and  C9_19 
REMARK    8  A    between atoms: C10_23  and  N6_24 
REMARK    9  A    between atoms: N6_24  and  C11_26 
REMARK   10  A    between atoms: C11_26  and  N7_27 
REMARK   11  A    between atoms: C12_32  and  O6_33 
REMARK   12  A    between atoms: C13_35  and  O7_36 
ROOT
HETATM    1  C7  UNL     1      15.544  39.030 -18.912  1.00  0.00     0.726 A 
HETATM    2  N3  UNL     1      14.986  37.825 -18.868  1.00  0.00    -0.018 N 
ATOM      3  H3  UNL     1      14.740  37.373 -19.748  1.00  0.00     0.203 HD
HETATM    4  C8  UNL     1      14.729  37.171 -17.719  1.00  0.00     0.740 A 
HETATM    5  N5  UNL     1      15.071  37.801 -16.562  1.00  0.00    -0.019 N 
ATOM      6  H5  UNL     1      14.892  37.333 -15.673  1.00  0.00     0.203 HD
HETATM    7  C10 UNL     1      15.638  39.020 -16.555  1.00  0.00     0.708 A 
HETATM    8  N8  UNL     1      15.866  39.616 -17.737  1.00  0.00    -0.020 N 
ATOM      9  H8  UNL     1      16.297  40.540 -17.748  1.00  0.00     0.203 HD
ENDROOT
BRANCH   1  10
HETATM   10  N2  UNL     1      15.787  39.655 -20.020  1.00  0.00    -0.131 N 
ATOM     11  H2  UNL     1      15.485  40.622 -20.140  1.00  0.00     0.205 HD
BRANCH  10  12
HETATM   12  N1  UNL     1      16.463  39.002 -21.048  1.00  0.00    -0.297 N 
HETATM   13  C6  UNL     1      17.466  39.569 -21.603  1.00  0.00     0.122 C 
ATOM     14  H1  UNL     1      16.160  38.079 -21.356  1.00  0.00     0.186 HD
BRANCH  13  15
HETATM   15  C5  UNL     1      18.195  38.906 -22.686  1.00  0.00     0.017 A 
HETATM   16  C4  UNL     1      17.603  37.843 -23.310  1.00  0.00     0.018 A 
HETATM   17  C3  UNL     1      18.259  37.193 -24.335  1.00  0.00     0.040 A 
HETATM   18  C2  UNL     1      19.510  37.579 -24.765  1.00  0.00     0.104 A 
HETATM   19  C13 UNL     1      20.098  38.669 -24.113  1.00  0.00     0.133 A 
HETATM   20  C12 UNL     1      19.447  39.321 -23.090  1.00  0.00     0.113 A 
BRANCH  18  21
HETATM   21  O1  UNL     1      20.163  36.926 -25.793  1.00  0.00    -0.353 OA
HETATM   22  C1  UNL     1      19.476  36.702 -27.009  1.00  0.00     0.210 C 
ENDBRANCH  18  21
BRANCH  19  23
HETATM   23  O7  UNL     1      21.350  39.022 -24.574  1.00  0.00    -0.356 OA
ATOM     24  H7  UNL     1      21.762  38.388 -25.149  1.00  0.00     0.218 HD
ENDBRANCH  19  23
BRANCH  20  25
HETATM   25  O6  UNL     1      20.027  40.393 -22.450  1.00  0.00    -0.357 OA
ATOM     26  H6  UNL     1      19.527  41.194 -22.356  1.00  0.00     0.217 HD
ENDBRANCH  20  25
ENDBRANCH  13  15
ENDBRANCH  10  12
ENDBRANCH   1  10
BRANCH   4  27
HETATM   27  N4  UNL     1      14.132  35.884 -17.709  1.00  0.00    -0.025 N 
BRANCH  27  28
HETATM   28  O2  UNL     1      14.276  35.086 -16.649  1.00  0.00    -0.267 OA
ATOM     29  H2  UNL     1      14.766  34.275 -16.726  1.00  0.00     0.246 HD
ENDBRANCH  27  28
BRANCH  27  30
HETATM   30  C9  UNL     1      13.377  35.443 -18.825  1.00  0.00     0.400 C 
HETATM   31  O3  UNL     1      12.434  36.130 -19.277  1.00  0.00    -0.280 OA
ENDBRANCH  27  30
ENDBRANCH   4  27
BRANCH   7  32
HETATM   32  N6  UNL     1      15.977  39.655 -15.485  1.00  0.00    -0.203 N 
ATOM     33  H6  UNL     1      16.582  40.471 -15.579  1.00  0.00     0.179 HD
BRANCH  32  34
HETATM   34  C11 UNL     1      15.544  39.268 -14.157  1.00  0.00     0.341 C 
BRANCH  34  35
HETATM   35  N7  UNL     1      14.630  40.230 -13.594  1.00  0.00    -0.136 N 
HETATM   36  O4  UNL     1      14.581  41.384 -14.037  1.00  0.00    -0.535 OA
HETATM   37  O5  UNL     1      13.818  39.865 -12.568  1.00  0.00    -0.535 OA
ENDBRANCH  34  35
ENDBRANCH  32  34
ENDBRANCH   7  32
TORSDOF 12
ENDMDL
MODEL 2
REMARK VINA RESULT: -7.916628737      1.151      4.103
REMARK  12 active torsions:
REMARK  status: ('A' for Active; 'I' for Inactive)
REMARK    1  A    between atoms: O1_2  and  C2_3 
REMARK    2  A    between atoms: C5_6  and  C6_7 
REMARK    3  A    between atoms: N1_8  and  N2_10 
REMARK    4  A    between atoms: N2_10  and  C7_12 
REMARK    5  A    between atoms: C8_15  and  N4_16 
REMARK    6  A    between atoms: N4_16  and  O2_17 
REMARK    7  A    between atoms: N4_16  and  C9_19 
REMARK    8  A    between atoms: C10_23  and  N6_24 
REMARK    9  A    between atoms: N6_24  and  C11_26 
REMARK   10  A    between atoms: C11_26  and  N7_27 
REMARK   11  A    between atoms: C12_32  and  O6_33 
REMARK   12  A    between atoms: C13_35  and  O7_36 
ROOT
HETATM    1  C7  UNL     1      15.611  39.185 -18.269  1.00  0.00     0.726 A 
HETATM    2  N3  UNL     1      15.676  39.777 -17.082  1.00  0.00    -0.018 N 
ATOM      3  H3  UNL     1      15.894  40.773 -17.049  1.00  0.00     0.203 HD
HETATM    4  C8  UNL     1      15.469  39.129 -15.920  1.00  0.00     0.740 A 
HETATM    5  N5  UNL     1      15.178  37.801 -15.998  1.00  0.00    -0.019 N 
ATOM      6  H5  UNL     1      15.014  37.279 -15.137  1.00  0.00     0.203 HD
HETATM    7  C10 UNL     1      15.102  37.157 -17.176  1.00  0.00     0.708 A 
HETATM    8  N8  UNL     1      15.319  37.865 -18.297  1.00  0.00    -0.020 N 
ATOM      9  H8  UNL     1      15.263  37.390 -19.198  1.00  0.00     0.203 HD
ENDROOT
BRANCH   1  10
HETATM   10  N2  UNL     1      15.812  39.814 -19.383  1.00  0.00    -0.131 N 
ATOM     11  H2  UNL     1      15.289  40.664 -19.593  1.00  0.00     0.205 HD
BRANCH  10  12
HETATM   12  N1  UNL     1      16.745  39.325 -20.294  1.00  0.00    -0.297 N 
HETATM   13  C6  UNL     1      16.493  39.381 -21.546  1.00  0.00     0.122 C 
ATOM     14  H1  UNL     1      17.623  38.926 -19.965  1.00  0.00     0.186 HD
BRANCH  13  15
HETATM   15  C5  UNL     1      17.455  38.874 -22.527  1.00  0.00     0.017 A 
HETATM   16  C4  UNL     1      17.128  37.752 -23.236  1.00  0.00     0.018 A 
HETATM   17  C3  UNL     1      18.010  37.245 -24.169  1.00  0.00     0.040 A 
HETATM   18  C2  UNL     1      19.229  37.834 -24.420  1.00  0.00     0.104 A 
HETATM   19  C13 UNL     1      19.545  38.982 -23.682  1.00  0.00     0.133 A 
HETATM   20  C12 UNL     1      18.668  39.491 -22.751  1.00  0.00     0.113 A 
BRANCH  18  21
HETATM   21  O1  UNL     1      20.109  37.324 -25.355  1.00  0.00    -0.353 OA
HETATM   22  C1  UNL     1      19.657  37.114 -26.679  1.00  0.00     0.210 C 
ENDBRANCH  18  21
BRANCH  19  23
HETATM   23  O7  UNL     1      20.775  39.539 -23.964  1.00  0.00    -0.356 OA
ATOM     24  H7  UNL     1      21.023  40.271 -23.411  1.00  0.00     0.218 HD
ENDBRANCH  19  23
BRANCH  20  25
HETATM   25  O6  UNL     1      18.981  40.620 -22.027  1.00  0.00    -0.357 OA
ATOM     26  H6  UNL     1      19.770  41.100 -22.248  1.00  0.00     0.217 HD
ENDBRANCH  20  25
ENDBRANCH  13  15
ENDBRANCH  10  12
ENDBRANCH   1  10
BRANCH   4  27
HETATM   27  N4  UNL     1      15.546  39.793 -14.668  1.00  0.00    -0.025 N 
BRANCH  27  28
HETATM   28  O2  UNL     1      15.107  41.047 -14.546  1.00  0.00    -0.267 OA
ATOM     29  H2  UNL     1      15.611  41.767 -14.906  1.00  0.00     0.246 HD
ENDBRANCH  27  28
BRANCH  27  30
HETATM   30  C9  UNL     1      16.091  39.126 -13.543  1.00  0.00     0.400 C 
HETATM   31  O3  UNL     1      15.396  38.339 -12.862  1.00  0.00    -0.280 OA
ENDBRANCH  27  30
ENDBRANCH   4  27
BRANCH   7  32
HETATM   32  N6  UNL     1      14.831  35.903 -17.299  1.00  0.00    -0.203 N 
ATOM     33  H6  UNL     1      15.419  35.230 -16.806  1.00  0.00     0.179 HD
BRANCH  32  34
HETATM   34  C11 UNL     1      13.735  35.398 -18.103  1.00  0.00     0.341 C 
BRANCH  34  35
HETATM   35  N7  UNL     1      13.558  33.978 -17.930  1.00  0.00    -0.136 N 
HETATM   36  O4  UNL     1      12.860  33.539 -17.008  1.00  0.00    -0.535 OA
HETATM   37  O5  UNL     1      14.166  33.116 -18.787  1.00  0.00    -0.535 OA
ENDBRANCH  34  35
ENDBRANCH  32  34
ENDBRANCH   7  32
TORSDOF 12
ENDMDL
MODEL 3
REMARK VINA RESULT: -7.864917312      0.904      1.065
REMARK  12 active torsions:
REMARK  status: ('A' for Active; 'I' for Inactive)
REMARK    1  A    between atoms: O1_2  and  C2_3 
REMARK    2  A    between atoms: C5_6  and  C6_7 
REMARK    3  A    between atoms: N1_8  and  N2_10 
REMARK    4  A    between atoms: N2_10  and  C7_12 
REMARK    5  A    between atoms: C8_15  and  N4_16 
REMARK    6  A    between atoms: N4_16  and  O2_17 
REMARK    7  A    between atoms: N4_16  and  C9_19 
REMARK    8  A    between atoms: C10_23  and  N6_24 
REMARK    9  A    between atoms: N6_24  and  C11_26 
REMARK   10  A    between atoms: C11_26  and  N7_27 
REMARK   11  A    between atoms: C12_32  and  O6_33 
REMARK   12  A    between atoms: C13_35  and  O7_36 
ROOT
HETATM    1  C7  UNL     1      15.620  39.158 -18.559  1.00  0.00     0.726 A 
HETATM    2  N3  UNL     1      15.084  37.943 -18.597  1.00  0.00    -0.018 N 
ATOM      3  H3  UNL     1      14.908  37.520 -19.508  1.00  0.00     0.203 HD
HETATM    4  C8  UNL     1      14.761  37.242 -17.494  1.00  0.00     0.740 A 
HETATM    5  N5  UNL     1      15.010  37.833 -16.293  1.00  0.00    -0.019 N 
ATOM      6  H5  UNL     1      14.779  37.330 -15.436  1.00  0.00     0.203 HD
HETATM    7  C10 UNL     1      15.551  39.061 -16.202  1.00  0.00     0.708 A 
HETATM    8  N8  UNL     1      15.849  39.705 -17.343  1.00  0.00    -0.020 N 
ATOM      9  H8  UNL     1      16.262  40.636 -17.291  1.00  0.00     0.203 HD
ENDROOT
BRANCH   1  10
HETATM   10  N2  UNL     1      15.927  39.828 -19.624  1.00  0.00    -0.131 N 
ATOM     11  H2  UNL     1      15.510  40.744 -19.790  1.00  0.00     0.205 HD
BRANCH  10  12
HETATM   12  N1  UNL     1      16.829  39.294 -20.540  1.00  0.00    -0.297 N 
HETATM   13  C6  UNL     1      16.542  39.302 -21.786  1.00  0.00     0.122 C 
ATOM     14  H1  UNL     1      17.713  38.900 -20.219  1.00  0.00     0.186 HD
BRANCH  13  15
HETATM   15  C5  UNL     1      17.472  38.747 -22.771  1.00  0.00     0.017 A 
HETATM   16  C4  UNL     1      17.116  37.598 -23.423  1.00  0.00     0.018 A 
HETATM   17  C3  UNL     1      17.966  37.045 -24.359  1.00  0.00     0.040 A 
HETATM   18  C2  UNL     1      19.182  37.613 -24.670  1.00  0.00     0.104 A 
HETATM   19  C13 UNL     1      19.527  38.788 -23.991  1.00  0.00     0.133 A 
HETATM   20  C12 UNL     1      18.682  39.343 -23.057  1.00  0.00     0.113 A 
BRANCH  18  21
HETATM   21  O1  UNL     1      20.031  37.057 -25.608  1.00  0.00    -0.353 OA
HETATM   22  C1  UNL     1      19.659  37.090 -26.973  1.00  0.00     0.210 C 
ENDBRANCH  18  21
BRANCH  19  23
HETATM   23  O7  UNL     1      20.753  39.324 -24.332  1.00  0.00    -0.356 OA
ATOM     24  H7  UNL     1      20.948  40.167 -23.939  1.00  0.00     0.218 HD
ENDBRANCH  19  23
BRANCH  20  25
HETATM   25  O6  UNL     1      19.024  40.499 -22.391  1.00  0.00    -0.357 OA
ATOM     26  H6  UNL     1      19.317  41.247 -22.896  1.00  0.00     0.217 HD
ENDBRANCH  20  25
ENDBRANCH  13  15
ENDBRANCH  10  12
ENDBRANCH   1  10
BRANCH   4  27
HETATM   27  N4  UNL     1      14.190  35.945 -17.572  1.00  0.00    -0.025 N 
BRANCH  27  28
HETATM   28  O2  UNL     1      14.312  35.096 -16.550  1.00  0.00    -0.267 OA
ATOM     29  H2  UNL     1      13.576  34.937 -15.971  1.00  0.00     0.246 HD
ENDBRANCH  27  28
BRANCH  27  30
HETATM   30  C9  UNL     1      13.486  35.549 -18.737  1.00  0.00     0.400 C 
HETATM   31  O3  UNL     1      12.574  36.261 -19.212  1.00  0.00    -0.280 OA
ENDBRANCH  27  30
ENDBRANCH   4  27
BRANCH   7  32
HETATM   32  N6  UNL     1      15.803  39.661 -15.090  1.00  0.00    -0.203 N 
ATOM     33  H6  UNL     1      15.428  40.599 -14.950  1.00  0.00     0.179 HD
BRANCH  32  34
HETATM   34  C11 UNL     1      16.593  39.071 -14.027  1.00  0.00     0.341 C 
BRANCH  34  35
HETATM   35  N7  UNL     1      15.768  38.646 -12.924  1.00  0.00    -0.136 N 
HETATM   36  O4  UNL     1      16.231  37.920 -12.036  1.00  0.00    -0.535 OA
HETATM   37  O5  UNL     1      14.470  39.046 -12.863  1.00  0.00    -0.535 OA
ENDBRANCH  34  35
ENDBRANCH  32  34
ENDBRANCH   7  32
TORSDOF 12
ENDMDL
MODEL 4
REMARK VINA RESULT: -7.838712460      4.299      5.382
REMARK  12 active torsions:
REMARK  status: ('A' for Active; 'I' for Inactive)
REMARK    1  A    between atoms: O1_2  and  C2_3 
REMARK    2  A    between atoms: C5_6  and  C6_7 
REMARK    3  A    between atoms: N1_8  and  N2_10 
REMARK    4  A    between atoms: N2_10  and  C7_12 
REMARK    5  A    between atoms: C8_15  and  N4_16 
REMARK    6  A    between atoms: N4_16  and  O2_17 
REMARK    7  A    between atoms: N4_16  and  C9_19 
REMARK    8  A    between atoms: C10_23  and  N6_24 
REMARK    9  A    between atoms: N6_24  and  C11_26 
REMARK   10  A    between atoms: C11_26  and  N7_27 
REMARK   11  A    between atoms: C12_32  and  O6_33 
REMARK   12  A    between atoms: C13_35  and  O7_36 
ROOT
HETATM    1  C7  UNL     1      15.391  38.302 -18.055  1.00  0.00     0.726 A 
HETATM    2  N3  UNL     1      14.757  37.162 -18.310  1.00  0.00    -0.018 N 
ATOM      3  H3  UNL     1      14.464  36.975 -19.268  1.00  0.00     0.203 HD
HETATM    4  C8  UNL     1      14.483  36.242 -17.366  1.00  0.00     0.740 A 
HETATM    5  N5  UNL     1      14.889  36.521 -16.097  1.00  0.00    -0.019 N 
ATOM      6  H5  UNL     1      14.699  35.845 -15.357  1.00  0.00     0.203 HD
HETATM    7  C10 UNL     1      15.533  37.661 -15.789  1.00  0.00     0.708 A 
HETATM    8  N8  UNL     1      15.775  38.535 -16.780  1.00  0.00    -0.020 N 
ATOM      9  H8  UNL     1      16.265  39.403 -16.563  1.00  0.00     0.203 HD
ENDROOT
BRANCH   1  10
HETATM   10  N2  UNL     1      15.651  39.184 -18.968  1.00  0.00    -0.131 N 
ATOM     11  H2  UNL     1      16.617  39.378 -19.231  1.00  0.00     0.205 HD
BRANCH  10  12
HETATM   12  N1  UNL     1      14.607  39.866 -19.588  1.00  0.00    -0.297 N 
HETATM   13  C6  UNL     1      14.570  39.935 -20.864  1.00  0.00     0.122 C 
ATOM     14  H1  UNL     1      13.878  40.307 -19.028  1.00  0.00     0.186 HD
BRANCH  13  15
HETATM   15  C5  UNL     1      13.485  40.646 -21.543  1.00  0.00     0.017 A 
HETATM   16  C4  UNL     1      12.690  39.944 -22.406  1.00  0.00     0.018 A 
HETATM   17  C3  UNL     1      11.657  40.580 -23.064  1.00  0.00     0.040 A 
HETATM   18  C2  UNL     1      11.388  41.919 -22.884  1.00  0.00     0.104 A 
HETATM   19  C13 UNL     1      12.214  42.620 -21.997  1.00  0.00     0.133 A 
HETATM   20  C12 UNL     1      13.245  41.989 -21.338  1.00  0.00     0.113 A 
BRANCH  18  21
HETATM   21  O1  UNL     1      10.352  42.552 -23.544  1.00  0.00    -0.353 OA
HETATM   22  C1  UNL     1       9.335  41.767 -24.137  1.00  0.00     0.210 C 
ENDBRANCH  18  21
BRANCH  19  23
HETATM   23  O7  UNL     1      11.911  43.958 -21.846  1.00  0.00    -0.356 OA
ATOM     24  H7  UNL     1      11.651  44.216 -20.969  1.00  0.00     0.218 HD
ENDBRANCH  19  23
BRANCH  20  25
HETATM   25  O6  UNL     1      14.057  42.680 -20.466  1.00  0.00    -0.357 OA
ATOM     26  H6  UNL     1      13.679  43.384 -19.952  1.00  0.00     0.217 HD
ENDBRANCH  20  25
ENDBRANCH  13  15
ENDBRANCH  10  12
ENDBRANCH   1  10
BRANCH   4  27
HETATM   27  N4  UNL     1      13.804  35.035 -17.673  1.00  0.00    -0.025 N 
BRANCH  27  28
HETATM   28  O2  UNL     1      13.982  33.952 -16.913  1.00  0.00    -0.267 OA
ATOM     29  H2  UNL     1      13.243  33.399 -16.689  1.00  0.00     0.246 HD
ENDBRANCH  27  28
BRANCH  27  30
HETATM   30  C9  UNL     1      12.932  34.975 -18.789  1.00  0.00     0.400 C 
HETATM   31  O3  UNL     1      12.141  35.911 -19.039  1.00  0.00    -0.280 OA
ENDBRANCH  27  30
ENDBRANCH   4  27
BRANCH   7  32
HETATM   32  N6  UNL     1      15.936  37.968 -14.604  1.00  0.00    -0.203 N 
ATOM     33  H6  UNL     1      16.061  37.217 -13.925  1.00  0.00     0.179 HD
BRANCH  32  34
HETATM   34  C11 UNL     1      16.219  39.327 -14.186  1.00  0.00     0.341 C 
BRANCH  34  35
HETATM   35  N7  UNL     1      15.040  39.985 -13.681  1.00  0.00    -0.136 N 
HETATM   36  O4  UNL     1      14.273  39.396 -12.911  1.00  0.00    -0.535 OA
HETATM   37  O5  UNL     1      14.770  41.263 -14.058  1.00  0.00    -0.535 OA
ENDBRANCH  34  35
ENDBRANCH  32  34
ENDBRANCH   7  32
TORSDOF 12
ENDMDL
MODEL 5
REMARK VINA RESULT: -7.812340346      1.481      1.701
REMARK  12 active torsions:
REMARK  status: ('A' for Active; 'I' for Inactive)
REMARK    1  A    between atoms: O1_2  and  C2_3 
REMARK    2  A    between atoms: C5_6  and  C6_7 
REMARK    3  A    between atoms: N1_8  and  N2_10 
REMARK    4  A    between atoms: N2_10  and  C7_12 
REMARK    5  A    between atoms: C8_15  and  N4_16 
REMARK    6  A    between atoms: N4_16  and  O2_17 
REMARK    7  A    between atoms: N4_16  and  C9_19 
REMARK    8  A    between atoms: C10_23  and  N6_24 
REMARK    9  A    between atoms: N6_24  and  C11_26 
REMARK   10  A    between atoms: C11_26  and  N7_27 
REMARK   11  A    between atoms: C12_32  and  O6_33 
REMARK   12  A    between atoms: C13_35  and  O7_36 
ROOT
HETATM    1  C7  UNL     1      15.155  39.796 -19.690  1.00  0.00     0.726 A 
HETATM    2  N3  UNL     1      14.098  39.008 -19.848  1.00  0.00    -0.018 N 
ATOM      3  H3  UNL     1      13.625  39.007 -20.751  1.00  0.00     0.203 HD
HETATM    4  C8  UNL     1      13.618  38.210 -18.874  1.00  0.00     0.740 A 
HETATM    5  N5  UNL     1      14.272  38.233 -17.680  1.00  0.00    -0.019 N 
ATOM      6  H5  UNL     1      13.937  37.640 -16.921  1.00  0.00     0.203 HD
HETATM    7  C10 UNL     1      15.347  39.015 -17.472  1.00  0.00     0.708 A 
HETATM    8  N8  UNL     1      15.772  39.786 -18.487  1.00  0.00    -0.020 N 
ATOM      9  H8  UNL     1      16.587  40.382 -18.344  1.00  0.00     0.203 HD
ENDROOT
BRANCH   1  10
HETATM   10  N2  UNL     1      15.611  40.563 -20.630  1.00  0.00    -0.131 N 
ATOM     11  H2  UNL     1      15.474  41.572 -20.578  1.00  0.00     0.205 HD
BRANCH  10  12
HETATM   12  N1  UNL     1      16.288  40.004 -21.710  1.00  0.00    -0.297 N 
HETATM   13  C6  UNL     1      17.432  39.463 -21.527  1.00  0.00     0.122 C 
ATOM     14  H1  UNL     1      15.873  40.026 -22.642  1.00  0.00     0.186 HD
BRANCH  13  15
HETATM   15  C5  UNL     1      18.166  38.868 -22.645  1.00  0.00     0.017 A 
HETATM   16  C4  UNL     1      17.594  37.819 -23.311  1.00  0.00     0.018 A 
HETATM   17  C3  UNL     1      18.256  37.233 -24.371  1.00  0.00     0.040 A 
HETATM   18  C2  UNL     1      19.492  37.669 -24.794  1.00  0.00     0.104 A 
HETATM   19  C13 UNL     1      20.060  38.744 -24.098  1.00  0.00     0.133 A 
HETATM   20  C12 UNL     1      19.403  39.332 -23.041  1.00  0.00     0.113 A 
BRANCH  18  21
HETATM   21  O1  UNL     1      20.152  37.079 -25.856  1.00  0.00    -0.353 OA
HETATM   22  C1  UNL     1      19.403  36.661 -26.981  1.00  0.00     0.210 C 
ENDBRANCH  18  21
BRANCH  19  23
HETATM   23  O7  UNL     1      21.298  39.148 -24.554  1.00  0.00    -0.356 OA
ATOM     24  H7  UNL     1      21.793  39.690 -23.951  1.00  0.00     0.218 HD
ENDBRANCH  19  23
BRANCH  20  25
HETATM   25  O6  UNL     1      19.963  40.388 -22.359  1.00  0.00    -0.357 OA
ATOM     26  H6  UNL     1      20.008  40.347 -21.411  1.00  0.00     0.217 HD
ENDBRANCH  20  25
ENDBRANCH  13  15
ENDBRANCH  10  12
ENDBRANCH   1  10
BRANCH   4  27
HETATM   27  N4  UNL     1      12.486  37.380 -19.078  1.00  0.00    -0.025 N 
BRANCH  27  28
HETATM   28  O2  UNL     1      12.613  36.052 -19.047  1.00  0.00    -0.267 OA
ATOM     29  H2  UNL     1      13.474  35.654 -19.082  1.00  0.00     0.246 HD
ENDBRANCH  27  28
BRANCH  27  30
HETATM   30  C9  UNL     1      11.214  37.961 -19.313  1.00  0.00     0.400 C 
HETATM   31  O3  UNL     1      11.015  39.180 -19.114  1.00  0.00    -0.280 OA
ENDBRANCH  27  30
ENDBRANCH   4  27
BRANCH   7  32
HETATM   32  N6  UNL     1      15.997  39.071 -16.360  1.00  0.00    -0.203 N 
ATOM     33  H6  UNL     1      16.970  38.764 -16.353  1.00  0.00     0.179 HD
BRANCH  32  34
HETATM   34  C11 UNL     1      15.416  39.547 -15.120  1.00  0.00     0.341 C 
BRANCH  34  35
HETATM   35  N7  UNL     1      15.132  38.461 -14.215  1.00  0.00    -0.136 N 
HETATM   36  O4  UNL     1      15.003  38.671 -13.003  1.00  0.00    -0.535 OA
HETATM   37  O5  UNL     1      15.005  37.198 -14.700  1.00  0.00    -0.535 OA
ENDBRANCH  34  35
ENDBRANCH  32  34
ENDBRANCH   7  32
TORSDOF 12
ENDMDL
