MODEL 1
REMARK VINA RESULT: -8.467985787      0.000      0.000
REMARK  6 active torsions:
REMARK  status: ('A' for Active; 'I' for Inactive)
REMARK    1  A    between atoms: C2_3  and  C3_4 
REMARK    2  A    between atoms: C3_4  and  C4_5 
REMARK    3  A    between atoms: C4_5  and  N2_6 
REMARK    4  A    between atoms: C9_15  and  C10_16 
REMARK    5  A    between atoms: N3_19  and  C13_20 
REMARK    6  A    between atoms: C13_20  and  C14_21 
ROOT
HETATM    1  N1  UNL     1      -3.997   8.853   6.737  1.00  0.00    -0.194 NA
HETATM    2  C1  UNL     1      -4.240   8.786   5.604  1.00  0.00     0.100 C 
HETATM    3  C2  UNL     1      -4.520   8.704   4.178  1.00  0.00     0.178 C 
HETATM    4  C5  UNL     1      -4.441  10.051   3.546  1.00  0.00     0.230 C 
HETATM    5  O1  UNL     1      -4.816  10.013   2.175  1.00  0.00    -0.344 OA
HETATM    6  C6  UNL     1      -5.918   9.188   1.867  1.00  0.00     0.102 A 
HETATM    7  C7  UNL     1      -6.504   9.250   0.608  1.00  0.00     0.040 A 
HETATM    8  C8  UNL     1      -7.597   8.448   0.271  1.00  0.00     0.010 A 
HETATM    9  C9  UNL     1      -8.116   7.572   1.197  1.00  0.00    -0.051 A 
HETATM   10  C22 UNL     1      -7.533   7.515   2.439  1.00  0.00     0.047 A 
HETATM   11  C23 UNL     1      -6.438   8.315   2.784  1.00  0.00     0.105 A 
HETATM   12  O3  UNL     1      -5.881   8.227   4.044  1.00  0.00    -0.320 OA
ENDROOT
BRANCH   3  13
HETATM   13  C3  UNL     1      -3.672   7.638   3.587  1.00  0.00     0.083 C 
BRANCH  13  14
HETATM   14  C4  UNL     1      -2.858   6.823   4.523  1.00  0.00     0.233 C 
BRANCH  14  15
HETATM   15  N2  UNL     1      -3.240   5.445   4.532  1.00  0.00    -0.079 N 
ATOM     16  H23 UNL     1      -3.860   5.232   3.750  1.00  0.00     0.274 HD
ATOM     17  H22 UNL     1      -2.453   4.845   4.287  1.00  0.00     0.274 HD
ATOM     18  H21 UNL     1      -3.657   5.157   5.418  1.00  0.00     0.274 HD
ENDBRANCH  14  15
ENDBRANCH  13  14
ENDBRANCH   3  13
BRANCH   9  19
HETATM   19  C10 UNL     1      -9.278   6.694   0.910  1.00  0.00     0.025 C 
HETATM   20  C11 UNL     1     -10.080   7.119  -0.286  1.00  0.00     0.029 C 
HETATM   21  C12 UNL     1     -11.065   5.971  -0.549  1.00  0.00     0.122 C 
HETATM   22  N3  UNL     1     -11.853   5.686   0.587  1.00  0.00    -0.393 N 
HETATM   23  C20 UNL     1     -11.626   6.433   1.758  1.00  0.00     0.058 C 
HETATM   24  C21 UNL     1     -10.199   6.700   2.104  1.00  0.00     0.054 C 
BRANCH  22  25
HETATM   25  C13 UNL     1     -12.227   4.338   0.820  1.00  0.00     0.127 C 
BRANCH  25  26
HETATM   26  C14 UNL     1     -13.087   4.135   2.028  1.00  0.00     0.016 C 
HETATM   27  C15 UNL     1     -14.225   3.217   1.603  1.00  0.00     0.009 C 
HETATM   28  C16 UNL     1     -15.214   2.751   2.546  1.00  0.00     0.028 C 
HETATM   29  C17 UNL     1     -15.028   1.550   3.419  1.00  0.00     0.186 C 
HETATM   30  O2  UNL     1     -13.833   1.582   4.223  1.00  0.00    -0.315 OA
HETATM   31  C18 UNL     1     -13.044   2.488   3.736  1.00  0.00    -0.027 C 
HETATM   32  C19 UNL     1     -12.242   3.490   3.174  1.00  0.00     0.118 C 
ENDBRANCH  25  26
ENDBRANCH  22  25
ENDBRANCH   9  19
TORSDOF 6
ENDMDL
MODEL 2
REMARK VINA RESULT: -7.911550246      1.238      2.025
REMARK  6 active torsions:
REMARK  status: ('A' for Active; 'I' for Inactive)
REMARK    1  A    between atoms: C2_3  and  C3_4 
REMARK    2  A    between atoms: C3_4  and  C4_5 
REMARK    3  A    between atoms: C4_5  and  N2_6 
REMARK    4  A    between atoms: C9_15  and  C10_16 
REMARK    5  A    between atoms: N3_19  and  C13_20 
REMARK    6  A    between atoms: C13_20  and  C14_21 
ROOT
HETATM    1  N1  UNL     1      -5.131   9.133   5.731  1.00  0.00    -0.194 NA
HETATM    2  C1  UNL     1      -5.480   8.801   4.674  1.00  0.00     0.100 C 
HETATM    3  C2  UNL     1      -5.894   8.381   3.343  1.00  0.00     0.178 C 
HETATM    4  C5  UNL     1      -5.734   9.494   2.366  1.00  0.00     0.230 C 
HETATM    5  O1  UNL     1      -6.232   9.143   1.081  1.00  0.00    -0.344 OA
HETATM    6  C6  UNL     1      -7.436   8.408   1.074  1.00  0.00     0.102 A 
HETATM    7  C7  UNL     1      -8.123   8.209  -0.117  1.00  0.00     0.040 A 
HETATM    8  C8  UNL     1      -9.319   7.487  -0.159  1.00  0.00     0.010 A 
HETATM    9  C9  UNL     1      -9.840   6.955   0.999  1.00  0.00    -0.051 A 
HETATM   10  C22 UNL     1      -9.157   7.156   2.173  1.00  0.00     0.047 A 
HETATM   11  C23 UNL     1      -7.959   7.878   2.224  1.00  0.00     0.105 A 
HETATM   12  O3  UNL     1      -7.303   8.057   3.425  1.00  0.00    -0.320 OA
ENDROOT
BRANCH   3  13
HETATM   13  C3  UNL     1      -5.216   7.101   3.015  1.00  0.00     0.083 C 
BRANCH  13  14
HETATM   14  C4  UNL     1      -3.844   6.906   3.547  1.00  0.00     0.233 C 
BRANCH  14  15
HETATM   15  N2  UNL     1      -2.831   7.319   2.626  1.00  0.00    -0.079 N 
ATOM     16  H23 UNL     1      -2.567   6.553   2.004  1.00  0.00     0.274 HD
ATOM     17  H22 UNL     1      -3.206   7.969   1.936  1.00  0.00     0.274 HD
ATOM     18  H21 UNL     1      -2.012   7.711   3.091  1.00  0.00     0.274 HD
ENDBRANCH  14  15
ENDBRANCH  13  14
ENDBRANCH   3  13
BRANCH   9  19
HETATM   19  C10 UNL     1     -11.106   6.183   1.030  1.00  0.00     0.025 C 
HETATM   20  C11 UNL     1     -11.520   5.638  -0.306  1.00  0.00     0.029 C 
HETATM   21  C12 UNL     1     -12.693   4.691  -0.019  1.00  0.00     0.122 C 
HETATM   22  N3  UNL     1     -13.737   5.344   0.671  1.00  0.00    -0.393 N 
HETATM   23  C20 UNL     1     -13.563   6.698   1.011  1.00  0.00     0.058 C 
HETATM   24  C21 UNL     1     -12.213   7.083   1.519  1.00  0.00     0.054 C 
BRANCH  22  25
HETATM   25  C13 UNL     1     -14.481   4.597   1.618  1.00  0.00     0.127 C 
BRANCH  25  26
HETATM   26  C14 UNL     1     -13.809   3.343   2.083  1.00  0.00     0.016 C 
HETATM   27  C15 UNL     1     -12.881   3.742   3.222  1.00  0.00     0.009 C 
HETATM   28  C16 UNL     1     -12.119   2.762   3.959  1.00  0.00     0.028 C 
HETATM   29  C17 UNL     1     -12.661   1.995   5.125  1.00  0.00     0.186 C 
HETATM   30  O2  UNL     1     -13.885   1.287   4.851  1.00  0.00    -0.315 OA
HETATM   31  C18 UNL     1     -14.393   1.767   3.759  1.00  0.00    -0.027 C 
HETATM   32  C19 UNL     1     -14.884   2.317   2.567  1.00  0.00     0.118 C 
ENDBRANCH  25  26
ENDBRANCH  22  25
ENDBRANCH   9  19
TORSDOF 6
ENDMDL
MODEL 3
REMARK VINA RESULT: -7.869306375      6.221      9.257
REMARK  6 active torsions:
REMARK  status: ('A' for Active; 'I' for Inactive)
REMARK    1  A    between atoms: C2_3  and  C3_4 
REMARK    2  A    between atoms: C3_4  and  C4_5 
REMARK    3  A    between atoms: C4_5  and  N2_6 
REMARK    4  A    between atoms: C9_15  and  C10_16 
REMARK    5  A    between atoms: N3_19  and  C13_20 
REMARK    6  A    between atoms: C13_20  and  C14_21 
ROOT
HETATM    1  N1  UNL     1     -11.746   1.121   5.958  1.00  0.00    -0.194 NA
HETATM    2  C1  UNL     1     -12.524   1.688   5.308  1.00  0.00     0.100 C 
HETATM    3  C2  UNL     1     -13.514   2.399   4.513  1.00  0.00     0.178 C 
HETATM    4  C5  UNL     1     -14.623   1.488   4.113  1.00  0.00     0.230 C 
HETATM    5  O1  UNL     1     -15.547   2.132   3.246  1.00  0.00    -0.344 OA
HETATM    6  C6  UNL     1     -14.980   2.974   2.266  1.00  0.00     0.102 A 
HETATM    7  C7  UNL     1     -15.768   3.471   1.235  1.00  0.00     0.040 A 
HETATM    8  C8  UNL     1     -15.237   4.307   0.248  1.00  0.00     0.010 A 
HETATM    9  C9  UNL     1     -13.905   4.652   0.286  1.00  0.00    -0.051 A 
HETATM   10  C22 UNL     1     -13.132   4.157   1.307  1.00  0.00     0.047 A 
HETATM   11  C23 UNL     1     -13.656   3.320   2.299  1.00  0.00     0.105 A 
HETATM   12  O3  UNL     1     -12.844   2.844   3.308  1.00  0.00    -0.320 OA
ENDROOT
BRANCH   3  13
HETATM   13  C3  UNL     1     -13.897   3.642   5.230  1.00  0.00     0.083 C 
BRANCH  13  14
HETATM   14  C4  UNL     1     -14.343   3.501   6.639  1.00  0.00     0.233 C 
BRANCH  14  15
HETATM   15  N2  UNL     1     -15.766   3.543   6.774  1.00  0.00    -0.079 N 
ATOM     16  H23 UNL     1     -16.055   4.323   7.365  1.00  0.00     0.274 HD
ATOM     17  H22 UNL     1     -16.209   3.825   5.900  1.00  0.00     0.274 HD
ATOM     18  H21 UNL     1     -16.156   2.663   7.114  1.00  0.00     0.274 HD
ENDBRANCH  14  15
ENDBRANCH  13  14
ENDBRANCH   3  13
BRANCH   9  19
HETATM   19  C10 UNL     1     -13.274   5.529  -0.731  1.00  0.00     0.025 C 
HETATM   20  C11 UNL     1     -12.242   6.465  -0.171  1.00  0.00     0.029 C 
HETATM   21  C12 UNL     1     -11.554   7.095  -1.390  1.00  0.00     0.122 C 
HETATM   22  N3  UNL     1     -12.481   7.726  -2.247  1.00  0.00    -0.393 N 
HETATM   23  C20 UNL     1     -13.845   7.673  -1.905  1.00  0.00     0.058 C 
HETATM   24  C21 UNL     1     -14.344   6.366  -1.383  1.00  0.00     0.054 C 
BRANCH  22  25
HETATM   25  C13 UNL     1     -12.230   7.694  -3.643  1.00  0.00     0.127 C 
BRANCH  25  26
HETATM   26  C14 UNL     1     -12.470   6.363  -4.283  1.00  0.00     0.016 C 
HETATM   27  C15 UNL     1     -13.404   6.608  -5.461  1.00  0.00     0.009 C 
HETATM   28  C16 UNL     1     -13.794   5.542  -6.354  1.00  0.00     0.028 C 
HETATM   29  C17 UNL     1     -12.980   5.108  -7.532  1.00  0.00     0.186 C 
HETATM   30  O2  UNL     1     -11.619   4.756  -7.214  1.00  0.00    -0.315 OA
HETATM   31  C18 UNL     1     -11.344   5.231  -6.040  1.00  0.00    -0.027 C 
HETATM   32  C19 UNL     1     -11.111   5.756  -4.761  1.00  0.00     0.118 C 
ENDBRANCH  25  26
ENDBRANCH  22  25
ENDBRANCH   9  19
TORSDOF 6
ENDMDL
MODEL 4
REMARK VINA RESULT: -7.760040555      2.690      9.066
REMARK  6 active torsions:
REMARK  status: ('A' for Active; 'I' for Inactive)
REMARK    1  A    between atoms: C2_3  and  C3_4 
REMARK    2  A    between atoms: C3_4  and  C4_5 
REMARK    3  A    between atoms: C4_5  and  N2_6 
REMARK    4  A    between atoms: C9_15  and  C10_16 
REMARK    5  A    between atoms: N3_19  and  C13_20 
REMARK    6  A    between atoms: C13_20  and  C14_21 
ROOT
HETATM    1  N1  UNL     1     -13.253   3.577   1.616  1.00  0.00    -0.194 NA
HETATM    2  C1  UNL     1     -12.649   4.509   1.276  1.00  0.00     0.100 C 
HETATM    3  C2  UNL     1     -11.911   5.685   0.839  1.00  0.00     0.178 C 
HETATM    4  C5  UNL     1     -11.501   5.551  -0.587  1.00  0.00     0.230 C 
HETATM    5  O1  UNL     1     -10.687   6.639  -1.005  1.00  0.00    -0.344 OA
HETATM    6  C6  UNL     1      -9.730   7.081  -0.068  1.00  0.00     0.102 A 
HETATM    7  C7  UNL     1      -8.742   7.979  -0.452  1.00  0.00     0.040 A 
HETATM    8  C8  UNL     1      -7.779   8.436   0.451  1.00  0.00     0.010 A 
HETATM    9  C9  UNL     1      -7.797   7.993   1.754  1.00  0.00    -0.051 A 
HETATM   10  C22 UNL     1      -8.774   7.105   2.128  1.00  0.00     0.047 A 
HETATM   11  C23 UNL     1      -9.743   6.643   1.230  1.00  0.00     0.105 A 
HETATM   12  O3  UNL     1     -10.709   5.750   1.646  1.00  0.00    -0.320 OA
ENDROOT
BRANCH   3  13
HETATM   13  C3  UNL     1     -12.690   6.896   1.200  1.00  0.00     0.083 C 
BRANCH  13  14
HETATM   14  C4  UNL     1     -14.158   6.847   0.980  1.00  0.00     0.233 C 
BRANCH  14  15
HETATM   15  N2  UNL     1     -14.525   7.159  -0.367  1.00  0.00    -0.079 N 
ATOM     16  H23 UNL     1     -15.470   7.543  -0.409  1.00  0.00     0.274 HD
ATOM     17  H22 UNL     1     -14.004   7.965  -0.712  1.00  0.00     0.274 HD
ATOM     18  H21 UNL     1     -14.425   6.362  -0.996  1.00  0.00     0.274 HD
ENDBRANCH  14  15
ENDBRANCH  13  14
ENDBRANCH   3  13
BRANCH   9  19
HETATM   19  C10 UNL     1      -6.802   8.431   2.765  1.00  0.00     0.025 C 
HETATM   20  C11 UNL     1      -7.407   9.097   3.966  1.00  0.00     0.029 C 
HETATM   21  C12 UNL     1      -6.260   9.250   4.974  1.00  0.00     0.122 C 
HETATM   22  N3  UNL     1      -5.171   9.960   4.425  1.00  0.00    -0.393 N 
HETATM   23  C20 UNL     1      -5.264  10.389   3.088  1.00  0.00     0.058 C 
HETATM   24  C21 UNL     1      -5.859   9.417   2.123  1.00  0.00     0.054 C 
BRANCH  22  25
HETATM   25  C13 UNL     1      -3.862   9.593   4.829  1.00  0.00     0.127 C 
BRANCH  25  26
HETATM   26  C14 UNL     1      -3.723   8.163   5.247  1.00  0.00     0.016 C 
HETATM   27  C15 UNL     1      -3.267   7.392   4.016  1.00  0.00     0.009 C 
HETATM   28  C16 UNL     1      -2.963   5.981   4.074  1.00  0.00     0.028 C 
HETATM   29  C17 UNL     1      -1.631   5.436   4.486  1.00  0.00     0.186 C 
HETATM   30  O2  UNL     1      -1.173   5.900   5.771  1.00  0.00    -0.315 OA
HETATM   31  C18 UNL     1      -1.874   6.941   6.096  1.00  0.00    -0.027 C 
HETATM   32  C19 UNL     1      -2.673   8.051   6.400  1.00  0.00     0.118 C 
ENDBRANCH  25  26
ENDBRANCH  22  25
ENDBRANCH   9  19
TORSDOF 6
ENDMDL
MODEL 5
REMARK VINA RESULT: -7.750876584      1.767      2.578
REMARK  6 active torsions:
REMARK  status: ('A' for Active; 'I' for Inactive)
REMARK    1  A    between atoms: C2_3  and  C3_4 
REMARK    2  A    between atoms: C3_4  and  C4_5 
REMARK    3  A    between atoms: C4_5  and  N2_6 
REMARK    4  A    between atoms: C9_15  and  C10_16 
REMARK    5  A    between atoms: N3_19  and  C13_20 
REMARK    6  A    between atoms: C13_20  and  C14_21 
ROOT
HETATM    1  N1  UNL     1      -1.819   8.403   6.714  1.00  0.00    -0.194 NA
HETATM    2  C1  UNL     1      -2.224   8.463   5.628  1.00  0.00     0.100 C 
HETATM    3  C2  UNL     1      -2.710   8.533   4.257  1.00  0.00     0.178 C 
HETATM    4  C5  UNL     1      -2.374   9.849   3.646  1.00  0.00     0.230 C 
HETATM    5  O1  UNL     1      -2.931   9.983   2.344  1.00  0.00    -0.344 OA
HETATM    6  C6  UNL     1      -4.240   9.481   2.186  1.00  0.00     0.102 A 
HETATM    7  C7  UNL     1      -4.957   9.759   1.029  1.00  0.00     0.040 A 
HETATM    8  C8  UNL     1      -6.256   9.278   0.842  1.00  0.00     0.010 A 
HETATM    9  C9  UNL     1      -6.850   8.511   1.818  1.00  0.00    -0.051 A 
HETATM   10  C22 UNL     1      -6.137   8.240   2.959  1.00  0.00     0.047 A 
HETATM   11  C23 UNL     1      -4.836   8.718   3.154  1.00  0.00     0.105 A 
HETATM   12  O3  UNL     1      -4.153   8.423   4.317  1.00  0.00    -0.320 OA
ENDROOT
BRANCH   3  13
HETATM   13  C3  UNL     1      -2.255   7.322   3.528  1.00  0.00     0.083 C 
BRANCH  13  14
HETATM   14  C4  UNL     1      -2.071   6.082   4.324  1.00  0.00     0.233 C 
BRANCH  14  15
HETATM   15  N2  UNL     1      -3.297   5.376   4.539  1.00  0.00    -0.079 N 
ATOM     16  H23 UNL     1      -4.077   6.024   4.656  1.00  0.00     0.274 HD
ATOM     17  H22 UNL     1      -3.602   4.904   3.687  1.00  0.00     0.274 HD
ATOM     18  H21 UNL     1      -3.244   4.723   5.320  1.00  0.00     0.274 HD
ENDBRANCH  14  15
ENDBRANCH  13  14
ENDBRANCH   3  13
BRANCH   9  19
HETATM   19  C10 UNL     1      -8.227   7.973   1.689  1.00  0.00     0.025 C 
HETATM   20  C11 UNL     1      -8.542   6.868   2.655  1.00  0.00     0.029 C 
HETATM   21  C12 UNL     1     -10.052   6.624   2.525  1.00  0.00     0.122 C 
HETATM   22  N3  UNL     1     -10.423   6.333   1.194  1.00  0.00    -0.393 N 
HETATM   23  C20 UNL     1      -9.418   6.331   0.209  1.00  0.00     0.058 C 
HETATM   24  C21 UNL     1      -8.407   7.427   0.295  1.00  0.00     0.054 C 
BRANCH  22  25
HETATM   25  C13 UNL     1     -11.684   6.791   0.736  1.00  0.00     0.127 C 
BRANCH  25  26
HETATM   26  C14 UNL     1     -12.545   5.728   0.129  1.00  0.00     0.016 C 
HETATM   27  C15 UNL     1     -12.732   4.658   1.195  1.00  0.00     0.009 C 
HETATM   28  C16 UNL     1     -13.575   3.506   0.973  1.00  0.00     0.028 C 
HETATM   29  C17 UNL     1     -15.055   3.504   1.200  1.00  0.00     0.186 C 
HETATM   30  O2  UNL     1     -15.762   4.541   0.493  1.00  0.00    -0.315 OA
HETATM   31  C18 UNL     1     -14.899   5.427   0.106  1.00  0.00    -0.027 C 
HETATM   32  C19 UNL     1     -13.918   6.342  -0.297  1.00  0.00     0.118 C 
ENDBRANCH  25  26
ENDBRANCH  22  25
ENDBRANCH   9  19
TORSDOF 6
ENDMDL
