MODEL 1
REMARK VINA RESULT: -7.947561162      0.000      0.000
REMARK  1 active torsions:
REMARK  status: ('A' for Active; 'I' for Inactive)
REMARK    1  A    between atoms: C2_2  and  C4_4 
ROOT
HETATM    1  C4  UNL     1     -20.542 -42.201  25.435  1.00  0.00     0.018 C 
HETATM    2  C5  UNL     1     -20.101 -43.641  25.373  1.00  0.00     0.010 C 
HETATM    3  C6  UNL     1     -18.954 -43.538  24.357  1.00  0.00     0.011 C 
HETATM    4  C7  UNL     1     -18.474 -42.112  24.420  1.00  0.00    -0.034 C 
HETATM    5  C8  UNL     1     -18.790 -41.298  23.213  1.00  0.00     0.016 C 
HETATM    6  C9  UNL     1     -17.077 -41.958  24.873  1.00  0.00     0.023 C 
HETATM    7  C10 UNL     1     -16.059 -42.764  24.155  1.00  0.00     0.016 C 
HETATM    8  C11 UNL     1     -14.749 -42.594  24.929  1.00  0.00     0.103 C 
HETATM    9  C12 UNL     1     -14.935 -42.798  26.402  1.00  0.00     0.282 C 
HETATM   10  O1  UNL     1     -15.212 -44.137  26.620  1.00  0.00    -0.331 OA
HETATM   11  C13 UNL     1     -14.208 -44.668  27.392  1.00  0.00     0.200 C 
HETATM   12  C14 UNL     1     -13.053 -43.712  27.110  1.00  0.00     0.200 C 
HETATM   13  O2  UNL     1     -13.760 -42.489  27.041  1.00  0.00    -0.331 OA
HETATM   14  O3  UNL     1     -16.012 -42.070  26.920  1.00  0.00    -0.327 OA
HETATM   15  C15 UNL     1     -17.150 -42.516  26.303  1.00  0.00     0.132 C 
HETATM   16  C16 UNL     1     -18.421 -41.916  26.784  1.00  0.00     0.038 C 
HETATM   17  C17 UNL     1     -19.248 -41.488  25.600  1.00  0.00     0.004 C 
ENDROOT
BRANCH   1  18
HETATM   18  C2  UNL     1     -21.610 -41.893  26.359  1.00  0.00    -0.089 C 
HETATM   19  C1  UNL     1     -22.303 -42.836  26.940  1.00  0.00     0.014 C 
HETATM   20  C3  UNL     1     -21.926 -40.470  26.649  1.00  0.00     0.043 C 
ENDBRANCH   1  18
TORSDOF 1
ENDMDL
MODEL 2
REMARK VINA RESULT: -7.495384960      3.151      6.761
REMARK  1 active torsions:
REMARK  status: ('A' for Active; 'I' for Inactive)
REMARK    1  A    between atoms: C2_2  and  C4_4 
ROOT
HETATM    1  C4  UNL     1     -18.571 -42.856  24.424  1.00  0.00     0.018 C 
HETATM    2  C5  UNL     1     -19.423 -42.072  23.459  1.00  0.00     0.010 C 
HETATM    3  C6  UNL     1     -20.806 -42.667  23.761  1.00  0.00     0.011 C 
HETATM    4  C7  UNL     1     -20.725 -43.204  25.165  1.00  0.00    -0.034 C 
HETATM    5  C8  UNL     1     -20.751 -44.690  25.263  1.00  0.00     0.016 C 
HETATM    6  C9  UNL     1     -21.637 -42.546  26.123  1.00  0.00     0.023 C 
HETATM    7  C10 UNL     1     -23.066 -42.473  25.730  1.00  0.00     0.016 C 
HETATM    8  C11 UNL     1     -23.754 -41.580  26.766  1.00  0.00     0.103 C 
HETATM    9  C12 UNL     1     -22.997 -40.308  27.005  1.00  0.00     0.282 C 
HETATM   10  O1  UNL     1     -23.092 -39.530  25.863  1.00  0.00    -0.331 OA
HETATM   11  C13 UNL     1     -23.747 -38.367  26.184  1.00  0.00     0.200 C 
HETATM   12  C14 UNL     1     -24.535 -38.780  27.424  1.00  0.00     0.200 C 
HETATM   13  O2  UNL     1     -23.589 -39.631  28.042  1.00  0.00    -0.331 OA
HETATM   14  O3  UNL     1     -21.633 -40.523  27.239  1.00  0.00    -0.327 OA
HETATM   15  C15 UNL     1     -21.105 -41.103  26.117  1.00  0.00     0.132 C 
HETATM   16  C16 UNL     1     -19.639 -41.336  26.142  1.00  0.00     0.038 C 
HETATM   17  C17 UNL     1     -19.349 -42.741  25.685  1.00  0.00     0.004 C 
ENDROOT
BRANCH   1  18
HETATM   18  C2  UNL     1     -17.165 -42.522  24.461  1.00  0.00    -0.089 C 
HETATM   19  C1  UNL     1     -16.551 -42.038  23.414  1.00  0.00     0.014 C 
HETATM   20  C3  UNL     1     -16.404 -42.740  25.719  1.00  0.00     0.043 C 
ENDBRANCH   1  18
TORSDOF 1
ENDMDL
MODEL 3
REMARK VINA RESULT: -7.389352519      3.491      6.703
REMARK  1 active torsions:
REMARK  status: ('A' for Active; 'I' for Inactive)
REMARK    1  A    between atoms: C2_2  and  C4_4 
ROOT
HETATM    1  C4  UNL     1     -18.609 -41.905  25.190  1.00  0.00     0.018 C 
HETATM    2  C5  UNL     1     -18.873 -41.876  26.674  1.00  0.00     0.010 C 
HETATM    3  C6  UNL     1     -20.263 -41.226  26.697  1.00  0.00     0.011 C 
HETATM    4  C7  UNL     1     -20.874 -41.510  25.350  1.00  0.00    -0.034 C 
HETATM    5  C8  UNL     1     -21.013 -40.317  24.469  1.00  0.00     0.016 C 
HETATM    6  C9  UNL     1     -22.094 -42.340  25.397  1.00  0.00     0.023 C 
HETATM    7  C10 UNL     1     -23.169 -41.882  26.312  1.00  0.00     0.016 C 
HETATM    8  C11 UNL     1     -24.218 -42.998  26.339  1.00  0.00     0.103 C 
HETATM    9  C12 UNL     1     -23.600 -44.346  26.557  1.00  0.00     0.282 C 
HETATM   10  O1  UNL     1     -23.113 -44.393  27.853  1.00  0.00    -0.331 OA
HETATM   11  C13 UNL     1     -23.786 -45.377  28.533  1.00  0.00     0.200 C 
HETATM   12  C14 UNL     1     -25.080 -45.487  27.733  1.00  0.00     0.200 C 
HETATM   13  O2  UNL     1     -24.575 -45.304  26.425  1.00  0.00    -0.331 OA
HETATM   14  O3  UNL     1     -22.516 -44.591  25.706  1.00  0.00    -0.327 OA
HETATM   15  C15 UNL     1     -21.553 -43.656  25.979  1.00  0.00     0.132 C 
HETATM   16  C16 UNL     1     -20.281 -43.803  25.228  1.00  0.00     0.038 C 
HETATM   17  C17 UNL     1     -19.880 -42.466  24.662  1.00  0.00     0.004 C 
ENDROOT
BRANCH   1  18
HETATM   18  C2  UNL     1     -17.369 -42.515  24.768  1.00  0.00    -0.089 C 
HETATM   19  C1  UNL     1     -17.137 -42.793  23.512  1.00  0.00     0.014 C 
HETATM   20  C3  UNL     1     -16.338 -42.837  25.790  1.00  0.00     0.043 C 
ENDBRANCH   1  18
TORSDOF 1
ENDMDL
MODEL 4
REMARK VINA RESULT: -7.176826843      3.323      5.338
REMARK  1 active torsions:
REMARK  status: ('A' for Active; 'I' for Inactive)
REMARK    1  A    between atoms: C2_2  and  C4_4 
ROOT
HETATM    1  C4  UNL     1     -21.008 -39.699  20.982  1.00  0.00     0.018 C 
HETATM    2  C5  UNL     1     -21.390 -41.157  20.998  1.00  0.00     0.010 C 
HETATM    3  C6  UNL     1     -20.102 -41.776  21.559  1.00  0.00     0.011 C 
HETATM    4  C7  UNL     1     -19.422 -40.680  22.336  1.00  0.00    -0.034 C 
HETATM    5  C8  UNL     1     -18.169 -40.167  21.716  1.00  0.00     0.016 C 
HETATM    6  C9  UNL     1     -19.283 -40.952  23.781  1.00  0.00     0.023 C 
HETATM    7  C10 UNL     1     -18.658 -42.246  24.151  1.00  0.00     0.016 C 
HETATM    8  C11 UNL     1     -18.816 -42.383  25.668  1.00  0.00     0.103 C 
HETATM    9  C12 UNL     1     -20.217 -42.094  26.117  1.00  0.00     0.282 C 
HETATM   10  O1  UNL     1     -21.034 -43.115  25.661  1.00  0.00    -0.331 OA
HETATM   11  C13 UNL     1     -21.574 -43.756  26.748  1.00  0.00     0.200 C 
HETATM   12  C14 UNL     1     -20.565 -43.426  27.844  1.00  0.00     0.200 C 
HETATM   13  O2  UNL     1     -20.248 -42.094  27.490  1.00  0.00    -0.331 OA
HETATM   14  O3  UNL     1     -20.722 -40.901  25.588  1.00  0.00    -0.327 OA
HETATM   15  C15 UNL     1     -20.753 -41.031  24.225  1.00  0.00     0.132 C 
HETATM   16  C16 UNL     1     -21.341 -39.887  23.483  1.00  0.00     0.038 C 
HETATM   17  C17 UNL     1     -20.433 -39.515  22.340  1.00  0.00     0.004 C 
ENDROOT
BRANCH   1  18
HETATM   18  C2  UNL     1     -22.026 -38.771  20.544  1.00  0.00    -0.089 C 
HETATM   19  C1  UNL     1     -21.722 -37.682  19.890  1.00  0.00     0.014 C 
HETATM   20  C3  UNL     1     -23.451 -39.065  20.852  1.00  0.00     0.043 C 
ENDBRANCH   1  18
TORSDOF 1
ENDMDL
MODEL 5
REMARK VINA RESULT: -6.913046730      4.795      7.467
REMARK  1 active torsions:
REMARK  status: ('A' for Active; 'I' for Inactive)
REMARK    1  A    between atoms: C2_2  and  C4_4 
ROOT
HETATM    1  C4  UNL     1     -19.640 -42.445  24.436  1.00  0.00     0.018 C 
HETATM    2  C5  UNL     1     -19.087 -42.317  23.039  1.00  0.00     0.010 C 
HETATM    3  C6  UNL     1     -20.363 -42.535  22.213  1.00  0.00     0.011 C 
HETATM    4  C7  UNL     1     -21.508 -42.158  23.116  1.00  0.00    -0.034 C 
HETATM    5  C8  UNL     1     -22.346 -43.305  23.565  1.00  0.00     0.016 C 
HETATM    6  C9  UNL     1     -22.305 -41.009  22.643  1.00  0.00     0.023 C 
HETATM    7  C10 UNL     1     -22.813 -41.087  21.250  1.00  0.00     0.016 C 
HETATM    8  C11 UNL     1     -23.416 -39.716  20.933  1.00  0.00     0.103 C 
HETATM    9  C12 UNL     1     -22.496 -38.594  21.314  1.00  0.00     0.282 C 
HETATM   10  O1  UNL     1     -21.408 -38.621  20.458  1.00  0.00    -0.331 OA
HETATM   11  C13 UNL     1     -21.389 -37.450  19.743  1.00  0.00     0.200 C 
HETATM   12  C14 UNL     1     -22.849 -37.012  19.814  1.00  0.00     0.200 C 
HETATM   13  O2  UNL     1     -23.158 -37.404  21.137  1.00  0.00    -0.331 OA
HETATM   14  O3  UNL     1     -21.995 -38.720  22.615  1.00  0.00    -0.327 OA
HETATM   15  C15 UNL     1     -21.266 -39.877  22.669  1.00  0.00     0.132 C 
HETATM   16  C16 UNL     1     -20.579 -40.145  23.959  1.00  0.00     0.038 C 
HETATM   17  C17 UNL     1     -20.839 -41.569  24.375  1.00  0.00     0.004 C 
ENDROOT
BRANCH   1  18
HETATM   18  C2  UNL     1     -18.706 -42.243  25.520  1.00  0.00    -0.089 C 
HETATM   19  C1  UNL     1     -17.420 -42.403  25.352  1.00  0.00     0.014 C 
HETATM   20  C3  UNL     1     -19.225 -41.850  26.856  1.00  0.00     0.043 C 
ENDBRANCH   1  18
TORSDOF 1
ENDMDL
