MODEL 1
REMARK VINA RESULT: -7.782787290      0.000      0.000
REMARK  7 active torsions:
REMARK  status: ('A' for Active; 'I' for Inactive)
REMARK    1  A    between atoms: C1_2  and  C2_3 
REMARK       I    between atoms: C1_2  and  N1_6 
REMARK    2  A    between atoms: C2_3  and  O2_4 
REMARK    3  A    between atoms: N1_6  and  C3_8 
REMARK    4  A    between atoms: C3_8  and  C4_9 
REMARK    5  A    between atoms: N2_15  and  C9_16 
REMARK    6  A    between atoms: C9_16  and  O4_17 
REMARK    7  A    between atoms: C9_16  and  N3_19 
ROOT
HETATM    1  C4  UNL     1      20.176   2.604  11.773  1.00  0.00     0.167 C 
HETATM    2  C5  UNL     1      20.245   4.000  11.239  1.00  0.00     0.205 C 
HETATM    3  O3  UNL     1      19.033   4.546  11.583  1.00  0.00    -0.352 OA
HETATM    4  C6  UNL     1      18.598   3.886  12.703  1.00  0.00     0.167 C 
HETATM    5  C7  UNL     1      18.912   4.599  14.005  1.00  0.00     0.088 C 
HETATM    6  C8  UNL     1      17.808   4.375  15.007  1.00  0.00     0.131 C 
HETATM    7  N2  UNL     1      17.276   3.016  14.911  1.00  0.00    -0.347 N 
HETATM    8  C14 UNL     1      16.816   2.538  13.655  1.00  0.00     0.131 C 
HETATM    9  C15 UNL     1      17.083   3.646  12.623  1.00  0.00     0.088 C 
HETATM   10  O5  UNL     1      19.188   2.630  12.753  1.00  0.00    -0.346 OA
ENDROOT
BRANCH   1  11
HETATM   11  C3  UNL     1      19.822   1.595  10.720  1.00  0.00     0.156 C 
BRANCH  11  12
HETATM   12  N1  UNL     1      19.514   0.344  11.342  1.00  0.00    -0.357 N 
HETATM   13  C1  UNL     1      18.337  -0.389  11.016  1.00  0.00     0.241 C 
HETATM   14  O1  UNL     1      17.563   0.092  10.157  1.00  0.00    -0.271 OA
ATOM     15  H1  UNL     1      20.156  -0.034  12.039  1.00  0.00     0.162 HD
BRANCH  13  16
HETATM   16  C2  UNL     1      17.994  -1.678  11.641  1.00  0.00     0.266 C 
BRANCH  16  17
HETATM   17  O2  UNL     1      19.082  -2.536  11.614  1.00  0.00    -0.392 OA
ATOM     18  H2  UNL     1      19.633  -2.399  12.376  1.00  0.00     0.210 HD
ENDBRANCH  16  17
ENDBRANCH  13  16
ENDBRANCH  11  12
ENDBRANCH   1  11
BRANCH   7  19
HETATM   19  C9  UNL     1      17.248   2.244  16.078  1.00  0.00     0.217 C 
BRANCH  19  20
HETATM   20  O4  UNL     1      18.378   1.648  16.348  1.00  0.00    -0.333 OA
ATOM     21  H4  UNL     1      18.591   0.937  15.754  1.00  0.00     0.220 HD
ENDBRANCH  19  20
BRANCH  19  22
HETATM   22  N3  UNL     1      16.168   2.076  16.917  1.00  0.00    -0.348 N 
HETATM   23  C10 UNL     1      15.821   1.271  18.020  1.00  0.00     0.126 C 
HETATM   24  C11 UNL     1      14.442   0.723  17.547  1.00  0.00     0.021 C 
HETATM   25  C12 UNL     1      13.903   1.804  16.634  1.00  0.00     0.021 C 
HETATM   26  C13 UNL     1      14.937   2.922  16.734  1.00  0.00     0.126 C 
ENDBRANCH  19  22
ENDBRANCH   7  19
TORSDOF 7
ENDMDL
MODEL 2
REMARK VINA RESULT: -7.002236501      2.314      5.716
REMARK  7 active torsions:
REMARK  status: ('A' for Active; 'I' for Inactive)
REMARK    1  A    between atoms: C1_2  and  C2_3 
REMARK       I    between atoms: C1_2  and  N1_6 
REMARK    2  A    between atoms: C2_3  and  O2_4 
REMARK    3  A    between atoms: N1_6  and  C3_8 
REMARK    4  A    between atoms: C3_8  and  C4_9 
REMARK    5  A    between atoms: N2_15  and  C9_16 
REMARK    6  A    between atoms: C9_16  and  O4_17 
REMARK    7  A    between atoms: C9_16  and  N3_19 
ROOT
HETATM    1  C4  UNL     1      15.274   5.134  14.688  1.00  0.00     0.167 C 
HETATM    2  C5  UNL     1      15.801   6.476  15.086  1.00  0.00     0.205 C 
HETATM    3  O3  UNL     1      17.135   6.417  14.762  1.00  0.00    -0.352 OA
HETATM    4  C6  UNL     1      17.260   5.519  13.734  1.00  0.00     0.167 C 
HETATM    5  C7  UNL     1      17.295   6.153  12.356  1.00  0.00     0.088 C 
HETATM    6  C8  UNL     1      18.210   5.375  11.444  1.00  0.00     0.131 C 
HETATM    7  N2  UNL     1      18.109   3.939  11.695  1.00  0.00    -0.347 N 
HETATM    8  C14 UNL     1      18.306   3.448  13.013  1.00  0.00     0.131 C 
HETATM    9  C15 UNL     1      18.525   4.669  13.922  1.00  0.00     0.088 C 
HETATM   10  O5  UNL     1      16.190   4.633  13.766  1.00  0.00    -0.346 OA
ENDROOT
BRANCH   1  11
HETATM   11  C3  UNL     1      15.150   4.190  15.848  1.00  0.00     0.156 C 
BRANCH  11  12
HETATM   12  N1  UNL     1      15.834   2.970  15.545  1.00  0.00    -0.357 N 
HETATM   13  C1  UNL     1      15.935   1.909  16.490  1.00  0.00     0.241 C 
HETATM   14  O1  UNL     1      15.403   2.068  17.612  1.00  0.00    -0.271 OA
ATOM     15  H1  UNL     1      16.261   2.856  14.625  1.00  0.00     0.162 HD
BRANCH  13  16
HETATM   16  C2  UNL     1      16.632   0.643  16.206  1.00  0.00     0.266 C 
BRANCH  16  17
HETATM   17  O2  UNL     1      17.978   0.749  16.522  1.00  0.00    -0.392 OA
ATOM     18  H2  UNL     1      18.501   0.815  15.732  1.00  0.00     0.210 HD
ENDBRANCH  16  17
ENDBRANCH  13  16
ENDBRANCH  11  12
ENDBRANCH   1  11
BRANCH   7  19
HETATM   19  C9  UNL     1      17.819   3.107  10.607  1.00  0.00     0.217 C 
BRANCH  19  20
HETATM   20  O4  UNL     1      17.659   3.744   9.478  1.00  0.00    -0.333 OA
ATOM     21  H4  UNL     1      18.054   3.310   8.731  1.00  0.00     0.220 HD
ENDBRANCH  19  20
BRANCH  19  22
HETATM   22  N3  UNL     1      17.695   1.735  10.642  1.00  0.00    -0.348 N 
HETATM   23  C10 UNL     1      16.682   0.786  10.889  1.00  0.00     0.126 C 
HETATM   24  C11 UNL     1      17.390  -0.114  11.944  1.00  0.00     0.021 C 
HETATM   25  C12 UNL     1      18.862   0.011  11.615  1.00  0.00     0.021 C 
HETATM   26  C13 UNL     1      18.888   0.866  10.351  1.00  0.00     0.126 C 
ENDBRANCH  19  22
ENDBRANCH   7  19
TORSDOF 7
ENDMDL
MODEL 3
REMARK VINA RESULT: -6.975631555      2.535      6.306
REMARK  7 active torsions:
REMARK  status: ('A' for Active; 'I' for Inactive)
REMARK    1  A    between atoms: C1_2  and  C2_3 
REMARK       I    between atoms: C1_2  and  N1_6 
REMARK    2  A    between atoms: C2_3  and  O2_4 
REMARK    3  A    between atoms: N1_6  and  C3_8 
REMARK    4  A    between atoms: C3_8  and  C4_9 
REMARK    5  A    between atoms: N2_15  and  C9_16 
REMARK    6  A    between atoms: C9_16  and  O4_17 
REMARK    7  A    between atoms: C9_16  and  N3_19 
ROOT
HETATM    1  C4  UNL     1      18.412   0.142  11.918  1.00  0.00     0.167 C 
HETATM    2  C5  UNL     1      17.977  -0.181  10.525  1.00  0.00     0.205 C 
HETATM    3  O3  UNL     1      17.706   1.045   9.969  1.00  0.00    -0.352 OA
HETATM    4  C6  UNL     1      18.485   1.964  10.623  1.00  0.00     0.167 C 
HETATM    5  C7  UNL     1      19.781   2.298   9.910  1.00  0.00     0.088 C 
HETATM    6  C8  UNL     1      20.140   3.748  10.124  1.00  0.00     0.131 C 
HETATM    7  N2  UNL     1      19.801   4.180  11.480  1.00  0.00    -0.347 N 
HETATM    8  C14 UNL     1      18.477   3.993  11.957  1.00  0.00     0.131 C 
HETATM    9  C15 UNL     1      17.696   3.261  10.854  1.00  0.00     0.088 C 
HETATM   10  O5  UNL     1      18.807   1.477  11.883  1.00  0.00    -0.346 OA
ENDROOT
BRANCH   1  11
HETATM   11  C3  UNL     1      17.316  -0.038  12.927  1.00  0.00     0.156 C 
BRANCH  11  12
HETATM   12  N1  UNL     1      17.434   0.962  13.944  1.00  0.00    -0.357 N 
HETATM   13  C1  UNL     1      17.105   0.696  15.304  1.00  0.00     0.241 C 
HETATM   14  O1  UNL     1      16.705  -0.454  15.598  1.00  0.00    -0.271 OA
ATOM     15  H1  UNL     1      17.763   1.893  13.687  1.00  0.00     0.162 HD
BRANCH  13  16
HETATM   16  C2  UNL     1      17.216   1.705  16.370  1.00  0.00     0.266 C 
BRANCH  16  17
HETATM   17  O2  UNL     1      18.539   1.866  16.752  1.00  0.00    -0.392 OA
ATOM     18  H2  UNL     1      18.903   2.654  16.367  1.00  0.00     0.210 HD
ENDBRANCH  16  17
ENDBRANCH  13  16
ENDBRANCH  11  12
ENDBRANCH   1  11
BRANCH   7  19
HETATM   19  C9  UNL     1      20.814   4.764  12.249  1.00  0.00     0.217 C 
BRANCH  19  20
HETATM   20  O4  UNL     1      20.507   4.908  13.510  1.00  0.00    -0.333 OA
ATOM     21  H4  UNL     1      19.898   5.618  13.680  1.00  0.00     0.220 HD
ENDBRANCH  19  20
BRANCH  19  22
HETATM   22  N3  UNL     1      22.048   5.176  11.793  1.00  0.00    -0.348 N 
HETATM   23  C10 UNL     1      23.255   4.583  11.373  1.00  0.00     0.126 C 
HETATM   24  C11 UNL     1      24.275   5.368  12.248  1.00  0.00     0.021 C 
HETATM   25  C12 UNL     1      23.615   6.711  12.478  1.00  0.00     0.021 C 
HETATM   26  C13 UNL     1      22.339   6.645  11.643  1.00  0.00     0.126 C 
ENDBRANCH  19  22
ENDBRANCH   7  19
TORSDOF 7
ENDMDL
MODEL 4
REMARK VINA RESULT: -6.879761652      2.536      5.285
REMARK  7 active torsions:
REMARK  status: ('A' for Active; 'I' for Inactive)
REMARK    1  A    between atoms: C1_2  and  C2_3 
REMARK       I    between atoms: C1_2  and  N1_6 
REMARK    2  A    between atoms: C2_3  and  O2_4 
REMARK    3  A    between atoms: N1_6  and  C3_8 
REMARK    4  A    between atoms: C3_8  and  C4_9 
REMARK    5  A    between atoms: N2_15  and  C9_16 
REMARK    6  A    between atoms: C9_16  and  O4_17 
REMARK    7  A    between atoms: C9_16  and  N3_19 
ROOT
HETATM    1  C4  UNL     1      18.543   0.867  12.073  1.00  0.00     0.167 C 
HETATM    2  C5  UNL     1      18.321   0.559  10.627  1.00  0.00     0.205 C 
HETATM    3  O3  UNL     1      17.868   1.744  10.101  1.00  0.00    -0.352 OA
HETATM    4  C6  UNL     1      18.379   2.750  10.879  1.00  0.00     0.167 C 
HETATM    5  C7  UNL     1      19.647   3.377  10.329  1.00  0.00     0.088 C 
HETATM    6  C8  UNL     1      19.686   4.850  10.648  1.00  0.00     0.131 C 
HETATM    7  N2  UNL     1      19.136   5.117  11.976  1.00  0.00    -0.347 N 
HETATM    8  C14 UNL     1      17.834   4.647  12.296  1.00  0.00     0.131 C 
HETATM    9  C15 UNL     1      17.328   3.853  11.081  1.00  0.00     0.088 C 
HETATM   10  O5  UNL     1      18.666   2.252  12.143  1.00  0.00    -0.346 OA
ENDROOT
BRANCH   1  11
HETATM   11  C3  UNL     1      17.411   0.411  12.946  1.00  0.00     0.156 C 
BRANCH  11  12
HETATM   12  N1  UNL     1      17.355   1.227  14.120  1.00  0.00    -0.357 N 
HETATM   13  C1  UNL     1      17.018   0.689  15.395  1.00  0.00     0.241 C 
HETATM   14  O1  UNL     1      16.768  -0.535  15.470  1.00  0.00    -0.271 OA
ATOM     15  H1  UNL     1      17.562   2.223  14.042  1.00  0.00     0.162 HD
BRANCH  13  16
HETATM   16  C2  UNL     1      16.951   1.505  16.620  1.00  0.00     0.266 C 
BRANCH  16  17
HETATM   17  O2  UNL     1      16.595   0.722  17.706  1.00  0.00    -0.392 OA
ATOM     18  H2  UNL     1      15.699   0.898  17.965  1.00  0.00     0.210 HD
ENDBRANCH  16  17
ENDBRANCH  13  16
ENDBRANCH  11  12
ENDBRANCH   1  11
BRANCH   7  19
HETATM   19  C9  UNL     1      19.931   5.833  12.878  1.00  0.00     0.217 C 
BRANCH  19  20
HETATM   20  O4  UNL     1      21.101   5.296  13.097  1.00  0.00    -0.333 OA
ATOM     21  H4  UNL     1      21.828   5.901  12.998  1.00  0.00     0.220 HD
ENDBRANCH  19  20
BRANCH  19  22
HETATM   22  N3  UNL     1      19.584   7.003  13.519  1.00  0.00    -0.348 N 
HETATM   23  C10 UNL     1      19.626   7.525  14.827  1.00  0.00     0.126 C 
HETATM   24  C11 UNL     1      18.156   8.016  14.982  1.00  0.00     0.021 C 
HETATM   25  C12 UNL     1      17.722   8.350  13.571  1.00  0.00     0.021 C 
HETATM   26  C13 UNL     1      18.982   8.138  12.736  1.00  0.00     0.126 C 
ENDBRANCH  19  22
ENDBRANCH   7  19
TORSDOF 7
ENDMDL
MODEL 5
REMARK VINA RESULT: -6.860605242      2.625      6.468
REMARK  7 active torsions:
REMARK  status: ('A' for Active; 'I' for Inactive)
REMARK    1  A    between atoms: C1_2  and  C2_3 
REMARK       I    between atoms: C1_2  and  N1_6 
REMARK    2  A    between atoms: C2_3  and  O2_4 
REMARK    3  A    between atoms: N1_6  and  C3_8 
REMARK    4  A    between atoms: C3_8  and  C4_9 
REMARK    5  A    between atoms: N2_15  and  C9_16 
REMARK    6  A    between atoms: C9_16  and  O4_17 
REMARK    7  A    between atoms: C9_16  and  N3_19 
ROOT
HETATM    1  C4  UNL     1      17.550   0.950  11.308  1.00  0.00     0.167 C 
HETATM    2  C5  UNL     1      16.252   1.377  10.699  1.00  0.00     0.205 C 
HETATM    3  O3  UNL     1      16.129   2.693  11.071  1.00  0.00    -0.352 OA
HETATM    4  C6  UNL     1      17.397   3.180  11.254  1.00  0.00     0.167 C 
HETATM    5  C7  UNL     1      17.957   3.919  10.053  1.00  0.00     0.088 C 
HETATM    6  C8  UNL     1      18.834   5.061  10.502  1.00  0.00     0.131 C 
HETATM    7  N2  UNL     1      19.607   4.698  11.688  1.00  0.00    -0.347 N 
HETATM    8  C14 UNL     1      18.929   4.206  12.835  1.00  0.00     0.131 C 
HETATM    9  C15 UNL     1      17.437   4.113  12.474  1.00  0.00     0.088 C 
HETATM   10  O5  UNL     1      18.255   2.127  11.542  1.00  0.00    -0.346 OA
ENDROOT
BRANCH   1  11
HETATM   11  C3  UNL     1      17.369   0.200  12.595  1.00  0.00     0.156 C 
BRANCH  11  12
HETATM   12  N1  UNL     1      17.405   1.119  13.692  1.00  0.00    -0.357 N 
HETATM   13  C1  UNL     1      17.117   0.711  15.026  1.00  0.00     0.241 C 
HETATM   14  O1  UNL     1      16.827  -0.491  15.224  1.00  0.00    -0.271 OA
ATOM     15  H1  UNL     1      17.644   2.095  13.513  1.00  0.00     0.162 HD
BRANCH  13  16
HETATM   16  C2  UNL     1      17.146   1.634  16.173  1.00  0.00     0.266 C 
BRANCH  16  17
HETATM   17  O2  UNL     1      18.409   1.661  16.743  1.00  0.00    -0.392 OA
ATOM     18  H2  UNL     1      18.607   2.529  17.074  1.00  0.00     0.210 HD
ENDBRANCH  16  17
ENDBRANCH  13  16
ENDBRANCH  11  12
ENDBRANCH   1  11
BRANCH   7  19
HETATM   19  C9  UNL     1      20.997   4.855  11.633  1.00  0.00     0.217 C 
BRANCH  19  20
HETATM   20  O4  UNL     1      21.547   5.127  12.787  1.00  0.00    -0.333 OA
ATOM     21  H4  UNL     1      22.114   5.890  12.773  1.00  0.00     0.220 HD
ENDBRANCH  19  20
BRANCH  19  22
HETATM   22  N3  UNL     1      21.784   4.750  10.507  1.00  0.00    -0.348 N 
HETATM   23  C10 UNL     1      22.103   3.768   9.547  1.00  0.00     0.126 C 
HETATM   24  C11 UNL     1      23.658   3.840   9.577  1.00  0.00     0.021 C 
HETATM   25  C12 UNL     1      23.960   5.267   9.979  1.00  0.00     0.021 C 
HETATM   26  C13 UNL     1      22.588   5.933  10.041  1.00  0.00     0.126 C 
ENDBRANCH  19  22
ENDBRANCH   7  19
TORSDOF 7
ENDMDL
