MODEL 1
REMARK VINA RESULT: -5.024715194      0.000      0.000
REMARK  3 active torsions:
REMARK  status: ('A' for Active; 'I' for Inactive)
REMARK    1  A    between atoms: N1_1  and  N2_4 
REMARK    2  A    between atoms: N2_4  and  C1_5 
REMARK    3  A    between atoms: N4_11  and  C5_13 
ROOT
HETATM    1  C1  UNL     1      79.229   5.589 -40.273  1.00  0.00     0.167 C 
HETATM    2  C2  UNL     1      78.126   4.636 -40.623  1.00  0.00     0.050 C 
HETATM    3  C3  UNL     1      78.798   3.290 -40.449  1.00  0.00     0.123 C 
HETATM    4  N3  UNL     1      80.065   3.529 -41.155  1.00  0.00    -0.378 N 
ATOM      5  H3  UNL     1      80.565   2.895 -41.779  1.00  0.00     0.160 HD
HETATM    6  C4  UNL     1      80.434   4.852 -40.766  1.00  0.00     0.100 C 
HETATM    7  N4  UNL     1      81.620   5.374 -40.817  1.00  0.00    -0.323 N 
ATOM      8  H4  UNL     1      81.750   6.337 -40.507  1.00  0.00     0.169 HD
ENDROOT
BRANCH   1   9
HETATM    9  N2  UNL     1      79.011   6.812 -40.996  1.00  0.00    -0.136 NA
BRANCH   9  10
HETATM   10  N1  UNL     1      78.189   6.611 -42.073  1.00  0.00    -0.348 N 
ATOM     11  H12 UNL     1      78.531   6.436 -43.018  1.00  0.00     0.172 HD
ATOM     12  H11 UNL     1      77.207   6.662 -41.803  1.00  0.00     0.172 HD
ENDBRANCH   9  10
ENDBRANCH   1   9
BRANCH   7  13
HETATM   13  C5  UNL     1      82.733   4.651 -41.286  1.00  0.00     0.354 C 
HETATM   14  O1  UNL     1      82.753   4.268 -42.473  1.00  0.00    -0.283 OA
ENDBRANCH   7  13
TORSDOF 3
ENDMDL
MODEL 2
REMARK VINA RESULT: -5.008758245      3.331      4.234
REMARK  3 active torsions:
REMARK  status: ('A' for Active; 'I' for Inactive)
REMARK    1  A    between atoms: N1_1  and  N2_4 
REMARK    2  A    between atoms: N2_4  and  C1_5 
REMARK    3  A    between atoms: N4_11  and  C5_13 
ROOT
HETATM    1  C1  UNL     1      83.025   3.727 -40.191  1.00  0.00     0.167 C 
HETATM    2  C2  UNL     1      81.687   3.366 -39.622  1.00  0.00     0.050 C 
HETATM    3  C3  UNL     1      81.950   2.001 -39.022  1.00  0.00     0.123 C 
HETATM    4  N3  UNL     1      82.683   1.360 -40.124  1.00  0.00    -0.378 N 
ATOM      5  H3  UNL     1      82.594   0.403 -40.465  1.00  0.00     0.160 HD
HETATM    6  C4  UNL     1      83.547   2.388 -40.608  1.00  0.00     0.100 C 
HETATM    7  N4  UNL     1      84.629   2.229 -41.306  1.00  0.00    -0.323 N 
ATOM      8  H4  UNL     1      85.159   3.052 -41.592  1.00  0.00     0.169 HD
ENDROOT
BRANCH   1   9
HETATM    9  N2  UNL     1      82.814   4.598 -41.315  1.00  0.00    -0.136 NA
BRANCH   9  10
HETATM   10  N1  UNL     1      81.753   4.180 -42.074  1.00  0.00    -0.348 N 
ATOM     11  H12 UNL     1      81.243   3.313 -41.901  1.00  0.00     0.172 HD
ATOM     12  H11 UNL     1      81.548   4.844 -42.820  1.00  0.00     0.172 HD
ENDBRANCH   9  10
ENDBRANCH   1   9
BRANCH   7  13
HETATM   13  C5  UNL     1      85.092   0.953 -41.681  1.00  0.00     0.354 C 
HETATM   14  O1  UNL     1      85.682   0.248 -40.839  1.00  0.00    -0.283 OA
ENDBRANCH   7  13
TORSDOF 3
ENDMDL
MODEL 3
REMARK VINA RESULT: -4.922119670      3.834      4.906
REMARK  3 active torsions:
REMARK  status: ('A' for Active; 'I' for Inactive)
REMARK    1  A    between atoms: N1_1  and  N2_4 
REMARK    2  A    between atoms: N2_4  and  C1_5 
REMARK    3  A    between atoms: N4_11  and  C5_13 
ROOT
HETATM    1  C1  UNL     1      79.290   6.606 -39.684  1.00  0.00     0.167 C 
HETATM    2  C2  UNL     1      78.075   6.884 -40.516  1.00  0.00     0.050 C 
HETATM    3  C3  UNL     1      77.868   8.368 -40.296  1.00  0.00     0.123 C 
HETATM    4  N3  UNL     1      78.019   8.447 -38.836  1.00  0.00    -0.378 N 
ATOM      5  H3  UNL     1      77.472   9.001 -38.177  1.00  0.00     0.160 HD
HETATM    6  C4  UNL     1      79.109   7.570 -38.553  1.00  0.00     0.100 C 
HETATM    7  N4  UNL     1      79.854   7.574 -37.492  1.00  0.00    -0.323 N 
ATOM      8  H4  UNL     1      80.605   6.888 -37.411  1.00  0.00     0.169 HD
ENDROOT
BRANCH   1   9
HETATM    9  N2  UNL     1      79.228   5.240 -39.243  1.00  0.00    -0.136 NA
BRANCH   9  10
HETATM   10  N1  UNL     1      80.434   4.611 -39.406  1.00  0.00    -0.348 N 
ATOM     11  H12 UNL     1      80.670   3.722 -38.966  1.00  0.00     0.172 HD
ATOM     12  H11 UNL     1      81.050   5.147 -40.017  1.00  0.00     0.172 HD
ENDBRANCH   9  10
ENDBRANCH   1   9
BRANCH   7  13
HETATM   13  C5  UNL     1      79.656   8.496 -36.446  1.00  0.00     0.354 C 
HETATM   14  O1  UNL     1      79.998   9.683 -36.609  1.00  0.00    -0.283 OA
ENDBRANCH   7  13
TORSDOF 3
ENDMDL
MODEL 4
REMARK VINA RESULT: -4.915148551      3.731      4.553
REMARK  3 active torsions:
REMARK  status: ('A' for Active; 'I' for Inactive)
REMARK    1  A    between atoms: N1_1  and  N2_4 
REMARK    2  A    between atoms: N2_4  and  C1_5 
REMARK    3  A    between atoms: N4_11  and  C5_13 
ROOT
HETATM    1  C1  UNL     1      78.598   6.560 -40.535  1.00  0.00     0.167 C 
HETATM    2  C2  UNL     1      78.176   7.997 -40.594  1.00  0.00     0.050 C 
HETATM    3  C3  UNL     1      78.282   8.423 -39.145  1.00  0.00     0.123 C 
HETATM    4  N3  UNL     1      77.611   7.294 -38.483  1.00  0.00    -0.378 N 
ATOM      5  H3  UNL     1      76.959   7.324 -37.699  1.00  0.00     0.160 HD
HETATM    6  C4  UNL     1      78.081   6.148 -39.192  1.00  0.00     0.100 C 
HETATM    7  N4  UNL     1      78.079   4.921 -38.774  1.00  0.00    -0.323 N 
ATOM      8  H4  UNL     1      78.445   4.189 -39.383  1.00  0.00     0.169 HD
ENDROOT
BRANCH   1   9
HETATM    9  N2  UNL     1      77.943   5.857 -41.604  1.00  0.00    -0.136 NA
BRANCH   9  10
HETATM   10  N1  UNL     1      77.605   6.708 -42.623  1.00  0.00    -0.348 N 
ATOM     11  H12 UNL     1      77.883   7.688 -42.654  1.00  0.00     0.172 HD
ATOM     12  H11 UNL     1      77.046   6.232 -43.331  1.00  0.00     0.172 HD
ENDBRANCH   9  10
ENDBRANCH   1   9
BRANCH   7  13
HETATM   13  C5  UNL     1      77.585   4.568 -37.503  1.00  0.00     0.354 C 
HETATM   14  O1  UNL     1      76.457   4.970 -37.155  1.00  0.00    -0.283 OA
ENDBRANCH   7  13
TORSDOF 3
ENDMDL
MODEL 5
REMARK VINA RESULT: -4.854124945      3.615      4.146
REMARK  3 active torsions:
REMARK  status: ('A' for Active; 'I' for Inactive)
REMARK    1  A    between atoms: N1_1  and  N2_4 
REMARK    2  A    between atoms: N2_4  and  C1_5 
REMARK    3  A    between atoms: N4_11  and  C5_13 
ROOT
HETATM    1  C1  UNL     1      77.868   6.644 -39.746  1.00  0.00     0.167 C 
HETATM    2  C2  UNL     1      78.322   5.267 -40.123  1.00  0.00     0.050 C 
HETATM    3  C3  UNL     1      78.761   4.697 -38.791  1.00  0.00     0.123 C 
HETATM    4  N3  UNL     1      79.557   5.816 -38.269  1.00  0.00    -0.378 N 
ATOM      5  H3  UNL     1      80.445   5.776 -37.767  1.00  0.00     0.160 HD
HETATM    6  C4  UNL     1      78.802   6.974 -38.624  1.00  0.00     0.100 C 
HETATM    7  N4  UNL     1      78.882   8.150 -38.084  1.00  0.00    -0.323 N 
ATOM      8  H4  UNL     1      78.283   8.898 -38.434  1.00  0.00     0.169 HD
ENDROOT
BRANCH   1   9
HETATM    9  N2  UNL     1      78.059   7.506 -40.880  1.00  0.00    -0.136 NA
BRANCH   9  10
HETATM   10  N1  UNL     1      78.151   6.785 -42.041  1.00  0.00    -0.348 N 
ATOM     11  H12 UNL     1      77.393   6.713 -42.720  1.00  0.00     0.172 HD
ATOM     12  H11 UNL     1      79.064   6.339 -42.128  1.00  0.00     0.172 HD
ENDBRANCH   9  10
ENDBRANCH   1   9
BRANCH   7  13
HETATM   13  C5  UNL     1      79.773   8.426 -37.030  1.00  0.00     0.354 C 
HETATM   14  O1  UNL     1      79.773   9.561 -36.513  1.00  0.00    -0.283 OA
ENDBRANCH   7  13
TORSDOF 3
ENDMDL
