MODEL 1
REMARK VINA RESULT: -9.603634841      0.000      0.000
REMARK  7 active torsions:
REMARK  status: ('A' for Active; 'I' for Inactive)
REMARK    1  A    between atoms: C11_11  and  C12_12 
REMARK    2  A    between atoms: C12_12  and  C13_13 
REMARK    3  A    between atoms: C13_13  and  C14_14 
REMARK    4  A    between atoms: C14_14  and  C15_15 
REMARK    5  A    between atoms: C16_16  and  C17_17 
REMARK    6  A    between atoms: C17_17  and  C18_18 
REMARK    7  A    between atoms: C18_18  and  N1_19 
ROOT
HETATM    1  C1  UNL     1      63.556  47.646  35.118  1.00  0.00     0.015 C 
HETATM    2  C2  UNL     1      65.017  47.878  34.710  1.00  0.00    -0.044 C 
HETATM    3  C3  UNL     1      65.335  49.305  35.183  1.00  0.00     0.015 C 
HETATM    4  C4  UNL     1      65.936  46.961  35.422  1.00  0.00     0.009 C 
HETATM    5  C5  UNL     1      66.402  45.778  34.666  1.00  0.00     0.001 C 
HETATM    6  C6  UNL     1      66.654  46.016  33.207  1.00  0.00     0.005 C 
HETATM    7  C7  UNL     1      65.365  46.541  32.610  1.00  0.00    -0.005 C 
HETATM    8  C8  UNL     1      65.571  46.769  31.152  1.00  0.00    -0.006 C 
HETATM    9  C9  UNL     1      65.866  45.550  30.356  1.00  0.00     0.006 C 
HETATM   10  C10 UNL     1      65.489  46.007  28.938  1.00  0.00     0.005 C 
HETATM   11  C11 UNL     1      64.548  47.180  29.110  1.00  0.00    -0.010 C 
HETATM   12  C19 UNL     1      64.207  47.188  30.578  1.00  0.00    -0.006 C 
HETATM   13  C20 UNL     1      63.912  48.542  31.123  1.00  0.00     0.006 C 
HETATM   14  C21 UNL     1      63.804  48.418  32.637  1.00  0.00     0.006 C 
HETATM   15  C22 UNL     1      65.084  47.876  33.239  1.00  0.00    -0.002 C 
ENDROOT
BRANCH  11  16
HETATM   16  C12 UNL     1      63.350  46.962  28.217  1.00  0.00     0.006 C 
BRANCH  16  17
HETATM   17  C13 UNL     1      62.951  48.287  27.623  1.00  0.00     0.012 C 
BRANCH  17  18
HETATM   18  C14 UNL     1      61.686  48.831  28.253  1.00  0.00     0.094 C 
BRANCH  18  19
HETATM   19  C15 UNL     1      60.847  47.746  28.757  1.00  0.00    -0.107 C 
HETATM   20  C16 UNL     1      60.134  46.856  29.184  1.00  0.00    -0.105 C 
BRANCH  20  21
HETATM   21  C17 UNL     1      59.274  45.789  29.709  1.00  0.00     0.121 C 
BRANCH  21  22
HETATM   22  C18 UNL     1      57.823  46.202  29.463  1.00  0.00     0.241 C 
BRANCH  22  23
HETATM   23  N1  UNL     1      57.095  45.897  30.685  1.00  0.00    -0.079 N 
ATOM     24  H13 UNL     1      57.270  44.955  31.035  1.00  0.00     0.274 HD
ATOM     25  H12 UNL     1      57.443  46.402  31.500  1.00  0.00     0.274 HD
ATOM     26  H11 UNL     1      56.110  46.078  30.489  1.00  0.00     0.274 HD
ENDBRANCH  22  23
ENDBRANCH  21  22
ENDBRANCH  20  21
ENDBRANCH  18  19
ENDBRANCH  17  18
ENDBRANCH  16  17
ENDBRANCH  11  16
TORSDOF 7
ENDMDL
MODEL 2
REMARK VINA RESULT: -9.466251644      0.977      1.379
REMARK  7 active torsions:
REMARK  status: ('A' for Active; 'I' for Inactive)
REMARK    1  A    between atoms: C11_11  and  C12_12 
REMARK    2  A    between atoms: C12_12  and  C13_13 
REMARK    3  A    between atoms: C13_13  and  C14_14 
REMARK    4  A    between atoms: C14_14  and  C15_15 
REMARK    5  A    between atoms: C16_16  and  C17_17 
REMARK    6  A    between atoms: C17_17  and  C18_18 
REMARK    7  A    between atoms: C18_18  and  N1_19 
ROOT
HETATM    1  C1  UNL     1      63.708  47.240  34.855  1.00  0.00     0.015 C 
HETATM    2  C2  UNL     1      65.145  47.431  34.352  1.00  0.00    -0.044 C 
HETATM    3  C3  UNL     1      65.706  48.586  35.197  1.00  0.00     0.015 C 
HETATM    4  C4  UNL     1      65.982  46.240  34.621  1.00  0.00     0.009 C 
HETATM    5  C5  UNL     1      66.204  45.321  33.484  1.00  0.00     0.001 C 
HETATM    6  C6  UNL     1      66.357  45.988  32.149  1.00  0.00     0.005 C 
HETATM    7  C7  UNL     1      65.109  46.814  31.916  1.00  0.00    -0.005 C 
HETATM    8  C8  UNL     1      65.215  47.476  30.585  1.00  0.00    -0.006 C 
HETATM    9  C9  UNL     1      65.259  46.555  29.421  1.00  0.00     0.006 C 
HETATM   10  C10 UNL     1      64.828  47.483  28.275  1.00  0.00     0.005 C 
HETATM   11  C11 UNL     1      64.084  48.632  28.921  1.00  0.00    -0.010 C 
HETATM   12  C19 UNL     1      63.880  48.203  30.351  1.00  0.00    -0.006 C 
HETATM   13  C20 UNL     1      63.833  49.332  31.321  1.00  0.00     0.006 C 
HETATM   14  C21 UNL     1      63.843  48.739  32.723  1.00  0.00     0.006 C 
HETATM   15  C22 UNL     1      65.080  47.897  32.956  1.00  0.00    -0.002 C 
ENDROOT
BRANCH  11  16
HETATM   16  C12 UNL     1      62.793  48.846  28.168  1.00  0.00     0.006 C 
BRANCH  16  17
HETATM   17  C13 UNL     1      61.666  48.266  28.980  1.00  0.00     0.012 C 
BRANCH  17  18
HETATM   18  C14 UNL     1      60.917  47.191  28.220  1.00  0.00     0.094 C 
BRANCH  18  19
HETATM   19  C15 UNL     1      59.488  47.239  28.522  1.00  0.00    -0.107 C 
HETATM   20  C16 UNL     1      58.302  47.286  28.793  1.00  0.00    -0.105 C 
BRANCH  20  21
HETATM   21  C17 UNL     1      56.874  47.337  29.130  1.00  0.00     0.121 C 
BRANCH  21  22
HETATM   22  C18 UNL     1      56.533  46.058  29.893  1.00  0.00     0.241 C 
BRANCH  22  23
HETATM   23  N1  UNL     1      57.213  46.149  31.177  1.00  0.00    -0.079 N 
ATOM     24  H13 UNL     1      57.363  45.242  31.619  1.00  0.00     0.274 HD
ATOM     25  H12 UNL     1      58.194  46.415  31.096  1.00  0.00     0.274 HD
ATOM     26  H11 UNL     1      56.666  46.793  31.749  1.00  0.00     0.274 HD
ENDBRANCH  22  23
ENDBRANCH  21  22
ENDBRANCH  20  21
ENDBRANCH  18  19
ENDBRANCH  17  18
ENDBRANCH  16  17
ENDBRANCH  11  16
TORSDOF 7
ENDMDL
MODEL 3
REMARK VINA RESULT: -9.381467489      1.267      2.778
REMARK  7 active torsions:
REMARK  status: ('A' for Active; 'I' for Inactive)
REMARK    1  A    between atoms: C11_11  and  C12_12 
REMARK    2  A    between atoms: C12_12  and  C13_13 
REMARK    3  A    between atoms: C13_13  and  C14_14 
REMARK    4  A    between atoms: C14_14  and  C15_15 
REMARK    5  A    between atoms: C16_16  and  C17_17 
REMARK    6  A    between atoms: C17_17  and  C18_18 
REMARK    7  A    between atoms: C18_18  and  N1_19 
ROOT
HETATM    1  C1  UNL     1      68.340  45.912  33.297  1.00  0.00     0.015 C 
HETATM    2  C2  UNL     1      66.906  45.558  33.714  1.00  0.00    -0.044 C 
HETATM    3  C3  UNL     1      66.862  44.021  33.702  1.00  0.00     0.015 C 
HETATM    4  C4  UNL     1      66.615  45.998  35.098  1.00  0.00     0.009 C 
HETATM    5  C5  UNL     1      65.847  47.253  35.241  1.00  0.00     0.001 C 
HETATM    6  C6  UNL     1      64.782  47.469  34.207  1.00  0.00     0.005 C 
HETATM    7  C7  UNL     1      65.459  47.422  32.852  1.00  0.00    -0.005 C 
HETATM    8  C8  UNL     1      64.432  47.655  31.797  1.00  0.00    -0.006 C 
HETATM    9  C9  UNL     1      63.782  48.990  31.829  1.00  0.00     0.006 C 
HETATM   10  C10 UNL     1      63.242  49.106  30.395  1.00  0.00     0.005 C 
HETATM   11  C11 UNL     1      64.056  48.142  29.560  1.00  0.00    -0.010 C 
HETATM   12  C19 UNL     1      65.187  47.714  30.459  1.00  0.00    -0.006 C 
HETATM   13  C20 UNL     1      65.686  46.336  30.189  1.00  0.00     0.006 C 
HETATM   14  C21 UNL     1      66.660  45.971  31.300  1.00  0.00     0.006 C 
HETATM   15  C22 UNL     1      65.995  46.033  32.659  1.00  0.00    -0.002 C 
ENDROOT
BRANCH  11  16
HETATM   16  C12 UNL     1      64.517  48.864  28.316  1.00  0.00     0.006 C 
BRANCH  16  17
HETATM   17  C13 UNL     1      63.318  49.131  27.447  1.00  0.00     0.012 C 
BRANCH  17  18
HETATM   18  C14 UNL     1      62.659  47.848  26.984  1.00  0.00     0.094 C 
BRANCH  18  19
HETATM   19  C15 UNL     1      61.481  47.546  27.794  1.00  0.00    -0.107 C 
HETATM   20  C16 UNL     1      60.505  47.275  28.470  1.00  0.00    -0.105 C 
BRANCH  20  21
HETATM   21  C17 UNL     1      59.327  46.938  29.278  1.00  0.00     0.121 C 
BRANCH  21  22
HETATM   22  C18 UNL     1      58.129  46.846  28.334  1.00  0.00     0.241 C 
BRANCH  22  23
HETATM   23  N1  UNL     1      57.380  48.083  28.496  1.00  0.00    -0.079 N 
ATOM     24  H13 UNL     1      57.595  48.782  27.784  1.00  0.00     0.274 HD
ATOM     25  H12 UNL     1      56.387  47.984  28.281  1.00  0.00     0.274 HD
ATOM     26  H11 UNL     1      57.557  48.407  29.447  1.00  0.00     0.274 HD
ENDBRANCH  22  23
ENDBRANCH  21  22
ENDBRANCH  20  21
ENDBRANCH  18  19
ENDBRANCH  17  18
ENDBRANCH  16  17
ENDBRANCH  11  16
TORSDOF 7
ENDMDL
MODEL 4
REMARK VINA RESULT: -9.029584654      1.387      2.223
REMARK  7 active torsions:
REMARK  status: ('A' for Active; 'I' for Inactive)
REMARK    1  A    between atoms: C11_11  and  C12_12 
REMARK    2  A    between atoms: C12_12  and  C13_13 
REMARK    3  A    between atoms: C13_13  and  C14_14 
REMARK    4  A    between atoms: C14_14  and  C15_15 
REMARK    5  A    between atoms: C16_16  and  C17_17 
REMARK    6  A    between atoms: C17_17  and  C18_18 
REMARK    7  A    between atoms: C18_18  and  N1_19 
ROOT
HETATM    1  C1  UNL     1      65.349  46.620  34.015  1.00  0.00     0.015 C 
HETATM    2  C2  UNL     1      66.518  46.206  33.112  1.00  0.00    -0.044 C 
HETATM    3  C3  UNL     1      67.658  47.170  33.477  1.00  0.00     0.015 C 
HETATM    4  C4  UNL     1      66.984  44.834  33.416  1.00  0.00     0.009 C 
HETATM    5  C5  UNL     1      66.515  43.763  32.511  1.00  0.00     0.001 C 
HETATM    6  C6  UNL     1      66.410  44.153  31.067  1.00  0.00     0.005 C 
HETATM    7  C7  UNL     1      65.477  45.344  30.993  1.00  0.00    -0.005 C 
HETATM    8  C8  UNL     1      65.329  45.748  29.566  1.00  0.00    -0.006 C 
HETATM    9  C9  UNL     1      64.692  44.737  28.684  1.00  0.00     0.006 C 
HETATM   10  C10 UNL     1      64.211  45.607  27.512  1.00  0.00     0.005 C 
HETATM   11  C11 UNL     1      64.122  47.020  28.046  1.00  0.00    -0.010 C 
HETATM   12  C19 UNL     1      64.288  46.880  29.537  1.00  0.00    -0.006 C 
HETATM   13  C20 UNL     1      64.921  48.059  30.190  1.00  0.00     0.006 C 
HETATM   14  C21 UNL     1      65.217  47.685  31.636  1.00  0.00     0.006 C 
HETATM   15  C22 UNL     1      66.136  46.483  31.717  1.00  0.00    -0.002 C 
ENDROOT
BRANCH  11  16
HETATM   16  C12 UNL     1      62.786  47.598  27.643  1.00  0.00     0.006 C 
BRANCH  16  17
HETATM   17  C13 UNL     1      61.943  47.759  28.879  1.00  0.00     0.012 C 
BRANCH  17  18
HETATM   18  C14 UNL     1      60.965  46.615  29.049  1.00  0.00     0.094 C 
BRANCH  18  19
HETATM   19  C15 UNL     1      59.592  47.067  28.826  1.00  0.00    -0.107 C 
HETATM   20  C16 UNL     1      58.443  47.424  28.647  1.00  0.00    -0.105 C 
BRANCH  20  21
HETATM   21  C17 UNL     1      57.054  47.844  28.424  1.00  0.00     0.121 C 
BRANCH  21  22
HETATM   22  C18 UNL     1      56.221  47.329  29.597  1.00  0.00     0.241 C 
BRANCH  22  23
HETATM   23  N1  UNL     1      56.554  45.921  29.752  1.00  0.00    -0.079 N 
ATOM     24  H13 UNL     1      57.461  45.674  29.356  1.00  0.00     0.274 HD
ATOM     25  H12 UNL     1      56.762  45.659  30.716  1.00  0.00     0.274 HD
ATOM     26  H11 UNL     1      55.779  45.394  29.348  1.00  0.00     0.274 HD
ENDBRANCH  22  23
ENDBRANCH  21  22
ENDBRANCH  20  21
ENDBRANCH  18  19
ENDBRANCH  17  18
ENDBRANCH  16  17
ENDBRANCH  11  16
TORSDOF 7
ENDMDL
MODEL 5
REMARK VINA RESULT: -9.001412799      1.452      2.451
REMARK  7 active torsions:
REMARK  status: ('A' for Active; 'I' for Inactive)
REMARK    1  A    between atoms: C11_11  and  C12_12 
REMARK    2  A    between atoms: C12_12  and  C13_13 
REMARK    3  A    between atoms: C13_13  and  C14_14 
REMARK    4  A    between atoms: C14_14  and  C15_15 
REMARK    5  A    between atoms: C16_16  and  C17_17 
REMARK    6  A    between atoms: C17_17  and  C18_18 
REMARK    7  A    between atoms: C18_18  and  N1_19 
ROOT
HETATM    1  C1  UNL     1      65.275  46.159  34.098  1.00  0.00     0.015 C 
HETATM    2  C2  UNL     1      66.387  46.356  33.061  1.00  0.00    -0.044 C 
HETATM    3  C3  UNL     1      67.335  47.389  33.692  1.00  0.00     0.015 C 
HETATM    4  C4  UNL     1      67.165  45.113  32.851  1.00  0.00     0.009 C 
HETATM    5  C5  UNL     1      66.827  44.320  31.650  1.00  0.00     0.001 C 
HETATM    6  C6  UNL     1      66.470  45.125  30.437  1.00  0.00     0.005 C 
HETATM    7  C7  UNL     1      65.305  46.015  30.818  1.00  0.00    -0.005 C 
HETATM    8  C8  UNL     1      64.906  46.818  29.628  1.00  0.00    -0.006 C 
HETATM    9  C9  UNL     1      64.395  46.031  28.476  1.00  0.00     0.006 C 
HETATM   10  C10 UNL     1      63.605  47.096  27.699  1.00  0.00     0.005 C 
HETATM   11  C11 UNL     1      63.286  48.191  28.694  1.00  0.00    -0.010 C 
HETATM   12  C19 UNL     1      63.655  47.612  30.036  1.00  0.00    -0.006 C 
HETATM   13  C20 UNL     1      64.099  48.628  31.031  1.00  0.00     0.006 C 
HETATM   14  C21 UNL     1      64.638  47.882  32.244  1.00  0.00     0.006 C 
HETATM   15  C22 UNL     1      65.791  46.976  31.866  1.00  0.00    -0.002 C 
ENDROOT
BRANCH  11  16
HETATM   16  C12 UNL     1      61.820  48.532  28.570  1.00  0.00     0.006 C 
BRANCH  16  17
HETATM   17  C13 UNL     1      61.068  47.281  28.201  1.00  0.00     0.012 C 
BRANCH  17  18
HETATM   18  C14 UNL     1      60.554  46.550  29.424  1.00  0.00     0.094 C 
BRANCH  18  19
HETATM   19  C15 UNL     1      59.093  46.567  29.465  1.00  0.00    -0.107 C 
HETATM   20  C16 UNL     1      57.877  46.602  29.503  1.00  0.00    -0.105 C 
BRANCH  20  21
HETATM   21  C17 UNL     1      56.411  46.651  29.558  1.00  0.00     0.121 C 
BRANCH  21  22
HETATM   22  C18 UNL     1      55.984  48.087  29.257  1.00  0.00     0.241 C 
BRANCH  22  23
HETATM   23  N1  UNL     1      56.816  48.541  28.153  1.00  0.00    -0.079 N 
ATOM     24  H13 UNL     1      57.419  49.327  28.398  1.00  0.00     0.274 HD
ATOM     25  H12 UNL     1      57.557  47.884  27.908  1.00  0.00     0.274 HD
ATOM     26  H11 UNL     1      56.184  48.744  27.378  1.00  0.00     0.274 HD
ENDBRANCH  22  23
ENDBRANCH  21  22
ENDBRANCH  20  21
ENDBRANCH  18  19
ENDBRANCH  17  18
ENDBRANCH  16  17
ENDBRANCH  11  16
TORSDOF 7
ENDMDL
