MODEL 1
REMARK VINA RESULT: -8.741334932      0.000      0.000
REMARK  7 active torsions:
REMARK  status: ('A' for Active; 'I' for Inactive)
REMARK       I    between atoms: C2_2  and  N1_4 
REMARK    1  A    between atoms: N1_4  and  C3_6 
REMARK    2  A    between atoms: C3_6  and  C4_7 
REMARK    3  A    between atoms: C3_6  and  C22_34 
REMARK       I    between atoms: C4_7  and  N2_9 
REMARK    4  A    between atoms: C8_13  and  C10_15 
REMARK       I    between atoms: C10_15  and  N3_17 
REMARK    5  A    between atoms: N3_17  and  C11_19 
REMARK    6  A    between atoms: C11_19  and  C13_21 
REMARK       I    between atoms: C13_21  and  N4_23 
REMARK    7  A    between atoms: N4_23  and  C14_25 
ROOT
HETATM    1  C4  UNL     1      17.464  19.427   6.518  1.00  0.00     0.244 C 
HETATM    2  O2  UNL     1      18.609  19.963   6.279  1.00  0.00    -0.271 OA
HETATM    3  N2  UNL     1      16.595  20.004   7.477  1.00  0.00    -0.332 N 
HETATM    4  C5  UNL     1      15.302  19.564   7.925  1.00  0.00     0.127 C 
HETATM    5  C6  UNL     1      15.423  19.676   9.435  1.00  0.00     0.023 C 
HETATM    6  C7  UNL     1      16.340  20.865   9.596  1.00  0.00     0.042 C 
HETATM    7  C8  UNL     1      16.860  21.207   8.225  1.00  0.00     0.112 C 
HETATM    8  C9  UNL     1      18.328  21.546   8.305  1.00  0.00     0.049 C 
ENDROOT
BRANCH   7   9
HETATM    9  C10 UNL     1      16.192  22.400   7.642  1.00  0.00     0.246 C 
HETATM   10  O3  UNL     1      16.814  23.474   7.632  1.00  0.00    -0.271 OA
HETATM   11  N3  UNL     1      14.893  22.293   7.125  1.00  0.00    -0.346 N 
ATOM     12  H3  UNL     1      14.425  21.386   7.158  1.00  0.00     0.163 HD
BRANCH  11  13
HETATM   13  C11 UNL     1      14.189  23.419   6.547  1.00  0.00     0.172 C 
HETATM   14  C12 UNL     1      14.431  23.367   5.035  1.00  0.00     0.042 C 
BRANCH  13  15
HETATM   15  C13 UNL     1      12.763  23.292   6.867  1.00  0.00     0.240 C 
HETATM   16  O4  UNL     1      12.236  22.164   6.841  1.00  0.00    -0.271 OA
HETATM   17  N4  UNL     1      11.975  24.412   7.202  1.00  0.00    -0.354 N 
ATOM     18  H4  UNL     1      12.417  25.331   7.221  1.00  0.00     0.162 HD
BRANCH  17  19
HETATM   19  C14 UNL     1      10.549  24.315   7.522  1.00  0.00     0.093 C 
HETATM   20  C15 UNL     1       9.707  24.288   6.264  1.00  0.00     0.026 C 
HETATM   21  C16 UNL     1       9.546  25.686   5.745  1.00  0.00     0.004 C 
HETATM   22  C17 UNL     1       8.646  26.410   6.717  1.00  0.00     0.021 C 
HETATM   23  C18 UNL     1       8.834  26.053   8.138  1.00  0.00     0.092 C 
HETATM   24 CL1  UNL     1       7.437  25.131   8.798  1.00  0.00    -0.124 Cl
HETATM   25  C19 UNL     1      10.112  25.359   8.486  1.00  0.00    -0.010 C 
HETATM   26  C20 UNL     1       9.870  24.713   9.863  1.00  0.00     0.018 C 
HETATM   27  C21 UNL     1      11.166  26.427   8.761  1.00  0.00     0.018 C 
ENDBRANCH  17  19
ENDBRANCH  13  15
ENDBRANCH  11  13
ENDBRANCH   7   9
BRANCH   1  28
HETATM   28  C3  UNL     1      17.195  18.211   5.722  1.00  0.00     0.180 C 
BRANCH  28  29
HETATM   29  N1  UNL     1      18.479  17.543   5.385  1.00  0.00    -0.348 N 
HETATM   30  C2  UNL     1      18.649  16.144   5.574  1.00  0.00     0.214 C 
HETATM   31  C1  UNL     1      19.957  15.547   5.216  1.00  0.00     0.117 C 
HETATM   32  O1  UNL     1      17.701  15.474   6.032  1.00  0.00    -0.274 OA
ATOM     33  H1  UNL     1      19.250  18.096   5.012  1.00  0.00     0.163 HD
ENDBRANCH  28  29
BRANCH  28  34
HETATM   34  C22 UNL     1      16.577  18.496   4.365  1.00  0.00     0.018 C 
HETATM   35  C23 UNL     1      17.525  18.478   3.221  1.00  0.00     0.007 C 
HETATM   36  C24 UNL     1      16.710  18.310   1.948  1.00  0.00     0.000 C 
HETATM   37  C25 UNL     1      15.240  18.488   2.149  1.00  0.00     0.000 C 
HETATM   38  C26 UNL     1      14.968  19.705   2.987  1.00  0.00     0.000 C 
HETATM   39  C27 UNL     1      15.749  19.729   4.285  1.00  0.00     0.007 C 
ENDBRANCH  28  34
ENDBRANCH   1  28
TORSDOF 7
ENDMDL
MODEL 2
REMARK VINA RESULT: -8.588058880      3.725      5.910
REMARK  7 active torsions:
REMARK  status: ('A' for Active; 'I' for Inactive)
REMARK       I    between atoms: C2_2  and  N1_4 
REMARK    1  A    between atoms: N1_4  and  C3_6 
REMARK    2  A    between atoms: C3_6  and  C4_7 
REMARK    3  A    between atoms: C3_6  and  C22_34 
REMARK       I    between atoms: C4_7  and  N2_9 
REMARK    4  A    between atoms: C8_13  and  C10_15 
REMARK       I    between atoms: C10_15  and  N3_17 
REMARK    5  A    between atoms: N3_17  and  C11_19 
REMARK    6  A    between atoms: C11_19  and  C13_21 
REMARK       I    between atoms: C13_21  and  N4_23 
REMARK    7  A    between atoms: N4_23  and  C14_25 
ROOT
HETATM    1  C4  UNL     1      13.896  22.104   5.198  1.00  0.00     0.244 C 
HETATM    2  O2  UNL     1      14.598  22.949   4.528  1.00  0.00    -0.271 OA
HETATM    3  N2  UNL     1      12.544  22.391   5.510  1.00  0.00    -0.332 N 
HETATM    4  C5  UNL     1      11.594  21.620   6.264  1.00  0.00     0.127 C 
HETATM    5  C6  UNL     1      10.988  22.663   7.189  1.00  0.00     0.023 C 
HETATM    6  C7  UNL     1      11.023  23.907   6.334  1.00  0.00     0.042 C 
HETATM    7  C8  UNL     1      11.830  23.576   5.107  1.00  0.00     0.112 C 
HETATM    8  C9  UNL     1      12.738  24.731   4.764  1.00  0.00     0.049 C 
ENDROOT
BRANCH   7   9
HETATM    9  C10 UNL     1      10.979  23.349   3.910  1.00  0.00     0.246 C 
HETATM   10  O3  UNL     1      11.536  23.030   2.847  1.00  0.00    -0.271 OA
HETATM   11  N3  UNL     1       9.588  23.500   4.000  1.00  0.00    -0.346 N 
ATOM     12  H3  UNL     1       9.180  23.764   4.897  1.00  0.00     0.163 HD
BRANCH  11  13
HETATM   13  C11 UNL     1       8.707  23.295   2.868  1.00  0.00     0.172 C 
HETATM   14  C12 UNL     1       8.054  21.922   3.054  1.00  0.00     0.042 C 
BRANCH  13  15
HETATM   15  C13 UNL     1       7.706  24.367   2.856  1.00  0.00     0.240 C 
HETATM   16  O4  UNL     1       7.768  25.243   1.973  1.00  0.00    -0.271 OA
HETATM   17  N4  UNL     1       6.677  24.432   3.818  1.00  0.00    -0.354 N 
ATOM     18  H4  UNL     1       6.634  23.709   4.536  1.00  0.00     0.162 HD
BRANCH  17  19
HETATM   19  C14 UNL     1       5.666  25.493   3.831  1.00  0.00     0.093 C 
HETATM   20  C15 UNL     1       5.898  26.453   4.979  1.00  0.00     0.026 C 
HETATM   21  C16 UNL     1       5.359  25.855   6.244  1.00  0.00     0.004 C 
HETATM   22  C17 UNL     1       3.854  25.859   6.121  1.00  0.00     0.021 C 
HETATM   23  C18 UNL     1       3.329  25.587   4.767  1.00  0.00     0.092 C 
HETATM   24 CL1  UNL     1       2.577  27.042   4.024  1.00  0.00    -0.124 Cl
HETATM   25  C19 UNL     1       4.280  24.955   3.800  1.00  0.00    -0.010 C 
HETATM   26  C20 UNL     1       3.672  25.194   2.406  1.00  0.00     0.018 C 
HETATM   27  C21 UNL     1       4.199  23.442   3.984  1.00  0.00     0.018 C 
ENDBRANCH  17  19
ENDBRANCH  13  15
ENDBRANCH  11  13
ENDBRANCH   7   9
BRANCH   1  28
HETATM   28  C3  UNL     1      14.636  20.882   5.577  1.00  0.00     0.180 C 
BRANCH  28  29
HETATM   29  N1  UNL     1      15.901  21.257   6.259  1.00  0.00    -0.348 N 
HETATM   30  C2  UNL     1      15.967  21.363   7.676  1.00  0.00     0.214 C 
HETATM   31  C1  UNL     1      17.262  21.742   8.287  1.00  0.00     0.117 C 
HETATM   32  O1  UNL     1      14.940  21.135   8.349  1.00  0.00    -0.274 OA
ATOM     33  H1  UNL     1      16.736  21.442   5.703  1.00  0.00     0.163 HD
ENDBRANCH  28  29
BRANCH  28  34
HETATM   34  C22 UNL     1      15.103  20.059   4.390  1.00  0.00     0.018 C 
HETATM   35  C23 UNL     1      14.049  19.248   3.727  1.00  0.00     0.007 C 
HETATM   36  C24 UNL     1      14.551  18.883   2.339  1.00  0.00     0.000 C 
HETATM   37  C25 UNL     1      16.002  19.174   2.130  1.00  0.00     0.000 C 
HETATM   38  C26 UNL     1      16.807  18.693   3.305  1.00  0.00     0.000 C 
HETATM   39  C27 UNL     1      16.289  19.197   4.636  1.00  0.00     0.007 C 
ENDBRANCH  28  34
ENDBRANCH   1  28
TORSDOF 7
ENDMDL
MODEL 3
REMARK VINA RESULT: -8.536387953      4.098      9.576
REMARK  7 active torsions:
REMARK  status: ('A' for Active; 'I' for Inactive)
REMARK       I    between atoms: C2_2  and  N1_4 
REMARK    1  A    between atoms: N1_4  and  C3_6 
REMARK    2  A    between atoms: C3_6  and  C4_7 
REMARK    3  A    between atoms: C3_6  and  C22_34 
REMARK       I    between atoms: C4_7  and  N2_9 
REMARK    4  A    between atoms: C8_13  and  C10_15 
REMARK       I    between atoms: C10_15  and  N3_17 
REMARK    5  A    between atoms: N3_17  and  C11_19 
REMARK    6  A    between atoms: C11_19  and  C13_21 
REMARK       I    between atoms: C13_21  and  N4_23 
REMARK    7  A    between atoms: N4_23  and  C14_25 
ROOT
HETATM    1  C4  UNL     1      12.547  23.072   6.009  1.00  0.00     0.244 C 
HETATM    2  O2  UNL     1      13.172  24.156   5.709  1.00  0.00    -0.271 OA
HETATM    3  N2  UNL     1      13.256  21.850   6.120  1.00  0.00    -0.332 N 
HETATM    4  C5  UNL     1      12.767  20.529   6.407  1.00  0.00     0.127 C 
HETATM    5  C6  UNL     1      13.464  19.686   5.353  1.00  0.00     0.023 C 
HETATM    6  C7  UNL     1      14.784  20.401   5.193  1.00  0.00     0.042 C 
HETATM    7  C8  UNL     1      14.679  21.694   5.956  1.00  0.00     0.112 C 
HETATM    8  C9  UNL     1      15.313  22.811   5.163  1.00  0.00     0.049 C 
ENDROOT
BRANCH   7   9
HETATM    9  C10 UNL     1      15.401  21.649   7.255  1.00  0.00     0.246 C 
HETATM   10  O3  UNL     1      15.510  22.704   7.902  1.00  0.00    -0.271 OA
HETATM   11  N3  UNL     1      15.938  20.439   7.717  1.00  0.00    -0.346 N 
ATOM     12  H3  UNL     1      15.820  19.601   7.147  1.00  0.00     0.163 HD
BRANCH  11  13
HETATM   13  C11 UNL     1      16.653  20.333   8.972  1.00  0.00     0.172 C 
HETATM   14  C12 UNL     1      15.598  20.259  10.082  1.00  0.00     0.042 C 
BRANCH  13  15
HETATM   15  C13 UNL     1      17.479  19.122   8.937  1.00  0.00     0.240 C 
HETATM   16  O4  UNL     1      18.029  18.796   7.868  1.00  0.00    -0.271 OA
HETATM   17  N4  UNL     1      17.667  18.318  10.081  1.00  0.00    -0.354 N 
ATOM     18  H4  UNL     1      17.214  18.595  10.951  1.00  0.00     0.162 HD
BRANCH  17  19
HETATM   19  C14 UNL     1      18.484  17.102  10.073  1.00  0.00     0.093 C 
HETATM   20  C15 UNL     1      17.690  15.914   9.573  1.00  0.00     0.026 C 
HETATM   21  C16 UNL     1      16.831  15.388  10.684  1.00  0.00     0.004 C 
HETATM   22  C17 UNL     1      17.759  14.753  11.690  1.00  0.00     0.021 C 
HETATM   23  C18 UNL     1      19.055  15.439  11.876  1.00  0.00     0.092 C 
HETATM   24 CL1  UNL     1      20.431  14.482  11.224  1.00  0.00    -0.124 Cl
HETATM   25  C19 UNL     1      19.137  16.849  11.385  1.00  0.00    -0.010 C 
HETATM   26  C20 UNL     1      20.640  17.162  11.276  1.00  0.00     0.018 C 
HETATM   27  C21 UNL     1      18.650  17.765  12.504  1.00  0.00     0.018 C 
ENDBRANCH  17  19
ENDBRANCH  13  15
ENDBRANCH  11  13
ENDBRANCH   7   9
BRANCH   1  28
HETATM   28  C3  UNL     1      11.093  23.254   6.202  1.00  0.00     0.180 C 
BRANCH  28  29
HETATM   29  N1  UNL     1      10.509  23.902   4.999  1.00  0.00    -0.348 N 
HETATM   30  C2  UNL     1       9.969  23.125   3.937  1.00  0.00     0.214 C 
HETATM   31  C1  UNL     1       9.403  23.839   2.769  1.00  0.00     0.117 C 
HETATM   32  O1  UNL     1       9.991  21.880   4.025  1.00  0.00    -0.274 OA
ATOM     33  H1  UNL     1      10.494  24.919   4.934  1.00  0.00     0.163 HD
ENDBRANCH  28  29
BRANCH  28  34
HETATM   34  C22 UNL     1      10.744  24.212   7.326  1.00  0.00     0.018 C 
HETATM   35  C23 UNL     1      11.798  24.389   8.358  1.00  0.00     0.007 C 
HETATM   36  C24 UNL     1      11.499  25.677   9.109  1.00  0.00     0.000 C 
HETATM   37  C25 UNL     1      10.144  26.238   8.820  1.00  0.00     0.000 C 
HETATM   38  C26 UNL     1       9.105  25.154   8.868  1.00  0.00     0.000 C 
HETATM   39  C27 UNL     1       9.445  23.957   8.004  1.00  0.00     0.007 C 
ENDBRANCH  28  34
ENDBRANCH   1  28
TORSDOF 7
ENDMDL
MODEL 4
REMARK VINA RESULT: -8.208031919      3.335      5.693
REMARK  7 active torsions:
REMARK  status: ('A' for Active; 'I' for Inactive)
REMARK       I    between atoms: C2_2  and  N1_4 
REMARK    1  A    between atoms: N1_4  and  C3_6 
REMARK    2  A    between atoms: C3_6  and  C4_7 
REMARK    3  A    between atoms: C3_6  and  C22_34 
REMARK       I    between atoms: C4_7  and  N2_9 
REMARK    4  A    between atoms: C8_13  and  C10_15 
REMARK       I    between atoms: C10_15  and  N3_17 
REMARK    5  A    between atoms: N3_17  and  C11_19 
REMARK    6  A    between atoms: C11_19  and  C13_21 
REMARK       I    between atoms: C13_21  and  N4_23 
REMARK    7  A    between atoms: N4_23  and  C14_25 
ROOT
HETATM    1  C4  UNL     1      13.976  22.284   5.114  1.00  0.00     0.244 C 
HETATM    2  O2  UNL     1      14.612  22.887   4.171  1.00  0.00    -0.271 OA
HETATM    3  N2  UNL     1      12.818  22.872   5.679  1.00  0.00    -0.332 N 
HETATM    4  C5  UNL     1      11.980  22.401   6.748  1.00  0.00     0.127 C 
HETATM    5  C6  UNL     1      11.814  23.645   7.604  1.00  0.00     0.023 C 
HETATM    6  C7  UNL     1      11.832  24.749   6.574  1.00  0.00     0.042 C 
HETATM    7  C8  UNL     1      12.230  24.120   5.265  1.00  0.00     0.112 C 
HETATM    8  C9  UNL     1      13.197  25.022   4.537  1.00  0.00     0.049 C 
ENDROOT
BRANCH   7   9
HETATM    9  C10 UNL     1      11.074  23.931   4.349  1.00  0.00     0.246 C 
HETATM   10  O3  UNL     1      11.189  23.116   3.420  1.00  0.00    -0.271 OA
HETATM   11  N3  UNL     1       9.896  24.665   4.548  1.00  0.00    -0.346 N 
ATOM     12  H3  UNL     1       9.852  25.322   5.327  1.00  0.00     0.163 HD
BRANCH  11  13
HETATM   13  C11 UNL     1       8.737  24.526   3.689  1.00  0.00     0.172 C 
HETATM   14  C12 UNL     1       8.098  23.172   4.017  1.00  0.00     0.042 C 
BRANCH  13  15
HETATM   15  C13 UNL     1       7.817  25.634   3.965  1.00  0.00     0.240 C 
HETATM   16  O4  UNL     1       8.125  26.782   3.595  1.00  0.00    -0.271 OA
HETATM   17  N4  UNL     1       6.594  25.433   4.637  1.00  0.00    -0.354 N 
ATOM     18  H4  UNL     1       6.350  24.488   4.935  1.00  0.00     0.162 HD
BRANCH  17  19
HETATM   19  C14 UNL     1       5.657  26.522   4.928  1.00  0.00     0.093 C 
HETATM   20  C15 UNL     1       6.059  27.267   6.183  1.00  0.00     0.026 C 
HETATM   21  C16 UNL     1       5.610  26.492   7.386  1.00  0.00     0.004 C 
HETATM   22  C17 UNL     1       4.104  26.585   7.426  1.00  0.00     0.021 C 
HETATM   23  C18 UNL     1       3.433  26.566   6.110  1.00  0.00     0.092 C 
HETATM   24 CL1  UNL     1       2.705  28.157   5.694  1.00  0.00    -0.124 Cl
HETATM   25  C19 UNL     1       4.244  26.061   4.959  1.00  0.00    -0.010 C 
HETATM   26  C20 UNL     1       3.518  26.554   3.694  1.00  0.00     0.018 C 
HETATM   27  C21 UNL     1       4.087  24.543   4.905  1.00  0.00     0.018 C 
ENDBRANCH  17  19
ENDBRANCH  13  15
ENDBRANCH  11  13
ENDBRANCH   7   9
BRANCH   1  28
HETATM   28  C3  UNL     1      14.576  20.991   5.506  1.00  0.00     0.180 C 
BRANCH  28  29
HETATM   29  N1  UNL     1      15.830  21.234   6.264  1.00  0.00    -0.348 N 
HETATM   30  C2  UNL     1      15.842  21.215   7.686  1.00  0.00     0.214 C 
HETATM   31  C1  UNL     1      17.130  21.465   8.375  1.00  0.00     0.117 C 
HETATM   32  O1  UNL     1      14.778  20.992   8.299  1.00  0.00    -0.274 OA
ATOM     33  H1  UNL     1      16.696  21.416   5.757  1.00  0.00     0.163 HD
ENDBRANCH  28  29
BRANCH  28  34
HETATM   34  C22 UNL     1      15.030  20.149   4.328  1.00  0.00     0.018 C 
HETATM   35  C23 UNL     1      13.970  19.318   3.698  1.00  0.00     0.007 C 
HETATM   36  C24 UNL     1      14.454  18.929   2.310  1.00  0.00     0.000 C 
HETATM   37  C25 UNL     1      15.900  19.223   2.073  1.00  0.00     0.000 C 
HETATM   38  C26 UNL     1      16.726  18.771   3.244  1.00  0.00     0.000 C 
HETATM   39  C27 UNL     1      16.225  19.298   4.573  1.00  0.00     0.007 C 
ENDBRANCH  28  34
ENDBRANCH   1  28
TORSDOF 7
ENDMDL
MODEL 5
REMARK VINA RESULT: -8.176770154      4.629      6.957
REMARK  7 active torsions:
REMARK  status: ('A' for Active; 'I' for Inactive)
REMARK       I    between atoms: C2_2  and  N1_4 
REMARK    1  A    between atoms: N1_4  and  C3_6 
REMARK    2  A    between atoms: C3_6  and  C4_7 
REMARK    3  A    between atoms: C3_6  and  C22_34 
REMARK       I    between atoms: C4_7  and  N2_9 
REMARK    4  A    between atoms: C8_13  and  C10_15 
REMARK       I    between atoms: C10_15  and  N3_17 
REMARK    5  A    between atoms: N3_17  and  C11_19 
REMARK    6  A    between atoms: C11_19  and  C13_21 
REMARK       I    between atoms: C13_21  and  N4_23 
REMARK    7  A    between atoms: N4_23  and  C14_25 
ROOT
HETATM    1  C4  UNL     1      13.938  22.786   5.261  1.00  0.00     0.244 C 
HETATM    2  O2  UNL     1      14.275  23.963   4.867  1.00  0.00    -0.271 OA
HETATM    3  N2  UNL     1      12.584  22.498   5.564  1.00  0.00    -0.332 N 
HETATM    4  C5  UNL     1      11.991  21.280   6.045  1.00  0.00     0.127 C 
HETATM    5  C6  UNL     1      11.098  21.774   7.171  1.00  0.00     0.023 C 
HETATM    6  C7  UNL     1      10.664  23.129   6.665  1.00  0.00     0.042 C 
HETATM    7  C8  UNL     1      11.487  23.424   5.438  1.00  0.00     0.112 C 
HETATM    8  C9  UNL     1      11.923  24.868   5.450  1.00  0.00     0.049 C 
ENDROOT
BRANCH   7   9
HETATM    9  C10 UNL     1      10.721  23.234   4.179  1.00  0.00     0.246 C 
HETATM   10  O3  UNL     1      11.354  22.997   3.137  1.00  0.00    -0.271 OA
HETATM   11  N3  UNL     1       9.322  23.325   4.189  1.00  0.00    -0.346 N 
ATOM     12  H3  UNL     1       8.850  23.522   5.072  1.00  0.00     0.163 HD
BRANCH  11  13
HETATM   13  C11 UNL     1       8.521  23.152   2.995  1.00  0.00     0.172 C 
HETATM   14  C12 UNL     1       8.448  21.646   2.721  1.00  0.00     0.042 C 
BRANCH  13  15
HETATM   15  C13 UNL     1       7.190  23.717   3.240  1.00  0.00     0.240 C 
HETATM   16  O4  UNL     1       7.093  24.911   3.577  1.00  0.00    -0.271 OA
HETATM   17  N4  UNL     1       6.019  22.943   3.104  1.00  0.00    -0.354 N 
ATOM     18  H4  UNL     1       6.109  21.966   2.825  1.00  0.00     0.162 HD
BRANCH  17  19
HETATM   19  C14 UNL     1       4.677  23.481   3.345  1.00  0.00     0.093 C 
HETATM   20  C15 UNL     1       3.880  22.570   4.255  1.00  0.00     0.026 C 
HETATM   21  C16 UNL     1       3.332  21.426   3.456  1.00  0.00     0.004 C 
HETATM   22  C17 UNL     1       2.262  21.996   2.555  1.00  0.00     0.021 C 
HETATM   23  C18 UNL     1       2.540  23.344   2.019  1.00  0.00     0.092 C 
HETATM   24 CL1  UNL     1       1.458  24.594   2.729  1.00  0.00    -0.124 Cl
HETATM   25  C19 UNL     1       3.961  23.805   2.083  1.00  0.00    -0.010 C 
HETATM   26  C20 UNL     1       3.909  25.333   1.904  1.00  0.00     0.018 C 
HETATM   27  C21 UNL     1       4.671  23.311   0.825  1.00  0.00     0.018 C 
ENDBRANCH  17  19
ENDBRANCH  13  15
ENDBRANCH  11  13
ENDBRANCH   7   9
BRANCH   1  28
HETATM   28  C3  UNL     1      15.070  21.840   5.356  1.00  0.00     0.180 C 
BRANCH  28  29
HETATM   29  N1  UNL     1      14.686  20.541   4.747  1.00  0.00    -0.348 N 
HETATM   30  C2  UNL     1      14.456  20.426   3.347  1.00  0.00     0.214 C 
HETATM   31  C1  UNL     1      14.076  19.099   2.811  1.00  0.00     0.117 C 
HETATM   32  O1  UNL     1      14.580  21.439   2.628  1.00  0.00    -0.274 OA
ATOM     33  H1  UNL     1      14.586  19.718   5.340  1.00  0.00     0.163 HD
ENDBRANCH  28  29
BRANCH  28  34
HETATM   34  C22 UNL     1      15.437  21.470   6.781  1.00  0.00     0.018 C 
HETATM   35  C23 UNL     1      15.830  22.610   7.650  1.00  0.00     0.007 C 
HETATM   36  C24 UNL     1      15.704  22.153   9.095  1.00  0.00     0.000 C 
HETATM   37  C25 UNL     1      15.510  20.678   9.244  1.00  0.00     0.000 C 
HETATM   38  C26 UNL     1      16.473  19.931   8.365  1.00  0.00     0.000 C 
HETATM   39  C27 UNL     1      16.448  20.388   6.921  1.00  0.00     0.007 C 
ENDBRANCH  28  34
ENDBRANCH   1  28
TORSDOF 7
ENDMDL
