MODEL 1
REMARK VINA RESULT: -7.003256775      0.000      0.000
REMARK  7 active torsions:
REMARK  status: ('A' for Active; 'I' for Inactive)
REMARK    1  A    between atoms: C2_2  and  C3_3 
REMARK    2  A    between atoms: C3_3  and  C4_4 
REMARK    3  A    between atoms: C4_4  and  C5_5 
REMARK    4  A    between atoms: C6_6  and  C7_7 
REMARK    5  A    between atoms: C16_17  and  O2_18 
REMARK    6  A    between atoms: C17_20  and  O3_21 
REMARK    7  A    between atoms: C18_23  and  O4_24 
ROOT
HETATM    1  C7  UNL     1      -0.062  36.454   3.279  1.00  0.00     0.176 C 
HETATM    2  O1  UNL     1      -0.656  35.225   3.420  1.00  0.00    -0.368 OA
HETATM    3  C8  UNL     1      -0.708  34.875   4.762  1.00  0.00     0.067 C 
HETATM    4  C9  UNL     1       0.748  34.683   5.206  1.00  0.00     0.047 C 
HETATM    5  C10 UNL     1      -1.310  33.462   4.775  1.00  0.00     0.047 C 
HETATM    6  C11 UNL     1      -1.442  35.823   5.631  1.00  0.00     0.045 C 
HETATM    7  C12 UNL     1      -2.862  35.364   5.946  1.00  0.00     0.018 C 
HETATM    8  C13 UNL     1      -3.176  35.896   7.324  1.00  0.00     0.008 C 
HETATM    9  C14 UNL     1      -1.939  36.597   7.796  1.00  0.00     0.011 C 
HETATM   10  C15 UNL     1      -1.738  36.445   9.299  1.00  0.00     0.012 C 
HETATM   11  C16 UNL     1      -0.846  35.826   7.046  1.00  0.00     0.136 C 
HETATM   12  C17 UNL     1      -1.503  37.231   5.175  1.00  0.00     0.163 C 
HETATM   13  C18 UNL     1      -1.054  37.482   3.775  1.00  0.00     0.180 C 
ENDROOT
BRANCH  11  14
HETATM   14  O2  UNL     1      -0.786  34.576   7.597  1.00  0.00    -0.394 OA
ATOM     15  H2  UNL     1      -0.093  34.493   8.242  1.00  0.00     0.210 HD
ENDBRANCH  11  14
BRANCH  12  16
HETATM   16  O3  UNL     1      -2.814  37.757   5.277  1.00  0.00    -0.392 OA
ATOM     17  H3  UNL     1      -2.812  38.706   5.281  1.00  0.00     0.210 HD
ENDBRANCH  12  16
BRANCH  13  18
HETATM   18  O4  UNL     1      -2.126  37.520   2.885  1.00  0.00    -0.390 OA
ATOM     19  H4  UNL     1      -2.256  38.421   2.613  1.00  0.00     0.210 HD
ENDBRANCH  13  18
BRANCH   1  20
HETATM   20  C6  UNL     1       0.137  36.714   1.814  1.00  0.00     0.003 C 
HETATM   21  C5  UNL     1       1.314  36.888   1.272  1.00  0.00    -0.028 C 
BRANCH  21  22
HETATM   22  C4  UNL     1       1.469  37.143  -0.183  1.00  0.00     0.027 C 
BRANCH  22  23
HETATM   23  C3  UNL     1       2.934  37.011  -0.606  1.00  0.00     0.003 C 
BRANCH  23  24
HETATM   24  C2  UNL     1       3.640  36.276   0.513  1.00  0.00    -0.004 C 
HETATM   25  C1  UNL     1       4.925  35.670   0.008  1.00  0.00     0.005 C 
ENDBRANCH  23  24
ENDBRANCH  22  23
ENDBRANCH  21  22
ENDBRANCH   1  20
TORSDOF 7
ENDMDL
MODEL 2
REMARK VINA RESULT: -6.588209736      1.779      3.149
REMARK  7 active torsions:
REMARK  status: ('A' for Active; 'I' for Inactive)
REMARK    1  A    between atoms: C2_2  and  C3_3 
REMARK    2  A    between atoms: C3_3  and  C4_4 
REMARK    3  A    between atoms: C4_4  and  C5_5 
REMARK    4  A    between atoms: C6_6  and  C7_7 
REMARK    5  A    between atoms: C16_17  and  O2_18 
REMARK    6  A    between atoms: C17_20  and  O3_21 
REMARK    7  A    between atoms: C18_23  and  O4_24 
ROOT
HETATM    1  C7  UNL     1       0.918  36.425   1.701  1.00  0.00     0.176 C 
HETATM    2  O1  UNL     1       0.052  37.357   2.215  1.00  0.00    -0.368 OA
HETATM    3  C8  UNL     1      -0.947  36.727   2.943  1.00  0.00     0.067 C 
HETATM    4  C9  UNL     1      -1.766  35.921   1.925  1.00  0.00     0.047 C 
HETATM    5  C10 UNL     1      -1.884  37.860   3.387  1.00  0.00     0.047 C 
HETATM    6  C11 UNL     1      -0.473  35.894   4.071  1.00  0.00     0.045 C 
HETATM    7  C12 UNL     1      -0.593  36.597   5.420  1.00  0.00     0.018 C 
HETATM    8  C13 UNL     1      -0.847  35.509   6.436  1.00  0.00     0.008 C 
HETATM    9  C14 UNL     1      -0.920  34.224   5.667  1.00  0.00     0.011 C 
HETATM   10  C15 UNL     1      -1.927  33.255   6.274  1.00  0.00     0.012 C 
HETATM   11  C16 UNL     1      -1.425  34.712   4.304  1.00  0.00     0.136 C 
HETATM   12  C17 UNL     1       0.897  35.341   3.959  1.00  0.00     0.163 C 
HETATM   13  C18 UNL     1       1.735  35.898   2.858  1.00  0.00     0.180 C 
ENDROOT
BRANCH  11  14
HETATM   14  O2  UNL     1      -2.724  35.106   4.475  1.00  0.00    -0.394 OA
ATOM     15  H2  UNL     1      -2.845  35.643   5.249  1.00  0.00     0.210 HD
ENDBRANCH  11  14
BRANCH  12  16
HETATM   16  O3  UNL     1       1.632  35.522   5.156  1.00  0.00    -0.392 OA
ATOM     17  H3  UNL     1       2.047  34.716   5.437  1.00  0.00     0.210 HD
ENDBRANCH  12  16
BRANCH  13  18
HETATM   18  O4  UNL     1       2.568  36.922   3.307  1.00  0.00    -0.390 OA
ATOM     19  H4  UNL     1       3.184  37.130   2.615  1.00  0.00     0.210 HD
ENDBRANCH  13  18
BRANCH   1  20
HETATM   20  C6  UNL     1       1.872  37.128   0.780  1.00  0.00     0.003 C 
HETATM   21  C5  UNL     1       2.546  36.512  -0.157  1.00  0.00    -0.028 C 
BRANCH  21  22
HETATM   22  C4  UNL     1       3.481  37.243  -1.049  1.00  0.00     0.027 C 
BRANCH  22  23
HETATM   23  C3  UNL     1       4.626  36.333  -1.501  1.00  0.00     0.003 C 
BRANCH  23  24
HETATM   24  C2  UNL     1       4.992  35.478  -0.307  1.00  0.00    -0.004 C 
HETATM   25  C1  UNL     1       6.132  36.109   0.454  1.00  0.00     0.005 C 
ENDBRANCH  23  24
ENDBRANCH  22  23
ENDBRANCH  21  22
ENDBRANCH   1  20
TORSDOF 7
ENDMDL
MODEL 3
REMARK VINA RESULT: -6.496549813      8.987     11.371
REMARK  7 active torsions:
REMARK  status: ('A' for Active; 'I' for Inactive)
REMARK    1  A    between atoms: C2_2  and  C3_3 
REMARK    2  A    between atoms: C3_3  and  C4_4 
REMARK    3  A    between atoms: C4_4  and  C5_5 
REMARK    4  A    between atoms: C6_6  and  C7_7 
REMARK    5  A    between atoms: C16_17  and  O2_18 
REMARK    6  A    between atoms: C17_20  and  O3_21 
REMARK    7  A    between atoms: C18_23  and  O4_24 
ROOT
HETATM    1  C7  UNL     1      -3.355  30.292  -1.924  1.00  0.00     0.176 C 
HETATM    2  O1  UNL     1      -4.102  29.221  -1.504  1.00  0.00    -0.368 OA
HETATM    3  C8  UNL     1      -4.307  28.342  -2.558  1.00  0.00     0.067 C 
HETATM    4  C9  UNL     1      -5.191  29.091  -3.565  1.00  0.00     0.047 C 
HETATM    5  C10 UNL     1      -5.215  27.245  -1.983  1.00  0.00     0.047 C 
HETATM    6  C11 UNL     1      -3.075  27.806  -3.178  1.00  0.00     0.045 C 
HETATM    7  C12 UNL     1      -2.731  26.399  -2.697  1.00  0.00     0.018 C 
HETATM    8  C13 UNL     1      -2.043  25.720  -3.857  1.00  0.00     0.008 C 
HETATM    9  C14 UNL     1      -2.046  26.706  -4.986  1.00  0.00     0.011 C 
HETATM   10  C15 UNL     1      -2.202  26.022  -6.338  1.00  0.00     0.012 C 
HETATM   11  C16 UNL     1      -3.303  27.526  -4.671  1.00  0.00     0.136 C 
HETATM   12  C17 UNL     1      -1.857  28.642  -3.067  1.00  0.00     0.163 C 
HETATM   13  C18 UNL     1      -1.942  29.794  -2.123  1.00  0.00     0.180 C 
ENDROOT
BRANCH  11  14
HETATM   14  O2  UNL     1      -4.379  26.714  -4.898  1.00  0.00    -0.394 OA
ATOM     15  H2  UNL     1      -4.987  27.080  -5.529  1.00  0.00     0.210 HD
ENDBRANCH  11  14
BRANCH  12  16
HETATM   16  O3  UNL     1      -0.733  27.878  -2.670  1.00  0.00    -0.392 OA
ATOM     17  H3  UNL     1       0.081  28.300  -2.912  1.00  0.00     0.210 HD
ENDBRANCH  12  16
BRANCH  13  18
HETATM   18  O4  UNL     1      -1.410  29.480  -0.873  1.00  0.00    -0.390 OA
ATOM     19  H4  UNL     1      -1.445  28.537  -0.763  1.00  0.00     0.210 HD
ENDBRANCH  13  18
BRANCH   1  20
HETATM   20  C6  UNL     1      -3.308  31.298  -0.811  1.00  0.00     0.003 C 
HETATM   21  C5  UNL     1      -2.747  32.474  -0.932  1.00  0.00    -0.028 C 
BRANCH  21  22
HETATM   22  C4  UNL     1      -2.721  33.441   0.194  1.00  0.00     0.027 C 
BRANCH  22  23
HETATM   23  C3  UNL     1      -2.510  32.719   1.528  1.00  0.00     0.003 C 
BRANCH  23  24
HETATM   24  C2  UNL     1      -2.455  33.794   2.593  1.00  0.00    -0.004 C 
HETATM   25  C1  UNL     1      -2.269  35.148   1.956  1.00  0.00     0.005 C 
ENDBRANCH  23  24
ENDBRANCH  22  23
ENDBRANCH  21  22
ENDBRANCH   1  20
TORSDOF 7
ENDMDL
MODEL 4
REMARK VINA RESULT: -6.258367605     10.549     12.915
REMARK  7 active torsions:
REMARK  status: ('A' for Active; 'I' for Inactive)
REMARK    1  A    between atoms: C2_2  and  C3_3 
REMARK    2  A    between atoms: C3_3  and  C4_4 
REMARK    3  A    between atoms: C4_4  and  C5_5 
REMARK    4  A    between atoms: C6_6  and  C7_7 
REMARK    5  A    between atoms: C16_17  and  O2_18 
REMARK    6  A    between atoms: C17_20  and  O3_21 
REMARK    7  A    between atoms: C18_23  and  O4_24 
ROOT
HETATM    1  C7  UNL     1      -3.006  28.801  -3.744  1.00  0.00     0.176 C 
HETATM    2  O1  UNL     1      -3.646  27.592  -3.626  1.00  0.00    -0.368 OA
HETATM    3  C8  UNL     1      -3.156  26.701  -4.570  1.00  0.00     0.067 C 
HETATM    4  C9  UNL     1      -3.578  27.260  -5.936  1.00  0.00     0.047 C 
HETATM    5  C10 UNL     1      -4.002  25.433  -4.389  1.00  0.00     0.047 C 
HETATM    6  C11 UNL     1      -1.701  26.441  -4.493  1.00  0.00     0.045 C 
HETATM    7  C12 UNL     1      -1.368  25.132  -3.783  1.00  0.00     0.018 C 
HETATM    8  C13 UNL     1      -0.097  24.624  -4.422  1.00  0.00     0.008 C 
HETATM    9  C14 UNL     1       0.250  25.600  -5.505  1.00  0.00     0.011 C 
HETATM   10  C15 UNL     1       0.888  24.912  -6.706  1.00  0.00     0.012 C 
HETATM   11  C16 UNL     1      -1.135  26.136  -5.888  1.00  0.00     0.136 C 
HETATM   12  C17 UNL     1      -0.864  27.512  -3.903  1.00  0.00     0.163 C 
HETATM   13  C18 UNL     1      -1.603  28.610  -3.215  1.00  0.00     0.180 C 
ENDROOT
BRANCH  11  14
HETATM   14  O2  UNL     1      -1.799  25.119  -6.516  1.00  0.00    -0.394 OA
ATOM     15  H2  UNL     1      -2.612  24.889  -6.083  1.00  0.00     0.210 HD
ENDBRANCH  11  14
BRANCH  12  16
HETATM   16  O3  UNL     1       0.057  26.995  -2.960  1.00  0.00    -0.392 OA
ATOM     17  H3  UNL     1       0.890  26.783  -3.364  1.00  0.00     0.210 HD
ENDBRANCH  12  16
BRANCH  13  18
HETATM   18  O4  UNL     1      -1.680  28.401  -1.839  1.00  0.00    -0.390 OA
ATOM     19  H4  UNL     1      -2.278  29.042  -1.473  1.00  0.00     0.210 HD
ENDBRANCH  13  18
BRANCH   1  20
HETATM   20  C6  UNL     1      -3.685  29.782  -2.833  1.00  0.00     0.003 C 
HETATM   21  C5  UNL     1      -3.256  31.005  -2.652  1.00  0.00    -0.028 C 
BRANCH  21  22
HETATM   22  C4  UNL     1      -3.955  31.946  -1.742  1.00  0.00     0.027 C 
BRANCH  22  23
HETATM   23  C3  UNL     1      -2.991  32.507  -0.694  1.00  0.00     0.003 C 
BRANCH  23  24
HETATM   24  C2  UNL     1      -2.581  31.341   0.180  1.00  0.00    -0.004 C 
HETATM   25  C1  UNL     1      -2.394  31.800   1.605  1.00  0.00     0.005 C 
ENDBRANCH  23  24
ENDBRANCH  22  23
ENDBRANCH  21  22
ENDBRANCH   1  20
TORSDOF 7
ENDMDL
MODEL 5
REMARK VINA RESULT: -6.242796232     11.582     13.366
REMARK  7 active torsions:
REMARK  status: ('A' for Active; 'I' for Inactive)
REMARK    1  A    between atoms: C2_2  and  C3_3 
REMARK    2  A    between atoms: C3_3  and  C4_4 
REMARK    3  A    between atoms: C4_4  and  C5_5 
REMARK    4  A    between atoms: C6_6  and  C7_7 
REMARK    5  A    between atoms: C16_17  and  O2_18 
REMARK    6  A    between atoms: C17_20  and  O3_21 
REMARK    7  A    between atoms: C18_23  and  O4_24 
ROOT
HETATM    1  C7  UNL     1      -0.077  25.857  -4.722  1.00  0.00     0.176 C 
HETATM    2  O1  UNL     1      -0.925  26.090  -5.775  1.00  0.00    -0.368 OA
HETATM    3  C8  UNL     1      -2.242  26.068  -5.337  1.00  0.00     0.067 C 
HETATM    4  C9  UNL     1      -2.516  24.623  -4.900  1.00  0.00     0.047 C 
HETATM    5  C10 UNL     1      -3.081  26.256  -6.610  1.00  0.00     0.047 C 
HETATM    6  C11 UNL     1      -2.570  27.049  -4.279  1.00  0.00     0.045 C 
HETATM    7  C12 UNL     1      -3.270  28.293  -4.818  1.00  0.00     0.018 C 
HETATM    8  C13 UNL     1      -4.187  28.765  -3.716  1.00  0.00     0.008 C 
HETATM    9  C14 UNL     1      -4.045  27.778  -2.597  1.00  0.00     0.011 C 
HETATM   10  C15 UNL     1      -5.357  27.570  -1.852  1.00  0.00     0.012 C 
HETATM   11  C16 UNL     1      -3.673  26.502  -3.362  1.00  0.00     0.136 C 
HETATM   12  C17 UNL     1      -1.453  27.489  -3.411  1.00  0.00     0.163 C 
HETATM   13  C18 UNL     1      -0.085  27.102  -3.865  1.00  0.00     0.180 C 
ENDROOT
BRANCH  11  14
HETATM   14  O2  UNL     1      -4.787  26.109  -4.051  1.00  0.00    -0.394 OA
ATOM     15  H2  UNL     1      -5.480  26.758  -4.028  1.00  0.00     0.210 HD
ENDBRANCH  11  14
BRANCH  12  16
HETATM   16  O3  UNL     1      -1.440  28.896  -3.249  1.00  0.00    -0.392 OA
ATOM     17  H3  UNL     1      -0.904  29.158  -2.511  1.00  0.00     0.210 HD
ENDBRANCH  12  16
BRANCH  13  18
HETATM   18  O4  UNL     1       0.534  28.127  -4.578  1.00  0.00    -0.390 OA
ATOM     19  H4  UNL     1      -0.059  28.868  -4.611  1.00  0.00     0.210 HD
ENDBRANCH  13  18
BRANCH   1  20
HETATM   20  C6  UNL     1       1.315  25.712  -5.264  1.00  0.00     0.003 C 
HETATM   21  C5  UNL     1       1.588  25.084  -6.378  1.00  0.00    -0.028 C 
BRANCH  21  22
HETATM   22  C4  UNL     1       2.980  24.962  -6.880  1.00  0.00     0.027 C 
BRANCH  22  23
HETATM   23  C3  UNL     1       3.988  25.265  -5.769  1.00  0.00     0.003 C 
BRANCH  23  24
HETATM   24  C2  UNL     1       5.052  26.148  -6.384  1.00  0.00    -0.004 C 
HETATM   25  C1  UNL     1       6.398  25.842  -5.776  1.00  0.00     0.005 C 
ENDBRANCH  23  24
ENDBRANCH  22  23
ENDBRANCH  21  22
ENDBRANCH   1  20
TORSDOF 7
ENDMDL
