MODEL 1
REMARK VINA RESULT: -8.430607144      0.000      0.000
REMARK  7 active torsions:
REMARK  status: ('A' for Active; 'I' for Inactive)
REMARK    1  A    between atoms: C3_5  and  N2_6 
REMARK    2  A    between atoms: N2_6  and  C4_8 
REMARK    3  A    between atoms: C4_8  and  C5_9 
REMARK    4  A    between atoms: C8_14  and  N4_15 
REMARK    5  A    between atoms: N4_15  and  C9_17 
REMARK    6  A    between atoms: C13_21  and  C14_22 
REMARK    7  A    between atoms: C14_22  and  O1_24 
ROOT
HETATM    1  C1  UNL     1      -2.643  36.621   0.919  1.00  0.00     0.090 C 
HETATM    2  C2  UNL     1      -1.564  36.815   1.955  1.00  0.00     0.109 A 
HETATM    3  N1  UNL     1      -1.847  36.788   3.262  1.00  0.00    -0.180 N 
ATOM      4  H1  UNL     1      -2.805  36.636   3.574  1.00  0.00     0.185 HD
HETATM    5  C3  UNL     1      -0.845  36.966   4.177  1.00  0.00     0.694 A 
HETATM    6  N3  UNL     1       0.371  37.160   3.692  1.00  0.00    -0.022 N 
ATOM      7  H3  UNL     1       1.132  37.296   4.356  1.00  0.00     0.203 HD
HETATM    8  C8  UNL     1       0.677  37.191   2.339  1.00  0.00     0.696 A 
HETATM    9  N5  UNL     1      -0.326  37.011   1.466  1.00  0.00    -0.180 N 
ATOM     10  H5  UNL     1      -0.155  37.025   0.460  1.00  0.00     0.185 HD
ENDROOT
BRANCH   8  11
HETATM   11  N4  UNL     1       1.863  37.397   2.005  1.00  0.00    -0.199 N 
ATOM     12  H4  UNL     1       2.199  38.175   2.573  1.00  0.00     0.180 HD
BRANCH  11  13
HETATM   13  C9  UNL     1       2.887  37.021   1.205  1.00  0.00     0.238 C 
HETATM   14  C10 UNL     1       2.485  36.690  -0.224  1.00  0.00     0.054 C 
HETATM   15  C11 UNL     1       3.810  36.663  -1.026  1.00  0.00     0.007 C 
HETATM   16  C12 UNL     1       4.770  35.702  -0.335  1.00  0.00     0.035 C 
HETATM   17  C13 UNL     1       4.896  36.087   1.096  1.00  0.00     0.152 C 
HETATM   18  O2  UNL     1       3.636  35.948   1.718  1.00  0.00    -0.358 OA
BRANCH  17  19
HETATM   19  C14 UNL     1       5.949  35.319   1.830  1.00  0.00     0.143 C 
HETATM   20  C15 UNL     1       7.326  35.865   1.609  1.00  0.00     0.042 C 
BRANCH  19  21
HETATM   21  O1  UNL     1       5.878  33.953   1.594  1.00  0.00    -0.393 OA
ATOM     22  H1  UNL     1       5.384  33.491   2.261  1.00  0.00     0.210 HD
ENDBRANCH  19  21
ENDBRANCH  17  19
ENDBRANCH  11  13
ENDBRANCH   8  11
BRANCH   5  23
HETATM   23  N2  UNL     1      -1.109  36.960   5.429  1.00  0.00    -0.225 N 
ATOM     24  H2  UNL     1      -0.576  36.289   5.982  1.00  0.00     0.177 HD
BRANCH  23  25
HETATM   25  C4  UNL     1      -2.028  37.746   6.160  1.00  0.00     0.142 C 
BRANCH  25  26
HETATM   26  C5  UNL     1      -1.336  38.179   7.447  1.00  0.00    -0.004 C 
HETATM   27  C6  UNL     1      -1.294  37.097   8.470  1.00  0.00     0.011 C 
HETATM   28  C7  UNL     1      -2.035  39.429   7.959  1.00  0.00     0.011 C 
ENDBRANCH  25  26
ENDBRANCH  23  25
ENDBRANCH   5  23
TORSDOF 7
ENDMDL
MODEL 2
REMARK VINA RESULT: -8.376882481      1.389      1.756
REMARK  7 active torsions:
REMARK  status: ('A' for Active; 'I' for Inactive)
REMARK    1  A    between atoms: C3_5  and  N2_6 
REMARK    2  A    between atoms: N2_6  and  C4_8 
REMARK    3  A    between atoms: C4_8  and  C5_9 
REMARK    4  A    between atoms: C8_14  and  N4_15 
REMARK    5  A    between atoms: N4_15  and  C9_17 
REMARK    6  A    between atoms: C13_21  and  C14_22 
REMARK    7  A    between atoms: C14_22  and  O1_24 
ROOT
HETATM    1  C1  UNL     1      -2.431  33.927   3.493  1.00  0.00     0.090 C 
HETATM    2  C2  UNL     1      -1.706  35.232   3.707  1.00  0.00     0.109 A 
HETATM    3  N1  UNL     1      -1.874  35.941   4.829  1.00  0.00    -0.180 N 
ATOM      4  H1  UNL     1      -2.501  35.602   5.558  1.00  0.00     0.185 HD
HETATM    5  C3  UNL     1      -1.201  37.120   4.994  1.00  0.00     0.694 A 
HETATM    6  N3  UNL     1      -0.408  37.492   4.002  1.00  0.00    -0.022 N 
ATOM      7  H3  UNL     1       0.103  38.369   4.103  1.00  0.00     0.203 HD
HETATM    8  C8  UNL     1      -0.226  36.767   2.833  1.00  0.00     0.696 A 
HETATM    9  N5  UNL     1      -0.898  35.613   2.701  1.00  0.00    -0.180 N 
ATOM     10  H5  UNL     1      -0.800  35.041   1.861  1.00  0.00     0.185 HD
ENDROOT
BRANCH   8  11
HETATM   11  N4  UNL     1       0.540  37.231   1.962  1.00  0.00    -0.199 N 
ATOM     12  H4  UNL     1       0.079  38.051   1.568  1.00  0.00     0.180 HD
BRANCH  11  13
HETATM   13  C9  UNL     1       1.725  37.100   1.322  1.00  0.00     0.238 C 
HETATM   14  C10 UNL     1       1.612  36.808  -0.167  1.00  0.00     0.054 C 
HETATM   15  C11 UNL     1       3.024  37.073  -0.745  1.00  0.00     0.007 C 
HETATM   16  C12 UNL     1       4.030  36.249   0.049  1.00  0.00     0.035 C 
HETATM   17  C13 UNL     1       3.866  36.545   1.498  1.00  0.00     0.152 C 
HETATM   18  O2  UNL     1       2.574  36.141   1.901  1.00  0.00    -0.358 OA
BRANCH  17  19
HETATM   19  C14 UNL     1       4.920  35.925   2.358  1.00  0.00     0.143 C 
HETATM   20  C15 UNL     1       5.861  35.053   1.585  1.00  0.00     0.042 C 
BRANCH  19  21
HETATM   21  O1  UNL     1       4.392  35.279   3.468  1.00  0.00    -0.393 OA
ATOM     22  H1  UNL     1       4.999  34.658   3.853  1.00  0.00     0.210 HD
ENDBRANCH  19  21
ENDBRANCH  17  19
ENDBRANCH  11  13
ENDBRANCH   8  11
BRANCH   5  23
HETATM   23  N2  UNL     1      -1.369  37.815   6.056  1.00  0.00    -0.225 N 
ATOM     24  H2  UNL     1      -0.519  38.015   6.582  1.00  0.00     0.177 HD
BRANCH  23  25
HETATM   25  C4  UNL     1      -2.557  38.345   6.607  1.00  0.00     0.142 C 
BRANCH  25  26
HETATM   26  C5  UNL     1      -2.221  38.863   8.001  1.00  0.00    -0.004 C 
HETATM   27  C6  UNL     1      -2.283  40.348   8.093  1.00  0.00     0.011 C 
HETATM   28  C7  UNL     1      -0.856  38.318   8.388  1.00  0.00     0.011 C 
ENDBRANCH  25  26
ENDBRANCH  23  25
ENDBRANCH   5  23
TORSDOF 7
ENDMDL
MODEL 3
REMARK VINA RESULT: -8.375231918      1.478      2.039
REMARK  7 active torsions:
REMARK  status: ('A' for Active; 'I' for Inactive)
REMARK    1  A    between atoms: C3_5  and  N2_6 
REMARK    2  A    between atoms: N2_6  and  C4_8 
REMARK    3  A    between atoms: C4_8  and  C5_9 
REMARK    4  A    between atoms: C8_14  and  N4_15 
REMARK    5  A    between atoms: N4_15  and  C9_17 
REMARK    6  A    between atoms: C13_21  and  C14_22 
REMARK    7  A    between atoms: C14_22  and  O1_24 
ROOT
HETATM    1  C1  UNL     1      -0.280  33.908   5.480  1.00  0.00     0.090 C 
HETATM    2  C2  UNL     1      -0.531  35.282   4.911  1.00  0.00     0.109 A 
HETATM    3  N1  UNL     1      -1.432  36.104   5.460  1.00  0.00    -0.180 N 
ATOM      4  H1  UNL     1      -1.964  35.807   6.278  1.00  0.00     0.185 HD
HETATM    5  C3  UNL     1      -1.636  37.345   4.921  1.00  0.00     0.694 A 
HETATM    6  N3  UNL     1      -0.909  37.655   3.860  1.00  0.00    -0.022 N 
ATOM      7  H3  UNL     1      -1.046  38.575   3.441  1.00  0.00     0.203 HD
HETATM    8  C8  UNL     1       0.027  36.811   3.280  1.00  0.00     0.696 A 
HETATM    9  N5  UNL     1       0.207  35.601   3.832  1.00  0.00    -0.180 N 
ATOM     10  H5  UNL     1       0.883  34.943   3.445  1.00  0.00     0.185 HD
ENDROOT
BRANCH   8  11
HETATM   11  N4  UNL     1       0.642  37.214   2.270  1.00  0.00    -0.199 N 
ATOM     12  H4  UNL     1       0.054  37.920   1.828  1.00  0.00     0.180 HD
BRANCH  11  13
HETATM   13  C9  UNL     1       1.761  37.104   1.517  1.00  0.00     0.238 C 
HETATM   14  C10 UNL     1       1.508  36.802   0.048  1.00  0.00     0.054 C 
HETATM   15  C11 UNL     1       2.850  37.094  -0.667  1.00  0.00     0.007 C 
HETATM   16  C12 UNL     1       3.947  36.295   0.026  1.00  0.00     0.035 C 
HETATM   17  C13 UNL     1       3.920  36.596   1.483  1.00  0.00     0.152 C 
HETATM   18  O2  UNL     1       2.683  36.167   2.014  1.00  0.00    -0.358 OA
BRANCH  17  19
HETATM   19  C14 UNL     1       5.066  36.002   2.238  1.00  0.00     0.143 C 
HETATM   20  C15 UNL     1       5.910  35.098   1.393  1.00  0.00     0.042 C 
BRANCH  19  21
HETATM   21  O1  UNL     1       4.671  35.400   3.425  1.00  0.00    -0.393 OA
ATOM     22  H1  UNL     1       5.247  35.608   4.150  1.00  0.00     0.210 HD
ENDBRANCH  19  21
ENDBRANCH  17  19
ENDBRANCH  11  13
ENDBRANCH   8  11
BRANCH   5  23
HETATM   23  N2  UNL     1      -2.509  38.131   5.429  1.00  0.00    -0.225 N 
ATOM     24  H2  UNL     1      -2.932  38.789   4.774  1.00  0.00     0.177 HD
BRANCH  23  25
HETATM   25  C4  UNL     1      -2.973  38.225   6.759  1.00  0.00     0.142 C 
BRANCH  25  26
HETATM   26  C5  UNL     1      -1.891  38.925   7.573  1.00  0.00    -0.004 C 
HETATM   27  C6  UNL     1      -1.447  38.127   8.748  1.00  0.00     0.011 C 
HETATM   28  C7  UNL     1      -2.416  40.296   7.971  1.00  0.00     0.011 C 
ENDBRANCH  25  26
ENDBRANCH  23  25
ENDBRANCH   5  23
TORSDOF 7
ENDMDL
MODEL 4
REMARK VINA RESULT: -8.304248675      1.657      2.368
REMARK  7 active torsions:
REMARK  status: ('A' for Active; 'I' for Inactive)
REMARK    1  A    between atoms: C3_5  and  N2_6 
REMARK    2  A    between atoms: N2_6  and  C4_8 
REMARK    3  A    between atoms: C4_8  and  C5_9 
REMARK    4  A    between atoms: C8_14  and  N4_15 
REMARK    5  A    between atoms: N4_15  and  C9_17 
REMARK    6  A    between atoms: C13_21  and  C14_22 
REMARK    7  A    between atoms: C14_22  and  O1_24 
ROOT
HETATM    1  C1  UNL     1      -2.735  36.601   1.032  1.00  0.00     0.090 C 
HETATM    2  C2  UNL     1      -1.550  36.650   1.964  1.00  0.00     0.109 A 
HETATM    3  N1  UNL     1      -1.681  36.365   3.264  1.00  0.00    -0.180 N 
ATOM      4  H1  UNL     1      -2.594  36.111   3.643  1.00  0.00     0.185 HD
HETATM    5  C3  UNL     1      -0.587  36.417   4.084  1.00  0.00     0.694 A 
HETATM    6  N3  UNL     1       0.560  36.757   3.519  1.00  0.00    -0.022 N 
ATOM      7  H3  UNL     1       1.388  36.803   4.111  1.00  0.00     0.203 HD
HETATM    8  C8  UNL     1       0.709  37.055   2.172  1.00  0.00     0.696 A 
HETATM    9  N5  UNL     1      -0.382  36.995   1.392  1.00  0.00    -0.180 N 
ATOM     10  H5  UNL     1      -0.327  37.204   0.395  1.00  0.00     0.185 HD
ENDROOT
BRANCH   8  11
HETATM   11  N4  UNL     1       1.842  37.378   1.759  1.00  0.00    -0.199 N 
ATOM     12  H4  UNL     1       2.043  38.304   2.135  1.00  0.00     0.180 HD
BRANCH  11  13
HETATM   13  C9  UNL     1       2.916  37.012   1.021  1.00  0.00     0.238 C 
HETATM   14  C10 UNL     1       2.602  36.675  -0.429  1.00  0.00     0.054 C 
HETATM   15  C11 UNL     1       3.972  36.663  -1.152  1.00  0.00     0.007 C 
HETATM   16  C12 UNL     1       4.900  35.713  -0.405  1.00  0.00     0.035 C 
HETATM   17  C13 UNL     1       4.939  36.100   1.031  1.00  0.00     0.152 C 
HETATM   18  O2  UNL     1       3.646  35.948   1.579  1.00  0.00    -0.358 OA
BRANCH  17  19
HETATM   19  C14 UNL     1       5.955  35.345   1.827  1.00  0.00     0.143 C 
HETATM   20  C15 UNL     1       7.342  35.881   1.654  1.00  0.00     0.042 C 
BRANCH  19  21
HETATM   21  O1  UNL     1       5.888  33.975   1.618  1.00  0.00    -0.393 OA
ATOM     22  H1  UNL     1       5.244  33.551   2.173  1.00  0.00     0.210 HD
ENDBRANCH  19  21
ENDBRANCH  17  19
ENDBRANCH  11  13
ENDBRANCH   8  11
BRANCH   5  23
HETATM   23  N2  UNL     1      -0.706  36.165   5.334  1.00  0.00    -0.225 N 
ATOM     24  H2  UNL     1      -1.016  36.949   5.907  1.00  0.00     0.177 HD
BRANCH  23  25
HETATM   25  C4  UNL     1      -0.472  34.962   6.037  1.00  0.00     0.142 C 
BRANCH  25  26
HETATM   26  C5  UNL     1      -0.398  33.839   5.009  1.00  0.00    -0.004 C 
HETATM   27  C6  UNL     1      -1.636  33.014   4.968  1.00  0.00     0.011 C 
HETATM   28  C7  UNL     1       0.840  33.009   5.310  1.00  0.00     0.011 C 
ENDBRANCH  25  26
ENDBRANCH  23  25
ENDBRANCH   5  23
TORSDOF 7
ENDMDL
MODEL 5
REMARK VINA RESULT: -8.004957470      3.078      8.334
REMARK  7 active torsions:
REMARK  status: ('A' for Active; 'I' for Inactive)
REMARK    1  A    between atoms: C3_5  and  N2_6 
REMARK    2  A    between atoms: N2_6  and  C4_8 
REMARK    3  A    between atoms: C4_8  and  C5_9 
REMARK    4  A    between atoms: C8_14  and  N4_15 
REMARK    5  A    between atoms: N4_15  and  C9_17 
REMARK    6  A    between atoms: C13_21  and  C14_22 
REMARK    7  A    between atoms: C14_22  and  O1_24 
ROOT
HETATM    1  C1  UNL     1      -2.742  36.614   0.847  1.00  0.00     0.090 C 
HETATM    2  C2  UNL     1      -1.573  36.853   1.769  1.00  0.00     0.109 A 
HETATM    3  N1  UNL     1      -0.319  36.867   1.306  1.00  0.00    -0.180 N 
ATOM      4  H1  UNL     1      -0.138  36.713   0.314  1.00  0.00     0.185 HD
HETATM    5  C3  UNL     1       0.721  37.088   2.168  1.00  0.00     0.694 A 
HETATM    6  N3  UNL     1       0.404  37.276   3.439  1.00  0.00    -0.022 N 
ATOM      7  H3  UNL     1       1.164  37.441   4.100  1.00  0.00     0.203 HD
HETATM    8  C8  UNL     1      -0.893  37.263   3.932  1.00  0.00     0.696 A 
HETATM    9  N5  UNL     1      -1.891  37.046   3.062  1.00  0.00    -0.180 N 
ATOM     10  H5  UNL     1      -2.863  37.027   3.372  1.00  0.00     0.185 HD
ENDROOT
BRANCH   8  11
HETATM   11  N4  UNL     1      -1.062  37.439   5.157  1.00  0.00    -0.199 N 
ATOM     12  H4  UNL     1      -0.159  37.290   5.606  1.00  0.00     0.180 HD
BRANCH  11  13
HETATM   13  C9  UNL     1      -1.943  37.745   6.137  1.00  0.00     0.238 C 
HETATM   14  C10 UNL     1      -2.519  36.542   6.869  1.00  0.00     0.054 C 
HETATM   15  C11 UNL     1      -3.175  37.116   8.149  1.00  0.00     0.007 C 
HETATM   16  C12 UNL     1      -4.153  38.210   7.737  1.00  0.00     0.035 C 
HETATM   17  C13 UNL     1      -3.443  39.200   6.883  1.00  0.00     0.152 C 
HETATM   18  O2  UNL     1      -3.008  38.555   5.704  1.00  0.00    -0.358 OA
BRANCH  17  19
HETATM   19  C14 UNL     1      -4.262  40.411   6.565  1.00  0.00     0.143 C 
HETATM   20  C15 UNL     1      -5.707  40.243   6.920  1.00  0.00     0.042 C 
BRANCH  19  21
HETATM   21  O1  UNL     1      -4.084  40.848   5.259  1.00  0.00    -0.393 OA
ATOM     22  H1  UNL     1      -3.842  41.765   5.211  1.00  0.00     0.210 HD
ENDBRANCH  19  21
ENDBRANCH  17  19
ENDBRANCH  11  13
ENDBRANCH   8  11
BRANCH   5  23
HETATM   23  N2  UNL     1       1.926  37.084   1.738  1.00  0.00    -0.225 N 
ATOM     24  H2  UNL     1       2.645  37.092   2.462  1.00  0.00     0.177 HD
BRANCH  23  25
HETATM   25  C4  UNL     1       2.410  37.071   0.411  1.00  0.00     0.142 C 
BRANCH  25  26
HETATM   26  C5  UNL     1       3.674  36.219   0.394  1.00  0.00    -0.004 C 
HETATM   27  C6  UNL     1       4.648  36.613   1.448  1.00  0.00     0.011 C 
HETATM   28  C7  UNL     1       4.272  36.296  -1.002  1.00  0.00     0.011 C 
ENDBRANCH  25  26
ENDBRANCH  23  25
ENDBRANCH   5  23
TORSDOF 7
ENDMDL
