MODEL 1
REMARK VINA RESULT: -7.947621940      0.000      0.000
REMARK  5 active torsions:
REMARK  status: ('A' for Active; 'I' for Inactive)
REMARK    1  A    between atoms: C1_4  and  C2_5 
REMARK       I    between atoms: N3_9  and  C4_11 
REMARK       I    between atoms: C4_11  and  N4_12 
REMARK       I    between atoms: C4_11  and  N5_16 
REMARK    2  A    between atoms: C8_28  and  N8_29 
REMARK    3  A    between atoms: N8_29  and  C9_31 
REMARK    4  A    between atoms: C9_31  and  C10_32 
REMARK    5  A    between atoms: C10_32  and  N9_33 
ROOT
HETATM    1  C2  UNL     1      21.575  24.498  39.802  1.00  0.00     0.193 C 
HETATM    2  N2  UNL     1      20.383  25.043  39.166  1.00  0.00    -0.199 N 
ATOM      3  H2  UNL     1      19.490  25.057  39.660  1.00  0.00     0.179 HD
HETATM    4  C3  UNL     1      20.487  25.561  37.830  1.00  0.00     0.681 C 
HETATM    5  N3  UNL     1      19.444  25.612  37.112  1.00  0.00    -0.174 N 
ATOM      6  H3  UNL     1      19.574  25.988  36.172  1.00  0.00     0.181 HD
HETATM    7  C4  UNL     1      18.118  25.216  37.437  1.00  0.00     0.494 C 
HETATM    8  N4  UNL     1      18.099  23.833  37.842  1.00  0.00    -0.032 N 
ATOM      9  H41 UNL     1      17.148  23.548  38.075  1.00  0.00     0.278 HD
ATOM     10  H42 UNL     1      18.750  23.650  38.606  1.00  0.00     0.278 HD
ATOM     11  H43 UNL     1      18.518  23.224  37.139  1.00  0.00     0.278 HD
HETATM   12  N5  UNL     1      17.469  26.037  38.439  1.00  0.00    -0.032 N 
ATOM     13  H51 UNL     1      16.518  25.753  38.673  1.00  0.00     0.278 HD
ATOM     14  H52 UNL     1      17.487  27.018  38.159  1.00  0.00     0.278 HD
ATOM     15  H53 UNL     1      18.041  26.083  39.282  1.00  0.00     0.278 HD
HETATM   16  N6  UNL     1      21.743  26.010  37.325  1.00  0.00    -0.155 N 
ATOM     17  H6  UNL     1      21.816  26.376  36.375  1.00  0.00     0.187 HD
HETATM   18  C5  UNL     1      22.905  25.941  38.168  1.00  0.00     0.285 C 
HETATM   19  O1  UNL     1      23.990  26.331  37.721  1.00  0.00    -0.265 OA
HETATM   20  C6  UNL     1      22.727  25.401  39.538  1.00  0.00     0.121 C 
HETATM   21  N7  UNL     1      23.519  25.746  40.467  1.00  0.00    -0.360 N 
ATOM     22  H7  UNL     1      24.294  26.362  40.219  1.00  0.00     0.165 HD
HETATM   23  C7  UNL     1      23.412  25.345  41.826  1.00  0.00     0.121 C 
HETATM   24  C8  UNL     1      22.428  24.557  42.232  1.00  0.00     0.097 C 
HETATM   25  C11 UNL     1      21.437  24.192  41.217  1.00  0.00     0.217 C 
HETATM   26  O2  UNL     1      20.389  23.568  41.602  1.00  0.00    -0.287 OA
ENDROOT
BRANCH   1  27
HETATM   27  C1  UNL     1      21.821  23.182  39.095  1.00  0.00     0.100 C 
HETATM   28  N1  UNL     1      20.963  22.246  39.201  1.00  0.00    -0.408 N 
ATOM     29  H12 UNL     1      20.124  22.399  39.761  1.00  0.00     0.155 HD
ATOM     30  H11 UNL     1      21.128  21.360  38.725  1.00  0.00     0.155 HD
ENDBRANCH   1  27
BRANCH  24  31
HETATM   31  N8  UNL     1      22.241  24.104  43.549  1.00  0.00    -0.364 N 
ATOM     32  H8  UNL     1      22.494  23.132  43.728  1.00  0.00     0.165 HD
BRANCH  31  33
HETATM   33  C9  UNL     1      21.746  24.827  44.653  1.00  0.00     0.088 C 
BRANCH  33  34
HETATM   34  C10 UNL     1      20.487  25.591  44.452  1.00  0.00     0.274 C 
BRANCH  34  35
HETATM   35  N9  UNL     1      19.342  24.841  44.076  1.00  0.00    -0.075 N 
ATOM     36  H93 UNL     1      19.343  24.697  43.067  1.00  0.00     0.274 HD
ATOM     37  H92 UNL     1      19.440  23.880  44.402  1.00  0.00     0.274 HD
ATOM     38  H91 UNL     1      18.437  25.212  44.368  1.00  0.00     0.274 HD
ENDBRANCH  34  35
ENDBRANCH  33  34
ENDBRANCH  31  33
ENDBRANCH  24  31
TORSDOF 5
ENDMDL
MODEL 2
REMARK VINA RESULT: -7.930257254      1.902      5.662
REMARK  5 active torsions:
REMARK  status: ('A' for Active; 'I' for Inactive)
REMARK    1  A    between atoms: C1_4  and  C2_5 
REMARK       I    between atoms: N3_9  and  C4_11 
REMARK       I    between atoms: C4_11  and  N4_12 
REMARK       I    between atoms: C4_11  and  N5_16 
REMARK    2  A    between atoms: C8_28  and  N8_29 
REMARK    3  A    between atoms: N8_29  and  C9_31 
REMARK    4  A    between atoms: C9_31  and  C10_32 
REMARK    5  A    between atoms: C10_32  and  N9_33 
ROOT
HETATM    1  C2  UNL     1      21.096  24.478  40.472  1.00  0.00     0.193 C 
HETATM    2  N2  UNL     1      21.085  24.649  41.919  1.00  0.00    -0.199 N 
ATOM      3  H2  UNL     1      20.732  25.509  42.338  1.00  0.00     0.179 HD
HETATM    4  C3  UNL     1      21.580  23.582  42.744  1.00  0.00     0.681 C 
HETATM    5  N3  UNL     1      21.997  23.855  43.910  1.00  0.00    -0.174 N 
ATOM      6  H3  UNL     1      22.338  23.061  44.453  1.00  0.00     0.181 HD
HETATM    7  C4  UNL     1      22.056  25.117  44.563  1.00  0.00     0.494 C 
HETATM    8  N4  UNL     1      22.826  26.047  43.775  1.00  0.00    -0.032 N 
ATOM      9  H41 UNL     1      22.868  26.952  44.243  1.00  0.00     0.278 HD
ATOM     10  H42 UNL     1      22.470  26.126  42.822  1.00  0.00     0.278 HD
ATOM     11  H43 UNL     1      23.755  25.685  43.559  1.00  0.00     0.278 HD
HETATM   12  N5  UNL     1      20.765  25.690  44.888  1.00  0.00    -0.032 N 
ATOM     13  H51 UNL     1      20.807  26.595  45.356  1.00  0.00     0.278 HD
ATOM     14  H52 UNL     1      20.214  25.031  45.439  1.00  0.00     0.278 HD
ATOM     15  H53 UNL     1      20.184  25.751  44.052  1.00  0.00     0.278 HD
HETATM   16  N6  UNL     1      21.600  22.241  42.259  1.00  0.00    -0.155 N 
ATOM     17  H6  UNL     1      21.953  21.485  42.846  1.00  0.00     0.187 HD
HETATM   18  C5  UNL     1      21.116  21.967  40.934  1.00  0.00     0.285 C 
HETATM   19  O1  UNL     1      21.139  20.801  40.520  1.00  0.00    -0.265 OA
HETATM   20  C6  UNL     1      20.614  23.112  40.136  1.00  0.00     0.121 C 
HETATM   21  N7  UNL     1      19.755  22.924  39.221  1.00  0.00    -0.360 N 
ATOM     22  H7  UNL     1      19.471  21.961  39.033  1.00  0.00     0.165 HD
HETATM   23  C7  UNL     1      19.157  23.945  38.436  1.00  0.00     0.121 C 
HETATM   24  C8  UNL     1      19.462  25.221  38.624  1.00  0.00     0.097 C 
HETATM   25  C11 UNL     1      20.388  25.504  39.722  1.00  0.00     0.217 C 
HETATM   26  O2  UNL     1      20.583  26.727  40.039  1.00  0.00    -0.287 OA
ENDROOT
BRANCH   1  27
HETATM   27  C1  UNL     1      22.555  24.585  40.083  1.00  0.00     0.100 C 
HETATM   28  N1  UNL     1      23.177  25.678  40.284  1.00  0.00    -0.408 N 
ATOM     29  H12 UNL     1      22.681  26.465  40.703  1.00  0.00     0.155 HD
ATOM     30  H11 UNL     1      24.160  25.750  40.022  1.00  0.00     0.155 HD
ENDBRANCH   1  27
BRANCH  24  31
HETATM   31  N8  UNL     1      18.929  26.300  37.897  1.00  0.00    -0.364 N 
ATOM     32  H8  UNL     1      19.556  26.738  37.223  1.00  0.00     0.165 HD
BRANCH  31  33
HETATM   33  C9  UNL     1      17.635  26.850  37.987  1.00  0.00     0.088 C 
BRANCH  33  34
HETATM   34  C10 UNL     1      17.128  27.165  39.348  1.00  0.00     0.274 C 
BRANCH  34  35
HETATM   35  N9  UNL     1      15.723  27.091  39.536  1.00  0.00    -0.075 N 
ATOM     36  H93 UNL     1      15.441  26.115  39.629  1.00  0.00     0.274 HD
ATOM     37  H92 UNL     1      15.482  27.444  40.462  1.00  0.00     0.274 HD
ATOM     38  H91 UNL     1      15.142  27.549  38.832  1.00  0.00     0.274 HD
ENDBRANCH  34  35
ENDBRANCH  33  34
ENDBRANCH  31  33
ENDBRANCH  24  31
TORSDOF 5
ENDMDL
MODEL 3
REMARK VINA RESULT: -7.831701339      2.641      5.599
REMARK  5 active torsions:
REMARK  status: ('A' for Active; 'I' for Inactive)
REMARK    1  A    between atoms: C1_4  and  C2_5 
REMARK       I    between atoms: N3_9  and  C4_11 
REMARK       I    between atoms: C4_11  and  N4_12 
REMARK       I    between atoms: C4_11  and  N5_16 
REMARK    2  A    between atoms: C8_28  and  N8_29 
REMARK    3  A    between atoms: N8_29  and  C9_31 
REMARK    4  A    between atoms: C9_31  and  C10_32 
REMARK    5  A    between atoms: C10_32  and  N9_33 
ROOT
HETATM    1  C2  UNL     1      21.911  25.199  38.520  1.00  0.00     0.193 C 
HETATM    2  N2  UNL     1      21.690  24.018  39.343  1.00  0.00    -0.199 N 
ATOM      3  H2  UNL     1      22.245  23.174  39.201  1.00  0.00     0.179 HD
HETATM    4  C3  UNL     1      20.676  24.064  40.360  1.00  0.00     0.681 C 
HETATM    5  N3  UNL     1      20.162  22.977  40.760  1.00  0.00    -0.174 N 
ATOM      6  H3  UNL     1      19.447  23.067  41.483  1.00  0.00     0.181 HD
HETATM    7  C4  UNL     1      20.446  21.649  40.340  1.00  0.00     0.494 C 
HETATM    8  N4  UNL     1      20.256  21.529  38.916  1.00  0.00    -0.032 N 
ATOM      9  H41 UNL     1      20.460  20.577  38.614  1.00  0.00     0.278 HD
ATOM     10  H42 UNL     1      20.802  22.219  38.399  1.00  0.00     0.278 HD
ATOM     11  H43 UNL     1      19.325  21.829  38.629  1.00  0.00     0.278 HD
HETATM   12  N5  UNL     1      21.762  21.165  40.708  1.00  0.00    -0.032 N 
ATOM     13  H51 UNL     1      21.966  20.213  40.406  1.00  0.00     0.278 HD
ATOM     14  H52 UNL     1      21.903  21.256  41.715  1.00  0.00     0.278 HD
ATOM     15  H53 UNL     1      22.481  21.805  40.371  1.00  0.00     0.278 HD
HETATM   16  N6  UNL     1      20.257  25.313  40.907  1.00  0.00    -0.155 N 
ATOM     17  H6  UNL     1      19.536  25.344  41.629  1.00  0.00     0.187 HD
HETATM   18  C5  UNL     1      20.863  26.526  40.433  1.00  0.00     0.285 C 
HETATM   19  O1  UNL     1      20.492  27.605  40.912  1.00  0.00    -0.265 OA
HETATM   20  C6  UNL     1      21.907  26.408  39.386  1.00  0.00     0.121 C 
HETATM   21  N7  UNL     1      22.801  27.302  39.273  1.00  0.00    -0.360 N 
ATOM     22  H7  UNL     1      22.738  28.111  39.892  1.00  0.00     0.165 HD
HETATM   23  C7  UNL     1      23.883  27.266  38.354  1.00  0.00     0.121 C 
HETATM   24  C8  UNL     1      24.044  26.246  37.524  1.00  0.00     0.097 C 
HETATM   25  C11 UNL     1      23.087  25.146  37.666  1.00  0.00     0.217 C 
HETATM   26  O2  UNL     1      23.302  24.077  36.998  1.00  0.00    -0.287 OA
ENDROOT
BRANCH   1  27
HETATM   27  C1  UNL     1      20.709  25.259  37.601  1.00  0.00     0.100 C 
HETATM   28  N1  UNL     1      20.810  25.852  36.479  1.00  0.00    -0.408 N 
ATOM     29  H12 UNL     1      21.699  26.278  36.217  1.00  0.00     0.155 HD
ATOM     30  H11 UNL     1      20.001  25.892  35.860  1.00  0.00     0.155 HD
ENDBRANCH   1  27
BRANCH  24  31
HETATM   31  N8  UNL     1      25.077  26.122  36.578  1.00  0.00    -0.364 N 
ATOM     32  H8  UNL     1      25.455  25.184  36.449  1.00  0.00     0.165 HD
BRANCH  31  33
HETATM   33  C9  UNL     1      25.653  27.136  35.786  1.00  0.00     0.088 C 
BRANCH  33  34
HETATM   34  C10 UNL     1      24.757  27.836  34.829  1.00  0.00     0.274 C 
BRANCH  34  35
HETATM   35  N9  UNL     1      24.289  29.118  35.218  1.00  0.00    -0.075 N 
ATOM     36  H93 UNL     1      25.018  29.605  35.739  1.00  0.00     0.274 HD
ATOM     37  H92 UNL     1      24.213  29.718  34.397  1.00  0.00     0.274 HD
ATOM     38  H91 UNL     1      23.415  29.146  35.745  1.00  0.00     0.274 HD
ENDBRANCH  34  35
ENDBRANCH  33  34
ENDBRANCH  31  33
ENDBRANCH  24  31
TORSDOF 5
ENDMDL
MODEL 4
REMARK VINA RESULT: -7.819785018      2.265      5.441
REMARK  5 active torsions:
REMARK  status: ('A' for Active; 'I' for Inactive)
REMARK    1  A    between atoms: C1_4  and  C2_5 
REMARK       I    between atoms: N3_9  and  C4_11 
REMARK       I    between atoms: C4_11  and  N4_12 
REMARK       I    between atoms: C4_11  and  N5_16 
REMARK    2  A    between atoms: C8_28  and  N8_29 
REMARK    3  A    between atoms: N8_29  and  C9_31 
REMARK    4  A    between atoms: C9_31  and  C10_32 
REMARK    5  A    between atoms: C10_32  and  N9_33 
ROOT
HETATM    1  C2  UNL     1      20.967  25.034  39.625  1.00  0.00     0.193 C 
HETATM    2  N2  UNL     1      20.937  23.589  39.810  1.00  0.00    -0.199 N 
ATOM      3  H2  UNL     1      21.394  22.970  39.140  1.00  0.00     0.179 HD
HETATM    4  C3  UNL     1      20.253  23.053  40.954  1.00  0.00     0.681 C 
HETATM    5  N3  UNL     1      19.828  21.859  40.907  1.00  0.00    -0.174 N 
ATOM      6  H3  UNL     1      19.350  21.528  41.745  1.00  0.00     0.181 HD
HETATM    7  C4  UNL     1      19.927  20.919  39.844  1.00  0.00     0.494 C 
HETATM    8  N4  UNL     1      19.339  21.463  38.646  1.00  0.00    -0.032 N 
ATOM      9  H41 UNL     1      19.409  20.789  37.884  1.00  0.00     0.278 HD
ATOM     10  H42 UNL     1      19.745  22.365  38.397  1.00  0.00     0.278 HD
ATOM     11  H43 UNL     1      18.377  21.768  38.798  1.00  0.00     0.278 HD
HETATM   12  N5  UNL     1      21.272  20.453  39.572  1.00  0.00    -0.032 N 
ATOM     13  H51 UNL     1      21.343  19.779  38.809  1.00  0.00     0.278 HD
ATOM     14  H52 UNL     1      21.694  20.075  40.420  1.00  0.00     0.278 HD
ATOM     15  H53 UNL     1      21.893  21.244  39.403  1.00  0.00     0.278 HD
HETATM   16  N6  UNL     1      20.058  23.850  42.120  1.00  0.00    -0.155 N 
ATOM     17  H6  UNL     1      19.571  23.468  42.931  1.00  0.00     0.187 HD
HETATM   18  C5  UNL     1      20.557  25.198  42.140  1.00  0.00     0.285 C 
HETATM   19  O1  UNL     1      20.381  25.884  43.155  1.00  0.00    -0.265 OA
HETATM   20  C6  UNL     1      21.257  25.689  40.929  1.00  0.00     0.121 C 
HETATM   21  N7  UNL     1      22.120  26.615  41.022  1.00  0.00    -0.360 N 
ATOM     22  H7  UNL     1      22.267  27.029  41.943  1.00  0.00     0.165 HD
HETATM   23  C7  UNL     1      22.897  27.123  39.947  1.00  0.00     0.121 C 
HETATM   24  C8  UNL     1      22.775  26.633  38.722  1.00  0.00     0.097 C 
HETATM   25  C11 UNL     1      21.851  25.506  38.571  1.00  0.00     0.217 C 
HETATM   26  O2  UNL     1      21.824  24.902  37.444  1.00  0.00    -0.287 OA
ENDROOT
BRANCH   1  27
HETATM   27  C1  UNL     1      19.558  25.398  39.205  1.00  0.00     0.100 C 
HETATM   28  N1  UNL     1      19.016  24.775  38.236  1.00  0.00    -0.408 N 
ATOM     29  H12 UNL     1      19.539  24.042  37.757  1.00  0.00     0.155 HD
ATOM     30  H11 UNL     1      18.067  25.019  37.953  1.00  0.00     0.155 HD
ENDBRANCH   1  27
BRANCH  24  31
HETATM   31  N8  UNL     1      23.493  27.070  37.596  1.00  0.00    -0.364 N 
ATOM     32  H8  UNL     1      23.135  27.906  37.134  1.00  0.00     0.165 HD
BRANCH  31  33
HETATM   33  C9  UNL     1      24.646  26.495  37.027  1.00  0.00     0.088 C 
BRANCH  33  34
HETATM   34  C10 UNL     1      25.259  27.207  35.876  1.00  0.00     0.274 C 
BRANCH  34  35
HETATM   35  N9  UNL     1      26.577  26.821  35.517  1.00  0.00    -0.075 N 
ATOM     36  H93 UNL     1      27.106  27.642  35.222  1.00  0.00     0.274 HD
ATOM     37  H92 UNL     1      27.096  26.557  36.355  1.00  0.00     0.274 HD
ATOM     38  H91 UNL     1      26.664  26.087  34.814  1.00  0.00     0.274 HD
ENDBRANCH  34  35
ENDBRANCH  33  34
ENDBRANCH  31  33
ENDBRANCH  24  31
TORSDOF 5
ENDMDL
MODEL 5
REMARK VINA RESULT: -7.727680789      2.507      5.122
REMARK  5 active torsions:
REMARK  status: ('A' for Active; 'I' for Inactive)
REMARK    1  A    between atoms: C1_4  and  C2_5 
REMARK       I    between atoms: N3_9  and  C4_11 
REMARK       I    between atoms: C4_11  and  N4_12 
REMARK       I    between atoms: C4_11  and  N5_16 
REMARK    2  A    between atoms: C8_28  and  N8_29 
REMARK    3  A    between atoms: N8_29  and  C9_31 
REMARK    4  A    between atoms: C9_31  and  C10_32 
REMARK    5  A    between atoms: C10_32  and  N9_33 
ROOT
HETATM    1  C2  UNL     1      21.453  23.729  41.044  1.00  0.00     0.193 C 
HETATM    2  N2  UNL     1      22.222  22.664  40.415  1.00  0.00    -0.199 N 
ATOM      3  H2  UNL     1      22.087  22.437  39.430  1.00  0.00     0.179 HD
HETATM    4  C3  UNL     1      23.176  21.939  41.208  1.00  0.00     0.681 C 
HETATM    5  N3  UNL     1      23.509  20.770  40.847  1.00  0.00    -0.174 N 
ATOM      6  H3  UNL     1      24.189  20.300  41.445  1.00  0.00     0.181 HD
HETATM    7  C4  UNL     1      23.062  20.025  39.721  1.00  0.00     0.494 C 
HETATM    8  N4  UNL     1      21.626  19.901  39.746  1.00  0.00    -0.032 N 
ATOM      9  H41 UNL     1      21.306  19.367  38.939  1.00  0.00     0.278 HD
ATOM     10  H42 UNL     1      21.166  20.810  39.810  1.00  0.00     0.278 HD
ATOM     11  H43 UNL     1      21.294  19.503  40.625  1.00  0.00     0.278 HD
HETATM   12  N5  UNL     1      23.494  20.546  38.439  1.00  0.00    -0.032 N 
ATOM     13  H51 UNL     1      23.174  20.012  37.632  1.00  0.00     0.278 HD
ATOM     14  H52 UNL     1      24.510  20.642  38.421  1.00  0.00     0.278 HD
ATOM     15  H53 UNL     1      23.223  21.525  38.346  1.00  0.00     0.278 HD
HETATM   16  N6  UNL     1      23.738  22.526  42.380  1.00  0.00    -0.155 N 
ATOM     17  H6  UNL     1      24.415  22.010  42.942  1.00  0.00     0.187 HD
HETATM   18  C5  UNL     1      23.342  23.855  42.758  1.00  0.00     0.285 C 
HETATM   19  O1  UNL     1      23.833  24.356  43.778  1.00  0.00    -0.265 OA
HETATM   20  C6  UNL     1      22.357  24.550  41.894  1.00  0.00     0.121 C 
HETATM   21  N7  UNL     1      22.328  25.818  41.852  1.00  0.00    -0.360 N 
ATOM     22  H7  UNL     1      22.968  26.323  42.466  1.00  0.00     0.165 HD
HETATM   23  C7  UNL     1      21.476  26.591  41.019  1.00  0.00     0.121 C 
HETATM   24  C8  UNL     1      20.624  26.012  40.185  1.00  0.00     0.097 C 
HETATM   25  C11 UNL     1      20.671  24.549  40.133  1.00  0.00     0.217 C 
HETATM   26  O2  UNL     1      19.982  23.961  39.230  1.00  0.00    -0.287 OA
ENDROOT
BRANCH   1  27
HETATM   27  C1  UNL     1      20.465  23.013  41.941  1.00  0.00     0.100 C 
HETATM   28  N1  UNL     1      19.631  22.199  41.427  1.00  0.00    -0.408 N 
ATOM     29  H12 UNL     1      19.642  22.044  40.419  1.00  0.00     0.155 HD
ATOM     30  H11 UNL     1      18.966  21.717  42.030  1.00  0.00     0.155 HD
ENDBRANCH   1  27
BRANCH  24  31
HETATM   31  N8  UNL     1      19.739  26.688  39.328  1.00  0.00    -0.364 N 
ATOM     32  H8  UNL     1      20.152  27.091  38.487  1.00  0.00     0.165 HD
BRANCH  31  33
HETATM   33  C9  UNL     1      18.352  26.878  39.488  1.00  0.00     0.088 C 
BRANCH  33  34
HETATM   34  C10 UNL     1      17.497  26.653  38.294  1.00  0.00     0.274 C 
BRANCH  34  35
HETATM   35  N9  UNL     1      16.094  26.731  38.492  1.00  0.00    -0.075 N 
ATOM     36  H93 UNL     1      15.780  25.930  39.038  1.00  0.00     0.274 HD
ATOM     37  H92 UNL     1      15.881  27.492  39.137  1.00  0.00     0.274 HD
ATOM     38  H91 UNL     1      15.518  26.821  37.654  1.00  0.00     0.274 HD
ENDBRANCH  34  35
ENDBRANCH  33  34
ENDBRANCH  31  33
ENDBRANCH  24  31
TORSDOF 5
ENDMDL
