MODEL 1
REMARK VINA RESULT: -7.997383731      0.000      0.000
REMARK  8 active torsions:
REMARK  status: ('A' for Active; 'I' for Inactive)
REMARK    1  A    between atoms: C2_2  and  C3_3 
REMARK    2  A    between atoms: C3_3  and  C4_4 
REMARK    3  A    between atoms: C4_4  and  O1_5 
REMARK    4  A    between atoms: O1_5  and  C5_6 
REMARK    5  A    between atoms: C11_13  and  C12_14 
REMARK    6  A    between atoms: C12_14  and  O3_15 
REMARK    7  A    between atoms: C15_19  and  O5_21 
REMARK    8  A    between atoms: C22_28  and  O6_29 
ROOT
HETATM    1  C5  UNL     1      22.243   6.696   3.545  1.00  0.00     0.128 C 
HETATM    2  C6  UNL     1      22.406   6.836   5.033  1.00  0.00     0.059 C 
HETATM    3  C7  UNL     1      21.860   8.098   5.565  1.00  0.00    -0.018 C 
HETATM    4  C8  UNL     1      20.697   8.515   5.115  1.00  0.00    -0.038 C 
HETATM    5  C9  UNL     1      19.567   9.453   5.047  1.00  0.00     0.098 A 
HETATM    6  C10 UNL     1      19.141  10.084   3.786  1.00  0.00     0.185 A 
HETATM    7  O2  UNL     1      19.997  10.698   2.910  1.00  0.00    -0.343 OA
HETATM    8  C11 UNL     1      19.114  11.153   1.890  1.00  0.00     0.181 C 
HETATM    9  C14 UNL     1      17.891  11.416   2.570  1.00  0.00     0.190 C 
HETATM   10  O4  UNL     1      18.107  10.948   3.891  1.00  0.00    -0.342 OA
HETATM   11  C15 UNL     1      16.569  10.929   2.174  1.00  0.00     0.086 C 
HETATM   12  C16 UNL     1      15.572  11.597   3.152  1.00  0.00     0.049 C 
HETATM   13  C17 UNL     1      16.300   9.463   2.297  1.00  0.00     0.018 C 
HETATM   14  C18 UNL     1      14.866   9.282   1.759  1.00  0.00     0.013 C 
HETATM   15  C19 UNL     1      16.381   8.916   3.680  1.00  0.00     0.008 C 
HETATM   16  C20 UNL     1      17.573   8.120   4.005  1.00  0.00     0.020 C 
HETATM   17  C21 UNL     1      18.928   8.664   3.855  1.00  0.00     0.065 A 
HETATM   18  C22 UNL     1      20.011   7.684   4.109  1.00  0.00     0.098 C 
HETATM   19  C23 UNL     1      20.988   7.362   3.024  1.00  0.00     0.076 C 
ENDROOT
BRANCH   1  20
HETATM   20  O1  UNL     1      22.241   5.393   3.123  1.00  0.00    -0.385 OA
BRANCH  20  21
HETATM   21  C4  UNL     1      22.444   4.438   4.068  1.00  0.00     0.168 C 
BRANCH  21  22
HETATM   22  C3  UNL     1      21.312   3.454   4.241  1.00  0.00     0.026 C 
BRANCH  22  23
HETATM   23  C2  UNL     1      20.575   3.404   2.907  1.00  0.00    -0.002 C 
HETATM   24  C1  UNL     1      19.785   2.136   2.757  1.00  0.00     0.005 C 
ENDBRANCH  22  23
ENDBRANCH  21  22
ENDBRANCH  20  21
ENDBRANCH   1  20
BRANCH  18  25
HETATM   25  O6  UNL     1      19.591   6.477   4.715  1.00  0.00    -0.384 OA
ATOM     26  H6  UNL     1      19.198   5.919   4.055  1.00  0.00     0.211 HD
ENDBRANCH  18  25
BRANCH   8  27
HETATM   27  C12 UNL     1      19.255  10.199   0.776  1.00  0.00     0.201 C 
BRANCH  27  28
HETATM   28  O3  UNL     1      19.524  10.712  -0.467  1.00  0.00    -0.393 OA
HETATM   29  C13 UNL     1      18.423  10.510  -1.283  1.00  0.00     0.201 C 
ENDBRANCH  27  28
ENDBRANCH   8  27
BRANCH  11  30
HETATM   30  O5  UNL     1      16.111  11.365   0.931  1.00  0.00    -0.387 OA
ATOM     31  H5  UNL     1      15.354  11.939   0.948  1.00  0.00     0.210 HD
ENDBRANCH  11  30
TORSDOF 8
ENDMDL
MODEL 2
REMARK VINA RESULT: -7.765554632      0.935      1.016
REMARK  8 active torsions:
REMARK  status: ('A' for Active; 'I' for Inactive)
REMARK    1  A    between atoms: C2_2  and  C3_3 
REMARK    2  A    between atoms: C3_3  and  C4_4 
REMARK    3  A    between atoms: C4_4  and  O1_5 
REMARK    4  A    between atoms: O1_5  and  C5_6 
REMARK    5  A    between atoms: C11_13  and  C12_14 
REMARK    6  A    between atoms: C12_14  and  O3_15 
REMARK    7  A    between atoms: C15_19  and  O5_21 
REMARK    8  A    between atoms: C22_28  and  O6_29 
ROOT
HETATM    1  C5  UNL     1      21.795   7.591   3.679  1.00  0.00     0.128 C 
HETATM    2  C6  UNL     1      21.723   7.605   5.180  1.00  0.00     0.059 C 
HETATM    3  C7  UNL     1      20.859   8.675   5.714  1.00  0.00    -0.018 C 
HETATM    4  C8  UNL     1      19.707   8.902   5.121  1.00  0.00    -0.038 C 
HETATM    5  C9  UNL     1      18.427   9.604   4.950  1.00  0.00     0.098 A 
HETATM    6  C10 UNL     1      18.053  10.267   3.689  1.00  0.00     0.185 A 
HETATM    7  O2  UNL     1      18.874  11.123   3.002  1.00  0.00    -0.343 OA
HETATM    8  C11 UNL     1      18.063  11.500   1.895  1.00  0.00     0.181 C 
HETATM    9  C14 UNL     1      16.730  11.449   2.397  1.00  0.00     0.190 C 
HETATM   10  O4  UNL     1      16.858  10.898   3.697  1.00  0.00    -0.342 OA
HETATM   11  C15 UNL     1      15.605  10.757   1.768  1.00  0.00     0.086 C 
HETATM   12  C16 UNL     1      14.368  11.113   2.627  1.00  0.00     0.049 C 
HETATM   13  C17 UNL     1      15.632   9.262   1.739  1.00  0.00     0.018 C 
HETATM   14  C18 UNL     1      14.354   8.862   0.974  1.00  0.00     0.013 C 
HETATM   15  C19 UNL     1      15.637   8.601   3.074  1.00  0.00     0.008 C 
HETATM   16  C20 UNL     1      16.913   8.023   3.519  1.00  0.00     0.020 C 
HETATM   17  C21 UNL     1      18.133   8.833   3.620  1.00  0.00     0.065 A 
HETATM   18  C22 UNL     1      19.351   8.062   3.964  1.00  0.00     0.098 C 
HETATM   19  C23 UNL     1      20.511   8.051   3.021  1.00  0.00     0.076 C 
ENDROOT
BRANCH   1  20
HETATM   20  O1  UNL     1      22.121   6.364   3.166  1.00  0.00    -0.385 OA
BRANCH  20  21
HETATM   21  C4  UNL     1      22.102   5.311   4.025  1.00  0.00     0.168 C 
BRANCH  21  22
HETATM   22  C3  UNL     1      21.795   3.973   3.397  1.00  0.00     0.026 C 
BRANCH  22  23
HETATM   23  C2  UNL     1      20.397   3.586   3.866  1.00  0.00    -0.002 C 
HETATM   24  C1  UNL     1      19.793   2.524   2.992  1.00  0.00     0.005 C 
ENDBRANCH  22  23
ENDBRANCH  21  22
ENDBRANCH  20  21
ENDBRANCH   1  20
BRANCH  18  25
HETATM   25  O6  UNL     1      19.113   6.740   4.407  1.00  0.00    -0.384 OA
ATOM     26  H6  UNL     1      18.272   6.707   4.846  1.00  0.00     0.211 HD
ENDBRANCH  18  25
BRANCH   8  27
HETATM   27  C12 UNL     1      18.549  10.712   0.749  1.00  0.00     0.201 C 
BRANCH  27  28
HETATM   28  O3  UNL     1      18.302  11.204  -0.507  1.00  0.00    -0.393 OA
HETATM   29  C13 UNL     1      17.916  10.159  -1.331  1.00  0.00     0.201 C 
ENDBRANCH  27  28
ENDBRANCH   8  27
BRANCH  11  30
HETATM   30  O5  UNL     1      15.240  11.221   0.504  1.00  0.00    -0.387 OA
ATOM     31  H5  UNL     1      15.532  12.098   0.285  1.00  0.00     0.210 HD
ENDBRANCH  11  30
TORSDOF 8
ENDMDL
MODEL 3
REMARK VINA RESULT: -7.737516899      1.468      1.773
REMARK  8 active torsions:
REMARK  status: ('A' for Active; 'I' for Inactive)
REMARK    1  A    between atoms: C2_2  and  C3_3 
REMARK    2  A    between atoms: C3_3  and  C4_4 
REMARK    3  A    between atoms: C4_4  and  O1_5 
REMARK    4  A    between atoms: O1_5  and  C5_6 
REMARK    5  A    between atoms: C11_13  and  C12_14 
REMARK    6  A    between atoms: C12_14  and  O3_15 
REMARK    7  A    between atoms: C15_19  and  O5_21 
REMARK    8  A    between atoms: C22_28  and  O6_29 
ROOT
HETATM    1  C5  UNL     1      22.114   8.614   2.458  1.00  0.00     0.128 C 
HETATM    2  C6  UNL     1      22.409   8.818   3.918  1.00  0.00     0.059 C 
HETATM    3  C7  UNL     1      21.527   9.810   4.559  1.00  0.00    -0.018 C 
HETATM    4  C8  UNL     1      20.243   9.784   4.272  1.00  0.00    -0.038 C 
HETATM    5  C9  UNL     1      18.857  10.260   4.379  1.00  0.00     0.098 A 
HETATM    6  C10 UNL     1      18.076  10.686   3.204  1.00  0.00     0.185 A 
HETATM    7  O2  UNL     1      18.540  11.553   2.251  1.00  0.00    -0.343 OA
HETATM    8  C11 UNL     1      17.429  11.655   1.366  1.00  0.00     0.181 C 
HETATM    9  C14 UNL     1      16.290  11.475   2.202  1.00  0.00     0.190 C 
HETATM   10  O4  UNL     1      16.827  11.128   3.468  1.00  0.00    -0.342 OA
HETATM   11  C15 UNL     1      15.186  10.548   1.957  1.00  0.00     0.086 C 
HETATM   12  C16 UNL     1      14.153  10.829   3.075  1.00  0.00     0.049 C 
HETATM   13  C17 UNL     1      15.470   9.083   2.060  1.00  0.00     0.018 C 
HETATM   14  C18 UNL     1      14.135   8.399   1.698  1.00  0.00     0.013 C 
HETATM   15  C19 UNL     1      15.916   8.615   3.401  1.00  0.00     0.008 C 
HETATM   16  C20 UNL     1      17.344   8.296   3.547  1.00  0.00     0.020 C 
HETATM   17  C21 UNL     1      18.389   9.283   3.249  1.00  0.00     0.065 A 
HETATM   18  C22 UNL     1      19.771   8.753   3.330  1.00  0.00     0.098 C 
HETATM   19  C23 UNL     1      20.649   8.786   2.121  1.00  0.00     0.076 C 
ENDROOT
BRANCH   1  20
HETATM   20  O1  UNL     1      22.517   7.390   1.993  1.00  0.00    -0.385 OA
BRANCH  20  21
HETATM   21  C4  UNL     1      23.076   6.541   2.894  1.00  0.00     0.168 C 
BRANCH  21  22
HETATM   22  C3  UNL     1      22.665   5.095   2.755  1.00  0.00     0.026 C 
BRANCH  22  23
HETATM   23  C2  UNL     1      22.161   4.656   4.126  1.00  0.00    -0.002 C 
HETATM   24  C1  UNL     1      21.138   3.562   4.015  1.00  0.00     0.005 C 
ENDBRANCH  22  23
ENDBRANCH  21  22
ENDBRANCH  20  21
ENDBRANCH   1  20
BRANCH  18  25
HETATM   25  O6  UNL     1      19.885   7.482   3.940  1.00  0.00    -0.384 OA
ATOM     26  H6  UNL     1      19.194   6.918   3.615  1.00  0.00     0.211 HD
ENDBRANCH  18  25
BRANCH   8  27
HETATM   27  C12 UNL     1      17.753  10.801   0.210  1.00  0.00     0.201 C 
BRANCH  27  28
HETATM   28  O3  UNL     1      16.902  10.843  -0.865  1.00  0.00    -0.393 OA
HETATM   29  C13 UNL     1      17.129   9.731  -1.661  1.00  0.00     0.201 C 
ENDBRANCH  27  28
ENDBRANCH   8  27
BRANCH  11  30
HETATM   30  O5  UNL     1      14.448  10.779   0.797  1.00  0.00    -0.387 OA
ATOM     31  H5  UNL     1      13.503  10.761   0.898  1.00  0.00     0.210 HD
ENDBRANCH  11  30
TORSDOF 8
ENDMDL
MODEL 4
REMARK VINA RESULT: -7.543685520      2.058      2.822
REMARK  8 active torsions:
REMARK  status: ('A' for Active; 'I' for Inactive)
REMARK    1  A    between atoms: C2_2  and  C3_3 
REMARK    2  A    between atoms: C3_3  and  C4_4 
REMARK    3  A    between atoms: C4_4  and  O1_5 
REMARK    4  A    between atoms: O1_5  and  C5_6 
REMARK    5  A    between atoms: C11_13  and  C12_14 
REMARK    6  A    between atoms: C12_14  and  O3_15 
REMARK    7  A    between atoms: C15_19  and  O5_21 
REMARK    8  A    between atoms: C22_28  and  O6_29 
ROOT
HETATM    1  C5  UNL     1      23.529   6.343   4.916  1.00  0.00     0.128 C 
HETATM    2  C6  UNL     1      23.663   7.067   6.227  1.00  0.00     0.059 C 
HETATM    3  C7  UNL     1      23.590   8.533   6.094  1.00  0.00    -0.018 C 
HETATM    4  C8  UNL     1      22.681   9.044   5.292  1.00  0.00    -0.038 C 
HETATM    5  C9  UNL     1      21.975  10.153   4.634  1.00  0.00     0.098 A 
HETATM    6  C10 UNL     1      21.866  10.260   3.169  1.00  0.00     0.185 A 
HETATM    7  O2  UNL     1      22.927  10.126   2.311  1.00  0.00    -0.343 OA
HETATM    8  C11 UNL     1      22.319  10.332   1.041  1.00  0.00     0.181 C 
HETATM    9  C14 UNL     1      21.245  11.231   1.302  1.00  0.00     0.190 C 
HETATM   10  O4  UNL     1      21.215  11.352   2.714  1.00  0.00    -0.342 OA
HETATM   11  C15 UNL     1      19.857  11.052   0.876  1.00  0.00     0.086 C 
HETATM   12  C16 UNL     1      19.128  12.354   1.288  1.00  0.00     0.049 C 
HETATM   13  C17 UNL     1      19.067   9.954   1.513  1.00  0.00     0.018 C 
HETATM   14  C18 UNL     1      17.692  10.005   0.815  1.00  0.00     0.013 C 
HETATM   15  C19 UNL     1      18.879  10.078   2.985  1.00  0.00     0.008 C 
HETATM   16  C20 UNL     1      19.683   9.184   3.830  1.00  0.00     0.020 C 
HETATM   17  C21 UNL     1      21.148   9.159   3.751  1.00  0.00     0.065 A 
HETATM   18  C22 UNL     1      21.787   8.111   4.584  1.00  0.00     0.098 C 
HETATM   19  C23 UNL     1      22.628   7.060   3.934  1.00  0.00     0.076 C 
ENDROOT
BRANCH   1  20
HETATM   20  O1  UNL     1      23.072   5.059   5.053  1.00  0.00    -0.385 OA
BRANCH  20  21
HETATM   21  C4  UNL     1      22.296   4.569   4.052  1.00  0.00     0.168 C 
BRANCH  21  22
HETATM   22  C3  UNL     1      21.476   3.353   4.409  1.00  0.00     0.026 C 
BRANCH  22  23
HETATM   23  C2  UNL     1      20.145   3.499   3.677  1.00  0.00    -0.002 C 
HETATM   24  C1  UNL     1      19.864   2.314   2.799  1.00  0.00     0.005 C 
ENDBRANCH  22  23
ENDBRANCH  21  22
ENDBRANCH  20  21
ENDBRANCH   1  20
BRANCH  18  25
HETATM   25  O6  UNL     1      20.929   7.491   5.521  1.00  0.00    -0.384 OA
ATOM     26  H6  UNL     1      20.301   8.130   5.836  1.00  0.00     0.211 HD
ENDBRANCH  18  25
BRANCH   8  27
HETATM   27  C12 UNL     1      22.154   8.992   0.449  1.00  0.00     0.201 C 
BRANCH  27  28
HETATM   28  O3  UNL     1      23.284   8.351   0.011  1.00  0.00    -0.393 OA
HETATM   29  C13 UNL     1      23.734   8.972  -1.143  1.00  0.00     0.201 C 
ENDBRANCH  27  28
ENDBRANCH   8  27
BRANCH  11  30
HETATM   30  O5  UNL     1      19.647  11.011  -0.503  1.00  0.00    -0.387 OA
ATOM     31  H5  UNL     1      18.776  11.254  -0.795  1.00  0.00     0.210 HD
ENDBRANCH  11  30
TORSDOF 8
ENDMDL
MODEL 5
REMARK VINA RESULT: -7.410923569      2.019      3.638
REMARK  8 active torsions:
REMARK  status: ('A' for Active; 'I' for Inactive)
REMARK    1  A    between atoms: C2_2  and  C3_3 
REMARK    2  A    between atoms: C3_3  and  C4_4 
REMARK    3  A    between atoms: C4_4  and  O1_5 
REMARK    4  A    between atoms: O1_5  and  C5_6 
REMARK    5  A    between atoms: C11_13  and  C12_14 
REMARK    6  A    between atoms: C12_14  and  O3_15 
REMARK    7  A    between atoms: C15_19  and  O5_21 
REMARK    8  A    between atoms: C22_28  and  O6_29 
ROOT
HETATM    1  C5  UNL     1      18.763   8.608   4.857  1.00  0.00     0.128 C 
HETATM    2  C6  UNL     1      17.753   9.059   5.874  1.00  0.00     0.059 C 
HETATM    3  C7  UNL     1      16.881  10.144   5.391  1.00  0.00    -0.018 C 
HETATM    4  C8  UNL     1      16.407  10.067   4.166  1.00  0.00    -0.038 C 
HETATM    5  C9  UNL     1      15.622  10.553   3.021  1.00  0.00     0.098 A 
HETATM    6  C10 UNL     1      16.219  10.770   1.692  1.00  0.00     0.185 A 
HETATM    7  O2  UNL     1      17.383  11.463   1.480  1.00  0.00    -0.343 OA
HETATM    8  C11 UNL     1      17.514  11.411   0.063  1.00  0.00     0.181 C 
HETATM    9  C14 UNL     1      16.173  11.375  -0.417  1.00  0.00     0.190 C 
HETATM   10  O4  UNL     1      15.378  11.250   0.750  1.00  0.00    -0.342 OA
HETATM   11  C15 UNL     1      15.636  10.417  -1.383  1.00  0.00     0.086 C 
HETATM   12  C16 UNL     1      14.188  10.884  -1.667  1.00  0.00     0.049 C 
HETATM   13  C17 UNL     1      15.499   8.991  -0.952  1.00  0.00     0.018 C 
HETATM   14  C18 UNL     1      14.965   8.254  -2.197  1.00  0.00     0.013 C 
HETATM   15  C19 UNL     1      14.575   8.760   0.193  1.00  0.00     0.008 C 
HETATM   16  C20 UNL     1      15.196   8.473   1.494  1.00  0.00     0.020 C 
HETATM   17  C21 UNL     1      16.156   9.396   2.111  1.00  0.00     0.065 A 
HETATM   18  C22 UNL     1      16.775   8.890   3.359  1.00  0.00     0.098 C 
HETATM   19  C23 UNL     1      18.258   8.718   3.434  1.00  0.00     0.076 C 
ENDROOT
BRANCH   1  20
HETATM   20  O1  UNL     1      19.194   7.323   5.057  1.00  0.00    -0.385 OA
BRANCH  20  21
HETATM   21  C4  UNL     1      20.536   7.123   5.108  1.00  0.00     0.168 C 
BRANCH  21  22
HETATM   22  C3  UNL     1      21.031   5.891   4.389  1.00  0.00     0.026 C 
BRANCH  22  23
HETATM   23  C2  UNL     1      19.896   4.873   4.445  1.00  0.00    -0.002 C 
HETATM   24  C1  UNL     1      20.279   3.579   3.787  1.00  0.00     0.005 C 
ENDBRANCH  22  23
ENDBRANCH  21  22
ENDBRANCH  20  21
ENDBRANCH   1  20
BRANCH  18  25
HETATM   25  O6  UNL     1      16.156   7.742   3.907  1.00  0.00    -0.384 OA
ATOM     26  H6  UNL     1      16.534   6.967   3.510  1.00  0.00     0.211 HD
ENDBRANCH  18  25
BRANCH   8  27
HETATM   27  C12 UNL     1      18.522  10.371  -0.212  1.00  0.00     0.201 C 
BRANCH  27  28
HETATM   28  O3  UNL     1      19.815  10.782  -0.412  1.00  0.00    -0.393 OA
HETATM   29  C13 UNL     1      20.530  10.600   0.760  1.00  0.00     0.201 C 
ENDBRANCH  27  28
ENDBRANCH   8  27
BRANCH  11  30
HETATM   30  O5  UNL     1      16.217  10.445  -2.651  1.00  0.00    -0.387 OA
ATOM     31  H5  UNL     1      15.616  10.567  -3.378  1.00  0.00     0.210 HD
ENDBRANCH  11  30
TORSDOF 8
ENDMDL
