MODEL 1
REMARK VINA RESULT: -6.634549766      0.000      0.000
REMARK  5 active torsions:
REMARK  status: ('A' for Active; 'I' for Inactive)
REMARK    1  A    between atoms: C2_2  and  C3_3 
REMARK    2  A    between atoms: C6_6  and  N1_7 
REMARK    3  A    between atoms: N1_7  and  C7_9 
REMARK    4  A    between atoms: C7_9  and  N2_11 
REMARK    5  A    between atoms: C11_15  and  N3_16 
ROOT
HETATM    1  N2  UNL     1      24.224  37.845  23.060  1.00  0.00    -0.356 N 
HETATM    2  C8  UNL     1      24.937  36.657  23.563  1.00  0.00     0.125 C 
HETATM    3  C9  UNL     1      25.969  37.112  24.605  1.00  0.00     0.022 C 
HETATM    4  C10 UNL     1      25.311  37.970  25.639  1.00  0.00     0.029 C 
HETATM    5  C11 UNL     1      24.697  39.176  24.954  1.00  0.00     0.111 C 
HETATM    6  C14 UNL     1      23.576  38.622  24.074  1.00  0.00     0.151 C 
ENDROOT
BRANCH   1   7
HETATM    7  C7  UNL     1      24.210  38.151  21.674  1.00  0.00     0.175 C 
HETATM    8  S1  UNL     1      24.571  36.868  20.695  1.00  0.00    -0.041 SA
BRANCH   7   9
HETATM    9  N1  UNL     1      23.917  39.421  21.219  1.00  0.00    -0.314 N 
ATOM     10  H1  UNL     1      22.950  39.723  21.342  1.00  0.00     0.170 HD
BRANCH   9  11
HETATM   11  C6  UNL     1      24.780  40.362  20.605  1.00  0.00     0.150 A 
HETATM   12  C5  UNL     1      24.617  41.698  20.447  1.00  0.00     0.059 A 
HETATM   13  C4  UNL     1      25.754  42.175  19.776  1.00  0.00     0.041 A 
HETATM   14  C3  UNL     1      26.553  41.080  19.563  1.00  0.00     0.077 A 
HETATM   15  O1  UNL     1      25.951  40.062  20.058  1.00  0.00    -0.294 OA
BRANCH  14  16
HETATM   16  C2  UNL     1      27.863  41.097  18.888  1.00  0.00     0.027 C 
HETATM   17  C1  UNL     1      28.748  40.199  19.230  1.00  0.00     0.014 C 
ENDBRANCH  14  16
ENDBRANCH   9  11
ENDBRANCH   7   9
ENDBRANCH   1   7
BRANCH   5  18
HETATM   18  N3  UNL     1      24.226  40.168  25.875  1.00  0.00    -0.311 N 
HETATM   19  C12 UNL     1      24.105  40.127  27.211  1.00  0.00     0.202 A 
HETATM   20  N4  UNL     1      23.615  41.307  27.632  1.00  0.00    -0.294 N 
HETATM   21  N5  UNL     1      23.418  42.103  26.594  1.00  0.00    -0.275 N 
ATOM     22  H4  UNL     1      23.423  41.550  28.604  1.00  0.00     0.187 HD
HETATM   23  C13 UNL     1      23.796  41.398  25.518  1.00  0.00     0.194 A 
ATOM     24  H5  UNL     1      23.056  43.056  26.609  1.00  0.00     0.189 HD
HETATM   25  S2  UNL     1      23.736  41.971  23.975  1.00  0.00    -0.039 SA
ENDBRANCH   5  18
TORSDOF 5
ENDMDL
MODEL 2
REMARK VINA RESULT: -6.538057718      3.739      6.170
REMARK  5 active torsions:
REMARK  status: ('A' for Active; 'I' for Inactive)
REMARK    1  A    between atoms: C2_2  and  C3_3 
REMARK    2  A    between atoms: C6_6  and  N1_7 
REMARK    3  A    between atoms: N1_7  and  C7_9 
REMARK    4  A    between atoms: C7_9  and  N2_11 
REMARK    5  A    between atoms: C11_15  and  N3_16 
ROOT
HETATM    1  N2  UNL     1      24.698  37.249  21.126  1.00  0.00    -0.356 N 
HETATM    2  C8  UNL     1      24.208  37.604  22.470  1.00  0.00     0.125 C 
HETATM    3  C9  UNL     1      22.740  37.170  22.585  1.00  0.00     0.022 C 
HETATM    4  C10 UNL     1      22.597  35.733  22.193  1.00  0.00     0.029 C 
HETATM    5  C11 UNL     1      23.078  35.567  20.764  1.00  0.00     0.111 C 
HETATM    6  C14 UNL     1      24.579  35.860  20.800  1.00  0.00     0.151 C 
ENDROOT
BRANCH   1   7
HETATM    7  C7  UNL     1      25.236  38.240  20.263  1.00  0.00     0.175 C 
HETATM    8  S1  UNL     1      24.294  39.591  20.118  1.00  0.00    -0.041 SA
BRANCH   7   9
HETATM    9  N1  UNL     1      26.443  38.056  19.619  1.00  0.00    -0.314 N 
ATOM     10  H1  UNL     1      26.687  37.088  19.405  1.00  0.00     0.170 HD
BRANCH   9  11
HETATM   11  C6  UNL     1      27.387  39.032  19.215  1.00  0.00     0.150 A 
HETATM   12  C5  UNL     1      27.414  40.360  19.483  1.00  0.00     0.059 A 
HETATM   13  C4  UNL     1      28.554  40.884  18.855  1.00  0.00     0.041 A 
HETATM   14  C3  UNL     1      29.163  39.823  18.232  1.00  0.00     0.077 A 
HETATM   15  O1  UNL     1      28.455  38.781  18.468  1.00  0.00    -0.294 OA
BRANCH  14  16
HETATM   16  C2  UNL     1      30.404  39.895  17.443  1.00  0.00     0.027 C 
HETATM   17  C1  UNL     1      30.325  39.738  16.148  1.00  0.00     0.014 C 
ENDBRANCH  14  16
ENDBRANCH   9  11
ENDBRANCH   7   9
ENDBRANCH   1   7
BRANCH   5  18
HETATM   18  N3  UNL     1      22.789  34.273  20.219  1.00  0.00    -0.311 N 
HETATM   19  C12 UNL     1      22.790  33.064  20.801  1.00  0.00     0.202 A 
HETATM   20  N4  UNL     1      22.450  32.145  19.879  1.00  0.00    -0.294 N 
HETATM   21  N5  UNL     1      22.232  32.741  18.718  1.00  0.00    -0.275 N 
ATOM     22  H4  UNL     1      22.373  31.143  20.049  1.00  0.00     0.187 HD
HETATM   23  C13 UNL     1      22.441  34.048  18.934  1.00  0.00     0.194 A 
ATOM     24  H5  UNL     1      21.960  32.298  17.840  1.00  0.00     0.189 HD
HETATM   25  S2  UNL     1      22.290  35.208  17.774  1.00  0.00    -0.039 SA
ENDBRANCH   5  18
TORSDOF 5
ENDMDL
MODEL 3
REMARK VINA RESULT: -6.532144469      4.231      6.812
REMARK  5 active torsions:
REMARK  status: ('A' for Active; 'I' for Inactive)
REMARK    1  A    between atoms: C2_2  and  C3_3 
REMARK    2  A    between atoms: C6_6  and  N1_7 
REMARK    3  A    between atoms: N1_7  and  C7_9 
REMARK    4  A    between atoms: C7_9  and  N2_11 
REMARK    5  A    between atoms: C11_15  and  N3_16 
ROOT
HETATM    1  N2  UNL     1      23.875  35.878  20.993  1.00  0.00    -0.356 N 
HETATM    2  C8  UNL     1      23.313  35.991  22.351  1.00  0.00     0.125 C 
HETATM    3  C9  UNL     1      21.960  35.264  22.382  1.00  0.00     0.022 C 
HETATM    4  C10 UNL     1      22.112  33.874  21.848  1.00  0.00     0.029 C 
HETATM    5  C11 UNL     1      22.627  33.952  20.424  1.00  0.00     0.111 C 
HETATM    6  C14 UNL     1      24.039  34.533  20.530  1.00  0.00     0.151 C 
ENDROOT
BRANCH   1   7
HETATM    7  C7  UNL     1      24.209  37.037  20.247  1.00  0.00     0.175 C 
HETATM    8  S1  UNL     1      24.490  36.750  18.643  1.00  0.00    -0.041 SA
BRANCH   7   9
HETATM    9  N1  UNL     1      24.284  38.281  20.842  1.00  0.00    -0.314 N 
ATOM     10  H1  UNL     1      23.847  38.359  21.761  1.00  0.00     0.170 HD
BRANCH   9  11
HETATM   11  C6  UNL     1      24.887  39.464  20.347  1.00  0.00     0.150 A 
HETATM   12  C5  UNL     1      24.350  40.698  20.191  1.00  0.00     0.059 A 
HETATM   13  C4  UNL     1      25.357  41.522  19.665  1.00  0.00     0.041 A 
HETATM   14  C3  UNL     1      26.465  40.723  19.530  1.00  0.00     0.077 A 
HETATM   15  O1  UNL     1      26.145  39.550  19.935  1.00  0.00    -0.294 OA
BRANCH  14  16
HETATM   16  C2  UNL     1      27.773  41.159  19.012  1.00  0.00     0.027 C 
HETATM   17  C1  UNL     1      28.767  40.312  19.045  1.00  0.00     0.014 C 
ENDBRANCH  14  16
ENDBRANCH   9  11
ENDBRANCH   7   9
ENDBRANCH   1   7
BRANCH   5  18
HETATM   18  N3  UNL     1      22.608  32.689  19.748  1.00  0.00    -0.311 N 
HETATM   19  C12 UNL     1      23.169  31.517  20.079  1.00  0.00     0.202 A 
HETATM   20  N4  UNL     1      22.870  30.615  19.126  1.00  0.00    -0.294 N 
HETATM   21  N5  UNL     1      22.129  31.186  18.191  1.00  0.00    -0.275 N 
ATOM     22  H4  UNL     1      23.169  29.640  19.125  1.00  0.00     0.187 HD
HETATM   23  C13 UNL     1      21.971  32.460  18.579  1.00  0.00     0.194 A 
ATOM     24  H5  UNL     1      21.754  30.748  17.350  1.00  0.00     0.189 HD
HETATM   25  S2  UNL     1      21.113  33.580  17.730  1.00  0.00    -0.039 SA
ENDBRANCH   5  18
TORSDOF 5
ENDMDL
MODEL 4
REMARK VINA RESULT: -6.492054292      4.958      7.558
REMARK  5 active torsions:
REMARK  status: ('A' for Active; 'I' for Inactive)
REMARK    1  A    between atoms: C2_2  and  C3_3 
REMARK    2  A    between atoms: C6_6  and  N1_7 
REMARK    3  A    between atoms: N1_7  and  C7_9 
REMARK    4  A    between atoms: C7_9  and  N2_11 
REMARK    5  A    between atoms: C11_15  and  N3_16 
ROOT
HETATM    1  N2  UNL     1      23.644  35.060  20.522  1.00  0.00    -0.356 N 
HETATM    2  C8  UNL     1      22.578  35.408  21.479  1.00  0.00     0.125 C 
HETATM    3  C9  UNL     1      21.345  34.547  21.170  1.00  0.00     0.022 C 
HETATM    4  C10 UNL     1      21.729  33.101  21.112  1.00  0.00     0.029 C 
HETATM    5  C11 UNL     1      22.775  32.918  20.030  1.00  0.00     0.111 C 
HETATM    6  C14 UNL     1      24.011  33.676  20.520  1.00  0.00     0.151 C 
ENDROOT
BRANCH   1   7
HETATM    7  C7  UNL     1      24.227  36.053  19.691  1.00  0.00     0.175 C 
HETATM    8  S1  UNL     1      23.622  36.088  18.153  1.00  0.00    -0.041 SA
BRANCH   7   9
HETATM    9  N1  UNL     1      25.212  36.898  20.162  1.00  0.00    -0.314 N 
ATOM     10  H1  UNL     1      25.981  36.448  20.660  1.00  0.00     0.170 HD
BRANCH   9  11
HETATM   11  C6  UNL     1      25.298  38.308  20.046  1.00  0.00     0.150 A 
HETATM   12  C5  UNL     1      24.340  39.244  20.254  1.00  0.00     0.059 A 
HETATM   13  C4  UNL     1      24.926  40.495  20.008  1.00  0.00     0.041 A 
HETATM   14  C3  UNL     1      26.229  40.238  19.660  1.00  0.00     0.077 A 
HETATM   15  O1  UNL     1      26.394  38.968  19.696  1.00  0.00    -0.294 OA
BRANCH  14  16
HETATM   16  C2  UNL     1      27.235  41.257  19.312  1.00  0.00     0.027 C 
HETATM   17  C1  UNL     1      28.442  40.857  19.008  1.00  0.00     0.014 C 
ENDBRANCH  14  16
ENDBRANCH   9  11
ENDBRANCH   7   9
ENDBRANCH   1   7
BRANCH   5  18
HETATM   18  N3  UNL     1      23.058  31.542  19.747  1.00  0.00    -0.311 N 
HETATM   19  C12 UNL     1      23.899  30.686  20.348  1.00  0.00     0.202 A 
HETATM   20  N4  UNL     1      23.817  29.497  19.723  1.00  0.00    -0.294 N 
HETATM   21  N5  UNL     1      22.941  29.574  18.734  1.00  0.00    -0.275 N 
ATOM     22  H4  UNL     1      24.348  28.663  19.974  1.00  0.00     0.187 HD
HETATM   23  C13 UNL     1      22.479  30.832  18.754  1.00  0.00     0.194 A 
ATOM     24  H5  UNL     1      22.673  28.830  18.090  1.00  0.00     0.189 HD
HETATM   25  S2  UNL     1      21.356  31.417  17.701  1.00  0.00    -0.039 SA
ENDBRANCH   5  18
TORSDOF 5
ENDMDL
MODEL 5
REMARK VINA RESULT: -6.469837850      2.083      2.812
REMARK  5 active torsions:
REMARK  status: ('A' for Active; 'I' for Inactive)
REMARK    1  A    between atoms: C2_2  and  C3_3 
REMARK    2  A    between atoms: C6_6  and  N1_7 
REMARK    3  A    between atoms: N1_7  and  C7_9 
REMARK    4  A    between atoms: C7_9  and  N2_11 
REMARK    5  A    between atoms: C11_15  and  N3_16 
ROOT
HETATM    1  N2  UNL     1      24.196  37.675  20.887  1.00  0.00    -0.356 N 
HETATM    2  C8  UNL     1      23.283  36.608  21.335  1.00  0.00     0.125 C 
HETATM    3  C9  UNL     1      23.479  36.399  22.844  1.00  0.00     0.022 C 
HETATM    4  C10 UNL     1      23.364  37.707  23.563  1.00  0.00     0.029 C 
HETATM    5  C11 UNL     1      24.422  38.653  23.027  1.00  0.00     0.111 C 
HETATM    6  C14 UNL     1      24.033  38.922  21.572  1.00  0.00     0.151 C 
ENDROOT
BRANCH   1   7
HETATM    7  C7  UNL     1      25.142  37.435  19.857  1.00  0.00     0.175 C 
HETATM    8  S1  UNL     1      24.504  36.731  18.504  1.00  0.00    -0.041 SA
BRANCH   7   9
HETATM    9  N1  UNL     1      26.472  37.775  20.007  1.00  0.00    -0.314 N 
ATOM     10  H1  UNL     1      27.030  37.136  20.574  1.00  0.00     0.170 HD
BRANCH   9  11
HETATM   11  C6  UNL     1      27.165  38.893  19.478  1.00  0.00     0.150 A 
HETATM   12  C5  UNL     1      26.840  40.207  19.538  1.00  0.00     0.059 A 
HETATM   13  C4  UNL     1      27.849  40.911  18.863  1.00  0.00     0.041 A 
HETATM   14  C3  UNL     1      28.742  39.965  18.427  1.00  0.00     0.077 A 
HETATM   15  O1  UNL     1      28.305  38.820  18.805  1.00  0.00    -0.294 OA
BRANCH  14  16
HETATM   16  C2  UNL     1      29.972  40.240  17.665  1.00  0.00     0.027 C 
HETATM   17  C1  UNL     1      30.239  39.492  16.627  1.00  0.00     0.014 C 
ENDBRANCH  14  16
ENDBRANCH   9  11
ENDBRANCH   7   9
ENDBRANCH   1   7
BRANCH   5  18
HETATM   18  N3  UNL     1      24.538  39.859  23.791  1.00  0.00    -0.311 N 
HETATM   19  C12 UNL     1      24.345  41.138  23.432  1.00  0.00     0.202 A 
HETATM   20  N4  UNL     1      24.575  41.922  24.501  1.00  0.00    -0.294 N 
HETATM   21  N5  UNL     1      24.911  41.171  25.538  1.00  0.00    -0.275 N 
ATOM     22  H4  UNL     1      24.501  42.938  24.511  1.00  0.00     0.187 HD
HETATM   23  C13 UNL     1      24.886  39.906  25.095  1.00  0.00     0.194 A 
ATOM     24  H5  UNL     1      25.141  41.489  26.479  1.00  0.00     0.189 HD
HETATM   25  S2  UNL     1      25.238  38.597  26.031  1.00  0.00    -0.039 SA
ENDBRANCH   5  18
TORSDOF 5
ENDMDL
