MODEL 1
REMARK VINA RESULT: -6.655647189      0.000      0.000
REMARK  6 active torsions:
REMARK  status: ('A' for Active; 'I' for Inactive)
REMARK    1  A    between atoms: N3_7  and  C3_8 
REMARK    2  A    between atoms: C13_18  and  C14_19 
REMARK    3  A    between atoms: C14_19  and  N4_20 
REMARK    4  A    between atoms: N4_20  and  C15_23 
REMARK    5  A    between atoms: C15_23  and  O1_24 
REMARK    6  A    between atoms: C15_23  and  C16_26 
ROOT
HETATM    1  C1  UNL     1      25.821  38.274  19.945  1.00  0.00     0.072 C 
HETATM    2  C2  UNL     1      24.907  37.180  19.487  1.00  0.00     0.049 A 
HETATM    3  N1  UNL     1      24.902  36.551  18.320  1.00  0.00    -0.289 N 
ATOM      4  H1  UNL     1      25.503  36.761  17.523  1.00  0.00     0.188 HD
HETATM    5  N2  UNL     1      24.008  35.629  18.371  1.00  0.00    -0.239 N 
ATOM      6  H2  UNL     1      23.794  34.996  17.599  1.00  0.00     0.208 HD
HETATM    7  N3  UNL     1      23.385  35.598  19.570  1.00  0.00    -0.269 N 
HETATM    8  C13 UNL     1      23.884  36.556  20.319  1.00  0.00     0.080 A 
ENDROOT
BRANCH   8   9
HETATM    9  C14 UNL     1      23.768  37.133  21.617  1.00  0.00     0.296 C 
BRANCH   9  10
HETATM   10  N4  UNL     1      24.292  36.304  22.779  1.00  0.00    -0.043 N 
ATOM     11  H42 UNL     1      23.569  35.847  23.335  1.00  0.00     0.280 HD
ATOM     12  H41 UNL     1      24.773  35.447  22.507  1.00  0.00     0.280 HD
BRANCH  10  13
HETATM   13  C15 UNL     1      25.107  37.241  23.511  1.00  0.00     0.326 C 
BRANCH  13  14
HETATM   14  O1  UNL     1      24.306  38.484  23.111  1.00  0.00    -0.369 OA
ATOM     15  H1  UNL     1      23.472  38.166  23.435  1.00  0.00     0.212 HD
ENDBRANCH  13  14
BRANCH  13  16
HETATM   16  C16 UNL     1      25.178  37.461  24.938  1.00  0.00     0.000 C 
HETATM   17  C17 UNL     1      26.393  36.938  25.644  1.00  0.00     0.019 C 
HETATM   18  C18 UNL     1      25.102  38.966  25.277  1.00  0.00     0.019 C 
HETATM   19  C19 UNL     1      23.930  36.847  25.557  1.00  0.00     0.019 C 
ENDBRANCH  13  16
ENDBRANCH  10  13
ENDBRANCH   9  10
ENDBRANCH   8   9
BRANCH   7  20
HETATM   20  C3  UNL     1      22.581  34.472  20.005  1.00  0.00     0.056 C 
HETATM   21  C4  UNL     1      21.357  34.519  20.714  1.00  0.00     0.038 C 
HETATM   22  C5  UNL     1      20.817  33.113  20.978  1.00  0.00    -0.011 C 
HETATM   23  C6  UNL     1      20.486  32.375  19.724  1.00  0.00     0.009 C 
HETATM   24  C10 UNL     1      21.817  32.340  21.767  1.00  0.00     0.009 C 
HETATM   25  C7  UNL     1      21.774  32.389  18.871  1.00  0.00    -0.011 C 
HETATM   26  C8  UNL     1      22.759  31.491  19.578  1.00  0.00     0.009 C 
HETATM   27  C12 UNL     1      22.230  33.778  18.666  1.00  0.00     0.038 C 
HETATM   28  C9  UNL     1      23.048  32.186  20.903  1.00  0.00    -0.011 C 
HETATM   29  C11 UNL     1      23.642  33.497  20.580  1.00  0.00     0.038 C 
ENDBRANCH   7  20
TORSDOF 6
ENDMDL
MODEL 2
REMARK VINA RESULT: -6.440410663      0.388      1.503
REMARK  6 active torsions:
REMARK  status: ('A' for Active; 'I' for Inactive)
REMARK    1  A    between atoms: N3_7  and  C3_8 
REMARK    2  A    between atoms: C13_18  and  C14_19 
REMARK    3  A    between atoms: C14_19  and  N4_20 
REMARK    4  A    between atoms: N4_20  and  C15_23 
REMARK    5  A    between atoms: C15_23  and  O1_24 
REMARK    6  A    between atoms: C15_23  and  C16_26 
ROOT
HETATM    1  C1  UNL     1      25.735  38.585  19.979  1.00  0.00     0.072 C 
HETATM    2  C2  UNL     1      24.989  37.389  19.472  1.00  0.00     0.049 A 
HETATM    3  N1  UNL     1      25.087  36.805  18.287  1.00  0.00    -0.289 N 
ATOM      4  H1  UNL     1      25.660  37.124  17.506  1.00  0.00     0.188 HD
HETATM    5  N2  UNL     1      24.331  35.764  18.294  1.00  0.00    -0.239 N 
ATOM      6  H2  UNL     1      24.218  35.134  17.500  1.00  0.00     0.208 HD
HETATM    7  N3  UNL     1      23.707  35.606  19.482  1.00  0.00    -0.269 N 
HETATM    8  C13 UNL     1      24.056  36.599  20.269  1.00  0.00     0.080 A 
ENDROOT
BRANCH   8   9
HETATM    9  C14 UNL     1      23.846  37.109  21.582  1.00  0.00     0.296 C 
BRANCH   9  10
HETATM   10  N4  UNL     1      24.477  36.329  22.725  1.00  0.00    -0.043 N 
ATOM     11  H42 UNL     1      23.825  35.745  23.250  1.00  0.00     0.280 HD
ATOM     12  H41 UNL     1      25.088  35.566  22.432  1.00  0.00     0.280 HD
BRANCH  10  13
HETATM   13  C15 UNL     1      25.127  37.352  23.504  1.00  0.00     0.326 C 
BRANCH  13  14
HETATM   14  O1  UNL     1      24.116  38.456  23.178  1.00  0.00    -0.369 OA
ATOM     15  H1  UNL     1      23.592  37.931  22.586  1.00  0.00     0.212 HD
ENDBRANCH  13  14
BRANCH  13  16
HETATM   16  C16 UNL     1      25.178  37.503  24.941  1.00  0.00     0.000 C 
HETATM   17  C17 UNL     1      26.381  36.941  25.638  1.00  0.00     0.019 C 
HETATM   18  C18 UNL     1      25.104  38.991  25.351  1.00  0.00     0.019 C 
HETATM   19  C19 UNL     1      23.919  36.866  25.513  1.00  0.00     0.019 C 
ENDBRANCH  13  16
ENDBRANCH  10  13
ENDBRANCH   9  10
ENDBRANCH   8   9
BRANCH   7  20
HETATM   20  C3  UNL     1      23.066  34.363  19.869  1.00  0.00     0.056 C 
HETATM   21  C4  UNL     1      23.592  33.356  20.712  1.00  0.00     0.038 C 
HETATM   22  C5  UNL     1      22.601  32.204  20.881  1.00  0.00    -0.011 C 
HETATM   23  C6  UNL     1      21.336  32.621  21.554  1.00  0.00     0.009 C 
HETATM   24  C10 UNL     1      22.291  31.620  19.546  1.00  0.00     0.009 C 
HETATM   25  C7  UNL     1      20.778  33.794  20.718  1.00  0.00    -0.011 C 
HETATM   26  C8  UNL     1      20.321  33.200  19.409  1.00  0.00     0.009 C 
HETATM   27  C12 UNL     1      21.794  34.859  20.600  1.00  0.00     0.038 C 
HETATM   28  C9  UNL     1      21.591  32.690  18.740  1.00  0.00    -0.011 C 
HETATM   29  C11 UNL     1      22.466  33.859  18.530  1.00  0.00     0.038 C 
ENDBRANCH   7  20
TORSDOF 6
ENDMDL
MODEL 3
REMARK VINA RESULT: -6.363843689      1.942      6.270
REMARK  6 active torsions:
REMARK  status: ('A' for Active; 'I' for Inactive)
REMARK    1  A    between atoms: N3_7  and  C3_8 
REMARK    2  A    between atoms: C13_18  and  C14_19 
REMARK    3  A    between atoms: C14_19  and  N4_20 
REMARK    4  A    between atoms: N4_20  and  C15_23 
REMARK    5  A    between atoms: C15_23  and  O1_24 
REMARK    6  A    between atoms: C15_23  and  C16_26 
ROOT
HETATM    1  C1  UNL     1      23.778  35.891  18.095  1.00  0.00     0.072 C 
HETATM    2  C2  UNL     1      24.273  36.389  19.417  1.00  0.00     0.049 A 
HETATM    3  N1  UNL     1      25.274  37.224  19.655  1.00  0.00    -0.289 N 
ATOM      4  H1  UNL     1      25.904  37.619  18.958  1.00  0.00     0.188 HD
HETATM    5  N2  UNL     1      25.310  37.449  20.921  1.00  0.00    -0.239 N 
ATOM      6  H2  UNL     1      25.992  38.057  21.374  1.00  0.00     0.208 HD
HETATM    7  N3  UNL     1      24.334  36.783  21.577  1.00  0.00    -0.269 N 
HETATM    8  C13 UNL     1      23.652  36.080  20.701  1.00  0.00     0.080 A 
ENDROOT
BRANCH   8   9
HETATM    9  C14 UNL     1      22.549  35.182  20.605  1.00  0.00     0.296 C 
BRANCH   9  10
HETATM   10  N4  UNL     1      22.714  33.828  21.277  1.00  0.00    -0.043 N 
ATOM     11  H42 UNL     1      23.437  33.796  21.997  1.00  0.00     0.280 HD
ATOM     12  H41 UNL     1      21.944  33.562  21.890  1.00  0.00     0.280 HD
BRANCH  10  13
HETATM   13  C15 UNL     1      22.933  32.934  20.168  1.00  0.00     0.326 C 
BRANCH  13  14
HETATM   14  O1  UNL     1      24.445  32.805  20.373  1.00  0.00    -0.369 OA
ATOM     15  H1  UNL     1      24.688  33.284  19.590  1.00  0.00     0.212 HD
ENDBRANCH  13  14
BRANCH  13  16
HETATM   16  C16 UNL     1      22.596  31.534  20.050  1.00  0.00     0.000 C 
HETATM   17  C17 UNL     1      22.062  31.075  18.726  1.00  0.00     0.019 C 
HETATM   18  C18 UNL     1      23.815  30.636  20.353  1.00  0.00     0.019 C 
HETATM   19  C19 UNL     1      21.582  31.215  21.141  1.00  0.00     0.019 C 
ENDBRANCH  13  16
ENDBRANCH  10  13
ENDBRANCH   9  10
ENDBRANCH   8   9
BRANCH   7  20
HETATM   20  C3  UNL     1      23.947  37.104  22.938  1.00  0.00     0.056 C 
HETATM   21  C4  UNL     1      23.008  36.418  23.744  1.00  0.00     0.038 C 
HETATM   22  C5  UNL     1      22.887  37.066  25.124  1.00  0.00    -0.011 C 
HETATM   23  C6  UNL     1      24.157  37.003  25.906  1.00  0.00     0.009 C 
HETATM   24  C10 UNL     1      22.463  38.485  24.968  1.00  0.00     0.009 C 
HETATM   25  C7  UNL     1      25.237  37.654  25.014  1.00  0.00    -0.011 C 
HETATM   26  C8  UNL     1      24.909  39.125  24.960  1.00  0.00     0.009 C 
HETATM   27  C12 UNL     1      25.287  36.975  23.704  1.00  0.00     0.038 C 
HETATM   28  C9  UNL     1      23.571  39.207  24.237  1.00  0.00    -0.011 C 
HETATM   29  C11 UNL     1      23.776  38.645  22.888  1.00  0.00     0.038 C 
ENDBRANCH   7  20
TORSDOF 6
ENDMDL
MODEL 4
REMARK VINA RESULT: -6.218347976      2.027      6.143
REMARK  6 active torsions:
REMARK  status: ('A' for Active; 'I' for Inactive)
REMARK    1  A    between atoms: N3_7  and  C3_8 
REMARK    2  A    between atoms: C13_18  and  C14_19 
REMARK    3  A    between atoms: C14_19  and  N4_20 
REMARK    4  A    between atoms: N4_20  and  C15_23 
REMARK    5  A    between atoms: C15_23  and  O1_24 
REMARK    6  A    between atoms: C15_23  and  C16_26 
ROOT
HETATM    1  C1  UNL     1      23.284  35.509  17.741  1.00  0.00     0.072 C 
HETATM    2  C2  UNL     1      23.998  36.098  18.918  1.00  0.00     0.049 A 
HETATM    3  N1  UNL     1      25.033  36.926  18.917  1.00  0.00    -0.289 N 
ATOM      4  H1  UNL     1      25.541  37.250  18.094  1.00  0.00     0.188 HD
HETATM    5  N2  UNL     1      25.283  37.249  20.136  1.00  0.00    -0.239 N 
ATOM      6  H2  UNL     1      26.037  37.875  20.419  1.00  0.00     0.208 HD
HETATM    7  N3  UNL     1      24.424  36.659  20.998  1.00  0.00    -0.269 N 
HETATM    8  C13 UNL     1      23.598  35.906  20.308  1.00  0.00     0.080 A 
ENDROOT
BRANCH   8   9
HETATM    9  C14 UNL     1      22.486  35.029  20.470  1.00  0.00     0.296 C 
BRANCH   9  10
HETATM   10  N4  UNL     1      22.743  33.739  21.232  1.00  0.00    -0.043 N 
ATOM     11  H42 UNL     1      23.484  33.799  21.931  1.00  0.00     0.280 HD
ATOM     12  H41 UNL     1      22.004  33.477  21.886  1.00  0.00     0.280 HD
BRANCH  10  13
HETATM   13  C15 UNL     1      22.983  32.779  20.184  1.00  0.00     0.326 C 
BRANCH  13  14
HETATM   14  O1  UNL     1      24.502  32.727  20.371  1.00  0.00    -0.369 OA
ATOM     15  H1  UNL     1      24.574  33.575  20.793  1.00  0.00     0.212 HD
ENDBRANCH  13  14
BRANCH  13  16
HETATM   16  C16 UNL     1      22.703  31.362  20.170  1.00  0.00     0.000 C 
HETATM   17  C17 UNL     1      23.858  30.441  20.424  1.00  0.00     0.019 C 
HETATM   18  C18 UNL     1      21.625  30.992  21.214  1.00  0.00     0.019 C 
HETATM   19  C19 UNL     1      22.082  31.032  18.819  1.00  0.00     0.019 C 
ENDBRANCH  13  16
ENDBRANCH  10  13
ENDBRANCH   9  10
ENDBRANCH   8   9
BRANCH   7  20
HETATM   20  C3  UNL     1      24.274  37.096  22.373  1.00  0.00     0.056 C 
HETATM   21  C4  UNL     1      24.996  36.636  23.499  1.00  0.00     0.038 C 
HETATM   22  C5  UNL     1      24.547  37.353  24.774  1.00  0.00    -0.011 C 
HETATM   23  C6  UNL     1      24.818  38.820  24.739  1.00  0.00     0.009 C 
HETATM   24  C10 UNL     1      23.092  37.116  24.988  1.00  0.00     0.009 C 
HETATM   25  C7  UNL     1      24.129  39.348  23.462  1.00  0.00    -0.011 C 
HETATM   26  C8  UNL     1      22.645  39.253  23.712  1.00  0.00     0.009 C 
HETATM   27  C12 UNL     1      24.614  38.604  22.281  1.00  0.00     0.038 C 
HETATM   28  C9  UNL     1      22.358  37.762  23.835  1.00  0.00    -0.011 C 
HETATM   29  C11 UNL     1      22.733  37.145  22.548  1.00  0.00     0.038 C 
ENDBRANCH   7  20
TORSDOF 6
ENDMDL
MODEL 5
REMARK VINA RESULT: -6.210622286      2.555      6.365
REMARK  6 active torsions:
REMARK  status: ('A' for Active; 'I' for Inactive)
REMARK    1  A    between atoms: N3_7  and  C3_8 
REMARK    2  A    between atoms: C13_18  and  C14_19 
REMARK    3  A    between atoms: C14_19  and  N4_20 
REMARK    4  A    between atoms: N4_20  and  C15_23 
REMARK    5  A    between atoms: C15_23  and  O1_24 
REMARK    6  A    between atoms: C15_23  and  C16_26 
ROOT
HETATM    1  C1  UNL     1      24.566  41.170  19.615  1.00  0.00     0.072 C 
HETATM    2  C2  UNL     1      24.717  40.913  21.082  1.00  0.00     0.049 A 
HETATM    3  N1  UNL     1      25.115  41.757  22.024  1.00  0.00    -0.289 N 
ATOM      4  H1  UNL     1      25.437  42.713  21.875  1.00  0.00     0.188 HD
HETATM    5  N2  UNL     1      25.025  41.156  23.157  1.00  0.00    -0.239 N 
ATOM      6  H2  UNL     1      25.276  41.581  24.051  1.00  0.00     0.208 HD
HETATM    7  N3  UNL     1      24.558  39.896  23.022  1.00  0.00    -0.269 N 
HETATM    8  C13 UNL     1      24.358  39.664  21.744  1.00  0.00     0.080 A 
ENDROOT
BRANCH   8   9
HETATM    9  C14 UNL     1      23.907  38.649  20.851  1.00  0.00     0.296 C 
BRANCH   9  10
HETATM   10  N4  UNL     1      24.707  37.356  20.830  1.00  0.00    -0.043 N 
ATOM     11  H42 UNL     1      25.603  37.420  20.347  1.00  0.00     0.280 HD
ATOM     12  H41 UNL     1      25.093  37.081  21.733  1.00  0.00     0.280 HD
BRANCH  10  13
HETATM   13  C15 UNL     1      23.785  36.407  20.258  1.00  0.00     0.326 C 
BRANCH  13  14
HETATM   14  O1  UNL     1      24.838  35.638  19.455  1.00  0.00    -0.369 OA
ATOM     15  H1  UNL     1      24.389  35.708  18.621  1.00  0.00     0.212 HD
ENDBRANCH  13  14
BRANCH  13  16
HETATM   16  C16 UNL     1      23.119  35.293  20.894  1.00  0.00     0.000 C 
HETATM   17  C17 UNL     1      22.654  35.498  22.304  1.00  0.00     0.019 C 
HETATM   18  C18 UNL     1      21.873  34.853  20.093  1.00  0.00     0.019 C 
HETATM   19  C19 UNL     1      24.069  34.104  20.843  1.00  0.00     0.019 C 
ENDBRANCH  13  16
ENDBRANCH  10  13
ENDBRANCH   9  10
ENDBRANCH   8   9
BRANCH   7  20
HETATM   20  C3  UNL     1      24.058  39.122  24.143  1.00  0.00     0.056 C 
HETATM   21  C4  UNL     1      22.762  38.577  24.296  1.00  0.00     0.038 C 
HETATM   22  C5  UNL     1      22.633  37.820  25.618  1.00  0.00    -0.011 C 
HETATM   23  C6  UNL     1      23.540  36.638  25.699  1.00  0.00     0.009 C 
HETATM   24  C10 UNL     1      22.915  38.748  26.748  1.00  0.00     0.009 C 
HETATM   25  C7  UNL     1      24.963  37.176  25.436  1.00  0.00    -0.011 C 
HETATM   26  C8  UNL     1      25.331  38.006  26.640  1.00  0.00     0.009 C 
HETATM   27  C12 UNL     1      25.001  37.894  24.146  1.00  0.00     0.038 C 
HETATM   28  C9  UNL     1      24.359  39.179  26.625  1.00  0.00    -0.011 C 
HETATM   29  C11 UNL     1      24.592  39.914  25.367  1.00  0.00     0.038 C 
ENDBRANCH   7  20
TORSDOF 6
ENDMDL
