MODEL 1
REMARK VINA RESULT: -3.665621769      0.000      0.000
REMARK  2 active torsions:
REMARK  status: ('A' for Active; 'I' for Inactive)
REMARK    1  A    between atoms: C2_2  and  C3_3 
REMARK    2  A    between atoms: C3_3  and  O1_4 
ROOT
HETATM    1  C1  UNL     1       6.157 -34.059 -32.975  1.00  0.00     0.030 C 
HETATM    2  C2  UNL     1       7.478 -33.360 -32.954  1.00  0.00     0.037 C 
HETATM    3  C4  UNL     1       7.645 -32.423 -34.099  1.00  0.00     0.034 C 
HETATM    4  C5  UNL     1       6.485 -31.474 -34.161  1.00  0.00     0.088 C 
HETATM    5  S1  UNL     1       6.500 -30.612 -32.531  1.00  0.00    -0.097 SA
HETATM    6  S2  UNL     1       7.435 -32.258 -31.476  1.00  0.00    -0.086 SA
ENDROOT
BRANCH   2   7
HETATM    7  C3  UNL     1       8.646 -34.285 -32.905  1.00  0.00     0.185 C 
BRANCH   7   8
HETATM    8  O1  UNL     1       9.097 -34.431 -31.613  1.00  0.00    -0.399 OA
ATOM      9  H1  UNL     1       9.635 -35.210 -31.531  1.00  0.00     0.209 HD
ENDBRANCH   7   8
ENDBRANCH   2   7
TORSDOF 2
ENDMDL
MODEL 2
REMARK VINA RESULT: -3.648218560      2.057      2.586
REMARK  2 active torsions:
REMARK  status: ('A' for Active; 'I' for Inactive)
REMARK    1  A    between atoms: C2_2  and  C3_3 
REMARK    2  A    between atoms: C3_3  and  O1_4 
ROOT
HETATM    1  C1  UNL     1       5.910 -33.487 -32.664  1.00  0.00     0.030 C 
HETATM    2  C2  UNL     1       7.353 -33.107 -32.756  1.00  0.00     0.037 C 
HETATM    3  C4  UNL     1       8.222 -34.255 -33.131  1.00  0.00     0.034 C 
HETATM    4  C5  UNL     1       7.709 -34.900 -34.385  1.00  0.00     0.088 C 
HETATM    5  S1  UNL     1       7.731 -33.552 -35.644  1.00  0.00    -0.097 SA
HETATM    6  S2  UNL     1       7.477 -31.961 -34.195  1.00  0.00    -0.086 SA
ENDROOT
BRANCH   2   7
HETATM    7  C3  UNL     1       7.887 -32.475 -31.515  1.00  0.00     0.185 C 
BRANCH   7   8
HETATM    8  O1  UNL     1       8.864 -33.262 -30.949  1.00  0.00    -0.399 OA
ATOM      9  H1  UNL     1       8.996 -34.052 -31.459  1.00  0.00     0.209 HD
ENDBRANCH   7   8
ENDBRANCH   2   7
TORSDOF 2
ENDMDL
MODEL 3
REMARK VINA RESULT: -3.645395174      4.770      5.105
REMARK  2 active torsions:
REMARK  status: ('A' for Active; 'I' for Inactive)
REMARK    1  A    between atoms: C2_2  and  C3_3 
REMARK    2  A    between atoms: C3_3  and  O1_4 
ROOT
HETATM    1  C1  UNL     1       9.258 -33.817 -36.206  1.00  0.00     0.030 C 
HETATM    2  C2  UNL     1       9.488 -35.274 -35.960  1.00  0.00     0.037 C 
HETATM    3  C4  UNL     1       8.366 -35.911 -35.219  1.00  0.00     0.034 C 
HETATM    4  C5  UNL     1       7.067 -35.637 -35.917  1.00  0.00     0.088 C 
HETATM    5  S1  UNL     1       7.289 -36.339 -37.608  1.00  0.00    -0.097 SA
HETATM    6  S2  UNL     1       9.440 -36.074 -37.621  1.00  0.00    -0.086 SA
ENDROOT
BRANCH   2   7
HETATM    7  C3  UNL     1      10.769 -35.568 -35.256  1.00  0.00     0.185 C 
BRANCH   7   8
HETATM    8  O1  UNL     1      10.902 -34.777 -34.137  1.00  0.00    -0.399 OA
ATOM      9  H1  UNL     1      10.748 -35.283 -33.348  1.00  0.00     0.209 HD
ENDBRANCH   7   8
ENDBRANCH   2   7
TORSDOF 2
ENDMDL
MODEL 4
REMARK VINA RESULT: -3.614840815      2.837      3.309
REMARK  2 active torsions:
REMARK  status: ('A' for Active; 'I' for Inactive)
REMARK    1  A    between atoms: C2_2  and  C3_3 
REMARK    2  A    between atoms: C3_3  and  O1_4 
ROOT
HETATM    1  C1  UNL     1       7.195 -35.211 -34.387  1.00  0.00     0.030 C 
HETATM    2  C2  UNL     1       8.246 -34.221 -33.998  1.00  0.00     0.037 C 
HETATM    3  C4  UNL     1       9.615 -34.665 -34.378  1.00  0.00     0.034 C 
HETATM    4  C5  UNL     1       9.656 -35.016 -35.836  1.00  0.00     0.088 C 
HETATM    5  S1  UNL     1       9.146 -33.469 -36.702  1.00  0.00    -0.097 SA
HETATM    6  S2  UNL     1       7.948 -32.738 -35.051  1.00  0.00    -0.086 SA
ENDROOT
BRANCH   2   7
HETATM    7  C3  UNL     1       8.231 -33.868 -32.550  1.00  0.00     0.185 C 
BRANCH   7   8
HETATM    8  O1  UNL     1       9.191 -34.578 -31.865  1.00  0.00    -0.399 OA
ATOM      9  H1  UNL     1       8.862 -35.433 -31.615  1.00  0.00     0.209 HD
ENDBRANCH   7   8
ENDBRANCH   2   7
TORSDOF 2
ENDMDL
MODEL 5
REMARK VINA RESULT: -3.596287609      4.892      5.232
REMARK  2 active torsions:
REMARK  status: ('A' for Active; 'I' for Inactive)
REMARK    1  A    between atoms: C2_2  and  C3_3 
REMARK    2  A    between atoms: C3_3  and  O1_4 
ROOT
HETATM    1  C1  UNL     1       8.398 -35.805 -35.610  1.00  0.00     0.030 C 
HETATM    2  C2  UNL     1       9.723 -35.433 -36.193  1.00  0.00     0.037 C 
HETATM    3  C4  UNL     1       9.994 -36.126 -37.482  1.00  0.00     0.034 C 
HETATM    4  C5  UNL     1       8.856 -35.904 -38.434  1.00  0.00     0.088 C 
HETATM    5  S1  UNL     1       8.756 -34.072 -38.621  1.00  0.00    -0.097 SA
HETATM    6  S2  UNL     1       9.581 -33.655 -36.661  1.00  0.00    -0.086 SA
ENDROOT
BRANCH   2   7
HETATM    7  C3  UNL     1      10.870 -35.657 -35.267  1.00  0.00     0.185 C 
BRANCH   7   8
HETATM    8  O1  UNL     1      10.835 -34.762 -34.222  1.00  0.00    -0.399 OA
ATOM      9  H1  UNL     1      11.069 -33.890 -34.519  1.00  0.00     0.209 HD
ENDBRANCH   7   8
ENDBRANCH   2   7
TORSDOF 2
ENDMDL
