MODEL 1
REMARK VINA RESULT: -7.209498170      0.000      0.000
REMARK  4 active torsions:
REMARK  status: ('A' for Active; 'I' for Inactive)
REMARK    1  A    between atoms: C2_2  and  C3_3 
REMARK    2  A    between atoms: C3_3  and  C4_4 
REMARK    3  A    between atoms: C4_4  and  O2_6 
REMARK    4  A    between atoms: O2_6  and  C5_7 
ROOT
HETATM    1  C5  UNL     1       5.858  10.226  45.557  1.00  0.00     0.141 C 
HETATM    2  C6  UNL     1       6.546   9.084  46.230  1.00  0.00     0.033 C 
HETATM    3  C7  UNL     1       6.665   7.832  45.434  1.00  0.00     0.003 C 
HETATM    4  C8  UNL     1       6.866   8.117  43.977  1.00  0.00     0.013 C 
HETATM    5  C9  UNL     1       7.459   9.504  43.874  1.00  0.00     0.066 C 
HETATM    6  C10 UNL     1       8.218   9.713  42.641  1.00  0.00     0.135 C 
HETATM    7  O3  UNL     1       9.052  10.601  42.650  1.00  0.00    -0.297 OA
HETATM    8  C11 UNL     1       8.217   9.062  41.304  1.00  0.00     0.112 C 
HETATM    9  C12 UNL     1       6.833   9.112  40.739  1.00  0.00    -0.081 C 
HETATM   10  C13 UNL     1       6.628   8.034  39.737  1.00  0.00     0.043 C 
HETATM   11  C14 UNL     1       5.769   9.900  40.937  1.00  0.00    -0.024 C 
HETATM   12  C15 UNL     1       5.579  11.086  41.855  1.00  0.00     0.028 C 
HETATM   13  C16 UNL     1       5.314  10.675  43.246  1.00  0.00     0.016 C 
HETATM   14  C17 UNL     1       6.463  10.574  44.184  1.00  0.00    -0.007 C 
HETATM   15  C18 UNL     1       7.182  11.898  44.273  1.00  0.00     0.018 C 
ENDROOT
BRANCH   1  16
HETATM   16  O2  UNL     1       6.016  11.356  46.408  1.00  0.00    -0.315 OA
BRANCH  16  17
HETATM   17  C4  UNL     1       5.035  11.883  47.187  1.00  0.00     0.262 C 
HETATM   18  O1  UNL     1       5.201  11.945  48.433  1.00  0.00    -0.265 OA
BRANCH  17  19
HETATM   19  C3  UNL     1       3.748  12.400  46.608  1.00  0.00     0.137 C 
BRANCH  19  20
HETATM   20  C2  UNL     1       4.038  13.672  45.931  1.00  0.00    -0.027 C 
HETATM   21  C1  UNL     1       4.059  13.833  44.634  1.00  0.00     0.007 C 
ENDBRANCH  19  20
ENDBRANCH  17  19
ENDBRANCH  16  17
ENDBRANCH   1  16
TORSDOF 4
ENDMDL
MODEL 2
REMARK VINA RESULT: -6.730017078      1.265      1.541
REMARK  4 active torsions:
REMARK  status: ('A' for Active; 'I' for Inactive)
REMARK    1  A    between atoms: C2_2  and  C3_3 
REMARK    2  A    between atoms: C3_3  and  C4_4 
REMARK    3  A    between atoms: C4_4  and  O2_6 
REMARK    4  A    between atoms: O2_6  and  C5_7 
ROOT
HETATM    1  C5  UNL     1       6.225   9.969  44.603  1.00  0.00     0.141 C 
HETATM    2  C6  UNL     1       6.578   8.885  45.568  1.00  0.00     0.033 C 
HETATM    3  C7  UNL     1       6.469   7.493  45.054  1.00  0.00     0.003 C 
HETATM    4  C8  UNL     1       6.845   7.404  43.607  1.00  0.00     0.013 C 
HETATM    5  C9  UNL     1       7.745   8.580  43.309  1.00  0.00     0.066 C 
HETATM    6  C10 UNL     1       8.628   8.353  42.164  1.00  0.00     0.135 C 
HETATM    7  O3  UNL     1       9.639   9.029  42.103  1.00  0.00    -0.297 OA
HETATM    8  C11 UNL     1       8.582   7.440  40.991  1.00  0.00     0.112 C 
HETATM    9  C12 UNL     1       7.296   7.651  40.259  1.00  0.00    -0.081 C 
HETATM   10  C13 UNL     1       6.929   6.446  39.469  1.00  0.00     0.043 C 
HETATM   11  C14 UNL     1       6.429   8.667  40.164  1.00  0.00    -0.024 C 
HETATM   12  C15 UNL     1       6.444  10.037  40.800  1.00  0.00     0.028 C 
HETATM   13  C16 UNL     1       5.982  10.005  42.200  1.00  0.00     0.016 C 
HETATM   14  C17 UNL     1       7.000   9.875  43.276  1.00  0.00    -0.007 C 
HETATM   15  C18 UNL     1       7.994  11.008  43.193  1.00  0.00     0.018 C 
ENDROOT
BRANCH   1  16
HETATM   16  O2  UNL     1       6.570  11.200  45.230  1.00  0.00    -0.315 OA
BRANCH  16  17
HETATM   17  C4  UNL     1       5.679  12.070  45.773  1.00  0.00     0.262 C 
HETATM   18  O1  UNL     1       5.770  12.369  46.991  1.00  0.00    -0.265 OA
BRANCH  17  19
HETATM   19  C3  UNL     1       4.578  12.695  44.962  1.00  0.00     0.137 C 
BRANCH  19  20
HETATM   20  C2  UNL     1       5.191  13.338  43.791  1.00  0.00    -0.027 C 
HETATM   21  C1  UNL     1       4.635  13.412  42.610  1.00  0.00     0.007 C 
ENDBRANCH  19  20
ENDBRANCH  17  19
ENDBRANCH  16  17
ENDBRANCH   1  16
TORSDOF 4
ENDMDL
MODEL 3
REMARK VINA RESULT: -6.698814575      1.583      2.153
REMARK  4 active torsions:
REMARK  status: ('A' for Active; 'I' for Inactive)
REMARK    1  A    between atoms: C2_2  and  C3_3 
REMARK    2  A    between atoms: C3_3  and  C4_4 
REMARK    3  A    between atoms: C4_4  and  O2_6 
REMARK    4  A    between atoms: O2_6  and  C5_7 
ROOT
HETATM    1  C5  UNL     1       6.628   9.056  44.067  1.00  0.00     0.141 C 
HETATM    2  C6  UNL     1       7.030   7.798  44.765  1.00  0.00     0.033 C 
HETATM    3  C7  UNL     1       6.970   6.552  43.952  1.00  0.00     0.003 C 
HETATM    4  C8  UNL     1       7.336   6.804  42.522  1.00  0.00     0.013 C 
HETATM    5  C9  UNL     1       8.188   8.051  42.495  1.00  0.00     0.066 C 
HETATM    6  C10 UNL     1       9.069   8.120  41.328  1.00  0.00     0.135 C 
HETATM    7  O3  UNL     1      10.053   8.831  41.420  1.00  0.00    -0.297 OA
HETATM    8  C11 UNL     1       9.048   7.492  39.981  1.00  0.00     0.112 C 
HETATM    9  C12 UNL     1       7.749   7.811  39.314  1.00  0.00    -0.081 C 
HETATM   10  C13 UNL     1       7.422   6.800  38.275  1.00  0.00     0.043 C 
HETATM   11  C14 UNL     1       6.843   8.787  39.448  1.00  0.00    -0.024 C 
HETATM   12  C15 UNL     1       6.811   9.980  40.375  1.00  0.00     0.028 C 
HETATM   13  C16 UNL     1       6.363   9.618  41.732  1.00  0.00     0.016 C 
HETATM   14  C17 UNL     1       7.394   9.291  42.753  1.00  0.00    -0.007 C 
HETATM   15  C18 UNL     1       8.343  10.452  42.925  1.00  0.00     0.018 C 
ENDROOT
BRANCH   1  16
HETATM   16  O2  UNL     1       6.931  10.128  44.953  1.00  0.00    -0.315 OA
BRANCH  16  17
HETATM   17  C4  UNL     1       6.022  10.769  45.733  1.00  0.00     0.262 C 
HETATM   18  O1  UNL     1       6.086  10.649  46.984  1.00  0.00    -0.265 OA
BRANCH  17  19
HETATM   19  C3  UNL     1       4.933  11.625  45.150  1.00  0.00     0.137 C 
BRANCH  19  20
HETATM   20  C2  UNL     1       5.557  12.576  44.220  1.00  0.00    -0.027 C 
HETATM   21  C1  UNL     1       5.076  12.890  43.045  1.00  0.00     0.007 C 
ENDBRANCH  19  20
ENDBRANCH  17  19
ENDBRANCH  16  17
ENDBRANCH   1  16
TORSDOF 4
ENDMDL
MODEL 4
REMARK VINA RESULT: -6.688006472      2.479      6.103
REMARK  4 active torsions:
REMARK  status: ('A' for Active; 'I' for Inactive)
REMARK    1  A    between atoms: C2_2  and  C3_3 
REMARK    2  A    between atoms: C3_3  and  C4_4 
REMARK    3  A    between atoms: C4_4  and  O2_6 
REMARK    4  A    between atoms: O2_6  and  C5_7 
ROOT
HETATM    1  C5  UNL     1       8.590   7.853  43.760  1.00  0.00     0.141 C 
HETATM    2  C6  UNL     1       7.601   6.733  43.779  1.00  0.00     0.033 C 
HETATM    3  C7  UNL     1       6.376   6.957  44.595  1.00  0.00     0.003 C 
HETATM    4  C8  UNL     1       5.936   8.387  44.555  1.00  0.00     0.013 C 
HETATM    5  C9  UNL     1       6.492   8.988  43.285  1.00  0.00     0.066 C 
HETATM    6  C10 UNL     1       5.727  10.143  42.813  1.00  0.00     0.135 C 
HETATM    7  O3  UNL     1       5.825  10.426  41.633  1.00  0.00    -0.297 OA
HETATM    8  C11 UNL     1       4.806  11.109  43.469  1.00  0.00     0.112 C 
HETATM    9  C12 UNL     1       5.510  11.747  44.623  1.00  0.00    -0.081 C 
HETATM   10  C13 UNL     1       4.537  12.253  45.627  1.00  0.00     0.043 C 
HETATM   11  C14 UNL     1       6.794  11.957  44.936  1.00  0.00    -0.024 C 
HETATM   12  C15 UNL     1       8.060  11.601  44.191  1.00  0.00     0.028 C 
HETATM   13  C16 UNL     1       8.430  10.186  44.369  1.00  0.00     0.016 C 
HETATM   14  C17 UNL     1       7.969   9.202  43.354  1.00  0.00    -0.007 C 
HETATM   15  C18 UNL     1       8.470   9.593  41.985  1.00  0.00     0.018 C 
ENDROOT
BRANCH   1  16
HETATM   16  O2  UNL     1       9.575   7.510  42.792  1.00  0.00    -0.315 OA
BRANCH  16  17
HETATM   17  C4  UNL     1      10.512   6.538  42.950  1.00  0.00     0.262 C 
HETATM   18  O1  UNL     1      10.996   6.326  44.092  1.00  0.00    -0.265 OA
BRANCH  17  19
HETATM   19  C3  UNL     1      10.994   5.700  41.800  1.00  0.00     0.137 C 
BRANCH  19  20
HETATM   20  C2  UNL     1       9.904   5.611  40.819  1.00  0.00    -0.027 C 
HETATM   21  C1  UNL     1       9.980   6.036  39.585  1.00  0.00     0.007 C 
ENDBRANCH  19  20
ENDBRANCH  17  19
ENDBRANCH  16  17
ENDBRANCH   1  16
TORSDOF 4
ENDMDL
MODEL 5
REMARK VINA RESULT: -6.652573766      2.261      3.335
REMARK  4 active torsions:
REMARK  status: ('A' for Active; 'I' for Inactive)
REMARK    1  A    between atoms: C2_2  and  C3_3 
REMARK    2  A    between atoms: C3_3  and  C4_4 
REMARK    3  A    between atoms: C4_4  and  O2_6 
REMARK    4  A    between atoms: O2_6  and  C5_7 
ROOT
HETATM    1  C5  UNL     1       7.475   8.035  43.600  1.00  0.00     0.141 C 
HETATM    2  C6  UNL     1       7.963   6.625  43.546  1.00  0.00     0.033 C 
HETATM    3  C7  UNL     1       7.372   5.770  42.480  1.00  0.00     0.003 C 
HETATM    4  C8  UNL     1       7.095   6.549  41.232  1.00  0.00     0.013 C 
HETATM    5  C9  UNL     1       8.013   7.750  41.246  1.00  0.00     0.066 C 
HETATM    6  C10 UNL     1       8.283   8.282  39.909  1.00  0.00     0.135 C 
HETATM    7  O3  UNL     1       9.294   8.946  39.773  1.00  0.00    -0.297 OA
HETATM    8  C11 UNL     1       7.576   8.200  38.603  1.00  0.00     0.112 C 
HETATM    9  C12 UNL     1       6.175   8.693  38.776  1.00  0.00    -0.081 C 
HETATM   10  C13 UNL     1       5.280   8.129  37.731  1.00  0.00     0.043 C 
HETATM   11  C14 UNL     1       5.571   9.513  39.645  1.00  0.00    -0.024 C 
HETATM   12  C15 UNL     1       6.125  10.273  40.828  1.00  0.00     0.028 C 
HETATM   13  C16 UNL     1       6.281   9.415  42.016  1.00  0.00     0.016 C 
HETATM   14  C17 UNL     1       7.601   8.772  42.255  1.00  0.00    -0.007 C 
HETATM   15  C18 UNL     1       8.681   9.822  42.355  1.00  0.00     0.018 C 
ENDROOT
BRANCH   1  16
HETATM   16  O2  UNL     1       8.289   8.711  44.552  1.00  0.00    -0.315 OA
BRANCH  16  17
HETATM   17  C4  UNL     1       8.015   8.804  45.880  1.00  0.00     0.262 C 
HETATM   18  O1  UNL     1       8.860   8.392  46.716  1.00  0.00    -0.265 OA
BRANCH  17  19
HETATM   19  C3  UNL     1       6.726   9.386  46.390  1.00  0.00     0.137 C 
BRANCH  19  20
HETATM   20  C2  UNL     1       6.584  10.733  45.820  1.00  0.00    -0.027 C 
HETATM   21  C1  UNL     1       5.548  11.144  45.137  1.00  0.00     0.007 C 
ENDBRANCH  19  20
ENDBRANCH  17  19
ENDBRANCH  16  17
ENDBRANCH   1  16
TORSDOF 4
ENDMDL
