MODEL 1
REMARK VINA RESULT: -8.317878050      0.000      0.000
REMARK  8 active torsions:
REMARK  status: ('A' for Active; 'I' for Inactive)
REMARK    1  A    between atoms: C2_2  and  C3_3 
REMARK       I    between atoms: N3_9  and  C5_11 
REMARK       I    between atoms: C5_11  and  N4_13 
REMARK    2  A    between atoms: N4_13  and  C6_15 
REMARK    3  A    between atoms: C10_19  and  S1_20 
REMARK    4  A    between atoms: S1_20  and  C11_21 
REMARK    5  A    between atoms: C11_21  and  N5_23 
REMARK    6  A    between atoms: N5_23  and  C12_24 
REMARK    7  A    between atoms: N5_23  and  C14_26 
REMARK    8  A    between atoms: C14_26  and  C15_27 
ROOT
HETATM    1  C15 UNL     1      14.910  10.501   2.494  1.00  0.00     0.143 C 
HETATM    2  C16 UNL     1      15.439  11.459   3.422  1.00  0.00     0.060 C 
HETATM    3  N6  UNL     1      15.851  12.230   4.211  1.00  0.00    -0.197 NA
ENDROOT
BRANCH   1   4
HETATM    4  C14 UNL     1      15.880   9.888   1.573  1.00  0.00     0.138 C 
BRANCH   4   5
HETATM    5  N5  UNL     1      16.225  10.563   0.362  1.00  0.00    -0.366 N 
BRANCH   5   6
HETATM    6  C11 UNL     1      17.615  10.886   0.085  1.00  0.00     0.137 C 
HETATM    7  S2  UNL     1      18.198  10.561  -1.389  1.00  0.00    -0.053 SA
BRANCH   6   8
HETATM    8  S1  UNL     1      18.649  11.601   1.308  1.00  0.00    -0.090 SA
BRANCH   8   9
HETATM    9  C10 UNL     1      19.717  10.529   2.199  1.00  0.00     0.018 C 
HETATM   10  C9  UNL     1      19.980   9.187   1.544  1.00  0.00     0.026 C 
HETATM   11  C8  UNL     1      21.008   8.612   2.520  1.00  0.00    -0.006 C 
HETATM   12  C7  UNL     1      20.166   8.020   3.662  1.00  0.00     0.036 C 
HETATM   13  C18 UNL     1      21.716   9.782   3.140  1.00  0.00    -0.006 C 
HETATM   14  C6  UNL     1      19.821   9.298   4.409  1.00  0.00     0.036 C 
HETATM   15  C19 UNL     1      21.206   9.892   4.582  1.00  0.00     0.036 C 
HETATM   16  C20 UNL     1      19.043  10.203   3.522  1.00  0.00     0.052 C 
HETATM   17  C17 UNL     1      21.123  11.018   2.441  1.00  0.00     0.026 C 
BRANCH  14  18
HETATM   18  N4  UNL     1      19.128   9.091   5.631  1.00  0.00    -0.333 N 
HETATM   19  C5  UNL     1      17.774   8.677   5.759  1.00  0.00     0.323 C 
HETATM   20  N3  UNL     1      17.159   8.490   7.021  1.00  0.00    -0.273 N 
HETATM   21  O1  UNL     1      17.042   8.450   4.750  1.00  0.00    -0.247 OA
HETATM   22  C4  UNL     1      16.085   9.111   7.329  1.00  0.00     0.248 A 
ATOM     23  H3  UNL     1      17.580   7.851   7.696  1.00  0.00     0.174 HD
HETATM   24  N2  UNL     1      15.388   9.980   6.588  1.00  0.00    -0.263 N 
HETATM   25  O2  UNL     1      15.455   8.991   8.482  1.00  0.00    -0.264 OA
HETATM   26  N1  UNL     1      14.351  10.368   7.309  1.00  0.00    -0.280 N 
ATOM     27  H2  UNL     1      15.616  10.285   5.642  1.00  0.00     0.190 HD
HETATM   28  C3  UNL     1      14.394   9.746   8.498  1.00  0.00     0.141 A 
ATOM     29  H1  UNL     1      13.635  11.030   7.012  1.00  0.00     0.189 HD
ATOM     30  H4  UNL     1      19.648   9.253   6.493  1.00  0.00     0.165 HD
BRANCH  28  31
HETATM   31  C2  UNL     1      13.410   9.892   9.628  1.00  0.00     0.081 C 
HETATM   32  C1  UNL     1      13.814  11.087  10.463  1.00  0.00     0.013 C 
ENDBRANCH  28  31
ENDBRANCH  14  18
ENDBRANCH   8   9
ENDBRANCH   6   8
ENDBRANCH   5   6
BRANCH   5  33
HETATM   33  C12 UNL     1      15.262  10.954  -0.628  1.00  0.00     0.120 C 
HETATM   34  C13 UNL     1      14.434   9.779  -1.114  1.00  0.00     0.026 C 
ENDBRANCH   5  33
ENDBRANCH   4   5
ENDBRANCH   1   4
TORSDOF 8
ENDMDL
MODEL 2
REMARK VINA RESULT: -8.292274501      1.171      1.458
REMARK  8 active torsions:
REMARK  status: ('A' for Active; 'I' for Inactive)
REMARK    1  A    between atoms: C2_2  and  C3_3 
REMARK       I    between atoms: N3_9  and  C5_11 
REMARK       I    between atoms: C5_11  and  N4_13 
REMARK    2  A    between atoms: N4_13  and  C6_15 
REMARK    3  A    between atoms: C10_19  and  S1_20 
REMARK    4  A    between atoms: S1_20  and  C11_21 
REMARK    5  A    between atoms: C11_21  and  N5_23 
REMARK    6  A    between atoms: N5_23  and  C12_24 
REMARK    7  A    between atoms: N5_23  and  C14_26 
REMARK    8  A    between atoms: C14_26  and  C15_27 
ROOT
HETATM    1  C15 UNL     1      14.402   9.671   2.117  1.00  0.00     0.143 C 
HETATM    2  C16 UNL     1      14.040   9.209   3.427  1.00  0.00     0.060 C 
HETATM    3  N6  UNL     1      13.712   8.814   4.486  1.00  0.00    -0.197 NA
ENDROOT
BRANCH   1   4
HETATM    4  C14 UNL     1      15.833   9.613   1.783  1.00  0.00     0.138 C 
BRANCH   4   5
HETATM    5  N5  UNL     1      16.450  10.727   1.133  1.00  0.00    -0.366 N 
BRANCH   5   6
HETATM    6  C11 UNL     1      17.368  11.578   1.871  1.00  0.00     0.137 C 
HETATM    7  S2  UNL     1      16.763  12.538   3.025  1.00  0.00    -0.053 SA
BRANCH   6   8
HETATM    8  S1  UNL     1      19.088  11.584   1.527  1.00  0.00    -0.090 SA
BRANCH   8   9
HETATM    9  C10 UNL     1      20.096  10.441   2.400  1.00  0.00     0.018 C 
HETATM   10  C9  UNL     1      20.367   9.134   1.678  1.00  0.00     0.026 C 
HETATM   11  C8  UNL     1      21.339   8.483   2.663  1.00  0.00    -0.006 C 
HETATM   12  C7  UNL     1      20.437   7.842   3.729  1.00  0.00     0.036 C 
HETATM   13  C18 UNL     1      22.038   9.602   3.381  1.00  0.00    -0.006 C 
HETATM   14  C6  UNL     1      20.080   9.080   4.534  1.00  0.00     0.036 C 
HETATM   15  C19 UNL     1      21.465   9.636   4.804  1.00  0.00     0.036 C 
HETATM   16  C20 UNL     1      19.357  10.050   3.670  1.00  0.00     0.052 C 
HETATM   17  C17 UNL     1      21.498  10.887   2.732  1.00  0.00     0.026 C 
BRANCH  14  18
HETATM   18  N4  UNL     1      19.329   8.815   5.710  1.00  0.00    -0.333 N 
HETATM   19  C5  UNL     1      17.950   8.470   5.756  1.00  0.00     0.323 C 
HETATM   20  N3  UNL     1      17.276   8.218   6.976  1.00  0.00    -0.273 N 
HETATM   21  O1  UNL     1      17.247   8.370   4.707  1.00  0.00    -0.247 OA
HETATM   22  C4  UNL     1      16.226   8.873   7.297  1.00  0.00     0.248 A 
ATOM     23  H3  UNL     1      17.635   7.503   7.609  1.00  0.00     0.174 HD
HETATM   24  N2  UNL     1      15.608   9.838   6.607  1.00  0.00    -0.263 N 
HETATM   25  O2  UNL     1      15.546   8.696   8.413  1.00  0.00    -0.264 OA
HETATM   26  N1  UNL     1      14.566  10.225   7.322  1.00  0.00    -0.280 N 
ATOM     27  H2  UNL     1      15.890  10.206   5.698  1.00  0.00     0.190 HD
HETATM   28  C3  UNL     1      14.529   9.508   8.456  1.00  0.00     0.141 A 
ATOM     29  H1  UNL     1      13.900  10.950   7.056  1.00  0.00     0.189 HD
ATOM     30  H4  UNL     1      19.822   8.876   6.600  1.00  0.00     0.165 HD
BRANCH  28  31
HETATM   31  C2  UNL     1      13.510   9.618   9.558  1.00  0.00     0.081 C 
HETATM   32  C1  UNL     1      13.643  10.983  10.198  1.00  0.00     0.013 C 
ENDBRANCH  28  31
ENDBRANCH  14  18
ENDBRANCH   8   9
ENDBRANCH   6   8
ENDBRANCH   5   6
BRANCH   5  33
HETATM   33  C12 UNL     1      16.217  11.068  -0.241  1.00  0.00     0.120 C 
HETATM   34  C13 UNL     1      16.784  10.031  -1.192  1.00  0.00     0.026 C 
ENDBRANCH   5  33
ENDBRANCH   4   5
ENDBRANCH   1   4
TORSDOF 8
ENDMDL
MODEL 3
REMARK VINA RESULT: -8.133050207      0.826      1.848
REMARK  8 active torsions:
REMARK  status: ('A' for Active; 'I' for Inactive)
REMARK    1  A    between atoms: C2_2  and  C3_3 
REMARK       I    between atoms: N3_9  and  C5_11 
REMARK       I    between atoms: C5_11  and  N4_13 
REMARK    2  A    between atoms: N4_13  and  C6_15 
REMARK    3  A    between atoms: C10_19  and  S1_20 
REMARK    4  A    between atoms: S1_20  and  C11_21 
REMARK    5  A    between atoms: C11_21  and  N5_23 
REMARK    6  A    between atoms: N5_23  and  C12_24 
REMARK    7  A    between atoms: N5_23  and  C14_26 
REMARK    8  A    between atoms: C14_26  and  C15_27 
ROOT
HETATM    1  C15 UNL     1      13.967  10.073   0.033  1.00  0.00     0.143 C 
HETATM    2  C16 UNL     1      13.961  11.004  -1.059  1.00  0.00     0.060 C 
HETATM    3  N6  UNL     1      13.928  11.787  -1.937  1.00  0.00    -0.197 NA
ENDROOT
BRANCH   1   4
HETATM    4  C14 UNL     1      15.290   9.622   0.491  1.00  0.00     0.138 C 
BRANCH   4   5
HETATM    5  N5  UNL     1      16.189  10.562   1.083  1.00  0.00    -0.366 N 
BRANCH   5   6
HETATM    6  C11 UNL     1      17.475  10.825   0.459  1.00  0.00     0.137 C 
HETATM    7  S2  UNL     1      17.668  10.424  -1.097  1.00  0.00    -0.053 SA
BRANCH   6   8
HETATM    8  S1  UNL     1      18.796  11.549   1.357  1.00  0.00    -0.090 SA
BRANCH   8   9
HETATM    9  C10 UNL     1      19.858  10.474   2.253  1.00  0.00     0.018 C 
HETATM   10  C9  UNL     1      20.140   9.141   1.587  1.00  0.00     0.026 C 
HETATM   11  C8  UNL     1      21.156   8.562   2.572  1.00  0.00    -0.006 C 
HETATM   12  C7  UNL     1      20.301   7.952   3.694  1.00  0.00     0.036 C 
HETATM   13  C18 UNL     1      21.847   9.730   3.216  1.00  0.00    -0.006 C 
HETATM   14  C6  UNL     1      19.936   9.219   4.449  1.00  0.00     0.036 C 
HETATM   15  C19 UNL     1      21.313   9.820   4.651  1.00  0.00     0.036 C 
HETATM   16  C20 UNL     1      19.165  10.128   3.562  1.00  0.00     0.052 C 
HETATM   17  C17 UNL     1      21.257  10.970   2.522  1.00  0.00     0.026 C 
BRANCH  14  18
HETATM   18  N4  UNL     1      19.225   8.993   5.658  1.00  0.00    -0.333 N 
HETATM   19  C5  UNL     1      17.864   8.595   5.761  1.00  0.00     0.323 C 
HETATM   20  N3  UNL     1      17.231   8.389   7.011  1.00  0.00    -0.273 N 
HETATM   21  O1  UNL     1      17.141   8.403   4.739  1.00  0.00    -0.247 OA
HETATM   22  C4  UNL     1      16.162   9.017   7.321  1.00  0.00     0.248 A 
ATOM     23  H3  UNL     1      17.635   7.728   7.675  1.00  0.00     0.174 HD
HETATM   24  N2  UNL     1      15.487   9.912   6.592  1.00  0.00    -0.263 N 
HETATM   25  O2  UNL     1      15.517   8.879   8.463  1.00  0.00    -0.264 OA
HETATM   26  N1  UNL     1      14.446  10.298   7.310  1.00  0.00    -0.280 N 
ATOM     27  H2  UNL     1      15.730  10.237   5.656  1.00  0.00     0.190 HD
HETATM   28  C3  UNL     1      14.467   9.649   8.485  1.00  0.00     0.141 A 
ATOM     29  H1  UNL     1      13.744  10.978   7.020  1.00  0.00     0.189 HD
ATOM     30  H4  UNL     1      19.736   9.128   6.530  1.00  0.00     0.165 HD
BRANCH  28  31
HETATM   31  C2  UNL     1      13.471   9.782   9.606  1.00  0.00     0.081 C 
HETATM   32  C1  UNL     1      13.780  11.051  10.372  1.00  0.00     0.013 C 
ENDBRANCH  28  31
ENDBRANCH  14  18
ENDBRANCH   8   9
ENDBRANCH   6   8
ENDBRANCH   5   6
BRANCH   5  33
HETATM   33  C12 UNL     1      15.896  11.286   2.287  1.00  0.00     0.120 C 
HETATM   34  C13 UNL     1      14.892  10.558   3.161  1.00  0.00     0.026 C 
ENDBRANCH   5  33
ENDBRANCH   4   5
ENDBRANCH   1   4
TORSDOF 8
ENDMDL
MODEL 4
REMARK VINA RESULT: -8.079450499      2.094      5.011
REMARK  8 active torsions:
REMARK  status: ('A' for Active; 'I' for Inactive)
REMARK    1  A    between atoms: C2_2  and  C3_3 
REMARK       I    between atoms: N3_9  and  C5_11 
REMARK       I    between atoms: C5_11  and  N4_13 
REMARK    2  A    between atoms: N4_13  and  C6_15 
REMARK    3  A    between atoms: C10_19  and  S1_20 
REMARK    4  A    between atoms: S1_20  and  C11_21 
REMARK    5  A    between atoms: C11_21  and  N5_23 
REMARK    6  A    between atoms: N5_23  and  C12_24 
REMARK    7  A    between atoms: N5_23  and  C14_26 
REMARK    8  A    between atoms: C14_26  and  C15_27 
ROOT
HETATM    1  C15 UNL     1      19.032   8.878   3.590  1.00  0.00     0.143 C 
HETATM    2  C16 UNL     1      17.650   8.620   3.881  1.00  0.00     0.060 C 
HETATM    3  N6  UNL     1      16.528   8.384   4.147  1.00  0.00    -0.197 NA
ENDROOT
BRANCH   1   4
HETATM    4  C14 UNL     1      19.391  10.283   3.346  1.00  0.00     0.138 C 
BRANCH   4   5
HETATM    5  N5  UNL     1      19.421  10.780   2.006  1.00  0.00    -0.366 N 
BRANCH   5   6
HETATM    6  C11 UNL     1      18.252  11.446   1.456  1.00  0.00     0.137 C 
HETATM    7  S2  UNL     1      17.379  12.395   2.433  1.00  0.00    -0.053 SA
BRANCH   6   8
HETATM    8  S1  UNL     1      17.782  11.231  -0.220  1.00  0.00    -0.090 SA
BRANCH   8   9
HETATM    9  C10 UNL     1      16.327  10.302  -0.545  1.00  0.00     0.018 C 
HETATM   10  C9  UNL     1      15.193  11.080  -1.186  1.00  0.00     0.026 C 
HETATM   11  C8  UNL     1      14.191   9.947  -1.414  1.00  0.00    -0.006 C 
HETATM   12  C7  UNL     1      13.473   9.790  -0.065  1.00  0.00     0.036 C 
HETATM   13  C18 UNL     1      14.992   8.686  -1.567  1.00  0.00    -0.006 C 
HETATM   14  C6  UNL     1      14.536   9.014   0.696  1.00  0.00     0.036 C 
HETATM   15  C19 UNL     1      14.791   7.879  -0.277  1.00  0.00     0.036 C 
HETATM   16  C20 UNL     1      15.778   9.825   0.791  1.00  0.00     0.052 C 
HETATM   17  C17 UNL     1      16.460   9.140  -1.496  1.00  0.00     0.026 C 
BRANCH  14  18
HETATM   18  N4  UNL     1      14.130   8.583   1.987  1.00  0.00    -0.333 N 
HETATM   19  C5  UNL     1      13.498   9.388   2.972  1.00  0.00     0.323 C 
HETATM   20  N3  UNL     1      13.123   8.875   4.239  1.00  0.00    -0.273 N 
HETATM   21  O1  UNL     1      13.233  10.611   2.773  1.00  0.00    -0.247 OA
HETATM   22  C4  UNL     1      13.540   9.417   5.319  1.00  0.00     0.248 A 
ATOM     23  H3  UNL     1      12.511   8.061   4.289  1.00  0.00     0.174 HD
HETATM   24  N2  UNL     1      14.339  10.481   5.458  1.00  0.00    -0.263 N 
HETATM   25  O2  UNL     1      13.236   8.998   6.532  1.00  0.00    -0.264 OA
HETATM   26  N1  UNL     1      14.502  10.682   6.754  1.00  0.00    -0.280 N 
ATOM     27  H2  UNL     1      14.746  11.033   4.703  1.00  0.00     0.190 HD
HETATM   28  C3  UNL     1      13.809   9.750   7.427  1.00  0.00     0.141 A 
ATOM     29  H1  UNL     1      15.062  11.424   7.174  1.00  0.00     0.189 HD
ATOM     30  H4  UNL     1      14.309   7.608   2.229  1.00  0.00     0.165 HD
BRANCH  28  31
HETATM   31  C2  UNL     1      13.712   9.604   8.922  1.00  0.00     0.081 C 
HETATM   32  C1  UNL     1      14.180  10.895   9.560  1.00  0.00     0.013 C 
ENDBRANCH  28  31
ENDBRANCH  14  18
ENDBRANCH   8   9
ENDBRANCH   6   8
ENDBRANCH   5   6
BRANCH   5  33
HETATM   33  C12 UNL     1      20.563  10.662   1.145  1.00  0.00     0.120 C 
HETATM   34  C13 UNL     1      21.863  10.603   1.925  1.00  0.00     0.026 C 
ENDBRANCH   5  33
ENDBRANCH   4   5
ENDBRANCH   1   4
TORSDOF 8
ENDMDL
MODEL 5
REMARK VINA RESULT: -8.033718172      3.790      7.867
REMARK  8 active torsions:
REMARK  status: ('A' for Active; 'I' for Inactive)
REMARK    1  A    between atoms: C2_2  and  C3_3 
REMARK       I    between atoms: N3_9  and  C5_11 
REMARK       I    between atoms: C5_11  and  N4_13 
REMARK    2  A    between atoms: N4_13  and  C6_15 
REMARK    3  A    between atoms: C10_19  and  S1_20 
REMARK    4  A    between atoms: S1_20  and  C11_21 
REMARK    5  A    between atoms: C11_21  and  N5_23 
REMARK    6  A    between atoms: N5_23  and  C12_24 
REMARK    7  A    between atoms: N5_23  and  C14_26 
REMARK    8  A    between atoms: C14_26  and  C15_27 
ROOT
HETATM    1  C15 UNL     1      20.883  10.301   2.331  1.00  0.00     0.143 C 
HETATM    2  C16 UNL     1      20.500  10.948   1.109  1.00  0.00     0.060 C 
HETATM    3  N6  UNL     1      20.213  11.505   0.113  1.00  0.00    -0.197 NA
ENDROOT
BRANCH   1   4
HETATM    4  C14 UNL     1      20.946   8.832   2.294  1.00  0.00     0.138 C 
BRANCH   4   5
HETATM    5  N5  UNL     1      21.142   8.104   3.509  1.00  0.00    -0.366 N 
BRANCH   5   6
HETATM    6  C11 UNL     1      20.502   8.554   4.733  1.00  0.00     0.137 C 
HETATM    7  S2  UNL     1      21.410   9.309   5.840  1.00  0.00    -0.053 SA
BRANCH   6   8
HETATM    8  S1  UNL     1      18.793   8.287   5.023  1.00  0.00    -0.090 SA
BRANCH   8   9
HETATM    9  C10 UNL     1      17.664   9.472   4.386  1.00  0.00     0.018 C 
HETATM   10  C9  UNL     1      16.332   9.550   5.108  1.00  0.00     0.026 C 
HETATM   11  C8  UNL     1      15.699  10.731   4.370  1.00  0.00    -0.006 C 
HETATM   12  C7  UNL     1      15.104  10.114   3.095  1.00  0.00     0.036 C 
HETATM   13  C18 UNL     1      16.829  11.591   3.882  1.00  0.00    -0.006 C 
HETATM   14  C6  UNL     1      16.371   9.972   2.268  1.00  0.00     0.036 C 
HETATM   15  C19 UNL     1      16.916  11.383   2.364  1.00  0.00     0.036 C 
HETATM   16  C20 UNL     1      17.323   9.065   2.962  1.00  0.00     0.052 C 
HETATM   17  C17 UNL     1      18.102  10.915   4.422  1.00  0.00     0.026 C 
BRANCH  14  18
HETATM   18  N4  UNL     1      16.152   9.529   0.937  1.00  0.00    -0.333 N 
HETATM   19  C5  UNL     1      15.799  10.354  -0.166  1.00  0.00     0.323 C 
HETATM   20  N3  UNL     1      15.601   9.829  -1.467  1.00  0.00    -0.273 N 
HETATM   21  O1  UNL     1      15.641  11.605  -0.047  1.00  0.00    -0.247 OA
HETATM   22  C4  UNL     1      14.504  10.019  -2.095  1.00  0.00     0.248 A 
ATOM     23  H3  UNL     1      16.346   9.290  -1.910  1.00  0.00     0.174 HD
HETATM   24  N2  UNL     1      13.422  10.692  -1.688  1.00  0.00    -0.263 N 
HETATM   25  O2  UNL     1      14.246   9.562  -3.306  1.00  0.00    -0.264 OA
HETATM   26  N1  UNL     1      12.531  10.628  -2.662  1.00  0.00    -0.280 N 
ATOM     27  H2  UNL     1      13.307  11.166  -0.792  1.00  0.00     0.190 HD
HETATM   28  C3  UNL     1      13.049   9.918  -3.676  1.00  0.00     0.141 A 
ATOM     29  H1  UNL     1      11.602  11.048  -2.645  1.00  0.00     0.189 HD
ATOM     30  H4  UNL     1      16.258   8.532   0.755  1.00  0.00     0.165 HD
BRANCH  28  31
HETATM   31  C2  UNL     1      12.380   9.598  -4.986  1.00  0.00     0.081 C 
HETATM   32  C1  UNL     1      10.884   9.562  -4.763  1.00  0.00     0.013 C 
ENDBRANCH  28  31
ENDBRANCH  14  18
ENDBRANCH   8   9
ENDBRANCH   6   8
ENDBRANCH   5   6
BRANCH   5  33
HETATM   33  C12 UNL     1      21.952   6.923   3.600  1.00  0.00     0.120 C 
HETATM   34  C13 UNL     1      22.834   6.739   2.380  1.00  0.00     0.026 C 
ENDBRANCH   5  33
ENDBRANCH   4   5
ENDBRANCH   1   4
TORSDOF 8
ENDMDL
