MODEL 1
REMARK VINA RESULT: -9.532605302      0.000      0.000
REMARK  9 active torsions:
REMARK  status: ('A' for Active; 'I' for Inactive)
REMARK    1  A    between atoms: C2_2  and  O2_4 
REMARK    2  A    between atoms: O2_4  and  C3_5 
REMARK    3  A    between atoms: C3_5  and  C4_6 
REMARK    4  A    between atoms: C7_9  and  C8_10 
REMARK    5  A    between atoms: C12_14  and  C13_15 
REMARK    6  A    between atoms: C14_16  and  C15_17 
REMARK    7  A    between atoms: N1_24  and  C22_25 
REMARK    8  A    between atoms: C24_29  and  O4_30 
REMARK    9  A    between atoms: C25_32  and  O5_33 
ROOT
HETATM    1  C22 UNL     1      13.814  10.299  -0.216  1.00  0.00     0.247 C 
HETATM    2  C23 UNL     1      13.884   8.960   0.408  1.00  0.00     0.079 C 
HETATM    3  N2  UNL     1      13.961   7.907   0.894  1.00  0.00    -0.196 NA
ENDROOT
BRANCH   1   4
HETATM    4  N1  UNL     1      14.302  10.345  -1.554  1.00  0.00    -0.368 N 
HETATM    5  C15 UNL     1      15.643  10.006  -1.839  1.00  0.00     0.026 C 
HETATM    6  C16 UNL     1      15.814   9.126  -2.857  1.00  0.00     0.003 C 
HETATM    7  C17 UNL     1      14.591   8.659  -3.554  1.00  0.00     0.040 C 
HETATM    8  C18 UNL     1      13.790   9.893  -3.915  1.00  0.00    -0.028 C 
HETATM    9  C19 UNL     1      14.647  10.712  -4.858  1.00  0.00     0.016 C 
HETATM   10  C20 UNL     1      12.528   9.382  -4.598  1.00  0.00     0.016 C 
HETATM   11  C21 UNL     1      13.471  10.733  -2.714  1.00  0.00     0.133 C 
BRANCH   5  12
HETATM   12  C14 UNL     1      16.773  10.502  -1.119  1.00  0.00     0.027 C 
HETATM   13  C13 UNL     1      18.003  10.688  -1.419  1.00  0.00     0.007 C 
BRANCH  13  14
HETATM   14  C12 UNL     1      18.946  11.243  -0.396  1.00  0.00     0.148 C 
HETATM   15  C10 UNL     1      18.314  11.623   0.891  1.00  0.00     0.017 C 
HETATM   16  C9  UNL     1      19.356  11.122   1.915  1.00  0.00     0.039 C 
HETATM   17  C11 UNL     1      18.106  13.105   1.046  1.00  0.00     0.013 C 
HETATM   18  C8  UNL     1      20.551  10.959   1.002  1.00  0.00     0.133 C 
HETATM   19  O3  UNL     1      19.958  10.334  -0.093  1.00  0.00    -0.376 OA
BRANCH  18  20
HETATM   20  C7  UNL     1      21.560  10.087   1.719  1.00  0.00     0.068 C 
HETATM   21  C6  UNL     1      21.988  10.659   2.997  1.00  0.00    -0.020 C 
HETATM   22  C5  UNL     1      22.515   9.839   3.939  1.00  0.00    -0.021 C 
HETATM   23  C4  UNL     1      22.606   8.430   3.586  1.00  0.00     0.064 C 
HETATM   24  C25 UNL     1      21.165   8.046   3.119  1.00  0.00     0.157 C 
HETATM   25  C24 UNL     1      20.951   8.707   1.809  1.00  0.00     0.157 C 
BRANCH  23  26
HETATM   26  C3  UNL     1      23.037   7.438   4.595  1.00  0.00     0.190 C 
BRANCH  26  27
HETATM   27  O2  UNL     1      22.399   6.261   4.635  1.00  0.00    -0.321 OA
BRANCH  27  28
HETATM   28  C2  UNL     1      22.566   4.956   4.530  1.00  0.00     0.254 C 
HETATM   29  C1  UNL     1      21.808   4.187   3.480  1.00  0.00     0.126 C 
HETATM   30  O1  UNL     1      23.345   4.360   5.294  1.00  0.00    -0.266 OA
ENDBRANCH  27  28
ENDBRANCH  26  27
ENDBRANCH  23  26
BRANCH  24  31
HETATM   31  O5  UNL     1      20.304   8.527   4.093  1.00  0.00    -0.392 OA
ATOM     32  H5  UNL     1      20.468   9.461   4.152  1.00  0.00     0.210 HD
ENDBRANCH  24  31
BRANCH  25  33
HETATM   33  O4  UNL     1      21.520   7.874   0.819  1.00  0.00    -0.392 OA
ATOM     34  H4  UNL     1      22.408   7.646   1.068  1.00  0.00     0.210 HD
ENDBRANCH  25  33
ENDBRANCH  18  20
ENDBRANCH  13  14
ENDBRANCH   5  12
ENDBRANCH   1   4
TORSDOF 9
ENDMDL
MODEL 2
REMARK VINA RESULT: -9.306355918      1.032      1.346
REMARK  9 active torsions:
REMARK  status: ('A' for Active; 'I' for Inactive)
REMARK    1  A    between atoms: C2_2  and  O2_4 
REMARK    2  A    between atoms: O2_4  and  C3_5 
REMARK    3  A    between atoms: C3_5  and  C4_6 
REMARK    4  A    between atoms: C7_9  and  C8_10 
REMARK    5  A    between atoms: C12_14  and  C13_15 
REMARK    6  A    between atoms: C14_16  and  C15_17 
REMARK    7  A    between atoms: N1_24  and  C22_25 
REMARK    8  A    between atoms: C24_29  and  O4_30 
REMARK    9  A    between atoms: C25_32  and  O5_33 
ROOT
HETATM    1  C22 UNL     1      13.562  10.508  -0.299  1.00  0.00     0.247 C 
HETATM    2  C23 UNL     1      13.601   9.219   0.424  1.00  0.00     0.079 C 
HETATM    3  N2  UNL     1      13.653   8.204   0.989  1.00  0.00    -0.196 NA
ENDROOT
BRANCH   1   4
HETATM    4  N1  UNL     1      14.140  10.464  -1.602  1.00  0.00    -0.368 N 
HETATM    5  C15 UNL     1      15.474  10.040  -1.779  1.00  0.00     0.026 C 
HETATM    6  C16 UNL     1      15.662   9.103  -2.744  1.00  0.00     0.003 C 
HETATM    7  C17 UNL     1      14.462   8.670  -3.502  1.00  0.00     0.040 C 
HETATM    8  C18 UNL     1      13.759   9.928  -3.970  1.00  0.00    -0.028 C 
HETATM    9  C19 UNL     1      14.722  10.653  -4.887  1.00  0.00     0.016 C 
HETATM   10  C20 UNL     1      12.517   9.455  -4.715  1.00  0.00     0.016 C 
HETATM   11  C21 UNL     1      13.410  10.840  -2.832  1.00  0.00     0.133 C 
BRANCH   5  12
HETATM   12  C14 UNL     1      16.581  10.507  -1.007  1.00  0.00     0.027 C 
HETATM   13  C13 UNL     1      17.825  10.680  -1.254  1.00  0.00     0.007 C 
BRANCH  13  14
HETATM   14  C12 UNL     1      18.734  11.205  -0.185  1.00  0.00     0.148 C 
HETATM   15  C10 UNL     1      18.042  11.832   0.967  1.00  0.00     0.017 C 
HETATM   16  C9  UNL     1      18.870  11.307   2.159  1.00  0.00     0.039 C 
HETATM   17  C11 UNL     1      18.069  13.337   0.940  1.00  0.00     0.013 C 
HETATM   18  C8  UNL     1      20.111  10.850   1.425  1.00  0.00     0.133 C 
HETATM   19  O3  UNL     1      19.542  10.194   0.335  1.00  0.00    -0.376 OA
BRANCH  18  20
HETATM   20  C7  UNL     1      20.878   9.928   2.348  1.00  0.00     0.068 C 
HETATM   21  C6  UNL     1      20.072   8.792   2.803  1.00  0.00    -0.020 C 
HETATM   22  C5  UNL     1      20.702   7.677   3.246  1.00  0.00    -0.021 C 
HETATM   23  C4  UNL     1      22.157   7.711   3.227  1.00  0.00     0.064 C 
HETATM   24  C25 UNL     1      22.523   8.129   1.766  1.00  0.00     0.157 C 
HETATM   25  C24 UNL     1      22.152   9.558   1.627  1.00  0.00     0.157 C 
BRANCH  23  26
HETATM   26  C3  UNL     1      22.932   6.496   3.560  1.00  0.00     0.190 C 
BRANCH  26  27
HETATM   27  O2  UNL     1      22.347   5.305   3.380  1.00  0.00    -0.321 OA
BRANCH  27  28
HETATM   28  C2  UNL     1      21.975   4.198   3.995  1.00  0.00     0.254 C 
HETATM   29  C1  UNL     1      20.727   3.480   3.552  1.00  0.00     0.126 C 
HETATM   30  O1  UNL     1      22.648   3.747   4.938  1.00  0.00    -0.266 OA
ENDBRANCH  27  28
ENDBRANCH  26  27
ENDBRANCH  23  26
BRANCH  24  31
HETATM   31  O5  UNL     1      21.774   7.312   0.934  1.00  0.00    -0.392 OA
ATOM     32  H5  UNL     1      21.034   7.834   0.648  1.00  0.00     0.210 HD
ENDBRANCH  24  31
BRANCH  25  33
HETATM   33  O4  UNL     1      23.225  10.322   2.140  1.00  0.00    -0.392 OA
ATOM     34  H4  UNL     1      24.018   9.799   2.138  1.00  0.00     0.210 HD
ENDBRANCH  25  33
ENDBRANCH  18  20
ENDBRANCH  13  14
ENDBRANCH   5  12
ENDBRANCH   1   4
TORSDOF 9
ENDMDL
MODEL 3
REMARK VINA RESULT: -9.262636459      1.101      1.706
REMARK  9 active torsions:
REMARK  status: ('A' for Active; 'I' for Inactive)
REMARK    1  A    between atoms: C2_2  and  O2_4 
REMARK    2  A    between atoms: O2_4  and  C3_5 
REMARK    3  A    between atoms: C3_5  and  C4_6 
REMARK    4  A    between atoms: C7_9  and  C8_10 
REMARK    5  A    between atoms: C12_14  and  C13_15 
REMARK    6  A    between atoms: C14_16  and  C15_17 
REMARK    7  A    between atoms: N1_24  and  C22_25 
REMARK    8  A    between atoms: C24_29  and  O4_30 
REMARK    9  A    between atoms: C25_32  and  O5_33 
ROOT
HETATM    1  C22 UNL     1      13.804  10.282  -0.231  1.00  0.00     0.247 C 
HETATM    2  C23 UNL     1      13.885   8.940   0.386  1.00  0.00     0.079 C 
HETATM    3  N2  UNL     1      13.970   7.884   0.865  1.00  0.00    -0.196 NA
ENDROOT
BRANCH   1   4
HETATM    4  N1  UNL     1      14.276  10.335  -1.575  1.00  0.00    -0.368 N 
HETATM    5  C15 UNL     1      15.615  10.009  -1.878  1.00  0.00     0.026 C 
HETATM    6  C16 UNL     1      15.781   9.132  -2.901  1.00  0.00     0.003 C 
HETATM    7  C17 UNL     1      14.554   8.656  -3.583  1.00  0.00     0.040 C 
HETATM    8  C18 UNL     1      13.738   9.884  -3.931  1.00  0.00    -0.028 C 
HETATM    9  C19 UNL     1      14.576  10.712  -4.882  1.00  0.00     0.016 C 
HETATM   10  C20 UNL     1      12.471   9.364  -4.599  1.00  0.00     0.016 C 
HETATM   11  C21 UNL     1      13.426  10.718  -2.724  1.00  0.00     0.133 C 
BRANCH   5  12
HETATM   12  C14 UNL     1      16.750  10.513  -1.171  1.00  0.00     0.027 C 
HETATM   13  C13 UNL     1      17.985  10.664  -1.470  1.00  0.00     0.007 C 
BRANCH  13  14
HETATM   14  C12 UNL     1      18.932  11.243  -0.465  1.00  0.00     0.148 C 
HETATM   15  C10 UNL     1      18.303  11.664   0.811  1.00  0.00     0.017 C 
HETATM   16  C9  UNL     1      19.342  11.187   1.848  1.00  0.00     0.039 C 
HETATM   17  C11 UNL     1      18.105  13.152   0.923  1.00  0.00     0.013 C 
HETATM   18  C8  UNL     1      20.536  10.989   0.941  1.00  0.00     0.133 C 
HETATM   19  O3  UNL     1      19.939  10.336  -0.136  1.00  0.00    -0.376 OA
BRANCH  18  20
HETATM   20  C7  UNL     1      21.540  10.132   1.682  1.00  0.00     0.068 C 
HETATM   21  C6  UNL     1      21.998  10.754   2.927  1.00  0.00    -0.020 C 
HETATM   22  C5  UNL     1      22.524   9.968   3.898  1.00  0.00    -0.021 C 
HETATM   23  C4  UNL     1      22.584   8.543   3.607  1.00  0.00     0.064 C 
HETATM   24  C25 UNL     1      21.129   8.165   3.179  1.00  0.00     0.157 C 
HETATM   25  C24 UNL     1      20.908   8.770   1.844  1.00  0.00     0.157 C 
BRANCH  23  26
HETATM   26  C3  UNL     1      23.013   7.590   4.654  1.00  0.00     0.190 C 
BRANCH  26  27
HETATM   27  O2  UNL     1      22.618   7.817   5.913  1.00  0.00    -0.321 OA
BRANCH  27  28
HETATM   28  C2  UNL     1      22.931   8.448   7.030  1.00  0.00     0.254 C 
HETATM   29  C1  UNL     1      24.308   8.289   7.618  1.00  0.00     0.126 C 
HETATM   30  O1  UNL     1      22.094   9.171   7.597  1.00  0.00    -0.266 OA
ENDBRANCH  27  28
ENDBRANCH  26  27
ENDBRANCH  23  26
BRANCH  24  31
HETATM   31  O5  UNL     1      20.293   8.706   4.143  1.00  0.00    -0.392 OA
ATOM     32  H5  UNL     1      20.037   7.984   4.705  1.00  0.00     0.210 HD
ENDBRANCH  24  31
BRANCH  25  33
HETATM   33  O4  UNL     1      21.447   7.882   0.885  1.00  0.00    -0.392 OA
ATOM     34  H4  UNL     1      21.810   8.378   0.161  1.00  0.00     0.210 HD
ENDBRANCH  25  33
ENDBRANCH  18  20
ENDBRANCH  13  14
ENDBRANCH   5  12
ENDBRANCH   1   4
TORSDOF 9
ENDMDL
MODEL 4
REMARK VINA RESULT: -9.071252507      3.895      9.367
REMARK  9 active torsions:
REMARK  status: ('A' for Active; 'I' for Inactive)
REMARK    1  A    between atoms: C2_2  and  O2_4 
REMARK    2  A    between atoms: O2_4  and  C3_5 
REMARK    3  A    between atoms: C3_5  and  C4_6 
REMARK    4  A    between atoms: C7_9  and  C8_10 
REMARK    5  A    between atoms: C12_14  and  C13_15 
REMARK    6  A    between atoms: C14_16  and  C15_17 
REMARK    7  A    between atoms: N1_24  and  C22_25 
REMARK    8  A    between atoms: C24_29  and  O4_30 
REMARK    9  A    between atoms: C25_32  and  O5_33 
ROOT
HETATM    1  C22 UNL     1      20.252   9.377   2.541  1.00  0.00     0.247 C 
HETATM    2  C23 UNL     1      20.037  10.745   2.023  1.00  0.00     0.079 C 
HETATM    3  N2  UNL     1      19.887  11.827   1.625  1.00  0.00    -0.196 NA
ENDROOT
BRANCH   1   4
HETATM    4  N1  UNL     1      20.483   9.316   3.946  1.00  0.00    -0.368 N 
HETATM    5  C15 UNL     1      19.595   8.612   4.788  1.00  0.00     0.026 C 
HETATM    6  C16 UNL     1      20.180   7.747   5.655  1.00  0.00     0.003 C 
HETATM    7  C17 UNL     1      21.661   7.672   5.632  1.00  0.00     0.040 C 
HETATM    8  C18 UNL     1      22.177   9.094   5.714  1.00  0.00    -0.028 C 
HETATM    9  C19 UNL     1      21.704   9.655   7.039  1.00  0.00     0.016 C 
HETATM   10  C20 UNL     1      23.695   8.988   5.655  1.00  0.00     0.016 C 
HETATM   11  C21 UNL     1      21.637   9.958   4.613  1.00  0.00     0.133 C 
BRANCH   5  12
HETATM   12  C14 UNL     1      18.173   8.741   4.751  1.00  0.00     0.027 C 
HETATM   13  C13 UNL     1      17.276   8.925   5.646  1.00  0.00     0.007 C 
BRANCH  13  14
HETATM   14  C12 UNL     1      15.834   9.019   5.250  1.00  0.00     0.148 C 
HETATM   15  C10 UNL     1      15.223  10.356   5.446  1.00  0.00     0.017 C 
HETATM   16  C9  UNL     1      14.367  10.503   4.169  1.00  0.00     0.039 C 
HETATM   17  C11 UNL     1      14.348  10.446   6.668  1.00  0.00     0.013 C 
HETATM   18  C8  UNL     1      14.322   9.058   3.726  1.00  0.00     0.133 C 
HETATM   19  O3  UNL     1      15.653   8.688   3.908  1.00  0.00    -0.376 OA
BRANCH  18  20
HETATM   20  C7  UNL     1      13.885   9.035   2.277  1.00  0.00     0.068 C 
HETATM   21  C6  UNL     1      13.125  10.229   1.900  1.00  0.00    -0.020 C 
HETATM   22  C5  UNL     1      13.051  10.574   0.592  1.00  0.00    -0.021 C 
HETATM   23  C4  UNL     1      13.752   9.706  -0.342  1.00  0.00     0.064 C 
HETATM   24  C25 UNL     1      15.205   9.608   0.225  1.00  0.00     0.157 C 
HETATM   25  C24 UNL     1      15.128   8.784   1.455  1.00  0.00     0.157 C 
BRANCH  23  26
HETATM   26  C3  UNL     1      13.845  10.074  -1.771  1.00  0.00     0.190 C 
BRANCH  26  27
HETATM   27  O2  UNL     1      14.287   9.150  -2.633  1.00  0.00    -0.321 OA
BRANCH  27  28
HETATM   28  C2  UNL     1      14.313   8.809  -3.909  1.00  0.00     0.254 C 
HETATM   29  C1  UNL     1      14.643   9.844  -4.952  1.00  0.00     0.126 C 
HETATM   30  O1  UNL     1      14.065   7.640  -4.251  1.00  0.00    -0.266 OA
ENDBRANCH  27  28
ENDBRANCH  26  27
ENDBRANCH  23  26
BRANCH  24  31
HETATM   31  O5  UNL     1      15.602  10.909   0.491  1.00  0.00    -0.392 OA
ATOM     32  H5  UNL     1      15.619  10.991   1.438  1.00  0.00     0.210 HD
ENDBRANCH  24  31
BRANCH  25  33
HETATM   33  O4  UNL     1      15.165   7.428   1.057  1.00  0.00    -0.392 OA
ATOM     34  H4  UNL     1      14.572   7.295   0.327  1.00  0.00     0.210 HD
ENDBRANCH  25  33
ENDBRANCH  18  20
ENDBRANCH  13  14
ENDBRANCH   5  12
ENDBRANCH   1   4
TORSDOF 9
ENDMDL
MODEL 5
REMARK VINA RESULT: -8.910627365      1.133      1.262
REMARK  9 active torsions:
REMARK  status: ('A' for Active; 'I' for Inactive)
REMARK    1  A    between atoms: C2_2  and  O2_4 
REMARK    2  A    between atoms: O2_4  and  C3_5 
REMARK    3  A    between atoms: C3_5  and  C4_6 
REMARK    4  A    between atoms: C7_9  and  C8_10 
REMARK    5  A    between atoms: C12_14  and  C13_15 
REMARK    6  A    between atoms: C14_16  and  C15_17 
REMARK    7  A    between atoms: N1_24  and  C22_25 
REMARK    8  A    between atoms: C24_29  and  O4_30 
REMARK    9  A    between atoms: C25_32  and  O5_33 
ROOT
HETATM    1  C22 UNL     1      13.263  10.328   0.269  1.00  0.00     0.247 C 
HETATM    2  C23 UNL     1      13.267   9.030   0.977  1.00  0.00     0.079 C 
HETATM    3  N2  UNL     1      13.293   8.010   1.534  1.00  0.00    -0.196 NA
ENDROOT
BRANCH   1   4
HETATM    4  N1  UNL     1      14.069  10.353  -0.907  1.00  0.00    -0.368 N 
HETATM    5  C15 UNL     1      15.424   9.962  -0.855  1.00  0.00     0.026 C 
HETATM    6  C16 UNL     1      15.808   9.074  -1.808  1.00  0.00     0.003 C 
HETATM    7  C17 UNL     1      14.778   8.656  -2.789  1.00  0.00     0.040 C 
HETATM    8  C18 UNL     1      14.140   9.921  -3.325  1.00  0.00    -0.028 C 
HETATM    9  C19 UNL     1      15.234  10.704  -4.019  1.00  0.00     0.016 C 
HETATM   10  C20 UNL     1      13.067   9.460  -4.304  1.00  0.00     0.016 C 
HETATM   11  C21 UNL     1      13.566  10.773  -2.233  1.00  0.00     0.133 C 
BRANCH   5  12
HETATM   12  C14 UNL     1      16.359  10.412   0.126  1.00  0.00     0.027 C 
HETATM   13  C13 UNL     1      17.004  11.504   0.301  1.00  0.00     0.007 C 
BRANCH  13  14
HETATM   14  C12 UNL     1      17.929  11.648   1.471  1.00  0.00     0.148 C 
HETATM   15  C10 UNL     1      17.358  11.217   2.770  1.00  0.00     0.017 C 
HETATM   16  C9  UNL     1      18.553  10.482   3.413  1.00  0.00     0.039 C 
HETATM   17  C11 UNL     1      16.922  12.361   3.646  1.00  0.00     0.013 C 
HETATM   18  C8  UNL     1      19.674  11.016   2.550  1.00  0.00     0.133 C 
HETATM   19  O3  UNL     1      19.100  10.915   1.285  1.00  0.00    -0.376 OA
BRANCH  18  20
HETATM   20  C7  UNL     1      20.873  10.110   2.740  1.00  0.00     0.068 C 
HETATM   21  C6  UNL     1      21.486  10.261   4.062  1.00  0.00    -0.020 C 
HETATM   22  C5  UNL     1      22.251   9.254   4.549  1.00  0.00    -0.021 C 
HETATM   23  C4  UNL     1      22.393   8.085   3.694  1.00  0.00     0.064 C 
HETATM   24  C25 UNL     1      20.928   7.676   3.336  1.00  0.00     0.157 C 
HETATM   25  C24 UNL     1      20.413   8.711   2.406  1.00  0.00     0.157 C 
BRANCH  23  26
HETATM   26  C3  UNL     1      23.092   6.881   4.193  1.00  0.00     0.190 C 
BRANCH  26  27
HETATM   27  O2  UNL     1      22.587   5.682   3.877  1.00  0.00    -0.321 OA
BRANCH  27  28
HETATM   28  C2  UNL     1      22.293   4.489   4.361  1.00  0.00     0.254 C 
HETATM   29  C1  UNL     1      21.003   3.820   3.965  1.00  0.00     0.126 C 
HETATM   30  O1  UNL     1      23.074   3.919   5.142  1.00  0.00    -0.266 OA
ENDBRANCH  27  28
ENDBRANCH  26  27
ENDBRANCH  23  26
BRANCH  24  31
HETATM   31  O5  UNL     1      20.231   7.657   4.533  1.00  0.00    -0.392 OA
ATOM     32  H5  UNL     1      20.761   7.151   5.139  1.00  0.00     0.210 HD
ENDBRANCH  24  31
BRANCH  25  33
HETATM   33  O4  UNL     1      20.852   8.366   1.108  1.00  0.00    -0.392 OA
ATOM     34  H4  UNL     1      20.935   9.152   0.581  1.00  0.00     0.210 HD
ENDBRANCH  25  33
ENDBRANCH  18  20
ENDBRANCH  13  14
ENDBRANCH   5  12
ENDBRANCH   1   4
TORSDOF 9
ENDMDL
