MODEL 1
REMARK VINA RESULT: -6.066101988      0.000      0.000
REMARK  7 active torsions:
REMARK  status: ('A' for Active; 'I' for Inactive)
REMARK    1  A    between atoms: C2_2  and  O1_3 
REMARK    2  A    between atoms: O1_3  and  C3_4 
REMARK    3  A    between atoms: C5_6  and  N1_7 
REMARK    4  A    between atoms: C10_20  and  C11_21 
REMARK    5  A    between atoms: C13_23  and  C14_24 
REMARK    6  A    between atoms: C15_26  and  S1_27 
REMARK    7  A    between atoms: S1_27  and  C16_28 
ROOT
HETATM    1  C3  UNL     1     -25.944  -8.833  76.915  1.00  0.00     0.176 C 
HETATM    2  C4  UNL     1     -26.072  -9.781  75.707  1.00  0.00     0.083 C 
HETATM    3  C5  UNL     1     -27.423  -9.593  75.111  1.00  0.00     0.210 C 
HETATM    4  N3  UNL     1     -28.129  -8.481  75.765  1.00  0.00    -0.115 NA
HETATM    5  N4  UNL     1     -28.252  -8.662  77.144  1.00  0.00    -0.302 N 
ATOM      6  H4  UNL     1     -29.153  -8.649  77.621  1.00  0.00     0.182 HD
HETATM    7  C10 UNL     1     -27.112  -8.852  77.782  1.00  0.00     0.068 C 
ENDROOT
BRANCH   7   8
HETATM    8  C11 UNL     1     -27.157  -9.054  79.228  1.00  0.00     0.033 A 
HETATM    9  C12 UNL     1     -27.481 -10.140  79.981  1.00  0.00     0.037 A 
HETATM   10  C13 UNL     1     -27.429 -10.007  81.327  1.00  0.00     0.027 A 
HETATM   11  C15 UNL     1     -27.048  -8.774  81.807  1.00  0.00     0.060 A 
HETATM   12  S2  UNL     1     -26.785  -7.869  80.394  1.00  0.00    -0.080 SA
BRANCH  10  13
HETATM   13  C14 UNL     1     -27.747 -11.087  82.293  1.00  0.00     0.272 C 
HETATM   14  O4  UNL     1     -26.852 -11.902  82.590  1.00  0.00    -0.301 OA
ENDBRANCH  10  13
BRANCH  11  15
HETATM   15  S1  UNL     1     -26.878  -8.261  83.538  1.00  0.00    -0.053 SA
BRANCH  15  16
HETATM   16  C16 UNL     1     -25.255  -8.937  84.067  1.00  0.00     0.421 C 
HETATM   17  F2  UNL     1     -25.445 -10.100  84.783  1.00  0.00    -0.202 F 
HETATM   18  F3  UNL     1     -24.585  -9.279  82.895  1.00  0.00    -0.202 F 
ENDBRANCH  15  16
ENDBRANCH  11  15
ENDBRANCH   7   8
BRANCH   1  19
HETATM   19  O1  UNL     1     -24.723  -8.956  77.515  1.00  0.00    -0.380 OA
BRANCH  19  20
HETATM   20  C2  UNL     1     -23.866  -7.960  77.113  1.00  0.00     0.164 C 
HETATM   21  C1  UNL     1     -22.456  -8.517  77.193  1.00  0.00     0.033 C 
ENDBRANCH  19  20
ENDBRANCH   1  19
BRANCH   3  22
HETATM   22  N1  UNL     1     -27.492  -9.529  73.690  1.00  0.00    -0.286 N 
HETATM   23  C6  UNL     1     -26.339  -9.413  72.982  1.00  0.00     0.145 A 
HETATM   24  C7  UNL     1     -26.290  -9.344  71.612  1.00  0.00     0.199 A 
HETATM   25  F1  UNL     1     -25.142  -9.228  70.912  1.00  0.00    -0.199 F 
HETATM   26  C8  UNL     1     -27.513  -9.399  70.952  1.00  0.00     0.289 A 
HETATM   27  O2  UNL     1     -27.522  -9.340  69.690  1.00  0.00    -0.265 OA
HETATM   28  N2  UNL     1     -28.629  -9.515  71.681  1.00  0.00    -0.273 N 
HETATM   29  C9  UNL     1     -28.652  -9.581  73.020  1.00  0.00     0.330 A 
ATOM     30  H2  UNL     1     -29.520  -9.556  71.187  1.00  0.00     0.173 HD
HETATM   31  O3  UNL     1     -29.771  -9.691  73.643  1.00  0.00    -0.246 OA
ENDBRANCH   3  22
TORSDOF 7
ENDMDL
MODEL 2
REMARK VINA RESULT: -6.052801774      6.640      8.691
REMARK  7 active torsions:
REMARK  status: ('A' for Active; 'I' for Inactive)
REMARK    1  A    between atoms: C2_2  and  O1_3 
REMARK    2  A    between atoms: O1_3  and  C3_4 
REMARK    3  A    between atoms: C5_6  and  N1_7 
REMARK    4  A    between atoms: C10_20  and  C11_21 
REMARK    5  A    between atoms: C13_23  and  C14_24 
REMARK    6  A    between atoms: C15_26  and  S1_27 
REMARK    7  A    between atoms: S1_27  and  C16_28 
ROOT
HETATM    1  C3  UNL     1     -30.177  -4.897  74.670  1.00  0.00     0.176 C 
HETATM    2  C4  UNL     1     -30.820  -3.991  73.604  1.00  0.00     0.083 C 
HETATM    3  C5  UNL     1     -32.270  -4.319  73.528  1.00  0.00     0.210 C 
HETATM    4  N3  UNL     1     -32.640  -5.281  74.578  1.00  0.00    -0.115 NA
HETATM    5  N4  UNL     1     -31.894  -6.459  74.512  1.00  0.00    -0.302 N 
ATOM      6  H4  UNL     1     -32.326  -7.379  74.434  1.00  0.00     0.182 HD
HETATM    7  C10 UNL     1     -30.586  -6.290  74.558  1.00  0.00     0.068 C 
ENDROOT
BRANCH   7   8
HETATM    8  C11 UNL     1     -29.734  -7.475  74.490  1.00  0.00     0.033 A 
HETATM    9  C12 UNL     1     -28.861  -8.015  75.383  1.00  0.00     0.037 A 
HETATM   10  C13 UNL     1     -28.205  -9.141  75.015  1.00  0.00     0.027 A 
HETATM   11  C15 UNL     1     -28.489  -9.634  73.762  1.00  0.00     0.060 A 
HETATM   12  S2  UNL     1     -29.633  -8.532  73.159  1.00  0.00    -0.080 SA
BRANCH  10  13
HETATM   13  C14 UNL     1     -27.224  -9.859  75.865  1.00  0.00     0.272 C 
HETATM   14  O4  UNL     1     -26.015  -9.590  75.735  1.00  0.00    -0.301 OA
ENDBRANCH  10  13
BRANCH  11  15
HETATM   15  S1  UNL     1     -27.793 -11.107  72.964  1.00  0.00    -0.053 SA
BRANCH  15  16
HETATM   16  C16 UNL     1     -26.159 -10.565  72.329  1.00  0.00     0.421 C 
HETATM   17  F2  UNL     1     -25.994  -9.215  72.556  1.00  0.00    -0.202 F 
HETATM   18  F3  UNL     1     -25.210 -11.231  73.102  1.00  0.00    -0.202 F 
ENDBRANCH  15  16
ENDBRANCH  11  15
ENDBRANCH   7   8
BRANCH   1  19
HETATM   19  O1  UNL     1     -28.839  -4.650  74.791  1.00  0.00    -0.380 OA
BRANCH  19  20
HETATM   20  C2  UNL     1     -28.502  -4.344  76.087  1.00  0.00     0.164 C 
HETATM   21  C1  UNL     1     -27.082  -4.831  76.312  1.00  0.00     0.033 C 
ENDBRANCH  19  20
ENDBRANCH   1  19
BRANCH   3  22
HETATM   22  N1  UNL     1     -33.172  -3.221  73.446  1.00  0.00    -0.286 N 
HETATM   23  C6  UNL     1     -33.084  -2.231  74.371  1.00  0.00     0.145 A 
HETATM   24  C7  UNL     1     -33.901  -1.127  74.386  1.00  0.00     0.199 A 
HETATM   25  F1  UNL     1     -33.812  -0.146  75.308  1.00  0.00    -0.199 F 
HETATM   26  C8  UNL     1     -34.857  -1.060  73.378  1.00  0.00     0.289 A 
HETATM   27  O2  UNL     1     -35.633  -0.063  73.347  1.00  0.00    -0.265 OA
HETATM   28  N2  UNL     1     -34.913  -2.052  72.482  1.00  0.00    -0.273 N 
HETATM   29  C9  UNL     1     -34.104  -3.121  72.488  1.00  0.00     0.330 A 
ATOM     30  H2  UNL     1     -35.617  -1.992  71.746  1.00  0.00     0.173 HD
HETATM   31  O3  UNL     1     -34.227  -4.031  71.588  1.00  0.00    -0.246 OA
ENDBRANCH   3  22
TORSDOF 7
ENDMDL
MODEL 3
REMARK VINA RESULT: -6.031823958      1.417      1.633
REMARK  7 active torsions:
REMARK  status: ('A' for Active; 'I' for Inactive)
REMARK    1  A    between atoms: C2_2  and  O1_3 
REMARK    2  A    between atoms: O1_3  and  C3_4 
REMARK    3  A    between atoms: C5_6  and  N1_7 
REMARK    4  A    between atoms: C10_20  and  C11_21 
REMARK    5  A    between atoms: C13_23  and  C14_24 
REMARK    6  A    between atoms: C15_26  and  S1_27 
REMARK    7  A    between atoms: S1_27  and  C16_28 
ROOT
HETATM    1  C3  UNL     1     -26.044  -8.847  76.960  1.00  0.00     0.176 C 
HETATM    2  C4  UNL     1     -26.145  -9.787  75.744  1.00  0.00     0.083 C 
HETATM    3  C5  UNL     1     -27.483  -9.597  75.120  1.00  0.00     0.210 C 
HETATM    4  N3  UNL     1     -28.204  -8.489  75.765  1.00  0.00    -0.115 NA
HETATM    5  N4  UNL     1     -28.357  -8.678  77.140  1.00  0.00    -0.302 N 
ATOM      6  H4  UNL     1     -29.268  -8.668  77.598  1.00  0.00     0.182 HD
HETATM    7  C10 UNL     1     -27.231  -8.871  77.802  1.00  0.00     0.068 C 
ENDROOT
BRANCH   7   8
HETATM    8  C11 UNL     1     -27.307  -9.082  79.245  1.00  0.00     0.033 A 
HETATM    9  C12 UNL     1     -27.125 -10.193  80.009  1.00  0.00     0.037 A 
HETATM   10  C13 UNL     1     -27.272 -10.063  81.348  1.00  0.00     0.027 A 
HETATM   11  C15 UNL     1     -27.594  -8.808  81.811  1.00  0.00     0.060 A 
HETATM   12  S2  UNL     1     -27.677  -7.878  80.392  1.00  0.00    -0.080 SA
BRANCH  10  13
HETATM   13  C14 UNL     1     -27.107 -11.169  82.324  1.00  0.00     0.272 C 
HETATM   14  O4  UNL     1     -28.083 -11.909  82.556  1.00  0.00    -0.301 OA
ENDBRANCH  10  13
BRANCH  11  15
HETATM   15  S1  UNL     1     -27.862  -8.293  83.529  1.00  0.00    -0.053 SA
BRANCH  15  16
HETATM   16  C16 UNL     1     -29.561  -8.862  83.926  1.00  0.00     0.421 C 
HETATM   17  F2  UNL     1     -30.202  -9.260  82.772  1.00  0.00    -0.202 F 
HETATM   18  F3  UNL     1     -29.407  -9.995  84.723  1.00  0.00    -0.202 F 
ENDBRANCH  15  16
ENDBRANCH  11  15
ENDBRANCH   7   8
BRANCH   1  19
HETATM   19  O1  UNL     1     -24.836  -8.972  77.586  1.00  0.00    -0.380 OA
BRANCH  19  20
HETATM   20  C2  UNL     1     -23.988  -7.946  77.246  1.00  0.00     0.164 C 
HETATM   21  C1  UNL     1     -22.585  -8.523  77.179  1.00  0.00     0.033 C 
ENDBRANCH  19  20
ENDBRANCH   1  19
BRANCH   3  22
HETATM   22  N1  UNL     1     -27.522  -9.524  73.699  1.00  0.00    -0.286 N 
HETATM   23  C6  UNL     1     -26.352  -9.419  73.016  1.00  0.00     0.145 A 
HETATM   24  C7  UNL     1     -26.274  -9.343  71.647  1.00  0.00     0.199 A 
HETATM   25  F1  UNL     1     -25.109  -9.238  70.972  1.00  0.00    -0.199 F 
HETATM   26  C8  UNL     1     -27.482  -9.380  70.961  1.00  0.00     0.289 A 
HETATM   27  O2  UNL     1     -27.464  -9.313  69.700  1.00  0.00    -0.265 OA
HETATM   28  N2  UNL     1     -28.616  -9.485  71.667  1.00  0.00    -0.273 N 
HETATM   29  C9  UNL     1     -28.668  -9.558  73.004  1.00  0.00     0.330 A 
ATOM     30  H2  UNL     1     -29.496  -9.512  71.153  1.00  0.00     0.173 HD
HETATM   31  O3  UNL     1     -29.801  -9.657  73.603  1.00  0.00    -0.246 OA
ENDBRANCH   3  22
TORSDOF 7
ENDMDL
MODEL 4
REMARK VINA RESULT: -6.024812257      4.318      5.627
REMARK  7 active torsions:
REMARK  status: ('A' for Active; 'I' for Inactive)
REMARK    1  A    between atoms: C2_2  and  O1_3 
REMARK    2  A    between atoms: O1_3  and  C3_4 
REMARK    3  A    between atoms: C5_6  and  N1_7 
REMARK    4  A    between atoms: C10_20  and  C11_21 
REMARK    5  A    between atoms: C13_23  and  C14_24 
REMARK    6  A    between atoms: C15_26  and  S1_27 
REMARK    7  A    between atoms: S1_27  and  C16_28 
ROOT
HETATM    1  C3  UNL     1     -25.151  -7.015  77.159  1.00  0.00     0.176 C 
HETATM    2  C4  UNL     1     -25.940  -6.729  75.866  1.00  0.00     0.083 C 
HETATM    3  C5  UNL     1     -26.530  -8.010  75.390  1.00  0.00     0.210 C 
HETATM    4  N3  UNL     1     -26.297  -9.085  76.367  1.00  0.00    -0.115 NA
HETATM    5  N4  UNL     1     -24.941  -9.273  76.642  1.00  0.00    -0.302 N 
ATOM      6  H4  UNL     1     -24.477 -10.174  76.527  1.00  0.00     0.182 HD
HETATM    7  C10 UNL     1     -24.305  -8.195  77.063  1.00  0.00     0.068 C 
ENDROOT
BRANCH   7   8
HETATM    8  C11 UNL     1     -22.881  -8.309  77.368  1.00  0.00     0.033 A 
HETATM    9  C12 UNL     1     -21.811  -8.629  76.591  1.00  0.00     0.037 A 
HETATM   10  C13 UNL     1     -20.594  -8.654  77.181  1.00  0.00     0.027 A 
HETATM   11  C15 UNL     1     -20.556  -8.351  78.523  1.00  0.00     0.060 A 
HETATM   12  S2  UNL     1     -22.185  -8.050  78.900  1.00  0.00    -0.080 SA
BRANCH  10  13
HETATM   13  C14 UNL     1     -19.326  -8.980  76.482  1.00  0.00     0.272 C 
HETATM   14  O4  UNL     1     -18.913 -10.155  76.514  1.00  0.00    -0.301 OA
ENDBRANCH  10  13
BRANCH  11  15
HETATM   15  S1  UNL     1     -19.104  -8.296  79.609  1.00  0.00    -0.053 SA
BRANCH  15  16
HETATM   16  C16 UNL     1     -19.100  -9.920  80.465  1.00  0.00     0.421 C 
HETATM   17  F2  UNL     1     -20.214 -10.026  81.270  1.00  0.00    -0.202 F 
HETATM   18  F3  UNL     1     -19.224 -10.879  79.462  1.00  0.00    -0.202 F 
ENDBRANCH  15  16
ENDBRANCH  11  15
ENDBRANCH   7   8
BRANCH   1  19
HETATM   19  O1  UNL     1     -24.577  -5.877  77.652  1.00  0.00    -0.380 OA
BRANCH  19  20
HETATM   20  C2  UNL     1     -25.210  -4.753  77.181  1.00  0.00     0.164 C 
HETATM   21  C1  UNL     1     -24.289  -3.574  77.440  1.00  0.00     0.033 C 
ENDBRANCH  19  20
ENDBRANCH   1  19
BRANCH   3  22
HETATM   22  N1  UNL     1     -27.878  -7.963  74.935  1.00  0.00    -0.286 N 
HETATM   23  C6  UNL     1     -28.783  -7.240  75.643  1.00  0.00     0.145 A 
HETATM   24  C7  UNL     1     -30.107  -7.126  75.295  1.00  0.00     0.199 A 
HETATM   25  F1  UNL     1     -31.004  -6.406  76.002  1.00  0.00    -0.199 F 
HETATM   26  C8  UNL     1     -30.499  -7.805  74.147  1.00  0.00     0.289 A 
HETATM   27  O2  UNL     1     -31.707  -7.731  73.784  1.00  0.00    -0.265 OA
HETATM   28  N2  UNL     1     -29.579  -8.507  73.473  1.00  0.00    -0.273 N 
HETATM   29  C9  UNL     1     -28.291  -8.604  73.833  1.00  0.00     0.330 A 
ATOM     30  H2  UNL     1     -29.878  -9.000  72.632  1.00  0.00     0.173 HD
HETATM   31  O3  UNL     1     -27.474  -9.301  73.128  1.00  0.00    -0.246 OA
ENDBRANCH   3  22
TORSDOF 7
ENDMDL
MODEL 5
REMARK VINA RESULT: -5.993065342      1.352      1.710
REMARK  7 active torsions:
REMARK  status: ('A' for Active; 'I' for Inactive)
REMARK    1  A    between atoms: C2_2  and  O1_3 
REMARK    2  A    between atoms: O1_3  and  C3_4 
REMARK    3  A    between atoms: C5_6  and  N1_7 
REMARK    4  A    between atoms: C10_20  and  C11_21 
REMARK    5  A    between atoms: C13_23  and  C14_24 
REMARK    6  A    between atoms: C15_26  and  S1_27 
REMARK    7  A    between atoms: S1_27  and  C16_28 
ROOT
HETATM    1  C3  UNL     1     -25.948  -8.899  76.902  1.00  0.00     0.176 C 
HETATM    2  C4  UNL     1     -26.021  -9.813  75.664  1.00  0.00     0.083 C 
HETATM    3  C5  UNL     1     -27.383  -9.691  75.075  1.00  0.00     0.210 C 
HETATM    4  N3  UNL     1     -28.155  -8.646  75.766  1.00  0.00    -0.115 NA
HETATM    5  N4  UNL     1     -28.262  -8.880  77.139  1.00  0.00    -0.302 N 
ATOM      6  H4  UNL     1     -29.160  -8.938  77.617  1.00  0.00     0.182 HD
HETATM    7  C10 UNL     1     -27.110  -9.018  77.769  1.00  0.00     0.068 C 
ENDROOT
BRANCH   7   8
HETATM    8  C11 UNL     1     -27.138  -9.270  79.208  1.00  0.00     0.033 A 
HETATM    9  C12 UNL     1     -26.141  -9.484  80.109  1.00  0.00     0.037 A 
HETATM   10  C13 UNL     1     -26.496  -9.695  81.398  1.00  0.00     0.027 A 
HETATM   11  C15 UNL     1     -27.844  -9.671  81.674  1.00  0.00     0.060 A 
HETATM   12  S2  UNL     1     -28.548  -9.363  80.158  1.00  0.00    -0.080 SA
BRANCH  10  13
HETATM   13  C14 UNL     1     -25.540  -9.941  82.505  1.00  0.00     0.272 C 
HETATM   14  O4  UNL     1     -25.167 -11.110  82.720  1.00  0.00    -0.301 OA
ENDBRANCH  10  13
BRANCH  11  15
HETATM   15  S1  UNL     1     -28.654  -9.916  83.279  1.00  0.00    -0.053 SA
BRANCH  15  16
HETATM   16  C16 UNL     1     -28.681 -11.736  83.514  1.00  0.00     0.421 C 
HETATM   17  F2  UNL     1     -28.337 -12.365  82.336  1.00  0.00    -0.202 F 
HETATM   18  F3  UNL     1     -27.677 -12.016  84.438  1.00  0.00    -0.202 F 
ENDBRANCH  15  16
ENDBRANCH  11  15
ENDBRANCH   7   8
BRANCH   1  19
HETATM   19  O1  UNL     1     -24.720  -8.965  77.496  1.00  0.00    -0.380 OA
BRANCH  19  20
HETATM   20  C2  UNL     1     -23.862  -8.027  76.976  1.00  0.00     0.164 C 
HETATM   21  C1  UNL     1     -22.449  -8.545  77.178  1.00  0.00     0.033 C 
ENDBRANCH  19  20
ENDBRANCH   1  19
BRANCH   3  22
HETATM   22  N1  UNL     1     -27.460  -9.585  73.658  1.00  0.00    -0.286 N 
HETATM   23  C6  UNL     1     -26.311  -9.450  72.947  1.00  0.00     0.145 A 
HETATM   24  C7  UNL     1     -26.270  -9.340  71.579  1.00  0.00     0.199 A 
HETATM   25  F1  UNL     1     -25.126  -9.205  70.876  1.00  0.00    -0.199 F 
HETATM   26  C8  UNL     1     -27.496  -9.375  70.925  1.00  0.00     0.289 A 
HETATM   27  O2  UNL     1     -27.513  -9.279  69.665  1.00  0.00    -0.265 OA
HETATM   28  N2  UNL     1     -28.609  -9.511  71.657  1.00  0.00    -0.273 N 
HETATM   29  C9  UNL     1     -28.624  -9.616  72.994  1.00  0.00     0.330 A 
ATOM     30  H2  UNL     1     -29.503  -9.536  71.167  1.00  0.00     0.173 HD
HETATM   31  O3  UNL     1     -29.739  -9.743  73.620  1.00  0.00    -0.246 OA
ENDBRANCH   3  22
TORSDOF 7
ENDMDL
