MODEL 1
REMARK VINA RESULT: -3.883052860      0.000      0.000
REMARK  2 active torsions:
REMARK  status: ('A' for Active; 'I' for Inactive)
REMARK    1  A    between atoms: C2_2  and  O1_3 
REMARK    2  A    between atoms: C6_8  and  O2_9 
ROOT
HETATM    1  C1  UNL     1      23.496  34.589  -3.186  1.00  0.00     0.046 C 
HETATM    2  C2  UNL     1      23.750  33.503  -4.197  1.00  0.00     0.058 C 
HETATM    3  C3  UNL     1      24.914  32.615  -3.787  1.00  0.00     0.042 C 
HETATM    4  C4  UNL     1      26.066  32.960  -4.675  1.00  0.00    -0.009 C 
HETATM    5  C5  UNL     1      26.133  32.136  -5.924  1.00  0.00     0.036 C 
HETATM    6  C6  UNL     1      24.878  32.104  -6.717  1.00  0.00     0.119 C 
HETATM    7  C7  UNL     1      24.056  33.336  -6.676  1.00  0.00     0.039 C 
HETATM    8  C8  UNL     1      24.247  34.192  -5.467  1.00  0.00     0.022 C 
HETATM    9  C9  UNL     1      25.705  34.388  -5.108  1.00  0.00     0.012 C 
ENDROOT
BRANCH   2  10
HETATM   10  O1  UNL     1      22.651  32.730  -4.463  1.00  0.00    -0.390 OA
ATOM     11  H1  UNL     1      22.656  32.344  -5.332  1.00  0.00     0.210 HD
ENDBRANCH   2  10
BRANCH   6  12
HETATM   12  O2  UNL     1      25.241  31.793  -8.048  1.00  0.00    -0.396 OA
ATOM     13  H2  UNL     1      24.490  31.994  -8.594  1.00  0.00     0.210 HD
ENDBRANCH   6  12
TORSDOF 2
ENDMDL
MODEL 2
REMARK VINA RESULT: -3.738833565      4.161      5.283
REMARK  2 active torsions:
REMARK  status: ('A' for Active; 'I' for Inactive)
REMARK    1  A    between atoms: C2_2  and  O1_3 
REMARK    2  A    between atoms: C6_8  and  O2_9 
ROOT
HETATM    1  C1  UNL     1      29.062  34.340  -3.986  1.00  0.00     0.046 C 
HETATM    2  C2  UNL     1      29.438  32.913  -4.281  1.00  0.00     0.058 C 
HETATM    3  C3  UNL     1      29.311  32.594  -5.762  1.00  0.00     0.042 C 
HETATM    4  C4  UNL     1      28.097  31.737  -5.926  1.00  0.00    -0.009 C 
HETATM    5  C5  UNL     1      28.377  30.269  -5.835  1.00  0.00     0.036 C 
HETATM    6  C6  UNL     1      29.127  29.852  -4.623  1.00  0.00     0.119 C 
HETATM    7  C7  UNL     1      28.864  30.642  -3.397  1.00  0.00     0.039 C 
HETATM    8  C8  UNL     1      28.373  32.034  -3.626  1.00  0.00     0.022 C 
HETATM    9  C9  UNL     1      27.286  32.109  -4.677  1.00  0.00     0.012 C 
ENDROOT
BRANCH   2  10
HETATM   10  O1  UNL     1      30.689  32.569  -3.840  1.00  0.00    -0.390 OA
ATOM     11  H1  UNL     1      31.371  33.170  -4.119  1.00  0.00     0.210 HD
ENDBRANCH   2  10
BRANCH   6  12
HETATM   12  O2  UNL     1      28.832  28.486  -4.406  1.00  0.00    -0.396 OA
ATOM     13  H2  UNL     1      29.579  27.989  -4.717  1.00  0.00     0.210 HD
ENDBRANCH   6  12
TORSDOF 2
ENDMDL
MODEL 3
REMARK VINA RESULT: -3.725171752      1.581      2.246
REMARK  2 active torsions:
REMARK  status: ('A' for Active; 'I' for Inactive)
REMARK    1  A    between atoms: C2_2  and  O1_3 
REMARK    2  A    between atoms: C6_8  and  O2_9 
ROOT
HETATM    1  C1  UNL     1      24.731  32.753  -2.553  1.00  0.00     0.046 C 
HETATM    2  C2  UNL     1      24.167  33.430  -3.773  1.00  0.00     0.058 C 
HETATM    3  C3  UNL     1      23.637  32.423  -4.781  1.00  0.00     0.042 C 
HETATM    4  C4  UNL     1      24.606  32.385  -5.918  1.00  0.00    -0.009 C 
HETATM    5  C5  UNL     1      24.286  33.354  -7.015  1.00  0.00     0.036 C 
HETATM    6  C6  UNL     1      24.088  34.757  -6.569  1.00  0.00     0.119 C 
HETATM    7  C7  UNL     1      24.897  35.184  -5.403  1.00  0.00     0.039 C 
HETATM    8  C8  UNL     1      25.343  34.085  -4.496  1.00  0.00     0.022 C 
HETATM    9  C9  UNL     1      25.890  32.888  -5.246  1.00  0.00     0.012 C 
ENDROOT
BRANCH   2  10
HETATM   10  O1  UNL     1      23.196  34.355  -3.490  1.00  0.00    -0.390 OA
ATOM     11  H1  UNL     1      22.685  34.148  -2.716  1.00  0.00     0.210 HD
ENDBRANCH   2  10
BRANCH   6  12
HETATM   12  O2  UNL     1      24.350  35.584  -7.686  1.00  0.00    -0.396 OA
ATOM     13  H2  UNL     1      23.794  36.350  -7.598  1.00  0.00     0.210 HD
ENDBRANCH   6  12
TORSDOF 2
ENDMDL
MODEL 4
REMARK VINA RESULT: -3.670236275     10.918     12.141
REMARK  2 active torsions:
REMARK  status: ('A' for Active; 'I' for Inactive)
REMARK    1  A    between atoms: C2_2  and  O1_3 
REMARK    2  A    between atoms: C6_8  and  O2_9 
ROOT
HETATM    1  C1  UNL     1      27.883  19.507  -2.259  1.00  0.00     0.046 C 
HETATM    2  C2  UNL     1      27.646  20.808  -2.979  1.00  0.00     0.058 C 
HETATM    3  C3  UNL     1      28.161  20.760  -4.409  1.00  0.00     0.042 C 
HETATM    4  C4  UNL     1      29.406  21.586  -4.458  1.00  0.00    -0.009 C 
HETATM    5  C5  UNL     1      29.163  23.024  -4.801  1.00  0.00     0.036 C 
HETATM    6  C6  UNL     1      28.142  23.701  -3.962  1.00  0.00     0.119 C 
HETATM    7  C7  UNL     1      28.054  23.242  -2.556  1.00  0.00     0.039 C 
HETATM    8  C8  UNL     1      28.538  21.851  -2.306  1.00  0.00     0.022 C 
HETATM    9  C9  UNL     1      29.855  21.554  -2.991  1.00  0.00     0.012 C 
ENDROOT
BRANCH   2  10
HETATM   10  O1  UNL     1      26.337  21.212  -2.972  1.00  0.00    -0.390 OA
ATOM     11  H1  UNL     1      25.716  20.495  -3.019  1.00  0.00     0.210 HD
ENDBRANCH   2  10
BRANCH   6  12
HETATM   12  O2  UNL     1      28.420  25.087  -4.015  1.00  0.00    -0.396 OA
ATOM     13  H2  UNL     1      27.767  25.521  -3.479  1.00  0.00     0.210 HD
ENDBRANCH   6  12
TORSDOF 2
ENDMDL
MODEL 5
REMARK VINA RESULT: -3.668517609     14.114     15.351
REMARK  2 active torsions:
REMARK  status: ('A' for Active; 'I' for Inactive)
REMARK    1  A    between atoms: C2_2  and  O1_3 
REMARK    2  A    between atoms: C6_8  and  O2_9 
ROOT
HETATM    1  C1  UNL     1      32.642  19.881   0.749  1.00  0.00     0.046 C 
HETATM    2  C2  UNL     1      32.809  20.594  -0.567  1.00  0.00     0.058 C 
HETATM    3  C3  UNL     1      31.594  21.444  -0.903  1.00  0.00     0.042 C 
HETATM    4  C4  UNL     1      30.853  20.742  -1.995  1.00  0.00    -0.009 C 
HETATM    5  C5  UNL     1      31.277  21.154  -3.372  1.00  0.00     0.036 C 
HETATM    6  C6  UNL     1      32.739  21.076  -3.623  1.00  0.00     0.119 C 
HETATM    7  C7  UNL     1      33.460  19.996  -2.909  1.00  0.00     0.039 C 
HETATM    8  C8  UNL     1      32.812  19.517  -1.652  1.00  0.00     0.022 C 
HETATM    9  C9  UNL     1      31.322  19.294  -1.805  1.00  0.00     0.012 C 
ENDROOT
BRANCH   2  10
HETATM   10  O1  UNL     1      33.943  21.359  -0.640  1.00  0.00    -0.390 OA
ATOM     11  H1  UNL     1      34.475  21.329   0.147  1.00  0.00     0.210 HD
ENDBRANCH   2  10
BRANCH   6  12
HETATM   12  O2  UNL     1      32.909  20.946  -5.022  1.00  0.00    -0.396 OA
ATOM     13  H2  UNL     1      32.260  20.321  -5.322  1.00  0.00     0.210 HD
ENDBRANCH   6  12
TORSDOF 2
ENDMDL
