MODEL 1
REMARK VINA RESULT: -7.729305457      0.000      0.000
REMARK  6 active torsions:
REMARK  status: ('A' for Active; 'I' for Inactive)
REMARK    1  A    between atoms: C5_5  and  O1_6 
REMARK    2  A    between atoms: C16_18  and  N1_19 
REMARK       I    between atoms: N1_19  and  C17_21 
REMARK       I    between atoms: C17_21  and  N2_23 
REMARK    3  A    between atoms: N2_23  and  C18_25 
REMARK    4  A    between atoms: C18_25  and  C19_26 
REMARK    5  A    between atoms: C19_26  and  C20_27 
REMARK    6  A    between atoms: C20_27  and  N3_28 
REMARK       I    between atoms: N3_28  and  C21_30 
ROOT
HETATM    1  C1  UNL     1       1.590  37.227  24.888  1.00  0.00     0.016 C 
HETATM    2  C2  UNL     1       3.033  37.352  24.397  1.00  0.00    -0.036 C 
HETATM    3  C3  UNL     1       3.342  36.080  23.625  1.00  0.00     0.012 C 
HETATM    4  C4  UNL     1       2.309  35.808  22.568  1.00  0.00     0.032 C 
HETATM    5  C5  UNL     1       1.684  37.034  21.994  1.00  0.00     0.118 C 
HETATM    6  C6  UNL     1       2.583  38.236  22.082  1.00  0.00     0.037 C 
HETATM    7  C7  UNL     1       3.055  38.548  23.470  1.00  0.00    -0.004 C 
HETATM    8  C8  UNL     1       4.466  39.096  23.322  1.00  0.00     0.006 C 
HETATM    9  C9  UNL     1       5.035  39.575  24.628  1.00  0.00     0.006 C 
HETATM   10  C10 UNL     1       4.361  38.969  25.806  1.00  0.00    -0.001 C 
HETATM   11  C11 UNL     1       3.911  37.522  25.578  1.00  0.00    -0.001 C 
HETATM   12  C12 UNL     1       5.169  36.713  25.581  1.00  0.00     0.007 C 
HETATM   13  C13 UNL     1       5.707  36.733  26.996  1.00  0.00     0.012 C 
HETATM   14  C14 UNL     1       6.086  38.146  27.464  1.00  0.00    -0.016 C 
HETATM   15  C15 UNL     1       7.401  38.412  26.697  1.00  0.00     0.018 C 
HETATM   16  C16 UNL     1       6.459  38.035  28.910  1.00  0.00     0.095 C 
HETATM   17  C22 UNL     1       5.521  38.589  29.927  1.00  0.00     0.026 C 
HETATM   18  C23 UNL     1       4.519  39.571  29.438  1.00  0.00     0.003 C 
HETATM   19  C24 UNL     1       3.941  39.023  28.164  1.00  0.00     0.010 C 
HETATM   20  C25 UNL     1       5.047  39.145  27.118  1.00  0.00    -0.031 C 
HETATM   21  C26 UNL     1       5.625  40.557  27.126  1.00  0.00     0.016 C 
ENDROOT
BRANCH  16  22
HETATM   22  N1  UNL     1       6.819  36.707  29.315  1.00  0.00    -0.338 N 
HETATM   23  C17 UNL     1       8.169  36.341  29.468  1.00  0.00     0.316 C 
HETATM   24  O2  UNL     1       9.078  37.204  29.249  1.00  0.00    -0.247 OA
HETATM   25  N2  UNL     1       8.572  35.031  29.861  1.00  0.00    -0.343 N 
ATOM     26  H2  UNL     1       7.852  34.332  30.045  1.00  0.00     0.164 HD
ATOM     27  H1  UNL     1       6.087  36.019  29.495  1.00  0.00     0.164 HD
BRANCH  25  28
HETATM   28  C18 UNL     1       9.947  34.656  30.009  1.00  0.00     0.126 C 
BRANCH  28  29
HETATM   29  C19 UNL     1      10.286  33.278  29.559  1.00  0.00     0.039 C 
BRANCH  29  30
HETATM   30  C20 UNL     1      10.119  33.103  28.061  1.00  0.00     0.125 C 
BRANCH  30  31
HETATM   31  N3  UNL     1      10.571  34.227  27.308  1.00  0.00    -0.345 N 
HETATM   32  C21 UNL     1       9.664  35.035  26.603  1.00  0.00     0.328 C 
HETATM   33  N4  UNL     1      10.101  36.148  25.858  1.00  0.00    -0.040 NA
HETATM   34  O3  UNL     1       8.432  34.775  26.626  1.00  0.00    -0.251 OA
ATOM     35  H3  UNL     1      11.567  34.447  27.282  1.00  0.00     0.163 HD
ENDBRANCH  30  31
ENDBRANCH  29  30
ENDBRANCH  28  29
ENDBRANCH  25  28
ENDBRANCH  16  22
BRANCH   5  36
HETATM   36  O1  UNL     1       1.501  36.786  20.611  1.00  0.00    -0.396 OA
ATOM     37  H1  UNL     1       2.287  37.092  20.174  1.00  0.00     0.210 HD
ENDBRANCH   5  36
TORSDOF 6
ENDMDL
MODEL 2
REMARK VINA RESULT: -7.555429106      3.394      5.019
REMARK  6 active torsions:
REMARK  status: ('A' for Active; 'I' for Inactive)
REMARK    1  A    between atoms: C5_5  and  O1_6 
REMARK    2  A    between atoms: C16_18  and  N1_19 
REMARK       I    between atoms: N1_19  and  C17_21 
REMARK       I    between atoms: C17_21  and  N2_23 
REMARK    3  A    between atoms: N2_23  and  C18_25 
REMARK    4  A    between atoms: C18_25  and  C19_26 
REMARK    5  A    between atoms: C19_26  and  C20_27 
REMARK    6  A    between atoms: C20_27  and  N3_28 
REMARK       I    between atoms: N3_28  and  C21_30 
ROOT
HETATM    1  C1  UNL     1       0.909  38.814  30.187  1.00  0.00     0.016 C 
HETATM    2  C2  UNL     1       0.937  37.572  29.295  1.00  0.00    -0.036 C 
HETATM    3  C3  UNL     1       0.869  36.369  30.220  1.00  0.00     0.012 C 
HETATM    4  C4  UNL     1      -0.289  36.468  31.173  1.00  0.00     0.032 C 
HETATM    5  C5  UNL     1      -1.466  37.205  30.632  1.00  0.00     0.118 C 
HETATM    6  C6  UNL     1      -1.541  37.151  29.131  1.00  0.00     0.037 C 
HETATM    7  C7  UNL     1      -0.308  37.647  28.438  1.00  0.00    -0.004 C 
HETATM    8  C8  UNL     1      -0.158  36.797  27.185  1.00  0.00     0.006 C 
HETATM    9  C9  UNL     1       0.974  37.258  26.311  1.00  0.00     0.006 C 
HETATM   10  C10 UNL     1       1.984  38.059  27.051  1.00  0.00    -0.001 C 
HETATM   11  C11 UNL     1       2.187  37.602  28.500  1.00  0.00    -0.001 C 
HETATM   12  C12 UNL     1       2.933  36.309  28.403  1.00  0.00     0.007 C 
HETATM   13  C13 UNL     1       4.323  36.635  27.901  1.00  0.00     0.012 C 
HETATM   14  C14 UNL     1       4.314  37.248  26.493  1.00  0.00    -0.016 C 
HETATM   15  C15 UNL     1       4.008  36.027  25.597  1.00  0.00     0.018 C 
HETATM   16  C16 UNL     1       5.725  37.650  26.189  1.00  0.00     0.095 C 
HETATM   17  C22 UNL     1       6.061  39.101  26.178  1.00  0.00     0.026 C 
HETATM   18  C23 UNL     1       4.921  40.043  26.043  1.00  0.00     0.003 C 
HETATM   19  C24 UNL     1       3.839  39.572  26.975  1.00  0.00     0.010 C 
HETATM   20  C25 UNL     1       3.277  38.297  26.350  1.00  0.00    -0.031 C 
HETATM   21  C26 UNL     1       2.943  38.535  24.880  1.00  0.00     0.016 C 
ENDROOT
BRANCH  16  22
HETATM   22  N1  UNL     1       6.704  36.973  26.989  1.00  0.00    -0.338 N 
HETATM   23  C17 UNL     1       7.712  36.196  26.389  1.00  0.00     0.316 C 
HETATM   24  O2  UNL     1       7.756  36.100  25.121  1.00  0.00    -0.247 OA
HETATM   25  N2  UNL     1       8.701  35.500  27.146  1.00  0.00    -0.343 N 
ATOM     26  H2  UNL     1       8.680  35.574  28.163  1.00  0.00     0.164 HD
ATOM     27  H1  UNL     1       6.670  37.055  28.005  1.00  0.00     0.164 HD
BRANCH  25  28
HETATM   28  C18 UNL     1       9.723  34.702  26.536  1.00  0.00     0.126 C 
BRANCH  28  29
HETATM   29  C19 UNL     1       9.798  33.291  27.003  1.00  0.00     0.039 C 
BRANCH  29  30
HETATM   30  C20 UNL     1      10.869  33.088  28.059  1.00  0.00     0.125 C 
BRANCH  30  31
HETATM   31  N3  UNL     1      10.373  32.497  29.258  1.00  0.00    -0.345 N 
HETATM   32  C21 UNL     1       9.745  33.278  30.242  1.00  0.00     0.328 C 
HETATM   33  N4  UNL     1       9.252  32.704  31.430  1.00  0.00    -0.040 NA
HETATM   34  O3  UNL     1       9.612  34.520  30.075  1.00  0.00    -0.251 OA
ATOM     35  H3  UNL     1      10.476  31.492  29.404  1.00  0.00     0.163 HD
ENDBRANCH  30  31
ENDBRANCH  29  30
ENDBRANCH  28  29
ENDBRANCH  25  28
ENDBRANCH  16  22
BRANCH   5  36
HETATM   36  O1  UNL     1      -2.619  36.531  31.103  1.00  0.00    -0.396 OA
ATOM     37  H1  UNL     1      -2.789  36.862  31.977  1.00  0.00     0.210 HD
ENDBRANCH   5  36
TORSDOF 6
ENDMDL
MODEL 3
REMARK VINA RESULT: -7.317424610      6.842      9.451
REMARK  6 active torsions:
REMARK  status: ('A' for Active; 'I' for Inactive)
REMARK    1  A    between atoms: C5_5  and  O1_6 
REMARK    2  A    between atoms: C16_18  and  N1_19 
REMARK       I    between atoms: N1_19  and  C17_21 
REMARK       I    between atoms: C17_21  and  N2_23 
REMARK    3  A    between atoms: N2_23  and  C18_25 
REMARK    4  A    between atoms: C18_25  and  C19_26 
REMARK    5  A    between atoms: C19_26  and  C20_27 
REMARK    6  A    between atoms: C20_27  and  N3_28 
REMARK       I    between atoms: N3_28  and  C21_30 
ROOT
HETATM    1  C1  UNL     1      14.635  42.599  21.342  1.00  0.00     0.016 C 
HETATM    2  C2  UNL     1      13.546  43.124  22.280  1.00  0.00    -0.036 C 
HETATM    3  C3  UNL     1      14.172  43.228  23.660  1.00  0.00     0.012 C 
HETATM    4  C4  UNL     1      15.451  44.017  23.631  1.00  0.00     0.032 C 
HETATM    5  C5  UNL     1      15.491  45.079  22.585  1.00  0.00     0.118 C 
HETATM    6  C6  UNL     1      14.121  45.575  22.213  1.00  0.00     0.037 C 
HETATM    7  C7  UNL     1      13.180  44.499  21.764  1.00  0.00    -0.004 C 
HETATM    8  C8  UNL     1      11.801  44.914  22.252  1.00  0.00     0.006 C 
HETATM    9  C9  UNL     1      10.719  43.990  21.769  1.00  0.00     0.006 C 
HETATM   10  C10 UNL     1      11.236  42.651  21.383  1.00  0.00    -0.001 C 
HETATM   11  C11 UNL     1      12.409  42.175  22.246  1.00  0.00    -0.001 C 
HETATM   12  C12 UNL     1      11.808  41.826  23.571  1.00  0.00     0.007 C 
HETATM   13  C13 UNL     1      10.956  40.592  23.360  1.00  0.00     0.012 C 
HETATM   14  C14 UNL     1       9.789  40.839  22.393  1.00  0.00    -0.016 C 
HETATM   15  C15 UNL     1       8.810  41.670  23.253  1.00  0.00     0.018 C 
HETATM   16  C16 UNL     1       9.128  39.513  22.169  1.00  0.00     0.095 C 
HETATM   17  C22 UNL     1       9.308  38.847  20.849  1.00  0.00     0.026 C 
HETATM   18  C23 UNL     1       9.754  39.712  19.727  1.00  0.00     0.003 C 
HETATM   19  C24 UNL     1      10.869  40.576  20.243  1.00  0.00     0.010 C 
HETATM   20  C25 UNL     1      10.214  41.583  21.185  1.00  0.00    -0.031 C 
HETATM   21  C26 UNL     1       9.019  42.241  20.502  1.00  0.00     0.016 C 
ENDROOT
BRANCH  16  22
HETATM   22  N1  UNL     1       9.403  38.548  23.194  1.00  0.00    -0.338 N 
HETATM   23  C17 UNL     1       8.360  37.982  23.950  1.00  0.00     0.316 C 
HETATM   24  O2  UNL     1       7.159  38.327  23.713  1.00  0.00    -0.247 OA
HETATM   25  N2  UNL     1       8.589  37.026  24.983  1.00  0.00    -0.343 N 
ATOM     26  H2  UNL     1       9.548  36.737  25.178  1.00  0.00     0.164 HD
ATOM     27  H1  UNL     1      10.367  38.270  23.379  1.00  0.00     0.164 HD
BRANCH  25  28
HETATM   28  C18 UNL     1       7.528  36.454  25.758  1.00  0.00     0.126 C 
BRANCH  28  29
HETATM   29  C19 UNL     1       7.952  35.724  26.984  1.00  0.00     0.039 C 
BRANCH  29  30
HETATM   30  C20 UNL     1       9.456  35.533  27.051  1.00  0.00     0.125 C 
BRANCH  30  31
HETATM   31  N3  UNL     1       9.843  34.175  27.250  1.00  0.00    -0.345 N 
HETATM   32  C21 UNL     1      10.224  33.713  28.521  1.00  0.00     0.328 C 
HETATM   33  N4  UNL     1      10.608  32.374  28.728  1.00  0.00    -0.040 NA
HETATM   34  O3  UNL     1      10.230  34.498  29.505  1.00  0.00    -0.251 OA
ATOM     35  H3  UNL     1       9.842  33.530  26.460  1.00  0.00     0.163 HD
ENDBRANCH  30  31
ENDBRANCH  29  30
ENDBRANCH  28  29
ENDBRANCH  25  28
ENDBRANCH  16  22
BRANCH   5  36
HETATM   36  O1  UNL     1      16.164  46.186  23.157  1.00  0.00    -0.396 OA
ATOM     37  H1  UNL     1      16.279  46.823  22.462  1.00  0.00     0.210 HD
ENDBRANCH   5  36
TORSDOF 6
ENDMDL
MODEL 4
REMARK VINA RESULT: -7.280782786      4.050      6.954
REMARK  6 active torsions:
REMARK  status: ('A' for Active; 'I' for Inactive)
REMARK    1  A    between atoms: C5_5  and  O1_6 
REMARK    2  A    between atoms: C16_18  and  N1_19 
REMARK       I    between atoms: N1_19  and  C17_21 
REMARK       I    between atoms: C17_21  and  N2_23 
REMARK    3  A    between atoms: N2_23  and  C18_25 
REMARK    4  A    between atoms: C18_25  and  C19_26 
REMARK    5  A    between atoms: C19_26  and  C20_27 
REMARK    6  A    between atoms: C20_27  and  N3_28 
REMARK       I    between atoms: N3_28  and  C21_30 
ROOT
HETATM    1  C1  UNL     1       0.769  39.829  32.165  1.00  0.00     0.016 C 
HETATM    2  C2  UNL     1       1.307  38.403  32.033  1.00  0.00    -0.036 C 
HETATM    3  C3  UNL     1       2.359  38.231  33.115  1.00  0.00     0.012 C 
HETATM    4  C4  UNL     1       1.828  38.611  34.469  1.00  0.00     0.032 C 
HETATM    5  C5  UNL     1       0.366  38.371  34.642  1.00  0.00     0.118 C 
HETATM    6  C6  UNL     1      -0.149  37.275  33.751  1.00  0.00     0.037 C 
HETATM    7  C7  UNL     1       0.130  37.489  32.294  1.00  0.00    -0.004 C 
HETATM    8  C8  UNL     1       0.371  36.107  31.704  1.00  0.00     0.006 C 
HETATM    9  C9  UNL     1       0.544  36.143  30.212  1.00  0.00     0.006 C 
HETATM   10  C10 UNL     1       0.948  37.483  29.711  1.00  0.00    -0.001 C 
HETATM   11  C11 UNL     1       1.869  38.244  30.671  1.00  0.00    -0.001 C 
HETATM   12  C12 UNL     1       3.190  37.549  30.584  1.00  0.00     0.007 C 
HETATM   13  C13 UNL     1       3.750  37.830  29.206  1.00  0.00     0.012 C 
HETATM   14  C14 UNL     1       2.872  37.257  28.084  1.00  0.00    -0.016 C 
HETATM   15  C15 UNL     1       3.168  35.742  28.166  1.00  0.00     0.018 C 
HETATM   16  C16 UNL     1       3.462  37.730  26.791  1.00  0.00     0.095 C 
HETATM   17  C22 UNL     1       2.733  38.777  26.022  1.00  0.00     0.026 C 
HETATM   18  C23 UNL     1       1.298  38.964  26.355  1.00  0.00     0.003 C 
HETATM   19  C24 UNL     1       1.185  38.977  27.854  1.00  0.00     0.010 C 
HETATM   20  C25 UNL     1       1.434  37.539  28.302  1.00  0.00    -0.031 C 
HETATM   21  C26 UNL     1       0.562  36.579  27.499  1.00  0.00     0.016 C 
ENDROOT
BRANCH  16  22
HETATM   22  N1  UNL     1       4.836  38.129  26.893  1.00  0.00    -0.338 N 
HETATM   23  C17 UNL     1       5.859  37.345  26.330  1.00  0.00     0.316 C 
HETATM   24  O2  UNL     1       5.557  36.271  25.717  1.00  0.00    -0.247 OA
HETATM   25  N2  UNL     1       7.237  37.700  26.415  1.00  0.00    -0.343 N 
ATOM     26  H2  UNL     1       7.491  38.561  26.899  1.00  0.00     0.164 HD
ATOM     27  H1  UNL     1       5.074  38.993  27.381  1.00  0.00     0.164 HD
BRANCH  25  28
HETATM   28  C18 UNL     1       8.280  36.897  25.848  1.00  0.00     0.126 C 
BRANCH  28  29
HETATM   29  C19 UNL     1       9.294  36.390  26.813  1.00  0.00     0.039 C 
BRANCH  29  30
HETATM   30  C20 UNL     1       9.311  34.874  26.888  1.00  0.00     0.125 C 
BRANCH  30  31
HETATM   31  N3  UNL     1       9.161  34.375  28.216  1.00  0.00    -0.345 N 
HETATM   32  C21 UNL     1      10.131  33.531  28.782  1.00  0.00     0.328 C 
HETATM   33  N4  UNL     1       9.993  33.033  30.093  1.00  0.00    -0.040 NA
HETATM   34  O3  UNL     1      11.150  33.202  28.120  1.00  0.00    -0.251 OA
ATOM     35  H3  UNL     1       8.339  34.634  28.762  1.00  0.00     0.163 HD
ENDBRANCH  30  31
ENDBRANCH  29  30
ENDBRANCH  28  29
ENDBRANCH  25  28
ENDBRANCH  16  22
BRANCH   5  36
HETATM   36  O1  UNL     1       0.186  37.910  35.969  1.00  0.00    -0.396 OA
ATOM     37  H1  UNL     1      -0.232  38.617  36.448  1.00  0.00     0.210 HD
ENDBRANCH   5  36
TORSDOF 6
ENDMDL
MODEL 5
REMARK VINA RESULT: -7.120809971      2.954      4.899
REMARK  6 active torsions:
REMARK  status: ('A' for Active; 'I' for Inactive)
REMARK    1  A    between atoms: C5_5  and  O1_6 
REMARK    2  A    between atoms: C16_18  and  N1_19 
REMARK       I    between atoms: N1_19  and  C17_21 
REMARK       I    between atoms: C17_21  and  N2_23 
REMARK    3  A    between atoms: N2_23  and  C18_25 
REMARK    4  A    between atoms: C18_25  and  C19_26 
REMARK    5  A    between atoms: C19_26  and  C20_27 
REMARK    6  A    between atoms: C20_27  and  N3_28 
REMARK       I    between atoms: N3_28  and  C21_30 
ROOT
HETATM    1  C1  UNL     1       2.332  40.860  20.815  1.00  0.00     0.016 C 
HETATM    2  C2  UNL     1       2.010  41.054  22.298  1.00  0.00    -0.036 C 
HETATM    3  C3  UNL     1       2.640  42.373  22.713  1.00  0.00     0.012 C 
HETATM    4  C4  UNL     1       2.232  43.493  21.798  1.00  0.00     0.032 C 
HETATM    5  C5  UNL     1       0.872  43.337  21.209  1.00  0.00     0.118 C 
HETATM    6  C6  UNL     1      -0.037  42.502  22.067  1.00  0.00     0.037 C 
HETATM    7  C7  UNL     1       0.502  41.141  22.388  1.00  0.00    -0.004 C 
HETATM    8  C8  UNL     1       0.021  40.818  23.795  1.00  0.00     0.006 C 
HETATM    9  C9  UNL     1       0.381  39.421  24.217  1.00  0.00     0.006 C 
HETATM   10  C10 UNL     1       1.516  38.859  23.440  1.00  0.00    -0.001 C 
HETATM   11  C11 UNL     1       2.567  39.903  23.047  1.00  0.00    -0.001 C 
HETATM   12  C12 UNL     1       3.287  40.233  24.316  1.00  0.00     0.007 C 
HETATM   13  C13 UNL     1       4.085  39.008  24.705  1.00  0.00     0.012 C 
HETATM   14  C14 UNL     1       3.194  37.793  25.004  1.00  0.00    -0.016 C 
HETATM   15  C15 UNL     1       2.596  38.146  26.384  1.00  0.00     0.018 C 
HETATM   16  C16 UNL     1       4.112  36.631  25.229  1.00  0.00     0.095 C 
HETATM   17  C22 UNL     1       4.188  35.575  24.181  1.00  0.00     0.026 C 
HETATM   18  C23 UNL     1       3.062  35.522  23.213  1.00  0.00     0.003 C 
HETATM   19  C24 UNL     1       2.778  36.933  22.780  1.00  0.00     0.010 C 
HETATM   20  C25 UNL     1       2.134  37.616  23.984  1.00  0.00    -0.031 C 
HETATM   21  C26 UNL     1       0.994  36.760  24.527  1.00  0.00     0.016 C 
ENDROOT
BRANCH  16  22
HETATM   22  N1  UNL     1       5.452  37.010  25.575  1.00  0.00    -0.338 N 
HETATM   23  C17 UNL     1       5.953  36.784  26.870  1.00  0.00     0.316 C 
HETATM   24  O2  UNL     1       5.208  36.230  27.741  1.00  0.00    -0.247 OA
HETATM   25  N2  UNL     1       7.275  37.151  27.259  1.00  0.00    -0.343 N 
ATOM     26  H2  UNL     1       7.884  37.590  26.569  1.00  0.00     0.164 HD
ATOM     27  H1  UNL     1       6.048  37.449  24.874  1.00  0.00     0.164 HD
BRANCH  25  28
HETATM   28  C18 UNL     1       7.783  36.928  28.580  1.00  0.00     0.126 C 
BRANCH  28  29
HETATM   29  C19 UNL     1       9.248  36.679  28.669  1.00  0.00     0.039 C 
BRANCH  29  30
HETATM   30  C20 UNL     1       9.655  35.381  27.996  1.00  0.00     0.125 C 
BRANCH  30  31
HETATM   31  N3  UNL     1      10.093  34.383  28.916  1.00  0.00    -0.345 N 
HETATM   32  C21 UNL     1      10.117  33.027  28.551  1.00  0.00     0.328 C 
HETATM   33  N4  UNL     1      10.549  32.034  29.452  1.00  0.00    -0.040 NA
HETATM   34  O3  UNL     1       9.749  32.674  27.400  1.00  0.00    -0.251 OA
ATOM     35  H3  UNL     1      10.394  34.658  29.851  1.00  0.00     0.163 HD
ENDBRANCH  30  31
ENDBRANCH  29  30
ENDBRANCH  28  29
ENDBRANCH  25  28
ENDBRANCH  16  22
BRANCH   5  36
HETATM   36  O1  UNL     1       0.294  44.630  21.174  1.00  0.00    -0.396 OA
ATOM     37  H1  UNL     1      -0.638  44.507  21.035  1.00  0.00     0.210 HD
ENDBRANCH   5  36
TORSDOF 6
ENDMDL
