MODEL 1
REMARK VINA RESULT: -7.559631112      0.000      0.000
REMARK  8 active torsions:
REMARK  status: ('A' for Active; 'I' for Inactive)
REMARK    1  A    between atoms: C2_2  and  C3_3 
REMARK    2  A    between atoms: C4_4  and  C5_5 
REMARK    3  A    between atoms: C5_5  and  C6_6 
REMARK    4  A    between atoms: C6_6  and  O1_9 
REMARK    5  A    between atoms: C9_11  and  C10_12 
REMARK    6  A    between atoms: C13_15  and  O2_16 
REMARK    7  A    between atoms: C21_28  and  N2_29 
REMARK       I    between atoms: N2_29  and  C22_31 
REMARK       I    between atoms: C22_31  and  N3_33 
REMARK    8  A    between atoms: N3_33  and  C23_35 
ROOT
HETATM    1  C10 UNL     1       6.611  36.794  27.223  1.00  0.00     0.032 C 
HETATM    2  C11 UNL     1       5.308  36.153  27.666  1.00  0.00     0.013 C 
HETATM    3  C12 UNL     1       4.309  37.291  27.711  1.00  0.00     0.039 C 
HETATM    4  C13 UNL     1       3.494  37.391  26.456  1.00  0.00     0.064 C 
HETATM    5  C14 UNL     1       3.249  38.807  26.022  1.00  0.00     0.041 C 
HETATM    6  C15 UNL     1       3.179  38.733  24.526  1.00  0.00     0.035 C 
HETATM    7  C16 UNL     1       3.214  37.269  24.154  1.00  0.00     0.047 C 
HETATM    8  C17 UNL     1       1.873  36.670  23.842  1.00  0.00     0.134 C 
HETATM    9  C18 UNL     1       2.265  36.970  22.434  1.00  0.00     0.220 C 
HETATM   10  O3  UNL     1       1.618  37.165  21.373  1.00  0.00    -0.274 OA
HETATM   11  N1  UNL     1       3.649  36.933  22.843  1.00  0.00    -0.351 N 
ATOM     12  H1  UNL     1       4.545  36.747  22.391  1.00  0.00     0.163 HD
HETATM   13  C19 UNL     1       3.973  36.592  25.307  1.00  0.00     0.050 C 
HETATM   14  C20 UNL     1       5.405  36.500  25.045  1.00  0.00     0.036 C 
HETATM   15  C21 UNL     1       6.334  37.348  25.837  1.00  0.00     0.094 C 
ENDROOT
BRANCH   1  16
HETATM   16  C9  UNL     1       7.743  35.886  27.266  1.00  0.00    -0.013 C 
HETATM   17  C2  UNL     1       8.598  35.809  28.274  1.00  0.00    -0.066 C 
HETATM   18  C1  UNL     1       9.743  34.837  28.229  1.00  0.00     0.048 C 
BRANCH  17  19
HETATM   19  C3  UNL     1       8.500  36.632  29.467  1.00  0.00     0.002 C 
HETATM   20  C4  UNL     1       8.225  37.925  29.333  1.00  0.00    -0.023 C 
BRANCH  20  21
HETATM   21  C5  UNL     1       8.100  38.859  30.471  1.00  0.00     0.064 C 
BRANCH  21  22
HETATM   22  C6  UNL     1       6.660  39.329  30.576  1.00  0.00     0.054 C 
HETATM   23  C7  UNL     1       6.542  40.365  31.650  1.00  0.00     0.045 C 
HETATM   24  C8  UNL     1       6.240  39.828  29.214  1.00  0.00     0.045 C 
BRANCH  22  25
HETATM   25  O1  UNL     1       5.854  38.211  30.873  1.00  0.00    -0.390 OA
ATOM     26  H1  UNL     1       5.248  38.083  30.151  1.00  0.00     0.210 HD
ENDBRANCH  22  25
ENDBRANCH  21  22
ENDBRANCH  20  21
ENDBRANCH  17  19
ENDBRANCH   1  16
BRANCH  15  27
HETATM   27  N2  UNL     1       7.636  37.276  25.149  1.00  0.00    -0.338 N 
HETATM   28  C22 UNL     1       8.032  38.215  24.171  1.00  0.00     0.317 C 
HETATM   29  O4  UNL     1       7.249  39.155  23.869  1.00  0.00    -0.247 OA
HETATM   30  N3  UNL     1       9.288  38.096  23.543  1.00  0.00    -0.335 N 
ATOM     31  H3  UNL     1       9.897  37.322  23.809  1.00  0.00     0.165 HD
ATOM     32  H2  UNL     1       8.277  36.519  25.390  1.00  0.00     0.164 HD
BRANCH  30  33
HETATM   33  C23 UNL     1       9.751  39.030  22.533  1.00  0.00     0.023 C 
HETATM   34  C24 UNL     1       8.735  39.273  21.459  1.00  0.00     0.037 C 
HETATM   35  C25 UNL     1      10.171  40.332  23.221  1.00  0.00     0.037 C 
HETATM   36  C26 UNL     1      11.003  38.469  21.903  1.00  0.00     0.037 C 
ENDBRANCH  30  33
ENDBRANCH  15  27
BRANCH   4  37
HETATM   37  O2  UNL     1       2.214  36.883  26.802  1.00  0.00    -0.389 OA
ATOM     38  H2  UNL     1       1.593  37.510  26.450  1.00  0.00     0.210 HD
ENDBRANCH   4  37
TORSDOF 8
ENDMDL
MODEL 2
REMARK VINA RESULT: -7.539170873      2.884      7.881
REMARK  8 active torsions:
REMARK  status: ('A' for Active; 'I' for Inactive)
REMARK    1  A    between atoms: C2_2  and  C3_3 
REMARK    2  A    between atoms: C4_4  and  C5_5 
REMARK    3  A    between atoms: C5_5  and  C6_6 
REMARK    4  A    between atoms: C6_6  and  O1_9 
REMARK    5  A    between atoms: C9_11  and  C10_12 
REMARK    6  A    between atoms: C13_15  and  O2_16 
REMARK    7  A    between atoms: C21_28  and  N2_29 
REMARK       I    between atoms: N2_29  and  C22_31 
REMARK       I    between atoms: C22_31  and  N3_33 
REMARK    8  A    between atoms: N3_33  and  C23_35 
ROOT
HETATM    1  C10 UNL     1       4.452  37.615  26.936  1.00  0.00     0.032 C 
HETATM    2  C11 UNL     1       4.769  36.692  25.772  1.00  0.00     0.013 C 
HETATM    3  C12 UNL     1       6.042  37.248  25.169  1.00  0.00     0.039 C 
HETATM    4  C13 UNL     1       7.270  36.551  25.676  1.00  0.00     0.064 C 
HETATM    5  C14 UNL     1       8.421  37.483  25.920  1.00  0.00     0.041 C 
HETATM    6  C15 UNL     1       9.167  36.865  27.064  1.00  0.00     0.035 C 
HETATM    7  C16 UNL     1       8.531  35.521  27.332  1.00  0.00     0.047 C 
HETATM    8  C17 UNL     1       9.269  34.352  26.746  1.00  0.00     0.134 C 
HETATM    9  C18 UNL     1       9.862  34.270  28.114  1.00  0.00     0.220 C 
HETATM   10  O3  UNL     1      10.932  33.791  28.571  1.00  0.00    -0.274 OA
HETATM   11  N1  UNL     1       8.701  34.958  28.626  1.00  0.00    -0.351 N 
ATOM     12  H1  UNL     1       8.216  35.015  29.521  1.00  0.00     0.163 HD
HETATM   13  C19 UNL     1       7.078  35.675  26.853  1.00  0.00     0.050 C 
HETATM   14  C20 UNL     1       6.187  36.100  27.925  1.00  0.00     0.036 C 
HETATM   15  C21 UNL     1       5.625  37.476  27.887  1.00  0.00     0.094 C 
ENDROOT
BRANCH   1  16
HETATM   16  C9  UNL     1       3.169  37.339  27.557  1.00  0.00    -0.013 C 
HETATM   17  C2  UNL     1       1.999  37.619  27.004  1.00  0.00    -0.066 C 
HETATM   18  C1  UNL     1       0.720  37.297  27.725  1.00  0.00     0.048 C 
BRANCH  17  19
HETATM   19  C3  UNL     1       1.862  38.240  25.698  1.00  0.00     0.002 C 
HETATM   20  C4  UNL     1       1.573  37.474  24.652  1.00  0.00    -0.023 C 
BRANCH  20  21
HETATM   21  C5  UNL     1       1.409  37.991  23.278  1.00  0.00     0.064 C 
BRANCH  21  22
HETATM   22  C6  UNL     1       2.390  37.285  22.358  1.00  0.00     0.054 C 
HETATM   23  C7  UNL     1       3.592  38.149  22.139  1.00  0.00     0.045 C 
HETATM   24  C8  UNL     1       2.718  35.948  22.978  1.00  0.00     0.045 C 
BRANCH  22  25
HETATM   25  O1  UNL     1       1.736  37.024  21.137  1.00  0.00    -0.390 OA
ATOM     26  H1  UNL     1       1.777  36.089  20.972  1.00  0.00     0.210 HD
ENDBRANCH  22  25
ENDBRANCH  21  22
ENDBRANCH  20  21
ENDBRANCH  17  19
ENDBRANCH   1  16
BRANCH  15  27
HETATM   27  N2  UNL     1       5.043  37.715  29.221  1.00  0.00    -0.338 N 
HETATM   28  C22 UNL     1       5.312  38.881  29.970  1.00  0.00     0.317 C 
HETATM   29  O4  UNL     1       6.076  39.760  29.487  1.00  0.00    -0.247 OA
HETATM   30  N3  UNL     1       4.729  39.056  31.241  1.00  0.00    -0.335 N 
ATOM     31  H3  UNL     1       4.117  38.325  31.604  1.00  0.00     0.165 HD
ATOM     32  H2  UNL     1       4.422  37.009  29.618  1.00  0.00     0.164 HD
BRANCH  30  33
HETATM   33  C23 UNL     1       4.965  40.233  32.057  1.00  0.00     0.023 C 
HETATM   34  C24 UNL     1       6.416  40.599  32.142  1.00  0.00     0.037 C 
HETATM   35  C25 UNL     1       4.120  41.388  31.512  1.00  0.00     0.037 C 
HETATM   36  C26 UNL     1       4.448  39.960  33.449  1.00  0.00     0.037 C 
ENDBRANCH  30  33
ENDBRANCH  15  27
BRANCH   4  37
HETATM   37  O2  UNL     1       7.691  35.715  24.608  1.00  0.00    -0.389 OA
ATOM     38  H2  UNL     1       8.175  35.009  25.020  1.00  0.00     0.210 HD
ENDBRANCH   4  37
TORSDOF 8
ENDMDL
MODEL 3
REMARK VINA RESULT: -7.257874009      2.601      6.479
REMARK  8 active torsions:
REMARK  status: ('A' for Active; 'I' for Inactive)
REMARK    1  A    between atoms: C2_2  and  C3_3 
REMARK    2  A    between atoms: C4_4  and  C5_5 
REMARK    3  A    between atoms: C5_5  and  C6_6 
REMARK    4  A    between atoms: C6_6  and  O1_9 
REMARK    5  A    between atoms: C9_11  and  C10_12 
REMARK    6  A    between atoms: C13_15  and  O2_16 
REMARK    7  A    between atoms: C21_28  and  N2_29 
REMARK       I    between atoms: N2_29  and  C22_31 
REMARK       I    between atoms: C22_31  and  N3_33 
REMARK    8  A    between atoms: N3_33  and  C23_35 
ROOT
HETATM    1  C10 UNL     1       7.480  39.529  24.227  1.00  0.00     0.032 C 
HETATM    2  C11 UNL     1       8.711  40.383  23.975  1.00  0.00     0.013 C 
HETATM    3  C12 UNL     1       9.619  39.519  23.126  1.00  0.00     0.039 C 
HETATM    4  C13 UNL     1       9.479  39.806  21.660  1.00  0.00     0.064 C 
HETATM    5  C14 UNL     1       9.528  38.571  20.808  1.00  0.00     0.041 C 
HETATM    6  C15 UNL     1       8.643  38.887  19.639  1.00  0.00     0.035 C 
HETATM    7  C16 UNL     1       8.251  40.340  19.763  1.00  0.00     0.047 C 
HETATM    8  C17 UNL     1       9.044  41.278  18.898  1.00  0.00     0.134 C 
HETATM    9  C18 UNL     1       7.889  41.113  17.968  1.00  0.00     0.220 C 
HETATM   10  O3  UNL     1       7.748  41.240  16.724  1.00  0.00    -0.274 OA
HETATM   11  N1  UNL     1       7.065  40.760  19.100  1.00  0.00    -0.351 N 
ATOM     12  H1  UNL     1       6.071  40.797  19.326  1.00  0.00     0.163 HD
HETATM   13  C19 UNL     1       8.317  40.636  21.270  1.00  0.00     0.050 C 
HETATM   14  C20 UNL     1       7.034  40.428  21.929  1.00  0.00     0.036 C 
HETATM   15  C21 UNL     1       6.883  39.274  22.856  1.00  0.00     0.094 C 
ENDROOT
BRANCH   1  16
HETATM   16  C9  UNL     1       6.546  40.128  25.162  1.00  0.00    -0.013 C 
HETATM   17  C2  UNL     1       6.074  39.517  26.238  1.00  0.00    -0.066 C 
HETATM   18  C1  UNL     1       5.106  40.218  27.149  1.00  0.00     0.048 C 
BRANCH  17  19
HETATM   19  C3  UNL     1       6.444  38.163  26.612  1.00  0.00     0.002 C 
HETATM   20  C4  UNL     1       6.429  37.826  27.897  1.00  0.00    -0.023 C 
BRANCH  20  21
HETATM   21  C5  UNL     1       6.785  36.483  28.397  1.00  0.00     0.064 C 
BRANCH  21  22
HETATM   22  C6  UNL     1       8.099  36.562  29.153  1.00  0.00     0.054 C 
HETATM   23  C7  UNL     1       9.244  36.469  28.193  1.00  0.00     0.045 C 
HETATM   24  C8  UNL     1       8.091  37.843  29.952  1.00  0.00     0.045 C 
BRANCH  22  25
HETATM   25  O1  UNL     1       8.138  35.499  30.078  1.00  0.00    -0.390 OA
ATOM     26  H1  UNL     1       9.044  35.357  30.328  1.00  0.00     0.210 HD
ENDBRANCH  22  25
ENDBRANCH  21  22
ENDBRANCH  20  21
ENDBRANCH  17  19
ENDBRANCH   1  16
BRANCH  15  27
HETATM   27  N2  UNL     1       5.436  39.141  23.108  1.00  0.00    -0.338 N 
HETATM   28  C22 UNL     1       4.845  37.928  23.522  1.00  0.00     0.317 C 
HETATM   29  O4  UNL     1       5.575  36.913  23.688  1.00  0.00    -0.247 OA
HETATM   30  N3  UNL     1       3.456  37.858  23.746  1.00  0.00    -0.335 N 
ATOM     31  H3  UNL     1       2.894  38.696  23.600  1.00  0.00     0.165 HD
ATOM     32  H2  UNL     1       4.839  39.959  22.978  1.00  0.00     0.164 HD
BRANCH  30  33
HETATM   33  C23 UNL     1       2.791  36.640  24.174  1.00  0.00     0.023 C 
HETATM   34  C24 UNL     1       3.061  35.481  23.264  1.00  0.00     0.037 C 
HETATM   35  C25 UNL     1       3.202  36.337  25.618  1.00  0.00     0.037 C 
HETATM   36  C26 UNL     1       1.304  36.897  24.210  1.00  0.00     0.037 C 
ENDBRANCH  30  33
ENDBRANCH  15  27
BRANCH   4  37
HETATM   37  O2  UNL     1      10.642  40.542  21.312  1.00  0.00    -0.389 OA
ATOM     38  H2  UNL     1      10.582  40.675  20.373  1.00  0.00     0.210 HD
ENDBRANCH   4  37
TORSDOF 8
ENDMDL
MODEL 4
REMARK VINA RESULT: -7.178597647      3.208      6.496
REMARK  8 active torsions:
REMARK  status: ('A' for Active; 'I' for Inactive)
REMARK    1  A    between atoms: C2_2  and  C3_3 
REMARK    2  A    between atoms: C4_4  and  C5_5 
REMARK    3  A    between atoms: C5_5  and  C6_6 
REMARK    4  A    between atoms: C6_6  and  O1_9 
REMARK    5  A    between atoms: C9_11  and  C10_12 
REMARK    6  A    between atoms: C13_15  and  O2_16 
REMARK    7  A    between atoms: C21_28  and  N2_29 
REMARK       I    between atoms: N2_29  and  C22_31 
REMARK       I    between atoms: C22_31  and  N3_33 
REMARK    8  A    between atoms: N3_33  and  C23_35 
ROOT
HETATM    1  C10 UNL     1       5.205  36.873  26.403  1.00  0.00     0.032 C 
HETATM    2  C11 UNL     1       5.558  37.271  24.980  1.00  0.00     0.013 C 
HETATM    3  C12 UNL     1       4.618  36.468  24.105  1.00  0.00     0.039 C 
HETATM    4  C13 UNL     1       3.397  37.245  23.709  1.00  0.00     0.064 C 
HETATM    5  C14 UNL     1       2.143  36.419  23.714  1.00  0.00     0.041 C 
HETATM    6  C15 UNL     1       1.059  37.387  24.086  1.00  0.00     0.035 C 
HETATM    7  C16 UNL     1       1.686  38.761  24.115  1.00  0.00     0.047 C 
HETATM    8  C17 UNL     1       1.443  39.586  22.883  1.00  0.00     0.134 C 
HETATM    9  C18 UNL     1       0.326  40.149  23.698  1.00  0.00     0.220 C 
HETATM   10  O3  UNL     1      -0.761  40.713  23.411  1.00  0.00    -0.274 OA
HETATM   11  N1  UNL     1       1.040  39.762  24.891  1.00  0.00    -0.351 N 
ATOM     12  H1  UNL     1       1.070  40.072  25.862  1.00  0.00     0.163 HD
HETATM   13  C19 UNL     1       3.166  38.509  24.443  1.00  0.00     0.050 C 
HETATM   14  C20 UNL     1       3.430  38.564  25.876  1.00  0.00     0.036 C 
HETATM   15  C21 UNL     1       3.762  37.304  26.592  1.00  0.00     0.094 C 
ENDROOT
BRANCH   1  16
HETATM   16  C9  UNL     1       6.107  37.425  27.396  1.00  0.00    -0.013 C 
HETATM   17  C2  UNL     1       7.272  36.888  27.724  1.00  0.00    -0.066 C 
HETATM   18  C1  UNL     1       8.141  37.532  28.767  1.00  0.00     0.048 C 
BRANCH  17  19
HETATM   19  C3  UNL     1       7.788  35.672  27.119  1.00  0.00     0.002 C 
HETATM   20  C4  UNL     1       8.987  35.232  27.486  1.00  0.00    -0.023 C 
BRANCH  20  21
HETATM   21  C5  UNL     1       9.614  34.011  26.941  1.00  0.00     0.064 C 
BRANCH  21  22
HETATM   22  C6  UNL     1      10.267  33.237  28.073  1.00  0.00     0.054 C 
HETATM   23  C7  UNL     1       9.827  33.797  29.390  1.00  0.00     0.045 C 
HETATM   24  C8  UNL     1       9.916  31.780  27.895  1.00  0.00     0.045 C 
BRANCH  22  25
HETATM   25  O1  UNL     1      11.665  33.347  27.929  1.00  0.00    -0.390 OA
ATOM     26  H1  UNL     1      12.058  33.272  28.792  1.00  0.00     0.210 HD
ENDBRANCH  22  25
ENDBRANCH  21  22
ENDBRANCH  20  21
ENDBRANCH  17  19
ENDBRANCH   1  16
BRANCH  15  27
HETATM   27  N2  UNL     1       3.661  37.615  28.030  1.00  0.00    -0.338 N 
HETATM   28  C22 UNL     1       2.606  37.138  28.839  1.00  0.00     0.317 C 
HETATM   29  O4  UNL     1       1.713  36.415  28.321  1.00  0.00    -0.247 OA
HETATM   30  N3  UNL     1       2.559  37.469  30.208  1.00  0.00    -0.335 N 
ATOM     31  H3  UNL     1       3.296  38.058  30.595  1.00  0.00     0.165 HD
ATOM     32  H2  UNL     1       4.382  38.198  28.457  1.00  0.00     0.164 HD
BRANCH  30  33
HETATM   33  C23 UNL     1       1.503  37.007  31.090  1.00  0.00     0.023 C 
HETATM   34  C24 UNL     1       0.142  37.454  30.649  1.00  0.00     0.037 C 
HETATM   35  C25 UNL     1       1.589  35.483  31.206  1.00  0.00     0.037 C 
HETATM   36  C26 UNL     1       1.768  37.546  32.475  1.00  0.00     0.037 C 
ENDBRANCH  30  33
ENDBRANCH  15  27
BRANCH   4  37
HETATM   37  O2  UNL     1       3.604  37.594  22.348  1.00  0.00    -0.389 OA
ATOM     38  H2  UNL     1       3.211  38.453  22.249  1.00  0.00     0.210 HD
ENDBRANCH   4  37
TORSDOF 8
ENDMDL
MODEL 5
REMARK VINA RESULT: -7.127591329      3.323      7.399
REMARK  8 active torsions:
REMARK  status: ('A' for Active; 'I' for Inactive)
REMARK    1  A    between atoms: C2_2  and  C3_3 
REMARK    2  A    between atoms: C4_4  and  C5_5 
REMARK    3  A    between atoms: C5_5  and  C6_6 
REMARK    4  A    between atoms: C6_6  and  O1_9 
REMARK    5  A    between atoms: C9_11  and  C10_12 
REMARK    6  A    between atoms: C13_15  and  O2_16 
REMARK    7  A    between atoms: C21_28  and  N2_29 
REMARK       I    between atoms: N2_29  and  C22_31 
REMARK       I    between atoms: C22_31  and  N3_33 
REMARK    8  A    between atoms: N3_33  and  C23_35 
ROOT
HETATM    1  C10 UNL     1       7.755  39.210  23.496  1.00  0.00     0.032 C 
HETATM    2  C11 UNL     1       9.270  39.183  23.607  1.00  0.00     0.013 C 
HETATM    3  C12 UNL     1       9.741  38.499  22.340  1.00  0.00     0.039 C 
HETATM    4  C13 UNL     1      10.128  39.476  21.270  1.00  0.00     0.064 C 
HETATM    5  C14 UNL     1       9.706  39.044  19.895  1.00  0.00     0.041 C 
HETATM    6  C15 UNL     1       9.435  40.327  19.167  1.00  0.00     0.035 C 
HETATM    7  C16 UNL     1       9.869  41.451  20.077  1.00  0.00     0.047 C 
HETATM    8  C17 UNL     1      11.220  42.028  19.760  1.00  0.00     0.134 C 
HETATM    9  C18 UNL     1      10.415  43.034  19.007  1.00  0.00     0.220 C 
HETATM   10  O3  UNL     1      10.664  43.799  18.040  1.00  0.00    -0.274 OA
HETATM   11  N1  UNL     1       9.292  42.732  19.862  1.00  0.00    -0.351 N 
ATOM     12  H1  UNL     1       8.453  43.222  20.175  1.00  0.00     0.163 HD
HETATM   13  C19 UNL     1       9.726  40.881  21.498  1.00  0.00     0.050 C 
HETATM   14  C20 UNL     1       8.419  41.168  22.077  1.00  0.00     0.036 C 
HETATM   15  C21 UNL     1       7.458  40.048  22.267  1.00  0.00     0.094 C 
ENDROOT
BRANCH   1  16
HETATM   16  C9  UNL     1       7.099  39.694  24.697  1.00  0.00    -0.013 C 
HETATM   17  C2  UNL     1       6.692  38.916  25.688  1.00  0.00    -0.066 C 
HETATM   18  C1  UNL     1       6.019  39.509  26.894  1.00  0.00     0.048 C 
BRANCH  17  19
HETATM   19  C3  UNL     1       6.858  37.473  25.689  1.00  0.00     0.002 C 
HETATM   20  C4  UNL     1       7.772  36.934  26.489  1.00  0.00    -0.023 C 
BRANCH  20  21
HETATM   21  C5  UNL     1       8.031  35.483  26.576  1.00  0.00     0.064 C 
BRANCH  21  22
HETATM   22  C6  UNL     1       9.432  35.257  27.115  1.00  0.00     0.054 C 
HETATM   23  C7  UNL     1       9.617  36.025  28.387  1.00  0.00     0.045 C 
HETATM   24  C8  UNL     1       9.626  33.769  27.280  1.00  0.00     0.045 C 
BRANCH  22  25
HETATM   25  O1  UNL     1      10.353  35.687  26.138  1.00  0.00    -0.390 OA
ATOM     26  H1  UNL     1      11.078  36.113  26.581  1.00  0.00     0.210 HD
ENDBRANCH  22  25
ENDBRANCH  21  22
ENDBRANCH  20  21
ENDBRANCH  17  19
ENDBRANCH   1  16
BRANCH  15  27
HETATM   27  N2  UNL     1       6.156  40.675  22.559  1.00  0.00    -0.338 N 
HETATM   28  C22 UNL     1       4.978  40.344  21.855  1.00  0.00     0.317 C 
HETATM   29  O4  UNL     1       5.031  39.477  20.941  1.00  0.00    -0.247 OA
HETATM   30  N3  UNL     1       3.760  40.977  22.175  1.00  0.00    -0.335 N 
ATOM     31  H3  UNL     1       3.753  41.675  22.919  1.00  0.00     0.165 HD
ATOM     32  H2  UNL     1       6.105  41.376  23.299  1.00  0.00     0.164 HD
BRANCH  30  33
HETATM   33  C23 UNL     1       2.516  40.677  21.490  1.00  0.00     0.023 C 
HETATM   34  C24 UNL     1       2.568  40.998  20.028  1.00  0.00     0.037 C 
HETATM   35  C25 UNL     1       2.160  39.208  21.736  1.00  0.00     0.037 C 
HETATM   36  C26 UNL     1       1.413  41.485  22.129  1.00  0.00     0.037 C 
ENDBRANCH  30  33
ENDBRANCH  15  27
BRANCH   4  37
HETATM   37  O2  UNL     1      11.548  39.456  21.244  1.00  0.00    -0.389 OA
ATOM     38  H2  UNL     1      11.777  39.054  20.414  1.00  0.00     0.210 HD
ENDBRANCH   4  37
TORSDOF 8
ENDMDL
