MODEL 1
REMARK VINA RESULT: -10.521723770      0.000      0.000
REMARK  15 active torsions:
REMARK  status: ('A' for Active; 'I' for Inactive)
REMARK    1  A    between atoms: N2_4  and  N3_6 
REMARK    2  A    between atoms: C1_8  and  C2_10 
REMARK    3  A    between atoms: C2_10  and  C3_11 
REMARK    4  A    between atoms: C6_14  and  N5_15 
REMARK    5  A    between atoms: N5_15  and  S1_17 
REMARK    6  A    between atoms: S1_17  and  N6_20 
REMARK    7  A    between atoms: N6_20  and  C7_22 
REMARK    8  A    between atoms: C7_22  and  C8_23 
REMARK    9  A    between atoms: C7_22  and  C15_30 
REMARK   10  A    between atoms: C8_23  and  C9_24 
REMARK   11  A    between atoms: C15_30  and  O3_31 
REMARK   12  A    between atoms: C15_30  and  C16_33 
REMARK   13  A    between atoms: C16_33  and  N7_34 
REMARK   14  A    between atoms: N7_34  and  C17_37 
REMARK   15  A    between atoms: C17_37  and  C18_38 
ROOT
HETATM    1  N6  UNL     1      20.027  19.151  33.972  1.00  0.00    -0.295 N 
ATOM      2  H6  UNL     1      19.798  19.454  33.025  1.00  0.00     0.174 HD
ENDROOT
BRANCH   1   3
HETATM    3  S1  UNL     1      20.103  17.495  34.446  1.00  0.00     0.319 S 
HETATM    4  O1  UNL     1      19.012  16.685  33.805  1.00  0.00    -0.182 OA
HETATM    5  O2  UNL     1      19.881  17.447  35.926  1.00  0.00    -0.182 OA
BRANCH   3   6
HETATM    6  N5  UNL     1      21.599  16.775  34.061  1.00  0.00    -0.268 N 
ATOM      7  H5  UNL     1      21.688  16.296  33.165  1.00  0.00     0.180 HD
BRANCH   6   8
HETATM    8  C6  UNL     1      22.726  16.808  34.921  1.00  0.00     0.043 A 
HETATM    9  C5  UNL     1      22.825  16.163  36.129  1.00  0.00     0.031 A 
HETATM   10  C4  UNL     1      23.967  16.225  36.924  1.00  0.00     0.010 A 
HETATM   11  C3  UNL     1      25.064  16.948  36.523  1.00  0.00    -0.051 A 
HETATM   12  C25 UNL     1      24.975  17.597  35.314  1.00  0.00     0.010 A 
HETATM   13  C24 UNL     1      23.855  17.544  34.522  1.00  0.00     0.031 A 
BRANCH  11  14
HETATM   14  C2  UNL     1      26.306  17.039  37.348  1.00  0.00     0.113 C 
BRANCH  14  15
HETATM   15  C1  UNL     1      26.354  15.964  38.360  1.00  0.00     0.113 C 
HETATM   16  N3  UNL     1      26.128  16.226  39.578  1.00  0.00    -0.277 N 
ATOM     17  H3  UNL     1      26.170  15.459  40.249  1.00  0.00     0.189 HD
HETATM   18  N4  UNL     1      26.657  14.648  37.940  1.00  0.00    -0.086 NA
BRANCH  16  19
HETATM   19  N2  UNL     1      25.824  17.500  40.059  1.00  0.00    -0.248 N 
HETATM   20  N1  UNL     1      25.862  17.659  41.321  1.00  0.00    -0.331 N 
ATOM     21  H12 UNL     1      26.104  16.883  41.938  1.00  0.00     0.178 HD
ATOM     22  H11 UNL     1      25.640  18.591  41.673  1.00  0.00     0.178 HD
ATOM     23  H2  UNL     1      25.584  18.266  39.430  1.00  0.00     0.207 HD
ENDBRANCH  16  19
ENDBRANCH  14  15
ENDBRANCH  11  14
ENDBRANCH   6   8
ENDBRANCH   3   6
ENDBRANCH   1   3
BRANCH   1  24
HETATM   24  C7  UNL     1      20.322  20.069  35.055  1.00  0.00     0.129 C 
BRANCH  24  25
HETATM   25  C8  UNL     1      21.720  20.563  35.008  1.00  0.00     0.067 C 
BRANCH  25  26
HETATM   26  C9  UNL     1      22.531  20.357  36.200  1.00  0.00    -0.056 A 
HETATM   27  C10 UNL     1      22.189  19.574  37.286  1.00  0.00     0.007 A 
HETATM   28  C11 UNL     1      23.076  19.490  38.337  1.00  0.00     0.001 A 
HETATM   29  C12 UNL     1      24.293  20.163  38.339  1.00  0.00     0.000 A 
HETATM   30  C13 UNL     1      24.645  20.946  37.260  1.00  0.00     0.001 A 
HETATM   31  C14 UNL     1      23.765  21.027  36.221  1.00  0.00     0.007 A 
ENDBRANCH  25  26
ENDBRANCH  24  25
BRANCH  24  32
HETATM   32  C15 UNL     1      19.269  21.106  35.219  1.00  0.00     0.167 C 
BRANCH  32  33
HETATM   33  O3  UNL     1      18.910  21.651  33.959  1.00  0.00    -0.392 OA
ATOM     34  H3  UNL     1      18.221  21.133  33.558  1.00  0.00     0.210 HD
ENDBRANCH  32  33
BRANCH  32  35
HETATM   35  C16 UNL     1      17.977  20.600  35.790  1.00  0.00     0.266 C 
BRANCH  35  36
HETATM   36  N7  UNL     1      18.183  19.878  37.040  1.00  0.00    -0.069 N 
ATOM     37  H72 UNL     1      17.951  18.889  36.959  1.00  0.00     0.277 HD
ATOM     38  H71 UNL     1      19.172  19.777  37.270  1.00  0.00     0.277 HD
BRANCH  36  39
HETATM   39  C17 UNL     1      17.436  20.533  38.098  1.00  0.00     0.271 C 
BRANCH  39  40
HETATM   40  C18 UNL     1      16.210  19.772  38.394  1.00  0.00    -0.030 A 
HETATM   41  C19 UNL     1      14.969  20.298  38.119  1.00  0.00     0.009 A 
HETATM   42  C20 UNL     1      13.805  19.575  38.399  1.00  0.00     0.004 A 
HETATM   43  C21 UNL     1      13.904  18.317  38.958  1.00  0.00     0.042 A 
HETATM   44  C22 UNL     1      15.158  17.801  39.228  1.00  0.00     0.117 A 
HETATM   45  F1  UNL     1      15.275  16.562  39.779  1.00  0.00    -0.206 F 
HETATM   46  C23 UNL     1      16.315  18.520  38.950  1.00  0.00     0.051 A 
ENDBRANCH  39  40
ENDBRANCH  36  39
ENDBRANCH  35  36
ENDBRANCH  32  35
ENDBRANCH  24  32
ENDBRANCH   1  24
TORSDOF 15
ENDMDL
MODEL 2
REMARK VINA RESULT: -10.055517943      0.776      1.485
REMARK  15 active torsions:
REMARK  status: ('A' for Active; 'I' for Inactive)
REMARK    1  A    between atoms: N2_4  and  N3_6 
REMARK    2  A    between atoms: C1_8  and  C2_10 
REMARK    3  A    between atoms: C2_10  and  C3_11 
REMARK    4  A    between atoms: C6_14  and  N5_15 
REMARK    5  A    between atoms: N5_15  and  S1_17 
REMARK    6  A    between atoms: S1_17  and  N6_20 
REMARK    7  A    between atoms: N6_20  and  C7_22 
REMARK    8  A    between atoms: C7_22  and  C8_23 
REMARK    9  A    between atoms: C7_22  and  C15_30 
REMARK   10  A    between atoms: C8_23  and  C9_24 
REMARK   11  A    between atoms: C15_30  and  O3_31 
REMARK   12  A    between atoms: C15_30  and  C16_33 
REMARK   13  A    between atoms: C16_33  and  N7_34 
REMARK   14  A    between atoms: N7_34  and  C17_37 
REMARK   15  A    between atoms: C17_37  and  C18_38 
ROOT
HETATM    1  N6  UNL     1      19.633  19.056  34.087  1.00  0.00    -0.295 N 
ATOM      2  H6  UNL     1      19.097  19.218  33.234  1.00  0.00     0.174 HD
ENDROOT
BRANCH   1   3
HETATM    3  S1  UNL     1      20.198  17.500  34.571  1.00  0.00     0.319 S 
HETATM    4  O1  UNL     1      19.315  16.403  34.047  1.00  0.00    -0.182 OA
HETATM    5  O2  UNL     1      20.130  17.450  36.065  1.00  0.00    -0.182 OA
BRANCH   3   6
HETATM    6  N5  UNL     1      21.792  17.196  34.052  1.00  0.00    -0.268 N 
ATOM      7  H5  UNL     1      21.977  17.166  33.049  1.00  0.00     0.180 HD
BRANCH   6   8
HETATM    8  C6  UNL     1      22.875  16.984  34.941  1.00  0.00     0.043 A 
HETATM    9  C5  UNL     1      22.830  16.226  36.086  1.00  0.00     0.031 A 
HETATM   10  C4  UNL     1      23.934  16.046  36.915  1.00  0.00     0.010 A 
HETATM   11  C3  UNL     1      25.142  16.630  36.613  1.00  0.00    -0.051 A 
HETATM   12  C25 UNL     1      25.198  17.389  35.468  1.00  0.00     0.010 A 
HETATM   13  C24 UNL     1      24.116  17.574  34.644  1.00  0.00     0.031 A 
BRANCH  11  14
HETATM   14  C2  UNL     1      26.348  16.459  37.475  1.00  0.00     0.113 C 
BRANCH  14  15
HETATM   15  C1  UNL     1      26.029  16.704  38.897  1.00  0.00     0.113 C 
HETATM   16  N3  UNL     1      26.027  15.745  39.723  1.00  0.00    -0.277 N 
ATOM     17  H3  UNL     1      25.802  15.952  40.696  1.00  0.00     0.189 HD
HETATM   18  N4  UNL     1      25.728  18.023  39.308  1.00  0.00    -0.086 NA
BRANCH  16  19
HETATM   19  N2  UNL     1      26.313  14.423  39.385  1.00  0.00    -0.248 N 
HETATM   20  N1  UNL     1      25.388  13.569  39.577  1.00  0.00    -0.331 N 
ATOM     21  H12 UNL     1      24.487  13.855  39.960  1.00  0.00     0.178 HD
ATOM     22  H11 UNL     1      25.597  12.602  39.329  1.00  0.00     0.178 HD
ATOM     23  H2  UNL     1      27.219  14.152  39.003  1.00  0.00     0.207 HD
ENDBRANCH  16  19
ENDBRANCH  14  15
ENDBRANCH  11  14
ENDBRANCH   6   8
ENDBRANCH   3   6
ENDBRANCH   1   3
BRANCH   1  24
HETATM   24  C7  UNL     1      19.996  20.110  35.015  1.00  0.00     0.129 C 
BRANCH  24  25
HETATM   25  C8  UNL     1      21.232  20.820  34.603  1.00  0.00     0.067 C 
BRANCH  25  26
HETATM   26  C9  UNL     1      22.373  20.730  35.504  1.00  0.00    -0.056 A 
HETATM   27  C10 UNL     1      23.611  21.309  35.301  1.00  0.00     0.007 A 
HETATM   28  C11 UNL     1      24.585  21.121  36.257  1.00  0.00     0.001 A 
HETATM   29  C12 UNL     1      24.362  20.374  37.409  1.00  0.00     0.000 A 
HETATM   30  C13 UNL     1      23.131  19.792  37.621  1.00  0.00     0.001 A 
HETATM   31  C14 UNL     1      22.168  19.980  36.673  1.00  0.00     0.007 A 
ENDBRANCH  25  26
ENDBRANCH  24  25
BRANCH  24  32
HETATM   32  C15 UNL     1      18.837  20.970  35.374  1.00  0.00     0.167 C 
BRANCH  32  33
HETATM   33  O3  UNL     1      18.276  21.556  34.210  1.00  0.00    -0.392 OA
ATOM     34  H3  UNL     1      17.534  22.103  34.439  1.00  0.00     0.210 HD
ENDBRANCH  32  33
BRANCH  32  35
HETATM   35  C16 UNL     1      17.693  20.242  36.015  1.00  0.00     0.266 C 
BRANCH  35  36
HETATM   36  N7  UNL     1      16.785  21.156  36.699  1.00  0.00    -0.069 N 
ATOM     37  H72 UNL     1      16.987  22.133  36.488  1.00  0.00     0.277 HD
ATOM     38  H71 UNL     1      15.839  21.118  36.318  1.00  0.00     0.277 HD
BRANCH  36  39
HETATM   39  C17 UNL     1      16.816  20.882  38.124  1.00  0.00     0.271 C 
BRANCH  39  40
HETATM   40  C18 UNL     1      15.838  19.832  38.456  1.00  0.00    -0.030 A 
HETATM   41  C19 UNL     1      14.490  20.036  38.261  1.00  0.00     0.009 A 
HETATM   42  C20 UNL     1      13.562  19.039  38.575  1.00  0.00     0.004 A 
HETATM   43  C21 UNL     1      14.003  17.836  39.087  1.00  0.00     0.042 A 
HETATM   44  C22 UNL     1      15.358  17.645  39.278  1.00  0.00     0.117 A 
HETATM   45  F1  UNL     1      15.812  16.466  39.782  1.00  0.00    -0.206 F 
HETATM   46  C23 UNL     1      16.282  18.637  38.966  1.00  0.00     0.051 A 
ENDBRANCH  39  40
ENDBRANCH  36  39
ENDBRANCH  35  36
ENDBRANCH  32  35
ENDBRANCH  24  32
ENDBRANCH   1  24
TORSDOF 15
ENDMDL
MODEL 3
REMARK VINA RESULT: -9.904148779      1.374      1.921
REMARK  15 active torsions:
REMARK  status: ('A' for Active; 'I' for Inactive)
REMARK    1  A    between atoms: N2_4  and  N3_6 
REMARK    2  A    between atoms: C1_8  and  C2_10 
REMARK    3  A    between atoms: C2_10  and  C3_11 
REMARK    4  A    between atoms: C6_14  and  N5_15 
REMARK    5  A    between atoms: N5_15  and  S1_17 
REMARK    6  A    between atoms: S1_17  and  N6_20 
REMARK    7  A    between atoms: N6_20  and  C7_22 
REMARK    8  A    between atoms: C7_22  and  C8_23 
REMARK    9  A    between atoms: C7_22  and  C15_30 
REMARK   10  A    between atoms: C8_23  and  C9_24 
REMARK   11  A    between atoms: C15_30  and  O3_31 
REMARK   12  A    between atoms: C15_30  and  C16_33 
REMARK   13  A    between atoms: C16_33  and  N7_34 
REMARK   14  A    between atoms: N7_34  and  C17_37 
REMARK   15  A    between atoms: C17_37  and  C18_38 
ROOT
HETATM    1  N6  UNL     1      20.177  19.119  33.875  1.00  0.00    -0.295 N 
ATOM      2  H6  UNL     1      20.026  19.397  32.905  1.00  0.00     0.174 HD
ENDROOT
BRANCH   1   3
HETATM    3  S1  UNL     1      20.105  17.484  34.416  1.00  0.00     0.319 S 
HETATM    4  O1  UNL     1      18.975  16.735  33.768  1.00  0.00    -0.182 OA
HETATM    5  O2  UNL     1      19.831  17.515  35.887  1.00  0.00    -0.182 OA
BRANCH   3   6
HETATM    6  N5  UNL     1      21.551  16.634  34.113  1.00  0.00    -0.268 N 
ATOM      7  H5  UNL     1      21.572  15.979  33.331  1.00  0.00     0.180 HD
BRANCH   6   8
HETATM    8  C6  UNL     1      22.725  16.789  34.891  1.00  0.00     0.043 A 
HETATM    9  C5  UNL     1      22.928  16.262  36.143  1.00  0.00     0.031 A 
HETATM   10  C4  UNL     1      24.112  16.441  36.853  1.00  0.00     0.010 A 
HETATM   11  C3  UNL     1      25.149  17.168  36.318  1.00  0.00    -0.051 A 
HETATM   12  C25 UNL     1      24.956  17.699  35.065  1.00  0.00     0.010 A 
HETATM   13  C24 UNL     1      23.794  17.529  34.355  1.00  0.00     0.031 A 
BRANCH  11  14
HETATM   14  C2  UNL     1      26.434  17.382  37.048  1.00  0.00     0.113 C 
BRANCH  14  15
HETATM   15  C1  UNL     1      27.437  16.363  36.676  1.00  0.00     0.113 C 
HETATM   16  N3  UNL     1      28.464  16.694  36.013  1.00  0.00    -0.277 N 
ATOM     17  H3  UNL     1      29.135  15.964  35.774  1.00  0.00     0.189 HD
HETATM   18  N4  UNL     1      27.225  15.023  37.074  1.00  0.00    -0.086 NA
BRANCH  16  19
HETATM   19  N2  UNL     1      28.734  17.995  35.588  1.00  0.00    -0.248 N 
HETATM   20  N1  UNL     1      28.629  18.224  34.341  1.00  0.00    -0.331 N 
ATOM     21  H12 UNL     1      28.359  17.481  33.696  1.00  0.00     0.178 HD
ATOM     22  H11 UNL     1      28.826  19.175  34.030  1.00  0.00     0.178 HD
ATOM     23  H2  UNL     1      29.002  18.727  36.245  1.00  0.00     0.207 HD
ENDBRANCH  16  19
ENDBRANCH  14  15
ENDBRANCH  11  14
ENDBRANCH   6   8
ENDBRANCH   3   6
ENDBRANCH   1   3
BRANCH   1  24
HETATM   24  C7  UNL     1      20.473  20.060  34.939  1.00  0.00     0.129 C 
BRANCH  24  25
HETATM   25  C8  UNL     1      21.848  20.607  34.839  1.00  0.00     0.067 C 
BRANCH  25  26
HETATM   26  C9  UNL     1      22.696  20.474  36.015  1.00  0.00    -0.056 A 
HETATM   27  C10 UNL     1      23.933  21.062  36.191  1.00  0.00     0.007 A 
HETATM   28  C11 UNL     1      24.607  20.828  37.370  1.00  0.00     0.001 A 
HETATM   29  C12 UNL     1      24.084  20.026  38.378  1.00  0.00     0.000 A 
HETATM   30  C13 UNL     1      22.850  19.433  38.213  1.00  0.00     0.001 A 
HETATM   31  C14 UNL     1      22.186  19.667  37.045  1.00  0.00     0.007 A 
ENDBRANCH  25  26
ENDBRANCH  24  25
BRANCH  24  32
HETATM   32  C15 UNL     1      19.385  21.057  35.130  1.00  0.00     0.167 C 
BRANCH  32  33
HETATM   33  O3  UNL     1      18.991  21.604  33.881  1.00  0.00    -0.392 OA
ATOM     34  H3  UNL     1      18.065  21.457  33.733  1.00  0.00     0.210 HD
ENDBRANCH  32  33
BRANCH  32  35
HETATM   35  C16 UNL     1      18.120  20.498  35.709  1.00  0.00     0.266 C 
BRANCH  35  36
HETATM   36  N7  UNL     1      17.865  21.012  37.051  1.00  0.00    -0.069 N 
ATOM     37  H72 UNL     1      18.531  21.736  37.321  1.00  0.00     0.277 HD
ATOM     38  H71 UNL     1      17.015  21.574  37.095  1.00  0.00     0.277 HD
BRANCH  36  39
HETATM   39  C17 UNL     1      17.844  19.906  37.990  1.00  0.00     0.271 C 
BRANCH  39  40
HETATM   40  C18 UNL     1      16.452  19.540  38.303  1.00  0.00    -0.030 A 
HETATM   41  C19 UNL     1      15.411  20.380  37.979  1.00  0.00     0.009 A 
HETATM   42  C20 UNL     1      14.090  20.032  38.275  1.00  0.00     0.004 A 
HETATM   43  C21 UNL     1      13.827  18.830  38.901  1.00  0.00     0.042 A 
HETATM   44  C22 UNL     1      14.882  17.997  39.221  1.00  0.00     0.117 A 
HETATM   45  F1  UNL     1      14.642  16.808  39.839  1.00  0.00    -0.206 F 
HETATM   46  C23 UNL     1      16.197  18.343  38.927  1.00  0.00     0.051 A 
ENDBRANCH  39  40
ENDBRANCH  36  39
ENDBRANCH  35  36
ENDBRANCH  32  35
ENDBRANCH  24  32
ENDBRANCH   1  24
TORSDOF 15
ENDMDL
MODEL 4
REMARK VINA RESULT: -9.655554154      1.783      2.767
REMARK  15 active torsions:
REMARK  status: ('A' for Active; 'I' for Inactive)
REMARK    1  A    between atoms: N2_4  and  N3_6 
REMARK    2  A    between atoms: C1_8  and  C2_10 
REMARK    3  A    between atoms: C2_10  and  C3_11 
REMARK    4  A    between atoms: C6_14  and  N5_15 
REMARK    5  A    between atoms: N5_15  and  S1_17 
REMARK    6  A    between atoms: S1_17  and  N6_20 
REMARK    7  A    between atoms: N6_20  and  C7_22 
REMARK    8  A    between atoms: C7_22  and  C8_23 
REMARK    9  A    between atoms: C7_22  and  C15_30 
REMARK   10  A    between atoms: C8_23  and  C9_24 
REMARK   11  A    between atoms: C15_30  and  O3_31 
REMARK   12  A    between atoms: C15_30  and  C16_33 
REMARK   13  A    between atoms: C16_33  and  N7_34 
REMARK   14  A    between atoms: N7_34  and  C17_37 
REMARK   15  A    between atoms: C17_37  and  C18_38 
ROOT
HETATM    1  N6  UNL     1      19.552  19.244  34.162  1.00  0.00    -0.295 N 
ATOM      2  H6  UNL     1      18.748  19.312  33.536  1.00  0.00     0.174 HD
ENDROOT
BRANCH   1   3
HETATM    3  S1  UNL     1      20.483  17.806  34.355  1.00  0.00     0.319 S 
HETATM    4  O1  UNL     1      21.582  17.716  33.334  1.00  0.00    -0.182 OA
HETATM    5  O2  UNL     1      19.565  16.648  34.122  1.00  0.00    -0.182 OA
BRANCH   3   6
HETATM    6  N5  UNL     1      21.184  17.688  35.904  1.00  0.00    -0.268 N 
ATOM      7  H5  UNL     1      20.790  18.254  36.657  1.00  0.00     0.180 HD
BRANCH   6   8
HETATM    8  C6  UNL     1      22.285  16.846  36.202  1.00  0.00     0.043 A 
HETATM    9  C5  UNL     1      23.314  17.152  37.058  1.00  0.00     0.031 A 
HETATM   10  C4  UNL     1      24.364  16.275  37.318  1.00  0.00     0.010 A 
HETATM   11  C3  UNL     1      24.413  15.040  36.716  1.00  0.00    -0.051 A 
HETATM   12  C25 UNL     1      23.386  14.724  35.858  1.00  0.00     0.010 A 
HETATM   13  C24 UNL     1      22.347  15.581  35.594  1.00  0.00     0.031 A 
BRANCH  11  14
HETATM   14  C2  UNL     1      25.521  14.072  36.969  1.00  0.00     0.113 C 
BRANCH  14  15
HETATM   15  C1  UNL     1      25.096  13.003  37.896  1.00  0.00     0.113 C 
HETATM   16  N3  UNL     1      24.882  11.833  37.462  1.00  0.00    -0.277 N 
ATOM     17  H3  UNL     1      24.591  11.120  38.131  1.00  0.00     0.189 HD
HETATM   18  N4  UNL     1      24.937  13.314  39.266  1.00  0.00    -0.086 NA
BRANCH  16  19
HETATM   19  N2  UNL     1      25.020  11.458  36.125  1.00  0.00    -0.248 N 
HETATM   20  N1  UNL     1      23.955  11.139  35.507  1.00  0.00    -0.331 N 
ATOM     21  H12 UNL     1      23.051  11.160  35.981  1.00  0.00     0.178 HD
ATOM     22  H11 UNL     1      24.055  10.865  34.530  1.00  0.00     0.178 HD
ATOM     23  H2  UNL     1      25.931  11.441  35.666  1.00  0.00     0.207 HD
ENDBRANCH  16  19
ENDBRANCH  14  15
ENDBRANCH  11  14
ENDBRANCH   6   8
ENDBRANCH   3   6
ENDBRANCH   1   3
BRANCH   1  24
HETATM   24  C7  UNL     1      20.025  20.345  34.978  1.00  0.00     0.129 C 
BRANCH  24  25
HETATM   25  C8  UNL     1      21.062  21.150  34.288  1.00  0.00     0.067 C 
BRANCH  25  26
HETATM   26  C9  UNL     1      22.429  21.015  34.772  1.00  0.00    -0.056 A 
HETATM   27  C10 UNL     1      23.575  21.198  34.022  1.00  0.00     0.007 A 
HETATM   28  C11 UNL     1      24.795  21.027  34.639  1.00  0.00     0.001 A 
HETATM   29  C12 UNL     1      24.907  20.680  35.982  1.00  0.00     0.000 A 
HETATM   30  C13 UNL     1      23.771  20.495  36.739  1.00  0.00     0.001 A 
HETATM   31  C14 UNL     1      22.564  20.665  36.126  1.00  0.00     0.007 A 
ENDBRANCH  25  26
ENDBRANCH  24  25
BRANCH  24  32
HETATM   32  C15 UNL     1      18.909  21.110  35.597  1.00  0.00     0.167 C 
BRANCH  32  33
HETATM   33  O3  UNL     1      18.181  21.815  34.603  1.00  0.00    -0.392 OA
ATOM     34  H3  UNL     1      17.251  21.791  34.795  1.00  0.00     0.210 HD
ENDBRANCH  32  33
BRANCH  32  35
HETATM   35  C16 UNL     1      17.879  20.265  36.286  1.00  0.00     0.266 C 
BRANCH  35  36
HETATM   36  N7  UNL     1      16.766  21.066  36.784  1.00  0.00    -0.069 N 
ATOM     37  H72 UNL     1      16.844  22.046  36.514  1.00  0.00     0.277 HD
ATOM     38  H71 UNL     1      15.891  20.853  36.304  1.00  0.00     0.277 HD
BRANCH  36  39
HETATM   39  C17 UNL     1      16.661  20.897  38.222  1.00  0.00     0.271 C 
BRANCH  39  40
HETATM   40  C18 UNL     1      15.730  19.799  38.532  1.00  0.00    -0.030 A 
HETATM   41  C19 UNL     1      14.375  19.949  38.346  1.00  0.00     0.009 A 
HETATM   42  C20 UNL     1      13.490  18.907  38.640  1.00  0.00     0.004 A 
HETATM   43  C21 UNL     1      13.984  17.712  39.122  1.00  0.00     0.042 A 
HETATM   44  C22 UNL     1      15.348  17.575  39.304  1.00  0.00     0.117 A 
HETATM   45  F1  UNL     1      15.853  16.404  39.780  1.00  0.00    -0.206 F 
HETATM   46  C23 UNL     1      16.227  18.612  39.013  1.00  0.00     0.051 A 
ENDBRANCH  39  40
ENDBRANCH  36  39
ENDBRANCH  35  36
ENDBRANCH  32  35
ENDBRANCH  24  32
ENDBRANCH   1  24
TORSDOF 15
ENDMDL
MODEL 5
REMARK VINA RESULT: -9.630376804      1.994      3.136
REMARK  15 active torsions:
REMARK  status: ('A' for Active; 'I' for Inactive)
REMARK    1  A    between atoms: N2_4  and  N3_6 
REMARK    2  A    between atoms: C1_8  and  C2_10 
REMARK    3  A    between atoms: C2_10  and  C3_11 
REMARK    4  A    between atoms: C6_14  and  N5_15 
REMARK    5  A    between atoms: N5_15  and  S1_17 
REMARK    6  A    between atoms: S1_17  and  N6_20 
REMARK    7  A    between atoms: N6_20  and  C7_22 
REMARK    8  A    between atoms: C7_22  and  C8_23 
REMARK    9  A    between atoms: C7_22  and  C15_30 
REMARK   10  A    between atoms: C8_23  and  C9_24 
REMARK   11  A    between atoms: C15_30  and  O3_31 
REMARK   12  A    between atoms: C15_30  and  C16_33 
REMARK   13  A    between atoms: C16_33  and  N7_34 
REMARK   14  A    between atoms: N7_34  and  C17_37 
REMARK   15  A    between atoms: C17_37  and  C18_38 
ROOT
HETATM    1  N6  UNL     1      20.588  21.657  35.032  1.00  0.00    -0.295 N 
ATOM      2  H6  UNL     1      20.626  22.539  35.544  1.00  0.00     0.174 HD
ENDROOT
BRANCH   1   3
HETATM    3  S1  UNL     1      21.650  21.270  33.730  1.00  0.00     0.319 S 
HETATM    4  O1  UNL     1      21.478  22.215  32.575  1.00  0.00    -0.182 OA
HETATM    5  O2  UNL     1      21.277  19.904  33.245  1.00  0.00    -0.182 OA
BRANCH   3   6
HETATM    6  N5  UNL     1      23.288  21.292  34.198  1.00  0.00    -0.268 N 
ATOM      7  H5  UNL     1      23.909  21.967  33.752  1.00  0.00     0.180 HD
BRANCH   6   8
HETATM    8  C6  UNL     1      23.833  20.421  35.175  1.00  0.00     0.043 A 
HETATM    9  C5  UNL     1      24.500  19.249  34.915  1.00  0.00     0.031 A 
HETATM   10  C4  UNL     1      25.024  18.441  35.921  1.00  0.00     0.010 A 
HETATM   11  C3  UNL     1      24.893  18.792  37.243  1.00  0.00    -0.051 A 
HETATM   12  C25 UNL     1      24.227  19.964  37.514  1.00  0.00     0.010 A 
HETATM   13  C24 UNL     1      23.707  20.768  36.531  1.00  0.00     0.031 A 
BRANCH  11  14
HETATM   14  C2  UNL     1      25.440  17.952  38.350  1.00  0.00     0.113 C 
BRANCH  14  15
HETATM   15  C1  UNL     1      26.465  17.011  37.851  1.00  0.00     0.113 C 
HETATM   16  N3  UNL     1      26.314  15.764  38.008  1.00  0.00    -0.277 N 
ATOM     17  H3  UNL     1      27.042  15.145  37.650  1.00  0.00     0.189 HD
HETATM   18  N4  UNL     1      27.606  17.534  37.200  1.00  0.00    -0.086 NA
BRANCH  16  19
HETATM   19  N2  UNL     1      25.215  15.184  38.640  1.00  0.00    -0.248 N 
HETATM   20  N1  UNL     1      25.446  14.536  39.711  1.00  0.00    -0.331 N 
ATOM     21  H12 UNL     1      26.395  14.454  40.076  1.00  0.00     0.178 HD
ATOM     22  H11 UNL     1      24.642  14.112  40.173  1.00  0.00     0.178 HD
ATOM     23  H2  UNL     1      24.271  15.274  38.262  1.00  0.00     0.207 HD
ENDBRANCH  16  19
ENDBRANCH  14  15
ENDBRANCH  11  14
ENDBRANCH   6   8
ENDBRANCH   3   6
ENDBRANCH   1   3
BRANCH   1  24
HETATM   24  C7  UNL     1      19.636  20.603  35.325  1.00  0.00     0.129 C 
BRANCH  24  25
HETATM   25  C8  UNL     1      20.155  19.639  36.326  1.00  0.00     0.067 C 
BRANCH  25  26
HETATM   26  C9  UNL     1      20.427  18.287  35.858  1.00  0.00    -0.056 A 
HETATM   27  C10 UNL     1      19.608  17.534  35.039  1.00  0.00     0.007 A 
HETATM   28  C11 UNL     1      20.018  16.265  34.692  1.00  0.00     0.001 A 
HETATM   29  C12 UNL     1      21.221  15.726  35.136  1.00  0.00     0.000 A 
HETATM   30  C13 UNL     1      22.046  16.468  35.953  1.00  0.00     0.001 A 
HETATM   31  C14 UNL     1      21.637  17.724  36.294  1.00  0.00     0.007 A 
ENDBRANCH  25  26
ENDBRANCH  24  25
BRANCH  24  32
HETATM   32  C15 UNL     1      18.268  21.131  35.575  1.00  0.00     0.167 C 
BRANCH  32  33
HETATM   33  O3  UNL     1      17.454  20.965  34.424  1.00  0.00    -0.392 OA
ATOM     34  H3  UNL     1      17.532  21.719  33.852  1.00  0.00     0.210 HD
ENDBRANCH  32  33
BRANCH  32  35
HETATM   35  C16 UNL     1      17.517  20.430  36.668  1.00  0.00     0.266 C 
BRANCH  35  36
HETATM   36  N7  UNL     1      16.667  21.348  37.417  1.00  0.00    -0.069 N 
ATOM     37  H72 UNL     1      16.990  22.314  37.354  1.00  0.00     0.277 HD
ATOM     38  H71 UNL     1      15.753  21.473  36.982  1.00  0.00     0.277 HD
BRANCH  36  39
HETATM   39  C17 UNL     1      16.565  20.892  38.792  1.00  0.00     0.271 C 
BRANCH  39  40
HETATM   40  C18 UNL     1      15.642  19.747  38.873  1.00  0.00    -0.030 A 
HETATM   41  C19 UNL     1      14.317  19.884  38.526  1.00  0.00     0.009 A 
HETATM   42  C20 UNL     1      13.440  18.797  38.602  1.00  0.00     0.004 A 
HETATM   43  C21 UNL     1      13.910  17.573  39.032  1.00  0.00     0.042 A 
HETATM   44  C22 UNL     1      15.243  17.451  39.378  1.00  0.00     0.117 A 
HETATM   45  F1  UNL     1      15.725  16.251  39.804  1.00  0.00    -0.206 F 
HETATM   46  C23 UNL     1      16.115  18.532  39.302  1.00  0.00     0.051 A 
ENDBRANCH  39  40
ENDBRANCH  36  39
ENDBRANCH  35  36
ENDBRANCH  32  35
ENDBRANCH  24  32
ENDBRANCH   1  24
TORSDOF 15
ENDMDL
