MODEL 1
REMARK VINA RESULT: -11.578161096      0.000      0.000
REMARK  6 active torsions:
REMARK  status: ('A' for Active; 'I' for Inactive)
REMARK    1  A    between atoms: C5_6  and  C6_7 
REMARK    2  A    between atoms: C8_9  and  C9_10 
REMARK    3  A    between atoms: C13_14  and  C14_15 
REMARK    4  A    between atoms: C14_15  and  O1_16 
REMARK    5  A    between atoms: C18_25  and  C19_26 
REMARK    6  A    between atoms: N4_30  and  N5_32 
ROOT
HETATM    1  C1  UNL     1      18.645   8.611  19.598  1.00  0.00     0.049 C 
HETATM    2  C2  UNL     1      17.507   9.456  19.970  1.00  0.00    -0.045 A 
HETATM    3  C3  UNL     1      16.921   9.306  21.229  1.00  0.00     0.051 A 
HETATM    4  C4  UNL     1      15.843  10.087  21.617  1.00  0.00     0.129 A 
HETATM    5  F1  UNL     1      15.310   9.855  22.867  1.00  0.00    -0.205 F 
HETATM    6  C5  UNL     1      15.344  11.021  20.754  1.00  0.00     0.030 A 
HETATM    7  C17 UNL     1      15.958  11.146  19.492  1.00  0.00     0.032 A 
HETATM    8  C18 UNL     1      17.017  10.393  19.085  1.00  0.00     0.015 A 
ENDROOT
BRANCH   6   9
HETATM    9  C6  UNL     1      14.210  11.871  21.048  1.00  0.00     0.048 A 
HETATM   10  C7  UNL     1      13.397  11.770  22.143  1.00  0.00     0.060 A 
HETATM   11  C8  UNL     1      12.344  12.647  22.369  1.00  0.00     0.045 A 
HETATM   12  N1  UNL     1      12.118  13.642  21.462  1.00  0.00    -0.352 N 
HETATM   13  C16 UNL     1      12.915  13.743  20.387  1.00  0.00     0.181 A 
ATOM     14  H1  UNL     1      11.353  14.302  21.600  1.00  0.00     0.166 HD
HETATM   15  N2  UNL     1      13.922  12.883  20.195  1.00  0.00    -0.352 N 
ATOM     16  H2  UNL     1      14.503  12.995  19.363  1.00  0.00     0.166 HD
BRANCH  11  17
HETATM   17  C9  UNL     1      11.483  12.534  23.535  1.00  0.00    -0.009 A 
HETATM   18  C10 UNL     1      11.976  12.943  24.783  1.00  0.00     0.014 A 
HETATM   19  C11 UNL     1      11.238  12.876  25.940  1.00  0.00     0.002 A 
HETATM   20  C12 UNL     1       9.960  12.393  25.916  1.00  0.00     0.009 A 
HETATM   21  C13 UNL     1       9.438  11.982  24.714  1.00  0.00    -0.034 A 
HETATM   22  C15 UNL     1      10.203  12.056  23.540  1.00  0.00     0.023 A 
BRANCH  21  23
HETATM   23  C14 UNL     1       8.058  11.448  24.624  1.00  0.00     0.202 C 
BRANCH  23  24
HETATM   24  O1  UNL     1       8.079  10.081  24.784  1.00  0.00    -0.396 OA
ATOM     25  H1  UNL     1       7.394   9.820  25.388  1.00  0.00     0.209 HD
ENDBRANCH  23  24
ENDBRANCH  21  23
ENDBRANCH  11  17
ENDBRANCH   6   9
BRANCH   8  26
HETATM   26  C19 UNL     1      17.601  10.576  17.776  1.00  0.00     0.118 A 
HETATM   27  N3  UNL     1      17.290   9.834  16.707  1.00  0.00    -0.325 N 
HETATM   28  C20 UNL     1      17.780   9.941  15.486  1.00  0.00     0.146 A 
ATOM     29  H3  UNL     1      16.595   9.102  16.852  1.00  0.00     0.169 HD
HETATM   30  N4  UNL     1      17.458   9.213  14.491  1.00  0.00    -0.291 N 
HETATM   31  C21 UNL     1      18.728  10.929  15.260  1.00  0.00     0.117 A 
ATOM     32  H4  UNL     1      17.908   9.392  13.593  1.00  0.00     0.188 HD
HETATM   33 CL1  UNL     1      19.422  11.130  13.664  1.00  0.00    -0.077 Cl
HETATM   34  C22 UNL     1      19.085  11.721  16.320  1.00  0.00     0.130 A 
HETATM   35 CL2  UNL     1      20.281  12.983  16.075  1.00  0.00    -0.062 Cl
HETATM   36  N6  UNL     1      18.523  11.529  17.534  1.00  0.00    -0.331 N 
ATOM     37  H6  UNL     1      18.810  12.134  18.304  1.00  0.00     0.168 HD
BRANCH  30  38
HETATM   38  N5  UNL     1      16.521   8.181  14.569  1.00  0.00    -0.344 N 
ATOM     39  H52 UNL     1      15.808   8.250  15.295  1.00  0.00     0.176 HD
ATOM     40  H51 UNL     1      16.520   7.378  13.941  1.00  0.00     0.176 HD
ENDBRANCH  30  38
ENDBRANCH   8  26
TORSDOF 6
ENDMDL
MODEL 2
REMARK VINA RESULT: -11.169877271      0.998      1.917
REMARK  6 active torsions:
REMARK  status: ('A' for Active; 'I' for Inactive)
REMARK    1  A    between atoms: C5_6  and  C6_7 
REMARK    2  A    between atoms: C8_9  and  C9_10 
REMARK    3  A    between atoms: C13_14  and  C14_15 
REMARK    4  A    between atoms: C14_15  and  O1_16 
REMARK    5  A    between atoms: C18_25  and  C19_26 
REMARK    6  A    between atoms: N4_30  and  N5_32 
ROOT
HETATM    1  C1  UNL     1      18.580   8.430  19.587  1.00  0.00     0.049 C 
HETATM    2  C2  UNL     1      17.458   9.301  19.947  1.00  0.00    -0.045 A 
HETATM    3  C3  UNL     1      16.972   9.290  21.257  1.00  0.00     0.051 A 
HETATM    4  C4  UNL     1      15.912  10.099  21.637  1.00  0.00     0.129 A 
HETATM    5  F1  UNL     1      15.480  10.005  22.942  1.00  0.00    -0.205 F 
HETATM    6  C5  UNL     1      15.332  10.923  20.715  1.00  0.00     0.030 A 
HETATM    7  C17 UNL     1      15.846  10.910  19.404  1.00  0.00     0.032 A 
HETATM    8  C18 UNL     1      16.885  10.126  19.003  1.00  0.00     0.015 A 
ENDROOT
BRANCH   6   9
HETATM    9  C6  UNL     1      14.208  11.790  20.998  1.00  0.00     0.048 A 
HETATM   10  C7  UNL     1      13.394  11.713  22.094  1.00  0.00     0.060 A 
HETATM   11  C8  UNL     1      12.351  12.604  22.309  1.00  0.00     0.045 A 
HETATM   12  N1  UNL     1      12.137  13.591  21.389  1.00  0.00    -0.352 N 
HETATM   13  C16 UNL     1      12.935  13.669  20.313  1.00  0.00     0.181 A 
ATOM     14  H1  UNL     1      11.379  14.261  21.519  1.00  0.00     0.166 HD
HETATM   15  N2  UNL     1      13.932  12.795  20.132  1.00  0.00    -0.352 N 
ATOM     16  H2  UNL     1      14.514  12.890  19.299  1.00  0.00     0.166 HD
BRANCH  11  17
HETATM   17  C9  UNL     1      11.489  12.517  23.476  1.00  0.00    -0.009 A 
HETATM   18  C10 UNL     1      11.968  12.984  24.708  1.00  0.00     0.014 A 
HETATM   19  C11 UNL     1      11.228  12.944  25.865  1.00  0.00     0.002 A 
HETATM   20  C12 UNL     1       9.961  12.432  25.856  1.00  0.00     0.009 A 
HETATM   21  C13 UNL     1       9.452  11.963  24.669  1.00  0.00    -0.034 A 
HETATM   22  C15 UNL     1      10.220  12.010  23.495  1.00  0.00     0.023 A 
BRANCH  21  23
HETATM   23  C14 UNL     1       8.085  11.395  24.597  1.00  0.00     0.202 C 
BRANCH  23  24
HETATM   24  O1  UNL     1       8.140  10.031  24.774  1.00  0.00    -0.396 OA
ATOM     25  H1  UNL     1       7.286   9.653  24.604  1.00  0.00     0.209 HD
ENDBRANCH  23  24
ENDBRANCH  21  23
ENDBRANCH  11  17
ENDBRANCH   6   9
BRANCH   8  26
HETATM   26  C19 UNL     1      17.365  10.165  17.640  1.00  0.00     0.118 A 
HETATM   27  N3  UNL     1      18.219  11.083  17.174  1.00  0.00    -0.325 N 
HETATM   28  C20 UNL     1      18.699  11.183  15.948  1.00  0.00     0.146 A 
ATOM     29  H3  UNL     1      18.536  11.786  17.841  1.00  0.00     0.169 HD
HETATM   30  N4  UNL     1      19.513  12.074  15.540  1.00  0.00    -0.291 N 
HETATM   31  C21 UNL     1      18.284  10.240  15.019  1.00  0.00     0.117 A 
ATOM     32  H4  UNL     1      19.814  12.048  14.566  1.00  0.00     0.188 HD
HETATM   33 CL1  UNL     1      18.880  10.309  13.372  1.00  0.00    -0.077 Cl
HETATM   34  C22 UNL     1      17.409   9.273  15.441  1.00  0.00     0.130 A 
HETATM   35 CL2  UNL     1      16.860   8.061  14.296  1.00  0.00    -0.062 Cl
HETATM   36  N6  UNL     1      16.976   9.259  16.722  1.00  0.00    -0.331 N 
ATOM     37  H6  UNL     1      16.324   8.528  17.006  1.00  0.00     0.168 HD
BRANCH  30  38
HETATM   38  N5  UNL     1      20.014  13.086  16.362  1.00  0.00    -0.344 N 
ATOM     39  H52 UNL     1      20.198  12.850  17.336  1.00  0.00     0.176 HD
ATOM     40  H51 UNL     1      20.201  14.033  16.032  1.00  0.00     0.176 HD
ENDBRANCH  30  38
ENDBRANCH   8  26
TORSDOF 6
ENDMDL
MODEL 3
REMARK VINA RESULT: -10.642769968      5.080      7.466
REMARK  6 active torsions:
REMARK  status: ('A' for Active; 'I' for Inactive)
REMARK    1  A    between atoms: C5_6  and  C6_7 
REMARK    2  A    between atoms: C8_9  and  C9_10 
REMARK    3  A    between atoms: C13_14  and  C14_15 
REMARK    4  A    between atoms: C14_15  and  O1_16 
REMARK    5  A    between atoms: C18_25  and  C19_26 
REMARK    6  A    between atoms: N4_30  and  N5_32 
ROOT
HETATM    1  C1  UNL     1      18.466   5.515  14.049  1.00  0.00     0.049 C 
HETATM    2  C2  UNL     1      18.436   6.914  14.484  1.00  0.00    -0.045 A 
HETATM    3  C3  UNL     1      18.026   7.904  13.588  1.00  0.00     0.051 A 
HETATM    4  C4  UNL     1      17.984   9.238  13.962  1.00  0.00     0.129 A 
HETATM    5  F1  UNL     1      17.592  10.152  13.007  1.00  0.00    -0.205 F 
HETATM    6  C5  UNL     1      18.350   9.593  15.230  1.00  0.00     0.030 A 
HETATM    7  C17 UNL     1      18.758   8.569  16.108  1.00  0.00     0.032 A 
HETATM    8  C18 UNL     1      18.809   7.252  15.768  1.00  0.00     0.015 A 
ENDROOT
BRANCH   6   9
HETATM    9  C6  UNL     1      18.365  10.955  15.717  1.00  0.00     0.048 A 
HETATM   10  C7  UNL     1      17.518  11.480  16.653  1.00  0.00     0.060 A 
HETATM   11  C8  UNL     1      17.617  12.793  17.092  1.00  0.00     0.045 A 
HETATM   12  N1  UNL     1      18.599  13.583  16.566  1.00  0.00    -0.352 N 
HETATM   13  C16 UNL     1      19.432  13.071  15.648  1.00  0.00     0.181 A 
ATOM     14  H1  UNL     1      18.698  14.552  16.868  1.00  0.00     0.166 HD
HETATM   15  N2  UNL     1      19.312  11.801  15.243  1.00  0.00    -0.352 N 
ATOM     16  H2  UNL     1      19.966  11.452  14.543  1.00  0.00     0.166 HD
BRANCH  11  17
HETATM   17  C9  UNL     1      16.712  13.346  18.087  1.00  0.00    -0.009 A 
HETATM   18  C10 UNL     1      16.271  14.669  17.941  1.00  0.00     0.014 A 
HETATM   19  C11 UNL     1      15.417  15.277  18.828  1.00  0.00     0.002 A 
HETATM   20  C12 UNL     1      14.953  14.595  19.917  1.00  0.00     0.009 A 
HETATM   21  C13 UNL     1      15.360  13.296  20.099  1.00  0.00    -0.034 A 
HETATM   22  C15 UNL     1      16.233  12.687  19.185  1.00  0.00     0.023 A 
BRANCH  21  23
HETATM   23  C14 UNL     1      14.892  12.505  21.262  1.00  0.00     0.202 C 
BRANCH  23  24
HETATM   24  O1  UNL     1      13.845  13.158  21.873  1.00  0.00    -0.396 OA
ATOM     25  H1  UNL     1      13.047  13.014  21.378  1.00  0.00     0.209 HD
ENDBRANCH  23  24
ENDBRANCH  21  23
ENDBRANCH  11  17
ENDBRANCH   6   9
BRANCH   8  26
HETATM   26  C19 UNL     1      19.235   6.252  16.720  1.00  0.00     0.118 A 
HETATM   27  N3  UNL     1      20.499   6.101  17.131  1.00  0.00    -0.325 N 
HETATM   28  C20 UNL     1      20.962   5.215  17.993  1.00  0.00     0.146 A 
ATOM     29  H3  UNL     1      21.184   6.744  16.732  1.00  0.00     0.169 HD
HETATM   30  N4  UNL     1      22.178   5.101  18.360  1.00  0.00    -0.291 N 
HETATM   31  C21 UNL     1      20.053   4.327  18.550  1.00  0.00     0.117 A 
ATOM     32  H4  UNL     1      22.415   4.375  19.035  1.00  0.00     0.188 HD
HETATM   33 CL1  UNL     1      20.596   3.124  19.702  1.00  0.00    -0.077 Cl
HETATM   34  C22 UNL     1      18.742   4.436  18.167  1.00  0.00     0.130 A 
HETATM   35 CL2  UNL     1      17.560   3.332  18.850  1.00  0.00    -0.062 Cl
HETATM   36  N6  UNL     1      18.369   5.381  17.274  1.00  0.00    -0.331 N 
ATOM     37  H6  UNL     1      17.387   5.436  17.007  1.00  0.00     0.168 HD
BRANCH  30  38
HETATM   38  N5  UNL     1      23.201   5.923  17.883  1.00  0.00    -0.344 N 
ATOM     39  H52 UNL     1      23.306   6.001  16.871  1.00  0.00     0.176 HD
ATOM     40  H51 UNL     1      23.835   6.438  18.493  1.00  0.00     0.176 HD
ENDBRANCH  30  38
ENDBRANCH   8  26
TORSDOF 6
ENDMDL
MODEL 4
REMARK VINA RESULT: -10.498471184      2.646      3.853
REMARK  6 active torsions:
REMARK  status: ('A' for Active; 'I' for Inactive)
REMARK    1  A    between atoms: C5_6  and  C6_7 
REMARK    2  A    between atoms: C8_9  and  C9_10 
REMARK    3  A    between atoms: C13_14  and  C14_15 
REMARK    4  A    between atoms: C14_15  and  O1_16 
REMARK    5  A    between atoms: C18_25  and  C19_26 
REMARK    6  A    between atoms: N4_30  and  N5_32 
ROOT
HETATM    1  C1  UNL     1      18.639  11.530  15.329  1.00  0.00     0.049 C 
HETATM    2  C2  UNL     1      17.867  11.380  16.566  1.00  0.00    -0.045 A 
HETATM    3  C3  UNL     1      17.625  12.499  17.366  1.00  0.00     0.051 A 
HETATM    4  C4  UNL     1      16.899  12.398  18.542  1.00  0.00     0.129 A 
HETATM    5  F1  UNL     1      16.730  13.548  19.283  1.00  0.00    -0.205 F 
HETATM    6  C5  UNL     1      16.411  11.182  18.928  1.00  0.00     0.030 A 
HETATM    7  C17 UNL     1      16.673  10.074  18.099  1.00  0.00     0.032 A 
HETATM    8  C18 UNL     1      17.383  10.144  16.939  1.00  0.00     0.015 A 
ENDROOT
BRANCH   6   9
HETATM    9  C6  UNL     1      15.663  10.960  20.147  1.00  0.00     0.048 A 
HETATM   10  C7  UNL     1      14.721  11.801  20.672  1.00  0.00     0.060 A 
HETATM   11  C8  UNL     1      14.022  11.501  21.834  1.00  0.00     0.045 A 
HETATM   12  N1  UNL     1      14.289  10.322  22.468  1.00  0.00    -0.352 N 
HETATM   13  C16 UNL     1      15.212   9.494  21.954  1.00  0.00     0.181 A 
ATOM     14  H1  UNL     1      13.792  10.072  23.323  1.00  0.00     0.166 HD
HETATM   15  N2  UNL     1      15.870   9.810  20.833  1.00  0.00    -0.352 N 
ATOM     16  H2  UNL     1      16.564   9.153  20.477  1.00  0.00     0.166 HD
BRANCH  11  17
HETATM   17  C9  UNL     1      13.023  12.400  22.388  1.00  0.00    -0.009 A 
HETATM   18  C10 UNL     1      13.010  13.738  21.970  1.00  0.00     0.014 A 
HETATM   19  C11 UNL     1      12.106  14.662  22.436  1.00  0.00     0.002 A 
HETATM   20  C12 UNL     1      11.159  14.298  23.351  1.00  0.00     0.009 A 
HETATM   21  C13 UNL     1      11.135  12.996  23.788  1.00  0.00    -0.034 A 
HETATM   22  C15 UNL     1      12.065  12.063  23.303  1.00  0.00     0.023 A 
BRANCH  21  23
HETATM   23  C14 UNL     1      10.132  12.542  24.780  1.00  0.00     0.202 C 
BRANCH  23  24
HETATM   24  O1  UNL     1       9.040  12.016  24.127  1.00  0.00    -0.396 OA
ATOM     25  H1  UNL     1       9.143  11.076  24.039  1.00  0.00     0.209 HD
ENDBRANCH  23  24
ENDBRANCH  21  23
ENDBRANCH  11  17
ENDBRANCH   6   9
BRANCH   8  26
HETATM   26  C19 UNL     1      17.612   8.966  16.134  1.00  0.00     0.118 A 
HETATM   27  N3  UNL     1      18.587   8.080  16.364  1.00  0.00    -0.325 N 
HETATM   28  C20 UNL     1      18.858   6.987  15.675  1.00  0.00     0.146 A 
ATOM     29  H3  UNL     1      19.191   8.271  17.165  1.00  0.00     0.169 HD
HETATM   30  N4  UNL     1      19.799   6.165  15.927  1.00  0.00    -0.291 N 
HETATM   31  C21 UNL     1      18.053   6.703  14.582  1.00  0.00     0.117 A 
ATOM     32  H4  UNL     1      19.909   5.353  15.321  1.00  0.00     0.188 HD
HETATM   33 CL1  UNL     1      18.353   5.269  13.621  1.00  0.00    -0.077 Cl
HETATM   34  C22 UNL     1      17.036   7.577  14.297  1.00  0.00     0.130 A 
HETATM   35 CL2  UNL     1      15.994   7.253  12.922  1.00  0.00    -0.062 Cl
HETATM   36  N6  UNL     1      16.842   8.671  15.067  1.00  0.00    -0.331 N 
ATOM     37  H6  UNL     1      16.078   9.303  14.830  1.00  0.00     0.168 HD
BRANCH  30  38
HETATM   38  N5  UNL     1      20.687   6.322  16.993  1.00  0.00    -0.344 N 
ATOM     39  H52 UNL     1      20.690   5.598  17.711  1.00  0.00     0.176 HD
ATOM     40  H51 UNL     1      21.321   7.117  17.081  1.00  0.00     0.176 HD
ENDBRANCH  30  38
ENDBRANCH   8  26
TORSDOF 6
ENDMDL
MODEL 5
REMARK VINA RESULT: -10.373203605      3.922      5.687
REMARK  6 active torsions:
REMARK  status: ('A' for Active; 'I' for Inactive)
REMARK    1  A    between atoms: C5_6  and  C6_7 
REMARK    2  A    between atoms: C8_9  and  C9_10 
REMARK    3  A    between atoms: C13_14  and  C14_15 
REMARK    4  A    between atoms: C14_15  and  O1_16 
REMARK    5  A    between atoms: C18_25  and  C19_26 
REMARK    6  A    between atoms: N4_30  and  N5_32 
ROOT
HETATM    1  C1  UNL     1      20.142  11.167  13.415  1.00  0.00     0.049 C 
HETATM    2  C2  UNL     1      19.324  11.617  14.544  1.00  0.00    -0.045 A 
HETATM    3  C3  UNL     1      19.364  12.958  14.931  1.00  0.00     0.051 A 
HETATM    4  C4  UNL     1      18.604  13.422  15.994  1.00  0.00     0.129 A 
HETATM    5  F1  UNL     1      18.725  14.755  16.324  1.00  0.00    -0.205 F 
HETATM    6  C5  UNL     1      17.801  12.554  16.675  1.00  0.00     0.030 A 
HETATM    7  C17 UNL     1      17.783  11.208  16.259  1.00  0.00     0.032 A 
HETATM    8  C18 UNL     1      18.519  10.724  15.219  1.00  0.00     0.015 A 
ENDROOT
BRANCH   6   9
HETATM    9  C6  UNL     1      16.986  12.926  17.812  1.00  0.00     0.048 A 
HETATM   10  C7  UNL     1      16.627  12.102  18.843  1.00  0.00     0.060 A 
HETATM   11  C8  UNL     1      15.865  12.544  19.916  1.00  0.00     0.045 A 
HETATM   12  N1  UNL     1      15.463  13.849  19.936  1.00  0.00    -0.352 N 
HETATM   13  C16 UNL     1      15.814  14.659  18.926  1.00  0.00     0.181 A 
ATOM     14  H1  UNL     1      14.903  14.204  20.711  1.00  0.00     0.166 HD
HETATM   15  N2  UNL     1      16.549  14.205  17.904  1.00  0.00    -0.352 N 
ATOM     16  H2  UNL     1      16.793  14.855  17.156  1.00  0.00     0.166 HD
BRANCH  11  17
HETATM   17  C9  UNL     1      15.487  11.664  21.009  1.00  0.00    -0.009 A 
HETATM   18  C10 UNL     1      14.220  11.813  21.592  1.00  0.00     0.014 A 
HETATM   19  C11 UNL     1      13.773  11.029  22.628  1.00  0.00     0.002 A 
HETATM   20  C12 UNL     1      14.571  10.048  23.144  1.00  0.00     0.009 A 
HETATM   21  C13 UNL     1      15.821   9.867  22.603  1.00  0.00    -0.034 A 
HETATM   22  C15 UNL     1      16.264  10.675  21.545  1.00  0.00     0.023 A 
BRANCH  21  23
HETATM   23  C14 UNL     1      16.732   8.819  23.121  1.00  0.00     0.202 C 
BRANCH  23  24
HETATM   24  O1  UNL     1      17.215   8.067  22.073  1.00  0.00    -0.396 OA
ATOM     25  H1  UNL     1      18.153   7.950  22.171  1.00  0.00     0.209 HD
ENDBRANCH  23  24
ENDBRANCH  21  23
ENDBRANCH  11  17
ENDBRANCH   6   9
BRANCH   8  26
HETATM   26  C19 UNL     1      18.451   9.331  14.843  1.00  0.00     0.118 A 
HETATM   27  N3  UNL     1      19.151   8.360  15.440  1.00  0.00    -0.325 N 
HETATM   28  C20 UNL     1      19.142   7.071  15.152  1.00  0.00     0.146 A 
ATOM     29  H3  UNL     1      19.761   8.648  16.205  1.00  0.00     0.169 HD
HETATM   30  N4  UNL     1      19.826   6.174  15.746  1.00  0.00    -0.291 N 
HETATM   31  C21 UNL     1      18.321   6.652  14.116  1.00  0.00     0.117 A 
ATOM     32  H4  UNL     1      19.734   5.208  15.432  1.00  0.00     0.188 HD
HETATM   33 CL1  UNL     1      18.258   4.956  13.679  1.00  0.00    -0.077 Cl
HETATM   34  C22 UNL     1      17.578   7.604  13.468  1.00  0.00     0.130 A 
HETATM   35 CL2  UNL     1      16.526   7.114  12.151  1.00  0.00    -0.062 Cl
HETATM   36  N6  UNL     1      17.660   8.901  13.840  1.00  0.00    -0.331 N 
ATOM     37  H6  UNL     1      17.096   9.587  13.338  1.00  0.00     0.168 HD
BRANCH  30  38
HETATM   38  N5  UNL     1      20.695   6.449  16.804  1.00  0.00    -0.344 N 
ATOM     39  H52 UNL     1      20.988   7.417  16.930  1.00  0.00     0.176 HD
ATOM     40  H51 UNL     1      21.040   5.733  17.443  1.00  0.00     0.176 HD
ENDBRANCH  30  38
ENDBRANCH   8  26
TORSDOF 6
ENDMDL
