MODEL 1
REMARK VINA RESULT: -7.851859369      0.000      0.000
REMARK  16 active torsions:
REMARK  status: ('A' for Active; 'I' for Inactive)
REMARK    1  A    between atoms: N1_1  and  N2_4 
REMARK    2  A    between atoms: N2_4  and  C1_6 
REMARK    3  A    between atoms: C1_6  and  O1_7 
REMARK    4  A    between atoms: C1_6  and  N3_9 
REMARK    5  A    between atoms: N3_9  and  C2_11 
REMARK    6  A    between atoms: C4_13  and  C5_14 
REMARK    7  A    between atoms: C6_18  and  C7_19 
REMARK    8  A    between atoms: C7_19  and  C8_20 
REMARK    9  A    between atoms: C8_20  and  O4_21 
REMARK   10  A    between atoms: C8_20  and  C9_23 
REMARK   11  A    between atoms: C9_23  and  O5_24 
REMARK   12  A    between atoms: C9_23  and  C10_26 
REMARK   13  A    between atoms: C10_26  and  O6_27 
REMARK   14  A    between atoms: C11_30  and  O8_31 
REMARK   15  A    between atoms: C11_30  and  S1_33 
REMARK   16  A    between atoms: S1_33  and  C12_34 
ROOT
HETATM    1  C2  UNL     1      63.557  19.734  93.558  1.00  0.00     0.028 C 
HETATM    2  C3  UNL     1      62.975  20.096  94.858  1.00  0.00     0.102 C 
HETATM    3  C4  UNL     1      62.204  18.878  95.311  1.00  0.00     0.332 C 
HETATM    4  N4  UNL     1      62.196  17.943  94.238  1.00  0.00     0.149 N 
HETATM    5  C6  UNL     1      60.886  17.601  93.731  1.00  0.00     0.366 C 
HETATM    6  O7  UNL     1      60.833  17.914  92.390  1.00  0.00    -0.308 OA
HETATM    7  C11 UNL     1      62.005  18.546  92.032  1.00  0.00     0.261 C 
HETATM    8  C15 UNL     1      62.980  18.438  93.152  1.00  0.00     0.346 C 
ENDROOT
BRANCH   7   9
HETATM    9  O8  UNL     1      61.785  19.898  91.752  1.00  0.00    -0.355 OA
ATOM     10  H8  UNL     1      62.560  20.417  91.934  1.00  0.00     0.214 HD
ENDBRANCH   7   9
BRANCH   7  11
HETATM   11  S1  UNL     1      62.691  17.686  90.591  1.00  0.00    -0.023 SA
BRANCH  11  12
HETATM   12  C12 UNL     1      63.105  18.793  89.266  1.00  0.00     0.167 A 
HETATM   13  N5  UNL     1      62.765  18.569  87.987  1.00  0.00    -0.310 N 
HETATM   14  C13 UNL     1      63.099  19.433  87.014  1.00  0.00     0.208 A 
ATOM     15  H5  UNL     1      62.242  17.725  87.749  1.00  0.00     0.170 HD
HETATM   16  N6  UNL     1      62.745  19.209  85.656  1.00  0.00    -0.063 NA
HETATM   17  N7  UNL     1      63.788  20.549  87.307  1.00  0.00    -0.163 N 
HETATM   18  C14 UNL     1      64.123  20.762  88.590  1.00  0.00     0.680 A 
ATOM     19  H7  UNL     1      64.049  21.213  86.578  1.00  0.00     0.187 HD
HETATM   20  N8  UNL     1      64.786  21.821  88.909  1.00  0.00    -0.234 N 
HETATM   21  N9  UNL     1      63.792  19.905  89.564  1.00  0.00    -0.170 N 
ATOM     22  H82 UNL     1      65.039  22.473  88.166  1.00  0.00     0.174 HD
ATOM     23  H81 UNL     1      65.040  21.983  89.884  1.00  0.00     0.174 HD
ATOM     24  H9  UNL     1      64.061  20.098  90.529  1.00  0.00     0.186 HD
ENDBRANCH  11  12
ENDBRANCH   7  11
BRANCH   5  25
HETATM   25  C7  UNL     1      60.769  16.098  93.869  1.00  0.00     0.099 C 
BRANCH  25  26
HETATM   26  C8  UNL     1      59.446  15.622  94.363  1.00  0.00     0.153 C 
BRANCH  26  27
HETATM   27  O4  UNL     1      58.479  16.155  93.479  1.00  0.00    -0.393 OA
ATOM     28  H4  UNL     1      57.762  16.459  94.022  1.00  0.00     0.210 HD
ENDBRANCH  26  27
BRANCH  26  29
HETATM   29  C9  UNL     1      59.365  14.110  94.195  1.00  0.00     0.170 C 
BRANCH  29  30
HETATM   30  O5  UNL     1      58.817  13.755  92.983  1.00  0.00    -0.391 OA
ATOM     31  H5  UNL     1      59.331  13.088  92.542  1.00  0.00     0.210 HD
ENDBRANCH  29  30
BRANCH  29  32
HETATM   32  C10 UNL     1      58.506  13.531  95.314  1.00  0.00     0.198 C 
BRANCH  32  33
HETATM   33  O6  UNL     1      57.704  14.495  95.881  1.00  0.00    -0.398 OA
ATOM     34  H6  UNL     1      56.903  14.616  95.385  1.00  0.00     0.209 HD
ENDBRANCH  32  33
ENDBRANCH  29  32
ENDBRANCH  26  29
ENDBRANCH  25  26
ENDBRANCH   5  25
BRANCH   1  35
HETATM   35  N3  UNL     1      64.400  20.395  92.890  1.00  0.00    -0.351 N 
ATOM     36  H3  UNL     1      65.115  19.857  92.401  1.00  0.00     0.163 HD
BRANCH  35  37
HETATM   37  C1  UNL     1      64.461  21.802  92.747  1.00  0.00     0.341 C 
BRANCH  37  38
HETATM   38  N2  UNL     1      63.269  22.295  92.077  1.00  0.00    -0.297 N 
ATOM     39  H2  UNL     1      63.133  22.093  91.086  1.00  0.00     0.184 HD
BRANCH  38  40
HETATM   40  N1  UNL     1      62.413  22.956  92.686  1.00  0.00    -0.346 N 
ATOM     41  H12 UNL     1      62.705  23.489  93.505  1.00  0.00     0.176 HD
ATOM     42  H11 UNL     1      61.439  22.971  92.382  1.00  0.00     0.176 HD
ENDBRANCH  38  40
ENDBRANCH  37  38
BRANCH  37  43
HETATM   43  O1  UNL     1      65.579  22.169  91.981  1.00  0.00    -0.359 OA
ATOM     44  H1  UNL     1      66.339  21.721  92.332  1.00  0.00     0.214 HD
ENDBRANCH  37  43
ENDBRANCH  35  37
ENDBRANCH   1  35
BRANCH   3  45
HETATM   45  C5  UNL     1      62.891  18.293  96.489  1.00  0.00     0.208 C 
HETATM   46  O2  UNL     1      62.341  18.361  97.614  1.00  0.00    -0.646 OA
HETATM   47  O3  UNL     1      64.125  17.665  96.424  1.00  0.00    -0.646 OA
ENDBRANCH   3  45
TORSDOF 16
ENDMDL
MODEL 2
REMARK VINA RESULT: -7.683274121      1.158      1.950
REMARK  16 active torsions:
REMARK  status: ('A' for Active; 'I' for Inactive)
REMARK    1  A    between atoms: N1_1  and  N2_4 
REMARK    2  A    between atoms: N2_4  and  C1_6 
REMARK    3  A    between atoms: C1_6  and  O1_7 
REMARK    4  A    between atoms: C1_6  and  N3_9 
REMARK    5  A    between atoms: N3_9  and  C2_11 
REMARK    6  A    between atoms: C4_13  and  C5_14 
REMARK    7  A    between atoms: C6_18  and  C7_19 
REMARK    8  A    between atoms: C7_19  and  C8_20 
REMARK    9  A    between atoms: C8_20  and  O4_21 
REMARK   10  A    between atoms: C8_20  and  C9_23 
REMARK   11  A    between atoms: C9_23  and  O5_24 
REMARK   12  A    between atoms: C9_23  and  C10_26 
REMARK   13  A    between atoms: C10_26  and  O6_27 
REMARK   14  A    between atoms: C11_30  and  O8_31 
REMARK   15  A    between atoms: C11_30  and  S1_33 
REMARK   16  A    between atoms: S1_33  and  C12_34 
ROOT
HETATM    1  C2  UNL     1      63.003  19.500  94.377  1.00  0.00     0.028 C 
HETATM    2  C3  UNL     1      62.225  19.586  95.620  1.00  0.00     0.102 C 
HETATM    3  C4  UNL     1      61.448  18.292  95.703  1.00  0.00     0.332 C 
HETATM    4  N4  UNL     1      61.635  17.593  94.477  1.00  0.00     0.149 N 
HETATM    5  C6  UNL     1      60.427  17.344  93.723  1.00  0.00     0.366 C 
HETATM    6  O7  UNL     1      60.554  17.920  92.478  1.00  0.00    -0.308 OA
HETATM    7  C11 UNL     1      61.738  18.626  92.431  1.00  0.00     0.261 C 
HETATM    8  C15 UNL     1      62.545  18.307  93.641  1.00  0.00     0.346 C 
ENDROOT
BRANCH   7   9
HETATM    9  O8  UNL     1      61.504  20.004  92.394  1.00  0.00    -0.355 OA
ATOM     10  H8  UNL     1      62.023  20.422  91.716  1.00  0.00     0.214 HD
ENDBRANCH   7   9
BRANCH   7  11
HETATM   11  S1  UNL     1      62.660  18.083  90.967  1.00  0.00    -0.023 SA
BRANCH  11  12
HETATM   12  C12 UNL     1      63.359  19.437  90.057  1.00  0.00     0.167 A 
HETATM   13  N5  UNL     1      63.896  20.518  90.644  1.00  0.00    -0.310 N 
HETATM   14  C13 UNL     1      64.414  21.522  89.917  1.00  0.00     0.208 A 
ATOM     15  H5  UNL     1      63.911  20.578  91.662  1.00  0.00     0.170 HD
HETATM   16  N6  UNL     1      64.986  22.673  90.525  1.00  0.00    -0.063 NA
HETATM   17  N7  UNL     1      64.404  21.462  88.574  1.00  0.00    -0.163 N 
HETATM   18  C14 UNL     1      63.864  20.376  87.999  1.00  0.00     0.680 A 
ATOM     19  H7  UNL     1      64.793  22.218  88.010  1.00  0.00     0.187 HD
HETATM   20  N8  UNL     1      63.834  20.284  86.713  1.00  0.00    -0.234 N 
HETATM   21  N9  UNL     1      63.347  19.372  88.717  1.00  0.00    -0.170 N 
ATOM     22  H82 UNL     1      64.228  21.049  86.165  1.00  0.00     0.174 HD
ATOM     23  H81 UNL     1      63.424  19.458  86.275  1.00  0.00     0.174 HD
ATOM     24  H9  UNL     1      62.945  18.560  88.248  1.00  0.00     0.186 HD
ENDBRANCH  11  12
ENDBRANCH   7  11
BRANCH   5  25
HETATM   25  C7  UNL     1      60.355  15.843  93.541  1.00  0.00     0.099 C 
BRANCH  25  26
HETATM   26  C8  UNL     1      59.005  15.255  93.777  1.00  0.00     0.153 C 
BRANCH  26  27
HETATM   27  O4  UNL     1      58.820  14.276  92.773  1.00  0.00    -0.393 OA
ATOM     28  H4  UNL     1      58.496  14.737  92.009  1.00  0.00     0.210 HD
ENDBRANCH  26  27
BRANCH  26  29
HETATM   29  C9  UNL     1      59.018  14.491  95.096  1.00  0.00     0.170 C 
BRANCH  29  30
HETATM   30  O5  UNL     1      58.165  13.411  95.074  1.00  0.00    -0.391 OA
ATOM     31  H5  UNL     1      58.443  12.726  95.670  1.00  0.00     0.210 HD
ENDBRANCH  29  30
BRANCH  29  32
HETATM   32  C10 UNL     1      58.593  15.433  96.218  1.00  0.00     0.198 C 
BRANCH  32  33
HETATM   33  O6  UNL     1      59.273  15.165  97.383  1.00  0.00    -0.398 OA
ATOM     34  H6  UNL     1      58.822  15.523  98.139  1.00  0.00     0.209 HD
ENDBRANCH  32  33
ENDBRANCH  29  32
ENDBRANCH  26  29
ENDBRANCH  25  26
ENDBRANCH   5  25
BRANCH   1  35
HETATM   35  N3  UNL     1      63.904  20.293  93.986  1.00  0.00    -0.351 N 
ATOM     36  H3  UNL     1      64.720  19.870  93.543  1.00  0.00     0.163 HD
BRANCH  35  37
HETATM   37  C1  UNL     1      63.907  21.704  94.096  1.00  0.00     0.341 C 
BRANCH  37  38
HETATM   38  N2  UNL     1      62.633  22.249  93.655  1.00  0.00    -0.297 N 
ATOM     39  H2  UNL     1      61.788  22.034  94.185  1.00  0.00     0.184 HD
BRANCH  38  40
HETATM   40  N1  UNL     1      62.553  22.969  92.648  1.00  0.00    -0.346 N 
ATOM     41  H12 UNL     1      63.417  23.290  92.212  1.00  0.00     0.176 HD
ATOM     42  H11 UNL     1      61.649  23.238  92.259  1.00  0.00     0.176 HD
ENDBRANCH  38  40
ENDBRANCH  37  38
BRANCH  37  43
HETATM   43  O1  UNL     1      64.921  22.257  93.298  1.00  0.00    -0.359 OA
ATOM     44  H1  UNL     1      65.699  21.721  93.393  1.00  0.00     0.214 HD
ENDBRANCH  37  43
ENDBRANCH  35  37
ENDBRANCH   1  35
BRANCH   3  45
HETATM   45  C5  UNL     1      61.983  17.490  96.831  1.00  0.00     0.208 C 
HETATM   46  O2  UNL     1      62.489  18.080  97.815  1.00  0.00    -0.646 OA
HETATM   47  O3  UNL     1      61.957  16.104  96.867  1.00  0.00    -0.646 OA
ENDBRANCH   3  45
TORSDOF 16
ENDMDL
MODEL 3
REMARK VINA RESULT: -7.513843827      1.215      2.106
REMARK  16 active torsions:
REMARK  status: ('A' for Active; 'I' for Inactive)
REMARK    1  A    between atoms: N1_1  and  N2_4 
REMARK    2  A    between atoms: N2_4  and  C1_6 
REMARK    3  A    between atoms: C1_6  and  O1_7 
REMARK    4  A    between atoms: C1_6  and  N3_9 
REMARK    5  A    between atoms: N3_9  and  C2_11 
REMARK    6  A    between atoms: C4_13  and  C5_14 
REMARK    7  A    between atoms: C6_18  and  C7_19 
REMARK    8  A    between atoms: C7_19  and  C8_20 
REMARK    9  A    between atoms: C8_20  and  O4_21 
REMARK   10  A    between atoms: C8_20  and  C9_23 
REMARK   11  A    between atoms: C9_23  and  O5_24 
REMARK   12  A    between atoms: C9_23  and  C10_26 
REMARK   13  A    between atoms: C10_26  and  O6_27 
REMARK   14  A    between atoms: C11_30  and  O8_31 
REMARK   15  A    between atoms: C11_30  and  S1_33 
REMARK   16  A    between atoms: S1_33  and  C12_34 
ROOT
HETATM    1  C2  UNL     1      63.745  19.671  93.616  1.00  0.00     0.028 C 
HETATM    2  C3  UNL     1      63.285  19.904  94.992  1.00  0.00     0.102 C 
HETATM    3  C4  UNL     1      62.542  18.649  95.390  1.00  0.00     0.332 C 
HETATM    4  N4  UNL     1      62.428  17.826  94.234  1.00  0.00     0.149 N 
HETATM    5  C6  UNL     1      61.075  17.540  93.815  1.00  0.00     0.366 C 
HETATM    6  O7  UNL     1      60.906  17.985  92.522  1.00  0.00    -0.308 OA
HETATM    7  C11 UNL     1      62.050  18.645  92.125  1.00  0.00     0.261 C 
HETATM    8  C15 UNL     1      63.119  18.424  93.137  1.00  0.00     0.346 C 
ENDROOT
BRANCH   7   9
HETATM    9  O8  UNL     1      61.822  20.020  92.000  1.00  0.00    -0.355 OA
ATOM     10  H8  UNL     1      62.550  20.450  91.567  1.00  0.00     0.214 HD
ENDBRANCH   7   9
BRANCH   7  11
HETATM   11  S1  UNL     1      62.595  17.931  90.550  1.00  0.00    -0.023 SA
BRANCH  11  12
HETATM   12  C12 UNL     1      63.206  19.155  89.418  1.00  0.00     0.167 A 
HETATM   13  N5  UNL     1      63.842  20.269  89.812  1.00  0.00    -0.310 N 
HETATM   14  C13 UNL     1      64.288  21.171  88.922  1.00  0.00     0.208 A 
ATOM     15  H5  UNL     1      63.989  20.435  90.809  1.00  0.00     0.170 HD
HETATM   16  N6  UNL     1      64.962  22.355  89.325  1.00  0.00    -0.063 NA
HETATM   17  N7  UNL     1      64.104  20.971  87.605  1.00  0.00    -0.163 N 
HETATM   18  C14 UNL     1      63.467  19.853  87.223  1.00  0.00     0.680 A 
ATOM     19  H7  UNL     1      64.437  21.648  86.919  1.00  0.00     0.187 HD
HETATM   20  N8  UNL     1      63.270  19.628  85.969  1.00  0.00    -0.234 N 
HETATM   21  N9  UNL     1      63.020  18.950  88.105  1.00  0.00    -0.170 N 
ATOM     22  H82 UNL     1      63.609  20.316  85.297  1.00  0.00     0.174 HD
ATOM     23  H81 UNL     1      62.786  18.778  85.678  1.00  0.00     0.174 HD
ATOM     24  H9  UNL     1      62.541  18.110  87.781  1.00  0.00     0.186 HD
ENDBRANCH  11  12
ENDBRANCH   7  11
BRANCH   5  25
HETATM   25  C7  UNL     1      60.952  16.031  93.813  1.00  0.00     0.099 C 
BRANCH  25  26
HETATM   26  C8  UNL     1      60.262  15.464  95.006  1.00  0.00     0.153 C 
BRANCH  26  27
HETATM   27  O4  UNL     1      61.282  15.022  95.880  1.00  0.00    -0.393 OA
ATOM     28  H4  UNL     1      60.992  14.186  96.226  1.00  0.00     0.210 HD
ENDBRANCH  26  27
BRANCH  26  29
HETATM   29  C9  UNL     1      59.547  16.587  95.748  1.00  0.00     0.170 C 
BRANCH  29  30
HETATM   30  O5  UNL     1      59.813  16.564  97.099  1.00  0.00    -0.391 OA
ATOM     31  H5  UNL     1      60.227  17.367  97.393  1.00  0.00     0.210 HD
ENDBRANCH  29  30
BRANCH  29  32
HETATM   32  C10 UNL     1      58.043  16.441  95.539  1.00  0.00     0.198 C 
BRANCH  32  33
HETATM   33  O6  UNL     1      57.544  17.455  94.754  1.00  0.00    -0.398 OA
ATOM     34  H6  UNL     1      58.133  17.661  94.038  1.00  0.00     0.209 HD
ENDBRANCH  32  33
ENDBRANCH  29  32
ENDBRANCH  26  29
ENDBRANCH  25  26
ENDBRANCH   5  25
BRANCH   1  35
HETATM   35  N3  UNL     1      64.533  20.393  92.944  1.00  0.00    -0.351 N 
ATOM     36  H3  UNL     1      65.158  19.906  92.301  1.00  0.00     0.163 HD
BRANCH  35  37
HETATM   37  C1  UNL     1      64.646  21.803  92.986  1.00  0.00     0.341 C 
BRANCH  37  38
HETATM   38  N2  UNL     1      63.520  22.421  92.306  1.00  0.00    -0.297 N 
ATOM     39  H2  UNL     1      63.525  22.484  91.288  1.00  0.00     0.184 HD
BRANCH  38  40
HETATM   40  N1  UNL     1      62.552  22.873  92.938  1.00  0.00    -0.346 N 
ATOM     41  H12 UNL     1      62.737  23.469  93.745  1.00  0.00     0.176 HD
ATOM     42  H11 UNL     1      61.593  22.660  92.665  1.00  0.00     0.176 HD
ENDBRANCH  38  40
ENDBRANCH  37  38
BRANCH  37  43
HETATM   43  O1  UNL     1      65.826  22.221  92.352  1.00  0.00    -0.359 OA
ATOM     44  H1  UNL     1      66.102  21.534  91.757  1.00  0.00     0.214 HD
ENDBRANCH  37  43
ENDBRANCH  35  37
ENDBRANCH   1  35
BRANCH   3  45
HETATM   45  C5  UNL     1      63.324  17.948  96.438  1.00  0.00     0.208 C 
HETATM   46  O2  UNL     1      64.529  18.251  96.607  1.00  0.00    -0.646 OA
HETATM   47  O3  UNL     1      62.797  16.961  97.257  1.00  0.00    -0.646 OA
ENDBRANCH   3  45
TORSDOF 16
ENDMDL
MODEL 4
REMARK VINA RESULT: -7.460586228      2.657      6.585
REMARK  16 active torsions:
REMARK  status: ('A' for Active; 'I' for Inactive)
REMARK    1  A    between atoms: N1_1  and  N2_4 
REMARK    2  A    between atoms: N2_4  and  C1_6 
REMARK    3  A    between atoms: C1_6  and  O1_7 
REMARK    4  A    between atoms: C1_6  and  N3_9 
REMARK    5  A    between atoms: N3_9  and  C2_11 
REMARK    6  A    between atoms: C4_13  and  C5_14 
REMARK    7  A    between atoms: C6_18  and  C7_19 
REMARK    8  A    between atoms: C7_19  and  C8_20 
REMARK    9  A    between atoms: C8_20  and  O4_21 
REMARK   10  A    between atoms: C8_20  and  C9_23 
REMARK   11  A    between atoms: C9_23  and  O5_24 
REMARK   12  A    between atoms: C9_23  and  C10_26 
REMARK   13  A    between atoms: C10_26  and  O6_27 
REMARK   14  A    between atoms: C11_30  and  O8_31 
REMARK   15  A    between atoms: C11_30  and  S1_33 
REMARK   16  A    between atoms: S1_33  and  C12_34 
ROOT
HETATM    1  C2  UNL     1      63.862  21.523  89.709  1.00  0.00     0.028 C 
HETATM    2  C3  UNL     1      64.235  22.933  89.886  1.00  0.00     0.102 C 
HETATM    3  C4  UNL     1      65.063  22.978  91.150  1.00  0.00     0.332 C 
HETATM    4  N4  UNL     1      65.003  21.691  91.756  1.00  0.00     0.149 N 
HETATM    5  C6  UNL     1      64.427  21.663  93.082  1.00  0.00     0.366 C 
HETATM    6  O7  UNL     1      63.338  20.819  93.075  1.00  0.00    -0.308 OA
HETATM    7  C11 UNL     1      63.114  20.389  91.784  1.00  0.00     0.261 C 
HETATM    8  C15 UNL     1      64.263  20.795  90.928  1.00  0.00     0.346 C 
ENDROOT
BRANCH   7   9
HETATM    9  O8  UNL     1      61.942  20.945  91.262  1.00  0.00    -0.355 OA
ATOM     10  H8  UNL     1      61.172  20.507  91.606  1.00  0.00     0.214 HD
ENDBRANCH   7   9
BRANCH   7  11
HETATM   11  S1  UNL     1      63.023  18.578  91.802  1.00  0.00    -0.023 SA
BRANCH  11  12
HETATM   12  C12 UNL     1      61.567  17.973  92.617  1.00  0.00     0.167 A 
HETATM   13  N5  UNL     1      61.379  16.680  92.923  1.00  0.00    -0.310 N 
HETATM   14  C13 UNL     1      60.260  16.265  93.540  1.00  0.00     0.208 A 
ATOM     15  H5  UNL     1      62.100  16.000  92.682  1.00  0.00     0.170 HD
HETATM   16  N6  UNL     1      60.048  14.898  93.871  1.00  0.00    -0.063 NA
HETATM   17  N7  UNL     1      59.299  17.145  93.866  1.00  0.00    -0.163 N 
HETATM   18  C14 UNL     1      59.498  18.436  93.555  1.00  0.00     0.680 A 
ATOM     19  H7  UNL     1      58.444  16.843  94.334  1.00  0.00     0.187 HD
HETATM   20  N8  UNL     1      58.597  19.310  93.849  1.00  0.00    -0.234 N 
HETATM   21  N9  UNL     1      60.611  18.857  92.940  1.00  0.00    -0.170 N 
ATOM     22  H82 UNL     1      57.749  18.989  94.317  1.00  0.00     0.174 HD
ATOM     23  H81 UNL     1      58.749  20.291  93.613  1.00  0.00     0.174 HD
ATOM     24  H9  UNL     1      60.731  19.845  92.719  1.00  0.00     0.186 HD
ENDBRANCH  11  12
ENDBRANCH   7  11
BRANCH   5  25
HETATM   25  C7  UNL     1      65.486  21.059  93.980  1.00  0.00     0.099 C 
BRANCH  25  26
HETATM   26  C8  UNL     1      65.139  21.056  95.430  1.00  0.00     0.153 C 
BRANCH  26  27
HETATM   27  O4  UNL     1      63.923  21.768  95.547  1.00  0.00    -0.393 OA
ATOM     28  H4  UNL     1      63.899  22.376  94.818  1.00  0.00     0.210 HD
ENDBRANCH  26  27
BRANCH  26  29
HETATM   29  C9  UNL     1      64.822  19.629  95.863  1.00  0.00     0.170 C 
BRANCH  29  30
HETATM   30  O5  UNL     1      64.918  18.739  94.817  1.00  0.00    -0.391 OA
ATOM     31  H5  UNL     1      64.065  18.466  94.503  1.00  0.00     0.210 HD
ENDBRANCH  29  30
BRANCH  29  32
HETATM   32  C10 UNL     1      63.403  19.585  96.420  1.00  0.00     0.198 C 
BRANCH  32  33
HETATM   33  O6  UNL     1      62.480  19.353  95.427  1.00  0.00    -0.398 OA
ATOM     34  H6  UNL     1      61.930  18.605  95.632  1.00  0.00     0.209 HD
ENDBRANCH  32  33
ENDBRANCH  29  32
ENDBRANCH  26  29
ENDBRANCH  25  26
ENDBRANCH   5  25
BRANCH   1  35
HETATM   35  N3  UNL     1      63.298  21.005  88.706  1.00  0.00    -0.351 N 
ATOM     36  H3  UNL     1      62.427  21.438  88.400  1.00  0.00     0.163 HD
BRANCH  35  37
HETATM   37  C1  UNL     1      63.743  19.888  87.959  1.00  0.00     0.341 C 
BRANCH  37  38
HETATM   38  N2  UNL     1      63.334  20.013  86.569  1.00  0.00    -0.297 N 
ATOM     39  H2  UNL     1      63.771  20.725  85.982  1.00  0.00     0.184 HD
BRANCH  38  40
HETATM   40  N1  UNL     1      62.465  19.273  86.082  1.00  0.00    -0.346 N 
ATOM     41  H12 UNL     1      62.719  18.310  85.861  1.00  0.00     0.176 HD
ATOM     42  H11 UNL     1      61.519  19.610  85.905  1.00  0.00     0.176 HD
ENDBRANCH  38  40
ENDBRANCH  37  38
BRANCH  37  43
HETATM   43  O1  UNL     1      63.194  18.703  88.473  1.00  0.00    -0.359 OA
ATOM     44  H1  UNL     1      63.673  18.470  89.259  1.00  0.00     0.214 HD
ENDBRANCH  37  43
ENDBRANCH  35  37
ENDBRANCH   1  35
BRANCH   3  45
HETATM   45  C5  UNL     1      66.464  23.304  90.788  1.00  0.00     0.208 C 
HETATM   46  O2  UNL     1      67.344  23.297  91.681  1.00  0.00    -0.646 OA
HETATM   47  O3  UNL     1      66.870  23.621  89.501  1.00  0.00    -0.646 OA
ENDBRANCH   3  45
TORSDOF 16
ENDMDL
MODEL 5
REMARK VINA RESULT: -7.452633621      4.532      7.438
REMARK  16 active torsions:
REMARK  status: ('A' for Active; 'I' for Inactive)
REMARK    1  A    between atoms: N1_1  and  N2_4 
REMARK    2  A    between atoms: N2_4  and  C1_6 
REMARK    3  A    between atoms: C1_6  and  O1_7 
REMARK    4  A    between atoms: C1_6  and  N3_9 
REMARK    5  A    between atoms: N3_9  and  C2_11 
REMARK    6  A    between atoms: C4_13  and  C5_14 
REMARK    7  A    between atoms: C6_18  and  C7_19 
REMARK    8  A    between atoms: C7_19  and  C8_20 
REMARK    9  A    between atoms: C8_20  and  O4_21 
REMARK   10  A    between atoms: C8_20  and  C9_23 
REMARK   11  A    between atoms: C9_23  and  O5_24 
REMARK   12  A    between atoms: C9_23  and  C10_26 
REMARK   13  A    between atoms: C10_26  and  O6_27 
REMARK   14  A    between atoms: C11_30  and  O8_31 
REMARK   15  A    between atoms: C11_30  and  S1_33 
REMARK   16  A    between atoms: S1_33  and  C12_34 
ROOT
HETATM    1  C2  UNL     1      66.374  22.277  93.406  1.00  0.00     0.028 C 
HETATM    2  C3  UNL     1      65.526  21.600  94.397  1.00  0.00     0.102 C 
HETATM    3  C4  UNL     1      64.413  20.954  93.604  1.00  0.00     0.332 C 
HETATM    4  N4  UNL     1      64.523  21.400  92.256  1.00  0.00     0.149 N 
HETATM    5  C6  UNL     1      63.380  22.129  91.755  1.00  0.00     0.366 C 
HETATM    6  O7  UNL     1      63.793  23.379  91.351  1.00  0.00    -0.308 OA
HETATM    7  C11 UNL     1      65.126  23.534  91.671  1.00  0.00     0.261 C 
HETATM    8  C15 UNL     1      65.680  22.222  92.106  1.00  0.00     0.346 C 
ENDROOT
BRANCH   7   9
HETATM    9  O8  UNL     1      65.293  24.462  92.704  1.00  0.00    -0.355 OA
ATOM     10  H8  UNL     1      65.819  24.100  93.408  1.00  0.00     0.214 HD
ENDBRANCH   7   9
BRANCH   7  11
HETATM   11  S1  UNL     1      66.006  24.061  90.175  1.00  0.00    -0.023 SA
BRANCH  11  12
HETATM   12  C12 UNL     1      67.173  25.362  90.490  1.00  0.00     0.167 A 
HETATM   13  N5  UNL     1      67.970  25.389  91.570  1.00  0.00    -0.310 N 
HETATM   14  C13 UNL     1      68.839  26.394  91.770  1.00  0.00     0.208 A 
ATOM     15  H5  UNL     1      67.914  24.632  92.252  1.00  0.00     0.170 HD
HETATM   16  N6  UNL     1      69.689  26.436  92.909  1.00  0.00    -0.063 NA
HETATM   17  N7  UNL     1      68.927  27.400  90.884  1.00  0.00    -0.163 N 
HETATM   18  C14 UNL     1      68.125  27.361  89.808  1.00  0.00     0.680 A 
ATOM     19  H7  UNL     1      69.582  28.170  91.025  1.00  0.00     0.187 HD
HETATM   20  N8  UNL     1      68.180  28.311  88.938  1.00  0.00    -0.234 N 
HETATM   21  N9  UNL     1      67.257  26.363  89.602  1.00  0.00    -0.170 N 
ATOM     22  H82 UNL     1      68.841  29.072  89.095  1.00  0.00     0.174 HD
ATOM     23  H81 UNL     1      67.570  28.281  88.120  1.00  0.00     0.174 HD
ATOM     24  H9  UNL     1      66.663  26.364  88.773  1.00  0.00     0.186 HD
ENDBRANCH  11  12
ENDBRANCH   7  11
BRANCH   5  25
HETATM   25  C7  UNL     1      62.908  21.371  90.533  1.00  0.00     0.099 C 
BRANCH  25  26
HETATM   26  C8  UNL     1      63.957  20.538  89.878  1.00  0.00     0.153 C 
BRANCH  26  27
HETATM   27  O4  UNL     1      63.382  19.261  89.681  1.00  0.00    -0.393 OA
ATOM     28  H4  UNL     1      63.951  18.803  89.074  1.00  0.00     0.210 HD
ENDBRANCH  26  27
BRANCH  26  29
HETATM   29  C9  UNL     1      64.227  21.084  88.481  1.00  0.00     0.170 C 
BRANCH  29  30
HETATM   30  O5  UNL     1      63.582  22.281  88.262  1.00  0.00    -0.391 OA
ATOM     31  H5  UNL     1      63.333  22.390  87.352  1.00  0.00     0.210 HD
ENDBRANCH  29  30
BRANCH  29  32
HETATM   32  C10 UNL     1      63.746  20.069  87.450  1.00  0.00     0.198 C 
BRANCH  32  33
HETATM   33  O6  UNL     1      64.135  20.421  86.178  1.00  0.00    -0.398 OA
ATOM     34  H6  UNL     1      63.753  21.251  85.915  1.00  0.00     0.209 HD
ENDBRANCH  32  33
ENDBRANCH  29  32
ENDBRANCH  26  29
ENDBRANCH  25  26
ENDBRANCH   5  25
BRANCH   1  35
HETATM   35  N3  UNL     1      67.498  22.817  93.607  1.00  0.00    -0.351 N 
ATOM     36  H3  UNL     1      67.486  23.789  93.915  1.00  0.00     0.163 HD
BRANCH  35  37
HETATM   37  C1  UNL     1      68.772  22.220  93.452  1.00  0.00     0.341 C 
BRANCH  37  38
HETATM   38  N2  UNL     1      69.289  21.791  94.741  1.00  0.00    -0.297 N 
ATOM     39  H2  UNL     1      68.637  21.520  95.477  1.00  0.00     0.184 HD
BRANCH  38  40
HETATM   40  N1  UNL     1      70.510  21.746  94.965  1.00  0.00    -0.346 N 
ATOM     41  H12 UNL     1      71.118  21.347  94.251  1.00  0.00     0.176 HD
ATOM     42  H11 UNL     1      70.902  22.099  95.838  1.00  0.00     0.176 HD
ENDBRANCH  38  40
ENDBRANCH  37  38
BRANCH  37  43
HETATM   43  O1  UNL     1      69.679  23.136  92.898  1.00  0.00    -0.359 OA
ATOM     44  H1  UNL     1      70.068  22.739  92.128  1.00  0.00     0.214 HD
ENDBRANCH  37  43
ENDBRANCH  35  37
ENDBRANCH   1  35
BRANCH   3  45
HETATM   45  C5  UNL     1      64.580  19.481  93.667  1.00  0.00     0.208 C 
HETATM   46  O2  UNL     1      65.255  18.982  94.598  1.00  0.00    -0.646 OA
HETATM   47  O3  UNL     1      64.027  18.606  92.745  1.00  0.00    -0.646 OA
ENDBRANCH   3  45
TORSDOF 16
ENDMDL
