MODEL 1
REMARK VINA RESULT: -5.689983976      0.000      0.000
REMARK  2 active torsions:
REMARK  status: ('A' for Active; 'I' for Inactive)
REMARK    1  A    between atoms: C1_4  and  C2_6 
REMARK    2  A    between atoms: N3_8  and  C4_9 
ROOT
HETATM    1  C4  UNL     1       9.495  -5.755   0.005  1.00  0.00     0.162 C 
HETATM    2  C5  UNL     1       8.579  -6.245  -1.079  1.00  0.00     0.046 C 
HETATM    3  C6  UNL     1       7.909  -7.519  -0.617  1.00  0.00    -0.011 C 
HETATM    4  C7  UNL     1       7.157  -7.230   0.653  1.00  0.00     0.009 C 
HETATM    5  C8  UNL     1       8.128  -6.911   1.751  1.00  0.00    -0.011 C 
HETATM    6  C9  UNL     1       9.187  -7.958   1.935  1.00  0.00     0.009 C 
HETATM    7  C10 UNL     1       9.941  -8.120   0.649  1.00  0.00    -0.011 C 
HETATM    8  C11 UNL     1       8.948  -8.592  -0.413  1.00  0.00     0.009 C 
HETATM    9  C12 UNL     1      10.562  -6.849   0.165  1.00  0.00     0.046 C 
HETATM   10  C13 UNL     1       8.836  -5.610   1.346  1.00  0.00     0.046 C 
ENDROOT
BRANCH   1  11
HETATM   11  N3  UNL     1      10.197  -4.558  -0.304  1.00  0.00     0.114 N 
HETATM   12  C2  UNL     1      11.106  -4.479  -1.424  1.00  0.00     0.315 A 
HETATM   13  C3  UNL     1      11.588  -4.360  -0.043  1.00  0.00     0.318 A 
BRANCH  12  14
HETATM   14  C1  UNL     1      10.920  -3.300  -2.295  1.00  0.00     0.122 C 
HETATM   15  N1  UNL     1       9.744  -2.993  -2.707  1.00  0.00    -0.389 N 
ATOM     16  H12 UNL     1       9.616  -2.179  -3.309  1.00  0.00     0.157 HD
ATOM     17  H11 UNL     1       8.925  -3.543  -2.449  1.00  0.00     0.157 HD
HETATM   18  N2  UNL     1      12.059  -2.534  -2.656  1.00  0.00    -0.086 NA
ENDBRANCH  12  14
ENDBRANCH   1  11
TORSDOF 2
ENDMDL
MODEL 2
REMARK VINA RESULT: -5.600157496      0.158      1.833
REMARK  2 active torsions:
REMARK  status: ('A' for Active; 'I' for Inactive)
REMARK    1  A    between atoms: C1_4  and  C2_6 
REMARK    2  A    between atoms: N3_8  and  C4_9 
ROOT
HETATM    1  C4  UNL     1       9.654  -5.717   0.146  1.00  0.00     0.162 C 
HETATM    2  C5  UNL     1       8.757  -5.581   1.342  1.00  0.00     0.046 C 
HETATM    3  C6  UNL     1       8.099  -6.914   1.617  1.00  0.00    -0.011 C 
HETATM    4  C7  UNL     1       9.174  -7.940   1.846  1.00  0.00     0.009 C 
HETATM    5  C8  UNL     1       9.935  -8.166   0.573  1.00  0.00    -0.011 C 
HETATM    6  C9  UNL     1       9.057  -8.505  -0.595  1.00  0.00     0.009 C 
HETATM    7  C10 UNL     1       8.073  -7.392  -0.805  1.00  0.00    -0.011 C 
HETATM    8  C11 UNL     1       7.214  -7.290   0.456  1.00  0.00     0.009 C 
HETATM    9  C12 UNL     1       8.723  -6.063  -1.026  1.00  0.00     0.046 C 
HETATM   10  C13 UNL     1      10.642  -6.843   0.245  1.00  0.00     0.046 C 
ENDROOT
BRANCH   1  11
HETATM   11  N3  UNL     1      10.336  -4.527  -0.227  1.00  0.00     0.114 N 
HETATM   12  C2  UNL     1      11.178  -4.472  -1.399  1.00  0.00     0.315 A 
HETATM   13  C3  UNL     1      11.739  -4.323  -0.051  1.00  0.00     0.318 A 
BRANCH  12  14
HETATM   14  C1  UNL     1      10.940  -3.311  -2.283  1.00  0.00     0.122 C 
HETATM   15  N1  UNL     1       9.749  -3.046  -2.678  1.00  0.00    -0.389 N 
ATOM     16  H12 UNL     1       9.585  -2.245  -3.288  1.00  0.00     0.157 HD
ATOM     17  H11 UNL     1       8.952  -3.618  -2.399  1.00  0.00     0.157 HD
HETATM   18  N2  UNL     1      12.049  -2.515  -2.673  1.00  0.00    -0.086 NA
ENDBRANCH  12  14
ENDBRANCH   1  11
TORSDOF 2
ENDMDL
MODEL 3
REMARK VINA RESULT: -5.456141674      0.299      1.863
REMARK  2 active torsions:
REMARK  status: ('A' for Active; 'I' for Inactive)
REMARK    1  A    between atoms: C1_4  and  C2_6 
REMARK    2  A    between atoms: N3_8  and  C4_9 
ROOT
HETATM    1  C4  UNL     1       9.526  -6.042   0.157  1.00  0.00     0.162 C 
HETATM    2  C5  UNL     1      10.504  -7.152   0.410  1.00  0.00     0.046 C 
HETATM    3  C6  UNL     1       9.741  -8.408   0.760  1.00  0.00    -0.011 C 
HETATM    4  C7  UNL     1       8.814  -8.738  -0.377  1.00  0.00     0.009 C 
HETATM    5  C8  UNL     1       7.751  -7.684  -0.481  1.00  0.00    -0.011 C 
HETATM    6  C9  UNL     1       7.019  -7.445   0.807  1.00  0.00     0.009 C 
HETATM    7  C10 UNL     1       8.007  -7.039   1.861  1.00  0.00    -0.011 C 
HETATM    8  C11 UNL     1       8.986  -8.199   2.048  1.00  0.00     0.009 C 
HETATM    9  C12 UNL     1       8.798  -5.825   1.493  1.00  0.00     0.046 C 
HETATM   10  C13 UNL     1       8.465  -6.376  -0.851  1.00  0.00     0.046 C 
ENDROOT
BRANCH   1  11
HETATM   11  N3  UNL     1      10.115  -4.792  -0.180  1.00  0.00     0.114 N 
HETATM   12  C2  UNL     1      11.014  -4.656  -1.303  1.00  0.00     0.315 A 
HETATM   13  C3  UNL     1      11.481  -4.460   0.075  1.00  0.00     0.318 A 
BRANCH  12  14
HETATM   14  C1  UNL     1      10.720  -3.521  -2.202  1.00  0.00     0.122 C 
HETATM   15  N1  UNL     1       9.519  -3.324  -2.607  1.00  0.00    -0.389 N 
ATOM     16  H12 UNL     1       9.316  -2.540  -3.227  1.00  0.00     0.157 HD
ATOM     17  H11 UNL     1       8.751  -3.934  -2.324  1.00  0.00     0.157 HD
HETATM   18  N2  UNL     1      11.787  -2.672  -2.596  1.00  0.00    -0.086 NA
ENDBRANCH  12  14
ENDBRANCH   1  11
TORSDOF 2
ENDMDL
MODEL 4
REMARK VINA RESULT: -5.362012458      1.246      2.343
REMARK  2 active torsions:
REMARK  status: ('A' for Active; 'I' for Inactive)
REMARK    1  A    between atoms: C1_4  and  C2_6 
REMARK    2  A    between atoms: N3_8  and  C4_9 
ROOT
HETATM    1  C4  UNL     1       9.272  -6.535  -0.059  1.00  0.00     0.162 C 
HETATM    2  C5  UNL     1       8.751  -5.675   1.055  1.00  0.00     0.046 C 
HETATM    3  C6  UNL     1       8.585  -6.524   2.295  1.00  0.00    -0.011 C 
HETATM    4  C7  UNL     1       9.917  -7.130   2.642  1.00  0.00     0.009 C 
HETATM    5  C8  UNL     1      10.315  -8.111   1.579  1.00  0.00    -0.011 C 
HETATM    6  C9  UNL     1       9.267  -9.148   1.301  1.00  0.00     0.009 C 
HETATM    7  C10 UNL     1       8.000  -8.461   0.881  1.00  0.00    -0.011 C 
HETATM    8  C11 UNL     1       7.542  -7.584   2.046  1.00  0.00     0.009 C 
HETATM    9  C12 UNL     1       8.175  -7.581  -0.315  1.00  0.00     0.046 C 
HETATM   10  C13 UNL     1      10.513  -7.304   0.288  1.00  0.00     0.046 C 
ENDROOT
BRANCH   1  11
HETATM   11  N3  UNL     1       9.470  -5.858  -1.293  1.00  0.00     0.114 N 
HETATM   12  C2  UNL     1       9.200  -4.446  -1.435  1.00  0.00     0.315 A 
HETATM   13  C3  UNL     1       8.408  -5.449  -2.158  1.00  0.00     0.318 A 
BRANCH  12  14
HETATM   14  C1  UNL     1      10.272  -3.670  -2.092  1.00  0.00     0.122 C 
HETATM   15  N1  UNL     1       9.968  -2.686  -2.857  1.00  0.00    -0.389 N 
ATOM     16  H12 UNL     1      10.708  -2.150  -3.310  1.00  0.00     0.157 HD
ATOM     17  H11 UNL     1       8.998  -2.419  -3.027  1.00  0.00     0.157 HD
HETATM   18  N2  UNL     1      11.622  -4.040  -1.856  1.00  0.00    -0.086 NA
ENDBRANCH  12  14
ENDBRANCH   1  11
TORSDOF 2
ENDMDL
MODEL 5
REMARK VINA RESULT: -5.329758813      2.983      4.902
REMARK  2 active torsions:
REMARK  status: ('A' for Active; 'I' for Inactive)
REMARK    1  A    between atoms: C1_4  and  C2_6 
REMARK    2  A    between atoms: N3_8  and  C4_9 
ROOT
HETATM    1  C4  UNL     1       8.602  -7.289  -0.458  1.00  0.00     0.162 C 
HETATM    2  C5  UNL     1      10.058  -7.613  -0.289  1.00  0.00     0.046 C 
HETATM    3  C6  UNL     1      10.755  -6.428   0.340  1.00  0.00    -0.011 C 
HETATM    4  C7  UNL     1      10.098  -6.131   1.660  1.00  0.00     0.009 C 
HETATM    5  C8  UNL     1       8.697  -5.647   1.426  1.00  0.00    -0.011 C 
HETATM    6  C9  UNL     1       8.615  -4.493   0.470  1.00  0.00     0.009 C 
HETATM    7  C10 UNL     1       9.215  -4.904  -0.843  1.00  0.00    -0.011 C 
HETATM    8  C11 UNL     1      10.684  -5.246  -0.593  1.00  0.00     0.009 C 
HETATM    9  C12 UNL     1       8.558  -6.107  -1.440  1.00  0.00     0.046 C 
HETATM   10  C13 UNL     1       7.928  -6.817   0.797  1.00  0.00     0.046 C 
ENDROOT
BRANCH   1  11
HETATM   11  N3  UNL     1       7.825  -8.323  -1.048  1.00  0.00     0.114 N 
HETATM   12  C2  UNL     1       6.453  -8.554  -0.660  1.00  0.00     0.315 A 
HETATM   13  C3  UNL     1       7.498  -9.549  -0.389  1.00  0.00     0.318 A 
BRANCH  12  14
HETATM   14  C1  UNL     1       5.504  -8.699  -1.784  1.00  0.00     0.122 C 
HETATM   15  N1  UNL     1       4.281  -9.008  -1.548  1.00  0.00    -0.389 N 
ATOM     16  H12 UNL     1       3.627  -9.107  -2.324  1.00  0.00     0.157 HD
ATOM     17  H11 UNL     1       3.940  -9.158  -0.599  1.00  0.00     0.157 HD
HETATM   18  N2  UNL     1       5.978  -8.490  -3.105  1.00  0.00    -0.086 NA
ENDBRANCH  12  14
ENDBRANCH   1  11
TORSDOF 2
ENDMDL
