MODEL 1
REMARK VINA RESULT: -5.677535467      0.000      0.000
REMARK  1 active torsions:
REMARK  status: ('A' for Active; 'I' for Inactive)
REMARK       I    between atoms: N3_4  and  C2_6 
REMARK    1  A    between atoms: C2_6  and  C3_8 
ROOT
HETATM    1  C3  UNL     1       8.647  -6.821  -0.935  1.00  0.00     0.042 C 
HETATM    2  C4  UNL     1      10.027  -7.363  -0.553  1.00  0.00     0.024 C 
HETATM    3  C5  UNL     1      10.696  -6.386   0.375  1.00  0.00    -0.013 C 
HETATM    4  C6  UNL     1      10.874  -5.073  -0.326  1.00  0.00     0.009 C 
HETATM    5  C7  UNL     1       9.517  -4.489  -0.638  1.00  0.00    -0.013 C 
HETATM    6  C8  UNL     1       8.685  -4.316   0.627  1.00  0.00     0.009 C 
HETATM    7  C9  UNL     1       8.527  -5.664   1.247  1.00  0.00    -0.013 C 
HETATM    8  C10 UNL     1       9.912  -6.156   1.644  1.00  0.00     0.009 C 
HETATM    9  C11 UNL     1       7.882  -6.680   0.369  1.00  0.00     0.024 C 
HETATM   10  C12 UNL     1       8.759  -5.437  -1.530  1.00  0.00     0.024 C 
ENDROOT
BRANCH   1  11
HETATM   11  C2  UNL     1       7.970  -7.705  -1.880  1.00  0.00     0.232 C 
HETATM   12  N3  UNL     1       7.529  -7.291  -3.170  1.00  0.00    -0.303 N 
HETATM   13  C1  UNL     1       6.454  -7.790  -3.655  1.00  0.00     0.203 C 
ATOM     14  H3  UNL     1       8.065  -6.604  -3.702  1.00  0.00     0.171 HD
HETATM   15  N1  UNL     1       5.688  -8.744  -2.946  1.00  0.00    -0.066 NA
HETATM   16  N2  UNL     1       6.020  -7.377  -4.936  1.00  0.00    -0.066 NA
HETATM   17  O1  UNL     1       7.751  -8.901  -1.568  1.00  0.00    -0.272 OA
ENDBRANCH   1  11
TORSDOF 1
ENDMDL
MODEL 2
REMARK VINA RESULT: -5.662794447      3.663      6.271
REMARK  1 active torsions:
REMARK  status: ('A' for Active; 'I' for Inactive)
REMARK       I    between atoms: N3_4  and  C2_6 
REMARK    1  A    between atoms: C2_6  and  C3_8 
ROOT
HETATM    1  C3  UNL     1       5.818  -8.935  -2.072  1.00  0.00     0.042 C 
HETATM    2  C4  UNL     1       4.357  -8.681  -1.693  1.00  0.00     0.024 C 
HETATM    3  C5  UNL     1       3.477  -9.073  -2.848  1.00  0.00    -0.013 C 
HETATM    4  C6  UNL     1       3.816  -8.231  -4.041  1.00  0.00     0.009 C 
HETATM    5  C7  UNL     1       5.231  -8.531  -4.474  1.00  0.00    -0.013 C 
HETATM    6  C8  UNL     1       5.411 -10.011  -4.791  1.00  0.00     0.009 C 
HETATM    7  C9  UNL     1       5.086 -10.776  -3.551  1.00  0.00    -0.013 C 
HETATM    8  C10 UNL     1       3.620 -10.527  -3.224  1.00  0.00     0.009 C 
HETATM    9  C11 UNL     1       5.917 -10.421  -2.367  1.00  0.00     0.024 C 
HETATM   10  C12 UNL     1       6.176  -8.209  -3.347  1.00  0.00     0.024 C 
ENDROOT
BRANCH   1  11
HETATM   11  C2  UNL     1       6.725  -8.522  -1.004  1.00  0.00     0.232 C 
HETATM   12  N3  UNL     1       6.701  -9.077   0.308  1.00  0.00    -0.303 N 
HETATM   13  C1  UNL     1       6.975  -8.328   1.310  1.00  0.00     0.203 C 
ATOM     14  H3  UNL     1       6.468 -10.061   0.448  1.00  0.00     0.171 HD
HETATM   15  N1  UNL     1       7.302  -6.961   1.153  1.00  0.00    -0.066 NA
HETATM   16  N2  UNL     1       6.951  -8.882   2.611  1.00  0.00    -0.066 NA
HETATM   17  O1  UNL     1       7.584  -7.633  -1.223  1.00  0.00    -0.272 OA
ENDBRANCH   1  11
TORSDOF 1
ENDMDL
MODEL 3
REMARK VINA RESULT: -5.660376521      0.114      1.837
REMARK  1 active torsions:
REMARK  status: ('A' for Active; 'I' for Inactive)
REMARK       I    between atoms: N3_4  and  C2_6 
REMARK    1  A    between atoms: C2_6  and  C3_8 
ROOT
HETATM    1  C3  UNL     1       8.692  -6.734  -0.928  1.00  0.00     0.042 C 
HETATM    2  C4  UNL     1       8.891  -5.354  -1.559  1.00  0.00     0.024 C 
HETATM    3  C5  UNL     1       9.547  -4.447  -0.554  1.00  0.00    -0.013 C 
HETATM    4  C6  UNL     1       8.658  -4.303   0.644  1.00  0.00     0.009 C 
HETATM    5  C7  UNL     1       8.517  -5.645   1.322  1.00  0.00    -0.013 C 
HETATM    6  C8  UNL     1       9.876  -6.206   1.724  1.00  0.00     0.009 C 
HETATM    7  C9  UNL     1      10.687  -6.348   0.480  1.00  0.00    -0.013 C 
HETATM    8  C10 UNL     1      10.893  -4.955  -0.100  1.00  0.00     0.009 C 
HETATM    9  C11 UNL     1      10.081  -7.225  -0.560  1.00  0.00     0.024 C 
HETATM   10  C12 UNL     1       7.908  -6.629   0.359  1.00  0.00     0.024 C 
ENDROOT
BRANCH   1  11
HETATM   11  C2  UNL     1       8.009  -7.645  -1.843  1.00  0.00     0.232 C 
HETATM   12  N3  UNL     1       7.540  -7.261  -3.132  1.00  0.00    -0.303 N 
HETATM   13  C1  UNL     1       6.462  -7.783  -3.588  1.00  0.00     0.203 C 
ATOM     14  H3  UNL     1       8.057  -6.578  -3.687  1.00  0.00     0.171 HD
HETATM   15  N1  UNL     1       5.721  -8.732  -2.846  1.00  0.00    -0.066 NA
HETATM   16  N2  UNL     1       5.999  -7.400  -4.868  1.00  0.00    -0.066 NA
HETATM   17  O1  UNL     1       7.810  -8.837  -1.504  1.00  0.00    -0.272 OA
ENDBRANCH   1  11
TORSDOF 1
ENDMDL
MODEL 4
REMARK VINA RESULT: -5.591316739      0.109      1.831
REMARK  1 active torsions:
REMARK  status: ('A' for Active; 'I' for Inactive)
REMARK       I    between atoms: N3_4  and  C2_6 
REMARK    1  A    between atoms: C2_6  and  C3_8 
ROOT
HETATM    1  C3  UNL     1       8.620  -6.730  -0.900  1.00  0.00     0.042 C 
HETATM    2  C4  UNL     1       7.819  -6.577   0.395  1.00  0.00     0.024 C 
HETATM    3  C5  UNL     1       8.562  -5.655   1.323  1.00  0.00    -0.013 C 
HETATM    4  C6  UNL     1       9.898  -6.248   1.653  1.00  0.00     0.009 C 
HETATM    5  C7  UNL     1      10.729  -6.331   0.395  1.00  0.00    -0.013 C 
HETATM    6  C8  UNL     1      10.893  -4.961  -0.251  1.00  0.00     0.009 C 
HETATM    7  C9  UNL     1       9.527  -4.453  -0.576  1.00  0.00    -0.013 C 
HETATM    8  C10 UNL     1       8.773  -4.281   0.735  1.00  0.00     0.009 C 
HETATM    9  C11 UNL     1       8.737  -5.333  -1.482  1.00  0.00     0.024 C 
HETATM   10  C12 UNL     1      10.025  -7.204  -0.610  1.00  0.00     0.024 C 
ENDROOT
BRANCH   1  11
HETATM   11  C2  UNL     1       7.971  -7.660  -1.821  1.00  0.00     0.232 C 
HETATM   12  N3  UNL     1       7.507  -7.290  -3.116  1.00  0.00    -0.303 N 
HETATM   13  C1  UNL     1       6.448  -7.840  -3.582  1.00  0.00     0.203 C 
ATOM     14  H3  UNL     1       8.012  -6.594  -3.666  1.00  0.00     0.171 HD
HETATM   15  N1  UNL     1       5.724  -8.807  -2.848  1.00  0.00    -0.066 NA
HETATM   16  N2  UNL     1       5.990  -7.471  -4.868  1.00  0.00    -0.066 NA
HETATM   17  O1  UNL     1       7.801  -8.857  -1.483  1.00  0.00    -0.272 OA
ENDBRANCH   1  11
TORSDOF 1
ENDMDL
MODEL 5
REMARK VINA RESULT: -5.566664362      3.661      6.259
REMARK  1 active torsions:
REMARK  status: ('A' for Active; 'I' for Inactive)
REMARK       I    between atoms: N3_4  and  C2_6 
REMARK    1  A    between atoms: C2_6  and  C3_8 
ROOT
HETATM    1  C3  UNL     1       5.883  -8.925  -2.104  1.00  0.00     0.042 C 
HETATM    2  C4  UNL     1       6.061 -10.409  -2.435  1.00  0.00     0.024 C 
HETATM    3  C5  UNL     1       5.094 -10.787  -3.523  1.00  0.00    -0.013 C 
HETATM    4  C6  UNL     1       3.691 -10.568  -3.043  1.00  0.00     0.009 C 
HETATM    5  C7  UNL     1       3.478  -9.095  -2.788  1.00  0.00    -0.013 C 
HETATM    6  C8  UNL     1       3.753  -8.271  -4.041  1.00  0.00     0.009 C 
HETATM    7  C9  UNL     1       5.171  -8.518  -4.436  1.00  0.00    -0.013 C 
HETATM    8  C10 UNL     1       5.302  -9.993  -4.790  1.00  0.00     0.009 C 
HETATM    9  C11 UNL     1       6.176  -8.176  -3.392  1.00  0.00     0.024 C 
HETATM   10  C12 UNL     1       4.449  -8.625  -1.737  1.00  0.00     0.024 C 
ENDROOT
BRANCH   1  11
HETATM   11  C2  UNL     1       6.763  -8.513  -1.013  1.00  0.00     0.232 C 
HETATM   12  N3  UNL     1       6.733  -9.096   0.286  1.00  0.00    -0.303 N 
HETATM   13  C1  UNL     1       6.972  -8.362   1.308  1.00  0.00     0.203 C 
ATOM     14  H3  UNL     1       6.522 -10.088   0.401  1.00  0.00     0.171 HD
HETATM   15  N1  UNL     1       7.267  -6.984   1.184  1.00  0.00    -0.066 NA
HETATM   16  N2  UNL     1       6.942  -8.944   2.596  1.00  0.00    -0.066 NA
HETATM   17  O1  UNL     1       7.603  -7.599  -1.200  1.00  0.00    -0.272 OA
ENDBRANCH   1  11
TORSDOF 1
ENDMDL
