MODEL 1
REMARK VINA RESULT: -4.975682453      0.000      0.000
REMARK  12 active torsions:
REMARK  status: ('A' for Active; 'I' for Inactive)
REMARK    1  A    between atoms: C2_10  and  C3_11 
REMARK    2  A    between atoms: C5_17  and  O2_18 
REMARK    3  A    between atoms: O2_18  and  C6_19 
REMARK    4  A    between atoms: C7_20  and  C8_21 
REMARK    5  A    between atoms: C8_21  and  O3_22 
REMARK    6  A    between atoms: C8_21  and  O4_24 
REMARK    7  A    between atoms: C9_26  and  N6_27 
REMARK    8  A    between atoms: C9_26  and  C10_31 
REMARK    9  A    between atoms: C12_35  and  N7_36 
REMARK   10  A    between atoms: N7_36  and  N8_38 
REMARK   11  A    between atoms: C13_44  and  C14_45 
REMARK   12  A    between atoms: C14_45  and  O7_46 
ROOT
HETATM    1  C6  UNL     1      14.345   0.599  42.394  1.00  0.00     0.095 C 
HETATM    2  C7  UNL     1      13.677   0.277  43.477  1.00  0.00     0.053 C 
HETATM    3  C9  UNL     1      13.347   1.500  44.271  1.00  0.00     0.253 C 
HETATM    4  C11 UNL     1      14.259   2.548  43.733  1.00  0.00     0.142 C 
HETATM    5  C12 UNL     1      13.632   3.859  43.478  1.00  0.00     0.117 C 
HETATM    6  N9  UNL     1      13.269   3.944  42.246  1.00  0.00    -0.290 N 
ATOM      7  H9  UNL     1      12.814   4.758  41.834  1.00  0.00     0.183 HD
HETATM    8  N10 UNL     1      13.580   2.769  41.544  1.00  0.00    -0.119 NA
HETATM    9  C13 UNL     1      14.537   2.049  42.340  1.00  0.00     0.134 C 
ENDROOT
BRANCH   1  10
HETATM   10  O2  UNL     1      14.831  -0.250  41.401  1.00  0.00    -0.293 OA
BRANCH  10  11
HETATM   11  C5  UNL     1      14.122  -0.863  40.426  1.00  0.00     0.178 A 
HETATM   12  C3  UNL     1      13.846  -0.429  39.155  1.00  0.00     0.118 A 
HETATM   13  N4  UNL     1      13.092  -1.428  38.578  1.00  0.00    -0.347 N 
HETATM   14  C4  UNL     1      12.912  -2.420  39.442  1.00  0.00     0.183 A 
ATOM     15  H4  UNL     1      12.725  -1.408  37.627  1.00  0.00     0.167 HD
HETATM   16  N5  UNL     1      13.542  -2.067  40.560  1.00  0.00    -0.331 N 
ATOM     17  H5  UNL     1      13.580  -2.635  41.407  1.00  0.00     0.168 HD
BRANCH  12  18
HETATM   18  C2  UNL     1      14.211   0.783  38.466  1.00  0.00     0.133 A 
HETATM   19  C1  UNL     1      15.082   0.979  37.446  1.00  0.00     0.152 A 
HETATM   20  N1  UNL     1      15.822   0.167  36.807  1.00  0.00    -0.382 N 
HETATM   21  N2  UNL     1      15.070   2.313  37.149  1.00  0.00    -0.224 N 
ATOM     22  H12 UNL     1      16.477   0.315  36.039  1.00  0.00     0.157 HD
ATOM     23  H11 UNL     1      15.830  -0.828  37.029  1.00  0.00     0.157 HD
HETATM   24  O1  UNL     1      14.228   2.884  37.959  1.00  0.00    -0.155 OA
ATOM     25  H2  UNL     1      15.620   2.776  36.425  1.00  0.00     0.198 HD
HETATM   26  N3  UNL     1      13.707   1.997  38.747  1.00  0.00    -0.236 N 
ATOM     27  H3  UNL     1      13.017   2.192  39.472  1.00  0.00     0.197 HD
ENDBRANCH  12  18
ENDBRANCH  10  11
ENDBRANCH   1  10
BRANCH   2  28
HETATM   28  C8  UNL     1      13.277  -1.092  43.907  1.00  0.00     0.290 C 
BRANCH  28  29
HETATM   29  O3  UNL     1      12.117  -1.461  43.233  1.00  0.00    -0.367 OA
ATOM     30  H3  UNL     1      11.618  -2.061  43.776  1.00  0.00     0.213 HD
ENDBRANCH  28  29
BRANCH  28  31
HETATM   31  O4  UNL     1      14.258  -2.018  43.648  1.00  0.00    -0.367 OA
ATOM     32  H4  UNL     1      14.122  -2.823  44.134  1.00  0.00     0.213 HD
ENDBRANCH  28  31
ENDBRANCH   2  28
BRANCH   9  33
HETATM   33  C14 UNL     1      15.966   2.401  41.920  1.00  0.00     0.201 C 
BRANCH  33  34
HETATM   34  O7  UNL     1      15.934   2.737  40.575  1.00  0.00    -0.398 OA
ATOM     35  H7  UNL     1      16.794   3.068  40.343  1.00  0.00     0.209 HD
ENDBRANCH  33  34
ENDBRANCH   9  33
BRANCH   3  36
HETATM   36  N6  UNL     1      13.726   1.144  45.658  1.00  0.00    -0.055 N 
ATOM     37  H63 UNL     1      12.934   0.948  46.271  1.00  0.00     0.276 HD
ATOM     38  H62 UNL     1      14.166   0.228  45.749  1.00  0.00     0.276 HD
ATOM     39  H61 UNL     1      14.310   1.922  45.963  1.00  0.00     0.276 HD
ENDBRANCH   3  36
BRANCH   3  40
HETATM   40  C10 UNL     1      11.919   1.807  44.256  1.00  0.00     0.216 C 
HETATM   41  O5  UNL     1      11.416   2.363  45.292  1.00  0.00    -0.646 OA
HETATM   42  O6  UNL     1      11.024   1.567  43.240  1.00  0.00    -0.646 OA
ENDBRANCH   3  40
BRANCH   5  43
HETATM   43  N7  UNL     1      13.476   4.856  44.486  1.00  0.00    -0.294 N 
ATOM     44  H7  UNL     1      14.300   5.249  44.942  1.00  0.00     0.187 HD
BRANCH  43  45
HETATM   45  N8  UNL     1      12.189   5.305  44.859  1.00  0.00    -0.344 N 
ATOM     46  H82 UNL     1      11.393   5.057  44.270  1.00  0.00     0.176 HD
ATOM     47  H81 UNL     1      12.058   5.865  45.702  1.00  0.00     0.176 HD
ENDBRANCH  43  45
ENDBRANCH   5  43
TORSDOF 12
ENDMDL
MODEL 2
REMARK VINA RESULT: -4.961486780      2.023      3.503
REMARK  12 active torsions:
REMARK  status: ('A' for Active; 'I' for Inactive)
REMARK    1  A    between atoms: C2_10  and  C3_11 
REMARK    2  A    between atoms: C5_17  and  O2_18 
REMARK    3  A    between atoms: O2_18  and  C6_19 
REMARK    4  A    between atoms: C7_20  and  C8_21 
REMARK    5  A    between atoms: C8_21  and  O3_22 
REMARK    6  A    between atoms: C8_21  and  O4_24 
REMARK    7  A    between atoms: C9_26  and  N6_27 
REMARK    8  A    between atoms: C9_26  and  C10_31 
REMARK    9  A    between atoms: C12_35  and  N7_36 
REMARK   10  A    between atoms: N7_36  and  N8_38 
REMARK   11  A    between atoms: C13_44  and  C14_45 
REMARK   12  A    between atoms: C14_45  and  O7_46 
ROOT
HETATM    1  C6  UNL     1      13.751   1.356  41.876  1.00  0.00     0.095 C 
HETATM    2  C7  UNL     1      13.463   2.616  42.106  1.00  0.00     0.053 C 
HETATM    3  C9  UNL     1      13.833   2.989  43.506  1.00  0.00     0.253 C 
HETATM    4  C11 UNL     1      13.995   1.684  44.207  1.00  0.00     0.142 C 
HETATM    5  C12 UNL     1      15.187   1.576  45.070  1.00  0.00     0.117 C 
HETATM    6  N9  UNL     1      16.154   1.028  44.422  1.00  0.00    -0.290 N 
ATOM      7  H9  UNL     1      17.079   0.846  44.811  1.00  0.00     0.183 HD
HETATM    8  N10 UNL     1      15.770   0.712  43.110  1.00  0.00    -0.119 NA
HETATM    9  C13 UNL     1      14.334   0.751  43.075  1.00  0.00     0.134 C 
ENDROOT
BRANCH   1  10
HETATM   10  O2  UNL     1      13.560   0.633  40.699  1.00  0.00    -0.293 OA
BRANCH  10  11
HETATM   11  C5  UNL     1      14.512   0.186  39.849  1.00  0.00     0.178 A 
HETATM   12  C3  UNL     1      14.695   0.483  38.523  1.00  0.00     0.118 A 
HETATM   13  N4  UNL     1      15.804  -0.234  38.132  1.00  0.00    -0.347 N 
HETATM   14  C4  UNL     1      16.280  -0.934  39.156  1.00  0.00     0.183 A 
ATOM     15  H4  UNL     1      16.203  -0.229  37.193  1.00  0.00     0.167 HD
HETATM   16  N5  UNL     1      15.487  -0.670  40.193  1.00  0.00    -0.331 N 
ATOM     17  H5  UNL     1      15.605  -1.066  41.126  1.00  0.00     0.168 HD
BRANCH  12  18
HETATM   18  C2  UNL     1      13.955   1.341  37.632  1.00  0.00     0.133 A 
HETATM   19  C1  UNL     1      14.391   2.143  36.630  1.00  0.00     0.152 A 
HETATM   20  N1  UNL     1      15.560   2.373  36.188  1.00  0.00    -0.382 N 
HETATM   21  N2  UNL     1      13.294   2.750  36.085  1.00  0.00    -0.224 N 
ATOM     22  H12 UNL     1      15.888   2.976  35.433  1.00  0.00     0.157 HD
ATOM     23  H11 UNL     1      16.378   1.920  36.594  1.00  0.00     0.157 HD
HETATM   24  O1  UNL     1      12.252   2.325  36.737  1.00  0.00    -0.155 OA
ATOM     25  H2  UNL     1      13.292   3.413  35.309  1.00  0.00     0.198 HD
HETATM   26  N3  UNL     1      12.619   1.490  37.656  1.00  0.00    -0.236 N 
ATOM     27  H3  UNL     1      11.988   1.016  38.303  1.00  0.00     0.197 HD
ENDBRANCH  12  18
ENDBRANCH  10  11
ENDBRANCH   1  10
BRANCH   2  28
HETATM   28  C8  UNL     1      12.855   3.583  41.151  1.00  0.00     0.290 C 
BRANCH  28  29
HETATM   29  O3  UNL     1      13.572   3.558  39.959  1.00  0.00    -0.367 OA
ATOM     30  H3  UNL     1      13.273   4.267  39.400  1.00  0.00     0.213 HD
ENDBRANCH  28  29
BRANCH  28  31
HETATM   31  O4  UNL     1      11.540   3.287  40.888  1.00  0.00    -0.367 OA
ATOM     32  H4  UNL     1      10.950   3.925  41.272  1.00  0.00     0.213 HD
ENDBRANCH  28  31
ENDBRANCH   2  28
BRANCH   9  33
HETATM   33  C14 UNL     1      13.746  -0.639  43.333  1.00  0.00     0.201 C 
BRANCH  33  34
HETATM   34  O7  UNL     1      14.682  -1.571  42.907  1.00  0.00    -0.398 OA
ATOM     35  H7  UNL     1      14.281  -2.429  42.978  1.00  0.00     0.209 HD
ENDBRANCH  33  34
ENDBRANCH   9  33
BRANCH   3  36
HETATM   36  N6  UNL     1      12.641   3.706  44.015  1.00  0.00    -0.055 N 
ATOM     37  H63 UNL     1      12.595   3.773  45.032  1.00  0.00     0.276 HD
ATOM     38  H62 UNL     1      12.650   4.710  43.838  1.00  0.00     0.276 HD
ATOM     39  H61 UNL     1      11.855   3.213  43.591  1.00  0.00     0.276 HD
ENDBRANCH   3  36
BRANCH   3  40
HETATM   40  C10 UNL     1      14.969   3.904  43.559  1.00  0.00     0.216 C 
HETATM   41  O5  UNL     1      14.989   4.780  44.491  1.00  0.00    -0.646 OA
HETATM   42  O6  UNL     1      16.049   3.944  42.709  1.00  0.00    -0.646 OA
ENDBRANCH   3  40
BRANCH   5  43
HETATM   43  N7  UNL     1      15.212   2.030  46.422  1.00  0.00    -0.294 N 
ATOM     44  H7  UNL     1      14.631   1.567  47.122  1.00  0.00     0.187 HD
BRANCH  43  45
HETATM   45  N8  UNL     1      16.035   3.114  46.801  1.00  0.00    -0.344 N 
ATOM     46  H82 UNL     1      17.042   2.965  46.870  1.00  0.00     0.176 HD
ATOM     47  H81 UNL     1      15.629   4.028  47.002  1.00  0.00     0.176 HD
ENDBRANCH  43  45
ENDBRANCH   5  43
TORSDOF 12
ENDMDL
MODEL 3
REMARK VINA RESULT: -4.921026709      2.359      3.224
REMARK  12 active torsions:
REMARK  status: ('A' for Active; 'I' for Inactive)
REMARK    1  A    between atoms: C2_10  and  C3_11 
REMARK    2  A    between atoms: C5_17  and  O2_18 
REMARK    3  A    between atoms: O2_18  and  C6_19 
REMARK    4  A    between atoms: C7_20  and  C8_21 
REMARK    5  A    between atoms: C8_21  and  O3_22 
REMARK    6  A    between atoms: C8_21  and  O4_24 
REMARK    7  A    between atoms: C9_26  and  N6_27 
REMARK    8  A    between atoms: C9_26  and  C10_31 
REMARK    9  A    between atoms: C12_35  and  N7_36 
REMARK   10  A    between atoms: N7_36  and  N8_38 
REMARK   11  A    between atoms: C13_44  and  C14_45 
REMARK   12  A    between atoms: C14_45  and  O7_46 
ROOT
HETATM    1  C6  UNL     1      15.106   1.536  42.021  1.00  0.00     0.095 C 
HETATM    2  C7  UNL     1      13.882   1.770  42.434  1.00  0.00     0.053 C 
HETATM    3  C9  UNL     1      13.899   2.625  43.661  1.00  0.00     0.253 C 
HETATM    4  C11 UNL     1      15.298   2.526  44.163  1.00  0.00     0.142 C 
HETATM    5  C12 UNL     1      15.911   3.803  44.577  1.00  0.00     0.117 C 
HETATM    6  N9  UNL     1      16.594   4.301  43.606  1.00  0.00    -0.290 N 
ATOM      7  H9  UNL     1      17.109   5.179  43.656  1.00  0.00     0.183 HD
HETATM    8  N10 UNL     1      16.535   3.478  42.471  1.00  0.00    -0.119 NA
HETATM    9  C13 UNL     1      16.066   2.193  42.911  1.00  0.00     0.134 C 
ENDROOT
BRANCH   1  10
HETATM   10  O2  UNL     1      15.512   0.787  40.918  1.00  0.00    -0.293 OA
BRANCH  10  11
HETATM   11  C5  UNL     1      16.110   1.242  39.794  1.00  0.00     0.178 A 
HETATM   12  C3  UNL     1      15.555   1.515  38.570  1.00  0.00     0.118 A 
HETATM   13  N4  UNL     1      16.597   1.951  37.780  1.00  0.00    -0.347 N 
HETATM   14  C4  UNL     1      17.728   1.948  38.474  1.00  0.00     0.183 A 
ATOM     15  H4  UNL     1      16.511   2.234  36.804  1.00  0.00     0.167 HD
HETATM   16  N5  UNL     1      17.421   1.517  39.696  1.00  0.00    -0.331 N 
ATOM     17  H5  UNL     1      18.092   1.409  40.457  1.00  0.00     0.168 HD
BRANCH  12  18
HETATM   18  C2  UNL     1      14.198   1.408  38.098  1.00  0.00     0.133 A 
HETATM   19  C1  UNL     1      13.540   2.130  37.158  1.00  0.00     0.152 A 
HETATM   20  N1  UNL     1      13.919   3.098  36.427  1.00  0.00    -0.382 N 
HETATM   21  N2  UNL     1      12.268   1.635  37.077  1.00  0.00    -0.224 N 
ATOM     22  H12 UNL     1      13.425   3.641  35.719  1.00  0.00     0.157 HD
ATOM     23  H11 UNL     1      14.868   3.467  36.488  1.00  0.00     0.157 HD
HETATM   24  O1  UNL     1      12.176   0.661  37.934  1.00  0.00    -0.155 OA
ATOM     25  H2  UNL     1      11.528   1.968  36.459  1.00  0.00     0.198 HD
HETATM   26  N3  UNL     1      13.306   0.508  38.549  1.00  0.00    -0.236 N 
ATOM     27  H3  UNL     1      13.491  -0.191  39.269  1.00  0.00     0.197 HD
ENDBRANCH  12  18
ENDBRANCH  10  11
ENDBRANCH   1  10
BRANCH   2  28
HETATM   28  C8  UNL     1      12.620   1.283  41.811  1.00  0.00     0.290 C 
BRANCH  28  29
HETATM   29  O3  UNL     1      12.291   2.109  40.741  1.00  0.00    -0.367 OA
ATOM     30  H3  UNL     1      11.880   1.589  40.060  1.00  0.00     0.213 HD
ENDBRANCH  28  29
BRANCH  28  31
HETATM   31  O4  UNL     1      12.737  -0.008  41.359  1.00  0.00    -0.367 OA
ATOM     32  H4  UNL     1      12.310  -0.627  41.939  1.00  0.00     0.213 HD
ENDBRANCH  28  31
ENDBRANCH   2  28
BRANCH   9  33
HETATM   33  C14 UNL     1      17.241   1.267  43.235  1.00  0.00     0.201 C 
BRANCH  33  34
HETATM   34  O7  UNL     1      18.368   1.795  42.620  1.00  0.00    -0.398 OA
ATOM     35  H7  UNL     1      18.851   1.071  42.240  1.00  0.00     0.209 HD
ENDBRANCH  33  34
ENDBRANCH   9  33
BRANCH   3  36
HETATM   36  N6  UNL     1      12.966   1.943  44.588  1.00  0.00    -0.055 N 
ATOM     37  H63 UNL     1      12.422   1.194  44.158  1.00  0.00     0.276 HD
ATOM     38  H62 UNL     1      13.423   1.360  45.289  1.00  0.00     0.276 HD
ATOM     39  H61 UNL     1      12.403   2.700  44.975  1.00  0.00     0.276 HD
ENDBRANCH   3  36
BRANCH   3  40
HETATM   40  C10 UNL     1      13.387   3.970  43.412  1.00  0.00     0.216 C 
HETATM   41  O5  UNL     1      13.519   4.451  42.235  1.00  0.00    -0.646 OA
HETATM   42  O6  UNL     1      12.766   4.806  44.309  1.00  0.00    -0.646 OA
ENDBRANCH   3  40
BRANCH   5  43
HETATM   43  N7  UNL     1      15.741   4.361  45.879  1.00  0.00    -0.294 N 
ATOM     44  H7  UNL     1      15.116   5.157  46.010  1.00  0.00     0.187 HD
BRANCH  43  45
HETATM   45  N8  UNL     1      16.431   3.822  46.988  1.00  0.00    -0.344 N 
ATOM     46  H82 UNL     1      16.524   2.809  47.062  1.00  0.00     0.176 HD
ATOM     47  H81 UNL     1      16.828   4.435  47.700  1.00  0.00     0.176 HD
ENDBRANCH  43  45
ENDBRANCH   5  43
TORSDOF 12
ENDMDL
MODEL 4
REMARK VINA RESULT: -4.895336480      2.335      3.466
REMARK  12 active torsions:
REMARK  status: ('A' for Active; 'I' for Inactive)
REMARK    1  A    between atoms: C2_10  and  C3_11 
REMARK    2  A    between atoms: C5_17  and  O2_18 
REMARK    3  A    between atoms: O2_18  and  C6_19 
REMARK    4  A    between atoms: C7_20  and  C8_21 
REMARK    5  A    between atoms: C8_21  and  O3_22 
REMARK    6  A    between atoms: C8_21  and  O4_24 
REMARK    7  A    between atoms: C9_26  and  N6_27 
REMARK    8  A    between atoms: C9_26  and  C10_31 
REMARK    9  A    between atoms: C12_35  and  N7_36 
REMARK   10  A    between atoms: N7_36  and  N8_38 
REMARK   11  A    between atoms: C13_44  and  C14_45 
REMARK   12  A    between atoms: C14_45  and  O7_46 
ROOT
HETATM    1  C6  UNL     1      13.093   0.769  39.911  1.00  0.00     0.095 C 
HETATM    2  C7  UNL     1      11.988   0.174  40.296  1.00  0.00     0.053 C 
HETATM    3  C9  UNL     1      11.596   0.632  41.664  1.00  0.00     0.253 C 
HETATM    4  C11 UNL     1      12.830   1.263  42.211  1.00  0.00     0.142 C 
HETATM    5  C12 UNL     1      12.627   2.554  42.896  1.00  0.00     0.117 C 
HETATM    6  N9  UNL     1      12.832   3.526  42.078  1.00  0.00    -0.290 N 
ATOM      7  H9  UNL     1      12.753   4.512  42.324  1.00  0.00     0.183 HD
HETATM    8  N10 UNL     1      13.178   3.051  40.804  1.00  0.00    -0.119 NA
HETATM    9  C13 UNL     1      13.562   1.675  40.961  1.00  0.00     0.134 C 
ENDROOT
BRANCH   1  10
HETATM   10  O2  UNL     1      13.778   0.613  38.707  1.00  0.00    -0.293 OA
BRANCH  10  11
HETATM   11  C5  UNL     1      13.763   1.448  37.643  1.00  0.00     0.178 A 
HETATM   12  C3  UNL     1      14.818   2.009  36.970  1.00  0.00     0.118 A 
HETATM   13  N4  UNL     1      14.256   2.773  35.971  1.00  0.00    -0.347 N 
HETATM   14  C4  UNL     1      12.932   2.690  36.022  1.00  0.00     0.183 A 
ATOM     15  H4  UNL     1      14.780   3.323  35.291  1.00  0.00     0.167 HD
HETATM   16  N5  UNL     1      12.644   1.881  37.041  1.00  0.00    -0.331 N 
ATOM     17  H5  UNL     1      11.698   1.626  37.327  1.00  0.00     0.168 HD
BRANCH  12  18
HETATM   18  C2  UNL     1      16.240   1.896  37.172  1.00  0.00     0.133 A 
HETATM   19  C1  UNL     1      17.179   1.253  36.436  1.00  0.00     0.152 A 
HETATM   20  N1  UNL     1      17.084   0.569  35.369  1.00  0.00    -0.382 N 
HETATM   21  N2  UNL     1      18.385   1.448  37.050  1.00  0.00    -0.224 N 
ATOM     22  H12 UNL     1      17.791   0.085  34.815  1.00  0.00     0.157 HD
ATOM     23  H11 UNL     1      16.185   0.424  34.911  1.00  0.00     0.157 HD
HETATM   24  O1  UNL     1      18.170   2.176  38.105  1.00  0.00    -0.155 OA
ATOM     25  H2  UNL     1      19.287   1.089  36.737  1.00  0.00     0.198 HD
HETATM   26  N3  UNL     1      16.908   2.454  38.198  1.00  0.00    -0.236 N 
ATOM     27  H3  UNL     1      16.484   3.013  38.938  1.00  0.00     0.197 HD
ENDBRANCH  12  18
ENDBRANCH  10  11
ENDBRANCH   1  10
BRANCH   2  28
HETATM   28  C8  UNL     1      11.193  -0.822  39.523  1.00  0.00     0.290 C 
BRANCH  28  29
HETATM   29  O3  UNL     1      10.832  -0.267  38.300  1.00  0.00    -0.367 OA
ATOM     30  H3  UNL     1       9.941  -0.526  38.092  1.00  0.00     0.213 HD
ENDBRANCH  28  29
BRANCH  28  31
HETATM   31  O4  UNL     1      11.900  -1.978  39.299  1.00  0.00    -0.367 OA
ATOM     32  H4  UNL     1      11.724  -2.635  39.962  1.00  0.00     0.213 HD
ENDBRANCH  28  31
ENDBRANCH   2  28
BRANCH   9  33
HETATM   33  C14 UNL     1      15.074   1.553  41.161  1.00  0.00     0.201 C 
BRANCH  33  34
HETATM   34  O7  UNL     1      15.632   2.793  40.885  1.00  0.00    -0.398 OA
ATOM     35  H7  UNL     1      16.151   2.701  40.095  1.00  0.00     0.209 HD
ENDBRANCH  33  34
ENDBRANCH   9  33
BRANCH   3  36
HETATM   36  N6  UNL     1      11.289  -0.622  42.390  1.00  0.00    -0.055 N 
ATOM     37  H63 UNL     1      10.351  -0.987  42.218  1.00  0.00     0.276 HD
ATOM     38  H62 UNL     1      11.791  -1.440  42.043  1.00  0.00     0.276 HD
ATOM     39  H61 UNL     1      11.478  -0.397  43.366  1.00  0.00     0.276 HD
ENDBRANCH   3  36
BRANCH   3  40
HETATM   40  C10 UNL     1      10.390   1.456  41.653  1.00  0.00     0.216 C 
HETATM   41  O5  UNL     1       9.585   1.351  42.642  1.00  0.00    -0.646 OA
HETATM   42  O6  UNL     1      10.002   2.354  40.688  1.00  0.00    -0.646 OA
ENDBRANCH   3  40
BRANCH   5  43
HETATM   43  N7  UNL     1      12.258   2.655  44.271  1.00  0.00    -0.294 N 
ATOM     44  H7  UNL     1      11.726   3.464  44.593  1.00  0.00     0.187 HD
BRANCH  43  45
HETATM   45  N8  UNL     1      12.621   1.645  45.189  1.00  0.00    -0.344 N 
ATOM     46  H82 UNL     1      12.589   0.671  44.885  1.00  0.00     0.176 HD
ATOM     47  H81 UNL     1      12.912   1.885  46.137  1.00  0.00     0.176 HD
ENDBRANCH  43  45
ENDBRANCH   5  43
TORSDOF 12
ENDMDL
MODEL 5
REMARK VINA RESULT: -4.871411622      2.310      3.157
REMARK  12 active torsions:
REMARK  status: ('A' for Active; 'I' for Inactive)
REMARK    1  A    between atoms: C2_10  and  C3_11 
REMARK    2  A    between atoms: C5_17  and  O2_18 
REMARK    3  A    between atoms: O2_18  and  C6_19 
REMARK    4  A    between atoms: C7_20  and  C8_21 
REMARK    5  A    between atoms: C8_21  and  O3_22 
REMARK    6  A    between atoms: C8_21  and  O4_24 
REMARK    7  A    between atoms: C9_26  and  N6_27 
REMARK    8  A    between atoms: C9_26  and  C10_31 
REMARK    9  A    between atoms: C12_35  and  N7_36 
REMARK   10  A    between atoms: N7_36  and  N8_38 
REMARK   11  A    between atoms: C13_44  and  C14_45 
REMARK   12  A    between atoms: C14_45  and  O7_46 
ROOT
HETATM    1  C6  UNL     1      14.363   0.956  41.174  1.00  0.00     0.095 C 
HETATM    2  C7  UNL     1      13.082   0.894  40.892  1.00  0.00     0.053 C 
HETATM    3  C9  UNL     1      12.293   1.714  41.862  1.00  0.00     0.253 C 
HETATM    4  C11 UNL     1      13.225   1.937  43.002  1.00  0.00     0.142 C 
HETATM    5  C12 UNL     1      13.262   3.317  43.525  1.00  0.00     0.117 C 
HETATM    6  N9  UNL     1      14.225   3.972  42.977  1.00  0.00    -0.290 N 
ATOM      7  H9  UNL     1      14.449   4.945  43.181  1.00  0.00     0.183 HD
HETATM    8  N10 UNL     1      14.926   3.172  42.061  1.00  0.00    -0.119 NA
HETATM    9  C13 UNL     1      14.574   1.807  42.346  1.00  0.00     0.134 C 
ENDROOT
BRANCH   1  10
HETATM   10  O2  UNL     1      15.419   0.335  40.509  1.00  0.00    -0.293 OA
BRANCH  10  11
HETATM   11  C5  UNL     1      16.516   0.925  39.983  1.00  0.00     0.178 A 
HETATM   12  C3  UNL     1      16.619   1.725  38.873  1.00  0.00     0.118 A 
HETATM   13  N4  UNL     1      17.952   2.060  38.780  1.00  0.00    -0.347 N 
HETATM   14  C4  UNL     1      18.634   1.501  39.773  1.00  0.00     0.183 A 
ATOM     15  H4  UNL     1      18.356   2.651  38.054  1.00  0.00     0.167 HD
HETATM   16  N5  UNL     1      17.751   0.815  40.498  1.00  0.00    -0.331 N 
ATOM     17  H5  UNL     1      17.983   0.276  41.333  1.00  0.00     0.168 HD
BRANCH  12  18
HETATM   18  C2  UNL     1      15.623   2.181  37.937  1.00  0.00     0.133 A 
HETATM   19  C1  UNL     1      15.613   2.138  36.582  1.00  0.00     0.152 A 
HETATM   20  N1  UNL     1      16.465   1.692  35.751  1.00  0.00    -0.382 N 
HETATM   21  N2  UNL     1      14.439   2.699  36.163  1.00  0.00    -0.224 N 
ATOM     22  H12 UNL     1      16.458   1.659  34.732  1.00  0.00     0.157 HD
ATOM     23  H11 UNL     1      17.341   1.273  36.064  1.00  0.00     0.157 HD
HETATM   24  O1  UNL     1      13.781   3.059  37.225  1.00  0.00    -0.155 OA
ATOM     25  H2  UNL     1      14.135   2.814  35.196  1.00  0.00     0.198 HD
HETATM   26  N3  UNL     1      14.461   2.762  38.286  1.00  0.00    -0.236 N 
ATOM     27  H3  UNL     1      14.161   2.942  39.244  1.00  0.00     0.197 HD
ENDBRANCH  12  18
ENDBRANCH  10  11
ENDBRANCH   1  10
BRANCH   2  28
HETATM   28  C8  UNL     1      12.447   0.133  39.779  1.00  0.00     0.290 C 
BRANCH  28  29
HETATM   29  O3  UNL     1      12.301   0.972  38.679  1.00  0.00    -0.367 OA
ATOM     30  H3  UNL     1      12.198   0.443  37.896  1.00  0.00     0.213 HD
ENDBRANCH  28  29
BRANCH  28  31
HETATM   31  O4  UNL     1      13.195  -0.959  39.413  1.00  0.00    -0.367 OA
ATOM     32  H4  UNL     1      12.657  -1.733  39.296  1.00  0.00     0.213 HD
ENDBRANCH  28  31
ENDBRANCH   2  28
BRANCH   9  33
HETATM   33  C14 UNL     1      15.580   1.177  43.311  1.00  0.00     0.201 C 
BRANCH  33  34
HETATM   34  O7  UNL     1      16.721   1.967  43.297  1.00  0.00    -0.398 OA
ATOM     35  H7  UNL     1      16.634   2.605  43.995  1.00  0.00     0.209 HD
ENDBRANCH  33  34
ENDBRANCH   9  33
BRANCH   3  36
HETATM   36  N6  UNL     1      11.181   0.822  42.267  1.00  0.00    -0.055 N 
ATOM     37  H63 UNL     1      11.051   0.747  43.276  1.00  0.00     0.276 HD
ATOM     38  H62 UNL     1      10.253   1.191  42.062  1.00  0.00     0.276 HD
ATOM     39  H61 UNL     1      11.392  -0.062  41.804  1.00  0.00     0.276 HD
ENDBRANCH   3  36
BRANCH   3  40
HETATM   40  C10 UNL     1      11.716   2.906  41.246  1.00  0.00     0.216 C 
HETATM   41  O5  UNL     1      10.502   3.194  41.524  1.00  0.00    -0.646 OA
HETATM   42  O6  UNL     1      12.331   3.779  40.381  1.00  0.00    -0.646 OA
ENDBRANCH   3  40
BRANCH   5  43
HETATM   43  N7  UNL     1      12.340   3.805  44.498  1.00  0.00    -0.294 N 
ATOM     44  H7  UNL     1      11.698   3.158  44.956  1.00  0.00     0.187 HD
BRANCH  43  45
HETATM   45  N8  UNL     1      12.308   5.178  44.833  1.00  0.00    -0.344 N 
ATOM     46  H82 UNL     1      12.748   5.481  45.702  1.00  0.00     0.176 HD
ATOM     47  H81 UNL     1      11.855   5.852  44.215  1.00  0.00     0.176 HD
ENDBRANCH  43  45
ENDBRANCH   5  43
TORSDOF 12
ENDMDL
