MODEL 1
REMARK VINA RESULT: -8.574750955      0.000      0.000
REMARK  6 active torsions:
REMARK  status: ('A' for Active; 'I' for Inactive)
REMARK    1  A    between atoms: C5_8  and  C6_9 
REMARK    2  A    between atoms: C11_16  and  N4_17 
REMARK    3  A    between atoms: N4_17  and  C12_19 
REMARK    4  A    between atoms: C12_19  and  C13_20 
REMARK    5  A    between atoms: C17_25  and  N5_26 
REMARK    6  A    between atoms: C20_29  and  O2_30 
ROOT
HETATM    1  N1  UNL     1     -16.815  15.404  -4.291  1.00  0.00    -0.191 NA
HETATM    2  C1  UNL     1     -16.153  14.703  -4.931  1.00  0.00     0.102 C 
HETATM    3  C2  UNL     1     -15.325  13.850  -5.743  1.00  0.00     0.075 A 
HETATM    4  C3  UNL     1     -14.569  14.385  -6.763  1.00  0.00     0.057 A 
HETATM    5  C4  UNL     1     -13.774  13.575  -7.543  1.00  0.00     0.063 A 
HETATM    6  N2  UNL     1     -13.019  14.051  -8.550  1.00  0.00    -0.356 N 
ATOM      7  H2  UNL     1     -13.026  15.050  -8.755  1.00  0.00     0.166 HD
HETATM    8  C5  UNL     1     -12.255  13.228  -9.289  1.00  0.00     0.029 A 
HETATM    9  C9  UNL     1     -12.218  11.871  -9.045  1.00  0.00     0.114 A 
HETATM   10  N3  UNL     1     -12.973  11.398  -8.037  1.00  0.00    -0.360 N 
ATOM     11  H3  UNL     1     -12.964  10.399  -7.834  1.00  0.00     0.165 HD
HETATM   12  C10 UNL     1     -13.748  12.223  -7.285  1.00  0.00     0.088 A 
HETATM   13  C11 UNL     1     -14.518  11.676  -6.245  1.00  0.00     0.086 A 
HETATM   14  C17 UNL     1     -15.303  12.475  -5.475  1.00  0.00     0.080 A 
ENDROOT
BRANCH  14  15
HETATM   15  N5  UNL     1     -16.108  11.954  -4.441  1.00  0.00    -0.378 N 
HETATM   16  C18 UNL     1     -15.546  11.724  -3.152  1.00  0.00     0.125 C 
HETATM   17  C19 UNL     1     -16.413  12.149  -2.002  1.00  0.00     0.051 C 
HETATM   18  C20 UNL     1     -17.869  11.981  -2.223  1.00  0.00     0.121 C 
HETATM   19  C21 UNL     1     -18.234  11.212  -3.463  1.00  0.00     0.051 C 
HETATM   20  C22 UNL     1     -17.503  11.651  -4.684  1.00  0.00     0.125 C 
BRANCH  18  21
HETATM   21  O2  UNL     1     -18.554  13.217  -2.196  1.00  0.00    -0.395 OA
ATOM     22  H2  UNL     1     -19.462  13.115  -1.936  1.00  0.00     0.210 HD
ENDBRANCH  18  21
ENDBRANCH  14  15
BRANCH  13  23
HETATM   23  N4  UNL     1     -14.490  10.279  -6.022  1.00  0.00    -0.384 N 
ATOM     24  H4  UNL     1     -13.914   9.936  -5.253  1.00  0.00     0.159 HD
BRANCH  23  25
HETATM   25  C12 UNL     1     -15.213   9.303  -6.798  1.00  0.00     0.151 C 
BRANCH  25  26
HETATM   26  C13 UNL     1     -15.176   7.934  -6.164  1.00  0.00     0.139 C 
HETATM   27  C14 UNL     1     -16.448   7.636  -5.400  1.00  0.00     0.035 C 
HETATM   28  C15 UNL     1     -16.360   6.111  -5.289  1.00  0.00     0.029 C 
HETATM   29  C16 UNL     1     -15.451   5.772  -6.426  1.00  0.00     0.168 C 
HETATM   30  O1  UNL     1     -15.203   6.926  -7.134  1.00  0.00    -0.384 OA
ENDBRANCH  25  26
ENDBRANCH  23  25
ENDBRANCH  13  23
BRANCH   8  31
HETATM   31  C6  UNL     1     -11.451  13.830 -10.383  1.00  0.00     0.037 A 
HETATM   32  C7  UNL     1     -11.633  13.396 -11.775  1.00  0.00     0.011 A 
HETATM   33  C8  UNL     1     -10.438  12.883 -11.090  1.00  0.00     0.011 A 
ENDBRANCH   8  31
TORSDOF 6
ENDMDL
MODEL 2
REMARK VINA RESULT: -8.188542897      1.078      1.341
REMARK  6 active torsions:
REMARK  status: ('A' for Active; 'I' for Inactive)
REMARK    1  A    between atoms: C5_8  and  C6_9 
REMARK    2  A    between atoms: C11_16  and  N4_17 
REMARK    3  A    between atoms: N4_17  and  C12_19 
REMARK    4  A    between atoms: C12_19  and  C13_20 
REMARK    5  A    between atoms: C17_25  and  N5_26 
REMARK    6  A    between atoms: C20_29  and  O2_30 
ROOT
HETATM    1  N1  UNL     1     -16.859  15.300  -4.047  1.00  0.00    -0.191 NA
HETATM    2  C1  UNL     1     -16.197  14.614  -4.705  1.00  0.00     0.102 C 
HETATM    3  C2  UNL     1     -15.369  13.781  -5.538  1.00  0.00     0.075 A 
HETATM    4  C3  UNL     1     -14.680  14.328  -6.598  1.00  0.00     0.057 A 
HETATM    5  C4  UNL     1     -13.887  13.537  -7.400  1.00  0.00     0.063 A 
HETATM    6  N2  UNL     1     -13.196  14.025  -8.446  1.00  0.00    -0.356 N 
ATOM      7  H2  UNL     1     -13.252  15.019  -8.666  1.00  0.00     0.166 HD
HETATM    8  C5  UNL     1     -12.432  13.220  -9.205  1.00  0.00     0.029 A 
HETATM    9  C9  UNL     1     -12.329  11.870  -8.941  1.00  0.00     0.114 A 
HETATM   10  N3  UNL     1     -13.021  11.385  -7.894  1.00  0.00    -0.360 N 
ATOM     11  H3  UNL     1     -12.963  10.391  -7.676  1.00  0.00     0.165 HD
HETATM   12  C10 UNL     1     -13.796  12.192  -7.121  1.00  0.00     0.088 A 
HETATM   13  C11 UNL     1     -14.498  11.633  -6.041  1.00  0.00     0.086 A 
HETATM   14  C17 UNL     1     -15.281  12.413  -5.250  1.00  0.00     0.080 A 
ENDROOT
BRANCH  14  15
HETATM   15  N5  UNL     1     -16.019  11.878  -4.174  1.00  0.00    -0.378 N 
HETATM   16  C18 UNL     1     -15.381  11.652  -2.920  1.00  0.00     0.125 C 
HETATM   17  C19 UNL     1     -16.187  12.062  -1.721  1.00  0.00     0.051 C 
HETATM   18  C20 UNL     1     -17.652  11.875  -1.860  1.00  0.00     0.121 C 
HETATM   19  C21 UNL     1     -18.076  11.105  -3.079  1.00  0.00     0.051 C 
HETATM   20  C22 UNL     1     -17.421  11.557  -4.339  1.00  0.00     0.125 C 
BRANCH  18  21
HETATM   21  O2  UNL     1     -18.350  13.102  -1.790  1.00  0.00    -0.395 OA
ATOM     22  H2  UNL     1     -18.578  13.431  -2.651  1.00  0.00     0.210 HD
ENDBRANCH  18  21
ENDBRANCH  14  15
BRANCH  13  23
HETATM   23  N4  UNL     1     -14.404  10.242  -5.798  1.00  0.00    -0.384 N 
ATOM     24  H4  UNL     1     -13.520   9.887  -5.432  1.00  0.00     0.159 HD
BRANCH  23  25
HETATM   25  C12 UNL     1     -15.460   9.289  -6.027  1.00  0.00     0.151 C 
BRANCH  25  26
HETATM   26  C13 UNL     1     -15.322   8.599  -7.363  1.00  0.00     0.139 C 
HETATM   27  C14 UNL     1     -16.433   7.598  -7.594  1.00  0.00     0.035 C 
HETATM   28  C15 UNL     1     -16.343   7.423  -9.112  1.00  0.00     0.029 C 
HETATM   29  C16 UNL     1     -15.665   8.689  -9.529  1.00  0.00     0.168 C 
HETATM   30  O1  UNL     1     -15.540   9.491  -8.418  1.00  0.00    -0.384 OA
ENDBRANCH  25  26
ENDBRANCH  23  25
ENDBRANCH  13  23
BRANCH   8  31
HETATM   31  C6  UNL     1     -11.700  13.835 -10.341  1.00  0.00     0.037 A 
HETATM   32  C7  UNL     1     -11.570  13.125 -11.621  1.00  0.00     0.011 A 
HETATM   33  C8  UNL     1     -10.376  13.134 -10.763  1.00  0.00     0.011 A 
ENDBRANCH   8  31
TORSDOF 6
ENDMDL
MODEL 3
REMARK VINA RESULT: -8.171013296      1.034      1.391
REMARK  6 active torsions:
REMARK  status: ('A' for Active; 'I' for Inactive)
REMARK    1  A    between atoms: C5_8  and  C6_9 
REMARK    2  A    between atoms: C11_16  and  N4_17 
REMARK    3  A    between atoms: N4_17  and  C12_19 
REMARK    4  A    between atoms: C12_19  and  C13_20 
REMARK    5  A    between atoms: C17_25  and  N5_26 
REMARK    6  A    between atoms: C20_29  and  O2_30 
ROOT
HETATM    1  N1  UNL     1     -16.659  15.431  -3.988  1.00  0.00    -0.191 NA
HETATM    2  C1  UNL     1     -16.040  14.722  -4.662  1.00  0.00     0.102 C 
HETATM    3  C2  UNL     1     -15.264  13.861  -5.516  1.00  0.00     0.075 A 
HETATM    4  C3  UNL     1     -14.540  14.391  -6.562  1.00  0.00     0.057 A 
HETATM    5  C4  UNL     1     -13.796  13.573  -7.383  1.00  0.00     0.063 A 
HETATM    6  N2  UNL     1     -13.073  14.043  -8.415  1.00  0.00    -0.356 N 
ATOM      7  H2  UNL     1     -13.066  15.045  -8.609  1.00  0.00     0.166 HD
HETATM    8  C5  UNL     1     -12.359  13.213  -9.194  1.00  0.00     0.029 A 
HETATM    9  C9  UNL     1     -12.341  11.852  -8.965  1.00  0.00     0.114 A 
HETATM   10  N3  UNL     1     -13.064  11.385  -7.933  1.00  0.00    -0.360 N 
ATOM     11  H3  UNL     1     -13.069  10.383  -7.740  1.00  0.00     0.165 HD
HETATM   12  C10 UNL     1     -13.789  12.218  -7.140  1.00  0.00     0.088 A 
HETATM   13  C11 UNL     1     -14.528  11.676  -6.074  1.00  0.00     0.086 A 
HETATM   14  C17 UNL     1     -15.262  12.483  -5.264  1.00  0.00     0.080 A 
ENDROOT
BRANCH  14  15
HETATM   15  N5  UNL     1     -16.035  11.967  -4.203  1.00  0.00    -0.378 N 
HETATM   16  C18 UNL     1     -17.356  11.499  -4.452  1.00  0.00     0.125 C 
HETATM   17  C19 UNL     1     -17.708  10.211  -3.763  1.00  0.00     0.051 C 
HETATM   18  C20 UNL     1     -17.088  10.028  -2.429  1.00  0.00     0.121 C 
HETATM   19  C21 UNL     1     -16.393  11.244  -1.884  1.00  0.00     0.051 C 
HETATM   20  C22 UNL     1     -15.490  11.914  -2.862  1.00  0.00     0.125 C 
BRANCH  18  21
HETATM   21  O2  UNL     1     -16.219   8.913  -2.399  1.00  0.00    -0.395 OA
ATOM     22  H2  UNL     1     -15.546   9.005  -1.734  1.00  0.00     0.210 HD
ENDBRANCH  18  21
ENDBRANCH  14  15
BRANCH  13  23
HETATM   23  N4  UNL     1     -14.521  10.276  -5.868  1.00  0.00    -0.384 N 
ATOM     24  H4  UNL     1     -13.986   9.919  -5.076  1.00  0.00     0.159 HD
BRANCH  23  25
HETATM   25  C12 UNL     1     -15.213   9.316  -6.690  1.00  0.00     0.151 C 
BRANCH  25  26
HETATM   26  C13 UNL     1     -15.170   7.927  -6.098  1.00  0.00     0.139 C 
HETATM   27  C14 UNL     1     -16.495   7.541  -5.479  1.00  0.00     0.035 C 
HETATM   28  C15 UNL     1     -16.339   6.019  -5.408  1.00  0.00     0.029 C 
HETATM   29  C16 UNL     1     -15.304   5.766  -6.455  1.00  0.00     0.168 C 
HETATM   30  O1  UNL     1     -15.047   6.956  -7.097  1.00  0.00    -0.384 OA
ENDBRANCH  25  26
ENDBRANCH  23  25
ENDBRANCH  13  23
BRANCH   8  31
HETATM   31  C6  UNL     1     -11.587  13.809 -10.314  1.00  0.00     0.037 A 
HETATM   32  C7  UNL     1     -11.681  13.252 -11.670  1.00  0.00     0.011 A 
HETATM   33  C8  UNL     1     -10.461  12.922 -10.919  1.00  0.00     0.011 A 
ENDBRANCH   8  31
TORSDOF 6
ENDMDL
MODEL 4
REMARK VINA RESULT: -7.935936739      1.941      4.928
REMARK  6 active torsions:
REMARK  status: ('A' for Active; 'I' for Inactive)
REMARK    1  A    between atoms: C5_8  and  C6_9 
REMARK    2  A    between atoms: C11_16  and  N4_17 
REMARK    3  A    between atoms: N4_17  and  C12_19 
REMARK    4  A    between atoms: C12_19  and  C13_20 
REMARK    5  A    between atoms: C17_25  and  N5_26 
REMARK    6  A    between atoms: C20_29  and  O2_30 
ROOT
HETATM    1  N1  UNL     1     -15.109   8.295  -5.675  1.00  0.00    -0.191 NA
HETATM    2  C1  UNL     1     -14.825   9.379  -5.967  1.00  0.00     0.102 C 
HETATM    3  C2  UNL     1     -14.459  10.718  -6.349  1.00  0.00     0.075 A 
HETATM    4  C3  UNL     1     -13.748  10.938  -7.509  1.00  0.00     0.057 A 
HETATM    5  C4  UNL     1     -13.394  12.216  -7.880  1.00  0.00     0.063 A 
HETATM    6  N2  UNL     1     -12.701  12.481  -9.002  1.00  0.00    -0.356 N 
ATOM      7  H2  UNL     1     -12.419  11.714  -9.612  1.00  0.00     0.166 HD
HETATM    8  C5  UNL     1     -12.375  13.743  -9.331  1.00  0.00     0.029 A 
HETATM    9  C9  UNL     1     -12.736  14.809  -8.533  1.00  0.00     0.114 A 
HETATM   10  N3  UNL     1     -13.429  14.541  -7.413  1.00  0.00    -0.360 N 
ATOM     11  H3  UNL     1     -13.710  15.310  -6.805  1.00  0.00     0.165 HD
HETATM   12  C10 UNL     1     -13.764  13.268  -7.072  1.00  0.00     0.088 A 
HETATM   13  C11 UNL     1     -14.489  13.045  -5.890  1.00  0.00     0.086 A 
HETATM   14  C17 UNL     1     -14.838  11.784  -5.523  1.00  0.00     0.080 A 
ENDROOT
BRANCH  14  15
HETATM   15  N5  UNL     1     -15.542  11.524  -4.329  1.00  0.00    -0.378 N 
HETATM   16  C18 UNL     1     -16.964  11.444  -4.348  1.00  0.00     0.125 C 
HETATM   17  C19 UNL     1     -17.541  10.318  -3.538  1.00  0.00     0.051 C 
HETATM   18  C20 UNL     1     -16.789   9.989  -2.302  1.00  0.00     0.121 C 
HETATM   19  C21 UNL     1     -15.707  10.969  -1.943  1.00  0.00     0.051 C 
HETATM   20  C22 UNL     1     -14.825  11.341  -3.084  1.00  0.00     0.125 C 
BRANCH  18  21
HETATM   21  O2  UNL     1     -16.268   8.676  -2.336  1.00  0.00    -0.395 OA
ATOM     22  H2  UNL     1     -15.346   8.653  -2.110  1.00  0.00     0.210 HD
ENDBRANCH  18  21
ENDBRANCH  14  15
BRANCH  13  23
HETATM   23  N4  UNL     1     -14.830  14.145  -5.068  1.00  0.00    -0.384 N 
ATOM     24  H4  UNL     1     -14.145  14.445  -4.374  1.00  0.00     0.159 HD
BRANCH  23  25
HETATM   25  C12 UNL     1     -16.071  14.875  -5.136  1.00  0.00     0.151 C 
BRANCH  25  26
HETATM   26  C13 UNL     1     -16.749  14.968  -3.791  1.00  0.00     0.139 C 
HETATM   27  C14 UNL     1     -15.767  14.788  -2.654  1.00  0.00     0.035 C 
HETATM   28  C15 UNL     1     -16.568  15.383  -1.493  1.00  0.00     0.029 C 
HETATM   29  C16 UNL     1     -17.536  16.269  -2.208  1.00  0.00     0.168 C 
HETATM   30  O1  UNL     1     -17.210  16.266  -3.545  1.00  0.00    -0.384 OA
ENDBRANCH  25  26
ENDBRANCH  23  25
ENDBRANCH  13  23
BRANCH   8  31
HETATM   31  C6  UNL     1     -11.608  13.952 -10.586  1.00  0.00     0.037 A 
HETATM   32  C7  UNL     1     -11.674  12.971 -11.677  1.00  0.00     0.011 A 
HETATM   33  C8  UNL     1     -10.453  12.946 -10.859  1.00  0.00     0.011 A 
ENDBRANCH   8  31
TORSDOF 6
ENDMDL
MODEL 5
REMARK VINA RESULT: -7.694327668      2.699      6.080
REMARK  6 active torsions:
REMARK  status: ('A' for Active; 'I' for Inactive)
REMARK    1  A    between atoms: C5_8  and  C6_9 
REMARK    2  A    between atoms: C11_16  and  N4_17 
REMARK    3  A    between atoms: N4_17  and  C12_19 
REMARK    4  A    between atoms: C12_19  and  C13_20 
REMARK    5  A    between atoms: C17_25  and  N5_26 
REMARK    6  A    between atoms: C20_29  and  O2_30 
ROOT
HETATM    1  N1  UNL     1     -16.733   8.668  -0.569  1.00  0.00    -0.191 NA
HETATM    2  C1  UNL     1     -16.463   8.758  -1.691  1.00  0.00     0.102 C 
HETATM    3  C2  UNL     1     -16.139   8.848  -3.091  1.00  0.00     0.075 A 
HETATM    4  C3  UNL     1     -16.648   7.927  -3.981  1.00  0.00     0.057 A 
HETATM    5  C4  UNL     1     -16.342   8.007  -5.321  1.00  0.00     0.063 A 
HETATM    6  N2  UNL     1     -16.813   7.131  -6.227  1.00  0.00    -0.356 N 
ATOM      7  H2  UNL     1     -17.423   6.372  -5.924  1.00  0.00     0.166 HD
HETATM    8  C5  UNL     1     -16.492   7.243  -7.528  1.00  0.00     0.029 A 
HETATM    9  C9  UNL     1     -15.670   8.255  -7.980  1.00  0.00     0.114 A 
HETATM   10  N3  UNL     1     -15.201   9.128  -7.072  1.00  0.00    -0.360 N 
ATOM     11  H3  UNL     1     -14.592   9.887  -7.379  1.00  0.00     0.165 HD
HETATM   12  C10 UNL     1     -15.520   9.023  -5.755  1.00  0.00     0.088 A 
HETATM   13  C11 UNL     1     -15.002   9.963  -4.849  1.00  0.00     0.086 A 
HETATM   14  C17 UNL     1     -15.303   9.885  -3.526  1.00  0.00     0.080 A 
ENDROOT
BRANCH  14  15
HETATM   15  N5  UNL     1     -14.777  10.796  -2.588  1.00  0.00    -0.378 N 
HETATM   16  C18 UNL     1     -15.421  12.050  -2.380  1.00  0.00     0.125 C 
HETATM   17  C19 UNL     1     -15.541  12.465  -0.941  1.00  0.00     0.051 C 
HETATM   18  C20 UNL     1     -14.409  12.053  -0.077  1.00  0.00     0.121 C 
HETATM   19  C21 UNL     1     -13.227  11.486  -0.813  1.00  0.00     0.051 C 
HETATM   20  C22 UNL     1     -13.585  10.463  -1.836  1.00  0.00     0.125 C 
BRANCH  18  21
HETATM   21  O2  UNL     1     -14.819  11.167   0.945  1.00  0.00    -0.395 OA
ATOM     22  H2  UNL     1     -15.537  11.522   1.456  1.00  0.00     0.210 HD
ENDBRANCH  18  21
ENDBRANCH  14  15
BRANCH  13  23
HETATM   23  N4  UNL     1     -14.139  10.980  -5.323  1.00  0.00    -0.384 N 
ATOM     24  H4  UNL     1     -13.135  10.825  -5.232  1.00  0.00     0.159 HD
BRANCH  23  25
HETATM   25  C12 UNL     1     -14.570  12.217  -5.923  1.00  0.00     0.151 C 
BRANCH  25  26
HETATM   26  C13 UNL     1     -13.934  12.444  -7.274  1.00  0.00     0.139 C 
HETATM   27  C14 UNL     1     -12.996  13.631  -7.258  1.00  0.00     0.035 C 
HETATM   28  C15 UNL     1     -12.169  13.352  -8.516  1.00  0.00     0.029 C 
HETATM   29  C16 UNL     1     -12.352  11.878  -8.685  1.00  0.00     0.168 C 
HETATM   30  O1  UNL     1     -13.052  11.408  -7.598  1.00  0.00    -0.384 OA
ENDBRANCH  25  26
ENDBRANCH  23  25
ENDBRANCH  13  23
BRANCH   8  31
HETATM   31  C6  UNL     1     -17.053   6.237  -8.466  1.00  0.00     0.037 A 
HETATM   32  C7  UNL     1     -17.545   6.639  -9.790  1.00  0.00     0.011 A 
HETATM   33  C8  UNL     1     -18.573   6.363  -8.777  1.00  0.00     0.011 A 
ENDBRANCH   8  31
TORSDOF 6
ENDMDL
