MODEL 1
REMARK VINA RESULT: -7.798817470      0.000      0.000
REMARK  9 active torsions:
REMARK  status: ('A' for Active; 'I' for Inactive)
REMARK    1  A    between atoms: O1_2  and  C2_3 
REMARK    2  A    between atoms: C2_3  and  C3_5 
REMARK    3  A    between atoms: N1_7  and  N2_9 
REMARK    4  A    between atoms: N2_9  and  C5_11 
REMARK    5  A    between atoms: C7_18  and  C8_19 
REMARK    6  A    between atoms: C9_23  and  C10_24 
REMARK    7  A    between atoms: C11_27  and  C12_28 
REMARK    8  A    between atoms: C12_28  and  O6_29 
REMARK    9  A    between atoms: O6_29  and  C13_30 
ROOT
HETATM    1  C5  UNL     1      26.582   1.951 -24.966  1.00  0.00     0.154 A 
HETATM    2  N3  UNL     1      25.271   1.843 -24.723  1.00  0.00    -0.291 N 
ATOM      3  H3  UNL     1      24.760   0.961 -24.707  1.00  0.00     0.172 HD
HETATM    4  C6  UNL     1      24.718   3.038 -24.503  1.00  0.00     0.326 A 
HETATM    5  O3  UNL     1      23.516   3.257 -24.252  1.00  0.00    -0.247 OA
HETATM    6  N4  UNL     1      25.757   3.916 -24.622  1.00  0.00    -0.303 N 
ATOM      7  H4  UNL     1      25.665   4.925 -24.511  1.00  0.00     0.171 HD
HETATM    8  C7  UNL     1      26.900   3.300 -24.900  1.00  0.00     0.119 A 
ENDROOT
BRANCH   8   9
HETATM    9  C8  UNL     1      28.235   3.887 -25.103  1.00  0.00     0.140 A 
HETATM   10  O4  UNL     1      29.124   3.978 -24.144  1.00  0.00    -0.234 OA
HETATM   11  N5  UNL     1      30.203   4.517 -24.544  1.00  0.00    -0.255 N 
HETATM   12  C9  UNL     1      30.104   4.846 -25.889  1.00  0.00     0.131 A 
ATOM     13  H5  UNL     1      31.023   4.684 -23.963  1.00  0.00     0.195 HD
HETATM   14  C11 UNL     1      28.847   4.437 -26.226  1.00  0.00     0.038 A 
BRANCH  12  15
HETATM   15  C10 UNL     1      31.196   5.464 -26.565  1.00  0.00     0.283 C 
HETATM   16  N6  UNL     1      32.254   4.904 -27.276  1.00  0.00    -0.056 NA
HETATM   17  O5  UNL     1      31.243   6.763 -26.536  1.00  0.00    -0.269 OA
ENDBRANCH  12  15
BRANCH  14  18
HETATM   18  C12 UNL     1      28.163   4.514 -27.503  1.00  0.00     0.226 C 
BRANCH  18  19
HETATM   19  O6  UNL     1      28.569   3.675 -28.535  1.00  0.00    -0.291 OA
BRANCH  19  20
HETATM   20  C13 UNL     1      28.583   2.295 -28.348  1.00  0.00     0.333 C 
HETATM   21  O7  UNL     1      27.512   1.648 -28.456  1.00  0.00    -0.624 OA
HETATM   22  O8  UNL     1      29.736   1.599 -28.044  1.00  0.00    -0.624 OA
ENDBRANCH  19  20
ENDBRANCH  18  19
ENDBRANCH  14  18
ENDBRANCH   8   9
BRANCH   1  23
HETATM   23  N2  UNL     1      27.427   0.861 -25.230  1.00  0.00    -0.283 N 
ATOM     24  H2  UNL     1      27.045  -0.024 -25.564  1.00  0.00     0.188 HD
BRANCH  23  25
HETATM   25  N1  UNL     1      28.812   1.015 -25.025  1.00  0.00    -0.298 N 
HETATM   26  C3  UNL     1      29.446   0.472 -24.072  1.00  0.00     0.097 C 
HETATM   27  C4  UNL     1      28.722  -0.377 -23.104  1.00  0.00     0.076 C 
ATOM     28  H1  UNL     1      29.333   1.596 -25.680  1.00  0.00     0.187 HD
BRANCH  26  29
HETATM   29  C2  UNL     1      30.873   0.685 -23.936  1.00  0.00     0.306 C 
HETATM   30  O2  UNL     1      31.621  -0.115 -23.293  1.00  0.00    -0.258 OA
BRANCH  29  31
HETATM   31  O1  UNL     1      31.515   1.781 -24.503  1.00  0.00    -0.322 OA
HETATM   32  C1  UNL     1      32.357   1.628 -25.627  1.00  0.00     0.213 C 
ENDBRANCH  29  31
ENDBRANCH  26  29
ENDBRANCH  23  25
ENDBRANCH   1  23
TORSDOF 9
ENDMDL
MODEL 2
REMARK VINA RESULT: -7.758321535      1.078      1.395
REMARK  9 active torsions:
REMARK  status: ('A' for Active; 'I' for Inactive)
REMARK    1  A    between atoms: O1_2  and  C2_3 
REMARK    2  A    between atoms: C2_3  and  C3_5 
REMARK    3  A    between atoms: N1_7  and  N2_9 
REMARK    4  A    between atoms: N2_9  and  C5_11 
REMARK    5  A    between atoms: C7_18  and  C8_19 
REMARK    6  A    between atoms: C9_23  and  C10_24 
REMARK    7  A    between atoms: C11_27  and  C12_28 
REMARK    8  A    between atoms: C12_28  and  O6_29 
REMARK    9  A    between atoms: O6_29  and  C13_30 
ROOT
HETATM    1  C5  UNL     1      26.335   1.889 -24.885  1.00  0.00     0.154 A 
HETATM    2  N3  UNL     1      25.020   1.746 -24.690  1.00  0.00    -0.291 N 
ATOM      3  H3  UNL     1      24.548   0.848 -24.585  1.00  0.00     0.172 HD
HETATM    4  C6  UNL     1      24.404   2.929 -24.650  1.00  0.00     0.326 A 
HETATM    5  O3  UNL     1      23.182   3.117 -24.484  1.00  0.00    -0.247 OA
HETATM    6  N4  UNL     1      25.407   3.837 -24.833  1.00  0.00    -0.303 N 
ATOM      7  H4  UNL     1      25.265   4.846 -24.856  1.00  0.00     0.171 HD
HETATM    8  C7  UNL     1      26.589   3.250 -24.977  1.00  0.00     0.119 A 
ENDROOT
BRANCH   8   9
HETATM    9  C8  UNL     1      27.906   3.873 -25.193  1.00  0.00     0.140 A 
HETATM   10  O4  UNL     1      28.685   4.246 -24.206  1.00  0.00    -0.234 OA
HETATM   11  N5  UNL     1      29.770   4.759 -24.625  1.00  0.00    -0.255 N 
HETATM   12  C9  UNL     1      29.793   4.766 -26.012  1.00  0.00     0.131 A 
ATOM     13  H5  UNL     1      30.516   5.115 -24.027  1.00  0.00     0.195 HD
HETATM   14  C11 UNL     1      28.600   4.199 -26.354  1.00  0.00     0.038 A 
BRANCH  12  15
HETATM   15  C10 UNL     1      30.915   5.294 -26.715  1.00  0.00     0.283 C 
HETATM   16  N6  UNL     1      31.923   4.649 -27.427  1.00  0.00    -0.056 NA
HETATM   17  O5  UNL     1      31.051   6.587 -26.713  1.00  0.00    -0.269 OA
ENDBRANCH  12  15
BRANCH  14  18
HETATM   18  C12 UNL     1      28.050   3.931 -27.669  1.00  0.00     0.226 C 
BRANCH  18  19
HETATM   19  O6  UNL     1      27.867   2.612 -28.068  1.00  0.00    -0.291 OA
BRANCH  19  20
HETATM   20  C13 UNL     1      27.985   2.266 -29.411  1.00  0.00     0.333 C 
HETATM   21  O7  UNL     1      27.410   1.232 -29.834  1.00  0.00    -0.624 OA
HETATM   22  O8  UNL     1      28.715   3.018 -30.310  1.00  0.00    -0.624 OA
ENDBRANCH  19  20
ENDBRANCH  18  19
ENDBRANCH  14  18
ENDBRANCH   8   9
BRANCH   1  23
HETATM   23  N2  UNL     1      27.240   0.818 -24.969  1.00  0.00    -0.283 N 
ATOM     24  H2  UNL     1      27.273   0.229 -25.800  1.00  0.00     0.188 HD
BRANCH  23  25
HETATM   25  N1  UNL     1      28.101   0.575 -23.881  1.00  0.00    -0.298 N 
HETATM   26  C3  UNL     1      29.364   0.644 -23.955  1.00  0.00     0.097 C 
HETATM   27  C4  UNL     1      30.002   0.997 -25.240  1.00  0.00     0.076 C 
ATOM     28  H1  UNL     1      27.685   0.330 -22.983  1.00  0.00     0.187 HD
BRANCH  26  29
HETATM   29  C2  UNL     1      30.175   0.378 -22.783  1.00  0.00     0.306 C 
HETATM   30  O2  UNL     1      29.843   0.777 -21.623  1.00  0.00    -0.258 OA
BRANCH  29  31
HETATM   31  O1  UNL     1      31.368  -0.333 -22.854  1.00  0.00    -0.322 OA
HETATM   32  C1  UNL     1      32.611   0.317 -22.689  1.00  0.00     0.213 C 
ENDBRANCH  29  31
ENDBRANCH  26  29
ENDBRANCH  23  25
ENDBRANCH   1  23
TORSDOF 9
ENDMDL
MODEL 3
REMARK VINA RESULT: -7.743711164      2.110      5.783
REMARK  9 active torsions:
REMARK  status: ('A' for Active; 'I' for Inactive)
REMARK    1  A    between atoms: O1_2  and  C2_3 
REMARK    2  A    between atoms: C2_3  and  C3_5 
REMARK    3  A    between atoms: N1_7  and  N2_9 
REMARK    4  A    between atoms: N2_9  and  C5_11 
REMARK    5  A    between atoms: C7_18  and  C8_19 
REMARK    6  A    between atoms: C9_23  and  C10_24 
REMARK    7  A    between atoms: C11_27  and  C12_28 
REMARK    8  A    between atoms: C12_28  and  O6_29 
REMARK    9  A    between atoms: O6_29  and  C13_30 
ROOT
HETATM    1  C5  UNL     1      29.759   1.530 -25.859  1.00  0.00     0.154 A 
HETATM    2  N3  UNL     1      30.933   1.008 -25.488  1.00  0.00    -0.291 N 
ATOM      3  H3  UNL     1      31.778   1.028 -26.059  1.00  0.00     0.172 HD
HETATM    4  C6  UNL     1      30.857   0.458 -24.275  1.00  0.00     0.326 A 
HETATM    5  O3  UNL     1      31.787  -0.107 -23.665  1.00  0.00    -0.247 OA
HETATM    6  N4  UNL     1      29.562   0.660 -23.895  1.00  0.00    -0.303 N 
ATOM      7  H4  UNL     1      29.175   0.352 -23.003  1.00  0.00     0.171 HD
HETATM    8  C7  UNL     1      28.865   1.305 -24.822  1.00  0.00     0.119 A 
ENDROOT
BRANCH   8   9
HETATM    9  C8  UNL     1      27.450   1.710 -24.794  1.00  0.00     0.140 A 
HETATM   10  O4  UNL     1      26.465   0.846 -24.721  1.00  0.00    -0.234 OA
HETATM   11  N5  UNL     1      25.330   1.418 -24.712  1.00  0.00    -0.255 N 
HETATM   12  C9  UNL     1      25.487   2.795 -24.783  1.00  0.00     0.131 A 
ATOM     13  H5  UNL     1      24.434   0.936 -24.659  1.00  0.00     0.195 HD
HETATM   14  C11 UNL     1      26.840   2.960 -24.835  1.00  0.00     0.038 A 
BRANCH  12  15
HETATM   15  C10 UNL     1      24.349   3.654 -24.786  1.00  0.00     0.283 C 
HETATM   16  N6  UNL     1      23.779   4.396 -25.816  1.00  0.00    -0.056 NA
HETATM   17  O5  UNL     1      23.715   3.790 -23.659  1.00  0.00    -0.269 OA
ENDBRANCH  12  15
BRANCH  14  18
HETATM   18  C12 UNL     1      27.618   4.182 -24.917  1.00  0.00     0.226 C 
BRANCH  18  19
HETATM   19  O6  UNL     1      27.968   4.675 -26.169  1.00  0.00    -0.291 OA
BRANCH  19  20
HETATM   20  C13 UNL     1      29.192   5.312 -26.350  1.00  0.00     0.333 C 
HETATM   21  O7  UNL     1      30.201   4.897 -25.728  1.00  0.00    -0.624 OA
HETATM   22  O8  UNL     1      29.348   6.393 -27.195  1.00  0.00    -0.624 OA
ENDBRANCH  19  20
ENDBRANCH  18  19
ENDBRANCH  14  18
ENDBRANCH   8   9
BRANCH   1  23
HETATM   23  N2  UNL     1      29.536   2.177 -27.086  1.00  0.00    -0.283 N 
ATOM     24  H2  UNL     1      29.501   3.195 -27.139  1.00  0.00     0.188 HD
BRANCH  23  25
HETATM   25  N1  UNL     1      29.365   1.391 -28.242  1.00  0.00    -0.298 N 
HETATM   26  C3  UNL     1      28.944   1.846 -29.347  1.00  0.00     0.097 C 
HETATM   27  C4  UNL     1      28.605   3.279 -29.463  1.00  0.00     0.076 C 
ATOM     28  H1  UNL     1      29.592   0.398 -28.187  1.00  0.00     0.187 HD
BRANCH  26  29
HETATM   29  C2  UNL     1      28.797   0.963 -30.487  1.00  0.00     0.306 C 
HETATM   30  O2  UNL     1      27.714   0.346 -30.733  1.00  0.00    -0.258 OA
BRANCH  29  31
HETATM   31  O1  UNL     1      29.834   0.735 -31.385  1.00  0.00    -0.322 OA
HETATM   32  C1  UNL     1      29.706   1.088 -32.746  1.00  0.00     0.213 C 
ENDBRANCH  29  31
ENDBRANCH  26  29
ENDBRANCH  23  25
ENDBRANCH   1  23
TORSDOF 9
ENDMDL
MODEL 4
REMARK VINA RESULT: -7.573872237      0.919      1.132
REMARK  9 active torsions:
REMARK  status: ('A' for Active; 'I' for Inactive)
REMARK    1  A    between atoms: O1_2  and  C2_3 
REMARK    2  A    between atoms: C2_3  and  C3_5 
REMARK    3  A    between atoms: N1_7  and  N2_9 
REMARK    4  A    between atoms: N2_9  and  C5_11 
REMARK    5  A    between atoms: C7_18  and  C8_19 
REMARK    6  A    between atoms: C9_23  and  C10_24 
REMARK    7  A    between atoms: C11_27  and  C12_28 
REMARK    8  A    between atoms: C12_28  and  O6_29 
REMARK    9  A    between atoms: O6_29  and  C13_30 
ROOT
HETATM    1  C5  UNL     1      26.727   1.840 -24.966  1.00  0.00     0.154 A 
HETATM    2  N3  UNL     1      25.411   1.656 -24.807  1.00  0.00    -0.291 N 
ATOM      3  H3  UNL     1      24.962   0.742 -24.741  1.00  0.00     0.172 HD
HETATM    4  C6  UNL     1      24.762   2.820 -24.745  1.00  0.00     0.326 A 
HETATM    5  O3  UNL     1      23.532   2.970 -24.602  1.00  0.00    -0.247 OA
HETATM    6  N4  UNL     1      25.744   3.759 -24.875  1.00  0.00    -0.303 N 
ATOM      7  H4  UNL     1      25.575   4.765 -24.870  1.00  0.00     0.171 HD
HETATM    8  C7  UNL     1      26.945   3.209 -25.010  1.00  0.00     0.119 A 
ENDROOT
BRANCH   8   9
HETATM    9  C8  UNL     1      28.248   3.874 -25.174  1.00  0.00     0.140 A 
HETATM   10  O4  UNL     1      29.096   4.031 -24.185  1.00  0.00    -0.234 OA
HETATM   11  N5  UNL     1      30.153   4.630 -24.554  1.00  0.00    -0.255 N 
HETATM   12  C9  UNL     1      30.083   4.937 -25.906  1.00  0.00     0.131 A 
ATOM     13  H5  UNL     1      30.941   4.853 -23.946  1.00  0.00     0.195 HD
HETATM   14  C11 UNL     1      28.866   4.448 -26.281  1.00  0.00     0.038 A 
BRANCH  12  15
HETATM   15  C10 UNL     1      31.159   5.613 -26.552  1.00  0.00     0.283 C 
HETATM   16  N6  UNL     1      31.589   6.933 -26.450  1.00  0.00    -0.056 NA
HETATM   17  O5  UNL     1      31.879   4.913 -27.377  1.00  0.00    -0.269 OA
ENDBRANCH  12  15
BRANCH  14  18
HETATM   18  C12 UNL     1      28.225   4.468 -27.583  1.00  0.00     0.226 C 
BRANCH  18  19
HETATM   19  O6  UNL     1      28.678   3.599 -28.569  1.00  0.00    -0.291 OA
BRANCH  19  20
HETATM   20  C13 UNL     1      28.490   2.227 -28.430  1.00  0.00     0.333 C 
HETATM   21  O7  UNL     1      29.304   1.559 -27.746  1.00  0.00    -0.624 OA
HETATM   22  O8  UNL     1      27.434   1.559 -29.019  1.00  0.00    -0.624 OA
ENDBRANCH  19  20
ENDBRANCH  18  19
ENDBRANCH  14  18
ENDBRANCH   8   9
BRANCH   1  23
HETATM   23  N2  UNL     1      27.662   0.796 -25.061  1.00  0.00    -0.283 N 
ATOM     24  H2  UNL     1      27.383  -0.123 -25.402  1.00  0.00     0.188 HD
BRANCH  23  25
HETATM   25  N1  UNL     1      28.994   1.047 -24.677  1.00  0.00    -0.298 N 
HETATM   26  C3  UNL     1      29.540   0.534 -23.655  1.00  0.00     0.097 C 
HETATM   27  C4  UNL     1      28.763  -0.384 -22.797  1.00  0.00     0.076 C 
ATOM     28  H1  UNL     1      29.550   1.678 -25.254  1.00  0.00     0.187 HD
BRANCH  26  29
HETATM   29  C2  UNL     1      30.918   0.849 -23.335  1.00  0.00     0.306 C 
HETATM   30  O2  UNL     1      31.853  -0.004 -23.448  1.00  0.00    -0.258 OA
BRANCH  29  31
HETATM   31  O1  UNL     1      31.304   2.105 -22.882  1.00  0.00    -0.322 OA
HETATM   32  C1  UNL     1      32.638   2.359 -22.493  1.00  0.00     0.213 C 
ENDBRANCH  29  31
ENDBRANCH  26  29
ENDBRANCH  23  25
ENDBRANCH   1  23
TORSDOF 9
ENDMDL
MODEL 5
REMARK VINA RESULT: -7.300539764      2.472      4.000
REMARK  9 active torsions:
REMARK  status: ('A' for Active; 'I' for Inactive)
REMARK    1  A    between atoms: O1_2  and  C2_3 
REMARK    2  A    between atoms: C2_3  and  C3_5 
REMARK    3  A    between atoms: N1_7  and  N2_9 
REMARK    4  A    between atoms: N2_9  and  C5_11 
REMARK    5  A    between atoms: C7_18  and  C8_19 
REMARK    6  A    between atoms: C9_23  and  C10_24 
REMARK    7  A    between atoms: C11_27  and  C12_28 
REMARK    8  A    between atoms: C12_28  and  O6_29 
REMARK    9  A    between atoms: O6_29  and  C13_30 
ROOT
HETATM    1  C5  UNL     1      27.966   2.416 -27.917  1.00  0.00     0.154 A 
HETATM    2  N3  UNL     1      27.609   1.478 -28.802  1.00  0.00    -0.291 N 
ATOM      3  H3  UNL     1      26.840   0.823 -28.667  1.00  0.00     0.172 HD
HETATM    4  C6  UNL     1      28.390   1.510 -29.884  1.00  0.00     0.326 A 
HETATM    5  O3  UNL     1      28.302   0.760 -30.876  1.00  0.00    -0.247 OA
HETATM    6  N4  UNL     1      29.267   2.526 -29.635  1.00  0.00    -0.303 N 
ATOM      7  H4  UNL     1      30.007   2.810 -30.277  1.00  0.00     0.171 HD
HETATM    8  C7  UNL     1      29.045   3.099 -28.459  1.00  0.00     0.119 A 
ENDROOT
BRANCH   8   9
HETATM    9  C8  UNL     1      29.766   4.218 -27.830  1.00  0.00     0.140 A 
HETATM   10  O4  UNL     1      29.172   5.328 -27.461  1.00  0.00    -0.234 OA
HETATM   11  N5  UNL     1      29.987   6.154 -26.942  1.00  0.00    -0.255 N 
HETATM   12  C9  UNL     1      31.268   5.619 -26.926  1.00  0.00     0.131 A 
ATOM     13  H5  UNL     1      29.737   7.077 -26.588  1.00  0.00     0.195 HD
HETATM   14  C11 UNL     1      31.106   4.389 -27.494  1.00  0.00     0.038 A 
BRANCH  12  15
HETATM   15  C10 UNL     1      32.357   6.364 -26.388  1.00  0.00     0.283 C 
HETATM   16  N6  UNL     1      33.729   6.135 -26.452  1.00  0.00    -0.056 NA
HETATM   17  O5  UNL     1      32.058   7.440 -25.724  1.00  0.00    -0.269 OA
ENDBRANCH  12  15
BRANCH  14  18
HETATM   18  C12 UNL     1      32.091   3.356 -27.752  1.00  0.00     0.226 C 
BRANCH  18  19
HETATM   19  O6  UNL     1      32.398   3.031 -29.068  1.00  0.00    -0.291 OA
BRANCH  19  20
HETATM   20  C13 UNL     1      32.658   1.709 -29.418  1.00  0.00     0.333 C 
HETATM   21  O7  UNL     1      33.663   1.129 -28.935  1.00  0.00    -0.624 OA
HETATM   22  O8  UNL     1      31.850   0.996 -30.282  1.00  0.00    -0.624 OA
ENDBRANCH  19  20
ENDBRANCH  18  19
ENDBRANCH  14  18
ENDBRANCH   8   9
BRANCH   1  23
HETATM   23  N2  UNL     1      27.324   2.621 -26.685  1.00  0.00    -0.283 N 
ATOM     24  H2  UNL     1      26.712   3.425 -26.544  1.00  0.00     0.188 HD
BRANCH  23  25
HETATM   25  N1  UNL     1      27.542   1.693 -25.648  1.00  0.00    -0.298 N 
HETATM   26  C3  UNL     1      28.243   1.938 -24.621  1.00  0.00     0.097 C 
HETATM   27  C4  UNL     1      28.881   3.262 -24.472  1.00  0.00     0.076 C 
ATOM     28  H1  UNL     1      27.112   0.772 -25.728  1.00  0.00     0.187 HD
BRANCH  26  29
HETATM   29  C2  UNL     1      28.415   0.922 -23.602  1.00  0.00     0.306 C 
HETATM   30  O2  UNL     1      27.974  -0.261 -23.741  1.00  0.00    -0.258 OA
BRANCH  29  31
HETATM   31  O1  UNL     1      29.074   1.178 -22.405  1.00  0.00    -0.322 OA
HETATM   32  C1  UNL     1      30.165   0.382 -21.992  1.00  0.00     0.213 C 
ENDBRANCH  29  31
ENDBRANCH  26  29
ENDBRANCH  23  25
ENDBRANCH   1  23
TORSDOF 9
ENDMDL
