MODEL 1
REMARK VINA RESULT: -8.644882457      0.000      0.000
REMARK  7 active torsions:
REMARK  status: ('A' for Active; 'I' for Inactive)
REMARK    1  A    between atoms: N1_2  and  C1_4 
REMARK    2  A    between atoms: C6_9  and  C7_10 
REMARK    3  A    between atoms: C9_12  and  O3_13 
REMARK    4  A    between atoms: N2_15  and  C10_16 
REMARK    5  A    between atoms: C16_22  and  N3_23 
REMARK    6  A    between atoms: C17_25  and  C18_26 
REMARK    7  A    between atoms: C18_26  and  N4_27 
ROOT
HETATM    1  C7  UNL     1     -19.832   1.754 -23.790  1.00  0.00     0.025 A 
HETATM    2  C8  UNL     1     -20.116   0.387 -23.648  1.00  0.00     0.072 A 
HETATM    3  C9  UNL     1     -18.951  -0.346 -23.629  1.00  0.00     0.144 A 
HETATM    4  N2  UNL     1     -17.933   0.557 -23.759  1.00  0.00    -0.308 N 
HETATM    5  C16 UNL     1     -18.446   1.795 -23.853  1.00  0.00     0.120 A 
ENDROOT
BRANCH   5   6
HETATM    6  N3  UNL     1     -17.696   3.015 -23.987  1.00  0.00    -0.353 N 
HETATM    7  C17 UNL     1     -17.039   3.496 -22.969  1.00  0.00     0.092 C 
ATOM      8  H3  UNL     1     -17.677   3.505 -24.881  1.00  0.00     0.166 HD
BRANCH   7   9
HETATM    9  C18 UNL     1     -16.288   4.750 -23.166  1.00  0.00     0.317 C 
BRANCH   9  10
HETATM   10  N4  UNL     1     -15.013   4.708 -22.457  1.00  0.00     0.093 N 
HETATM   11  C19 UNL     1     -15.246   4.785 -21.025  1.00  0.00     0.273 C 
HETATM   12  C20 UNL     1     -13.936   4.757 -20.303  1.00  0.00     0.030 C 
HETATM   13  C21 UNL     1     -13.204   3.465 -20.598  1.00  0.00     0.003 C 
HETATM   14  C22 UNL     1     -13.012   3.351 -22.082  1.00  0.00     0.030 C 
HETATM   15  C23 UNL     1     -14.368   3.467 -22.748  1.00  0.00     0.273 C 
ENDBRANCH   9  10
ENDBRANCH   7   9
ENDBRANCH   5   6
BRANCH   1  16
HETATM   16  C6  UNL     1     -20.818   2.817 -23.871  1.00  0.00     0.011 A 
HETATM   17  C1  UNL     1     -20.979   3.715 -22.862  1.00  0.00     0.114 A 
HETATM   18  C2  UNL     1     -21.947   4.720 -23.002  1.00  0.00     0.037 A 
HETATM   19  C3  UNL     1     -22.736   4.826 -24.125  1.00  0.00     0.002 A 
HETATM   20  C4  UNL     1     -22.575   3.922 -25.143  1.00  0.00     0.001 A 
HETATM   21  C5  UNL     1     -21.628   2.934 -25.012  1.00  0.00     0.015 A 
BRANCH  17  22
HETATM   22  N1  UNL     1     -20.207   3.654 -21.688  1.00  0.00    -0.115 N 
HETATM   23  O1  UNL     1     -20.077   2.691 -20.933  1.00  0.00    -0.532 OA
HETATM   24  O2  UNL     1     -19.512   4.813 -21.344  1.00  0.00    -0.532 OA
ENDBRANCH  17  22
ENDBRANCH   1  16
BRANCH   4  25
HETATM   25  C10 UNL     1     -16.549   0.156 -23.801  1.00  0.00     0.093 C 
HETATM   26  C11 UNL     1     -16.395  -1.265 -24.311  1.00  0.00     0.026 C 
HETATM   27  C12 UNL     1     -15.560  -2.136 -23.417  1.00  0.00     0.002 C 
HETATM   28  C13 UNL     1     -14.225  -1.520 -23.153  1.00  0.00     0.000 C 
HETATM   29  C14 UNL     1     -14.377  -0.089 -22.756  1.00  0.00     0.002 C 
HETATM   30  C15 UNL     1     -15.839   0.287 -22.479  1.00  0.00     0.026 C 
ENDBRANCH   4  25
BRANCH   3  31
HETATM   31  O3  UNL     1     -18.857  -1.732 -23.501  1.00  0.00    -0.346 OA
ATOM     32  H3  UNL     1     -18.917  -2.363 -24.209  1.00  0.00     0.219 HD
ENDBRANCH   3  31
TORSDOF 7
ENDMDL
MODEL 2
REMARK VINA RESULT: -8.587258360      2.802      7.629
REMARK  7 active torsions:
REMARK  status: ('A' for Active; 'I' for Inactive)
REMARK    1  A    between atoms: N1_2  and  C1_4 
REMARK    2  A    between atoms: C6_9  and  C7_10 
REMARK    3  A    between atoms: C9_12  and  O3_13 
REMARK    4  A    between atoms: N2_15  and  C10_16 
REMARK    5  A    between atoms: C16_22  and  N3_23 
REMARK    6  A    between atoms: C17_25  and  C18_26 
REMARK    7  A    between atoms: C18_26  and  N4_27 
ROOT
HETATM    1  C7  UNL     1     -15.155   1.071 -22.274  1.00  0.00     0.025 A 
HETATM    2  C8  UNL     1     -14.636   2.027 -21.387  1.00  0.00     0.072 A 
HETATM    3  C9  UNL     1     -15.456   3.131 -21.337  1.00  0.00     0.144 A 
HETATM    4  N2  UNL     1     -16.492   2.872 -22.190  1.00  0.00    -0.308 N 
HETATM    5  C16 UNL     1     -16.320   1.660 -22.743  1.00  0.00     0.120 A 
ENDROOT
BRANCH   5   6
HETATM    6  N3  UNL     1     -17.205   1.025 -23.684  1.00  0.00    -0.353 N 
HETATM    7  C17 UNL     1     -18.357   0.561 -23.289  1.00  0.00     0.092 C 
ATOM      8  H3  UNL     1     -16.930   0.939 -24.662  1.00  0.00     0.166 HD
BRANCH   7   9
HETATM    9  C18 UNL     1     -19.222  -0.080 -24.297  1.00  0.00     0.317 C 
BRANCH   9  10
HETATM   10  N4  UNL     1     -20.444   0.691 -24.497  1.00  0.00     0.093 N 
HETATM   11  C19 UNL     1     -21.577  -0.033 -23.945  1.00  0.00     0.273 C 
HETATM   12  C20 UNL     1     -22.830   0.753 -24.166  1.00  0.00     0.030 C 
HETATM   13  C21 UNL     1     -22.735   2.094 -23.468  1.00  0.00     0.003 C 
HETATM   14  C22 UNL     1     -21.533   2.824 -23.992  1.00  0.00     0.030 C 
HETATM   15  C23 UNL     1     -20.319   1.935 -23.807  1.00  0.00     0.273 C 
ENDBRANCH   9  10
ENDBRANCH   7   9
ENDBRANCH   5   6
BRANCH   1  16
HETATM   16  C6  UNL     1     -14.541  -0.206 -22.592  1.00  0.00     0.011 A 
HETATM   17  C1  UNL     1     -13.206  -0.313 -22.829  1.00  0.00     0.114 A 
HETATM   18  C2  UNL     1     -12.675  -1.576 -23.129  1.00  0.00     0.037 A 
HETATM   19  C3  UNL     1     -13.459  -2.706 -23.190  1.00  0.00     0.002 A 
HETATM   20  C4  UNL     1     -14.805  -2.599 -22.951  1.00  0.00     0.001 A 
HETATM   21  C5  UNL     1     -15.332  -1.364 -22.657  1.00  0.00     0.015 A 
BRANCH  17  22
HETATM   22  N1  UNL     1     -12.355   0.805 -22.786  1.00  0.00    -0.115 N 
HETATM   23  O1  UNL     1     -12.063   1.552 -23.719  1.00  0.00    -0.532 OA
HETATM   24  O2  UNL     1     -11.781   1.100 -21.550  1.00  0.00    -0.532 OA
ENDBRANCH  17  22
ENDBRANCH   1  16
BRANCH   4  25
HETATM   25  C10 UNL     1     -17.555   3.819 -22.420  1.00  0.00     0.093 C 
HETATM   26  C11 UNL     1     -17.013   5.179 -22.822  1.00  0.00     0.026 C 
HETATM   27  C12 UNL     1     -17.564   6.310 -22.001  1.00  0.00     0.002 C 
HETATM   28  C13 UNL     1     -19.058   6.310 -22.011  1.00  0.00     0.000 C 
HETATM   29  C14 UNL     1     -19.584   4.943 -21.721  1.00  0.00     0.002 C 
HETATM   30  C15 UNL     1     -18.484   3.983 -21.246  1.00  0.00     0.026 C 
ENDBRANCH   4  25
BRANCH   3  31
HETATM   31  O3  UNL     1     -15.248   4.271 -20.560  1.00  0.00    -0.346 OA
ATOM     32  H3  UNL     1     -15.922   4.863 -20.246  1.00  0.00     0.219 HD
ENDBRANCH   3  31
TORSDOF 7
ENDMDL
MODEL 3
REMARK VINA RESULT: -8.466655270      2.098      6.226
REMARK  7 active torsions:
REMARK  status: ('A' for Active; 'I' for Inactive)
REMARK    1  A    between atoms: N1_2  and  C1_4 
REMARK    2  A    between atoms: C6_9  and  C7_10 
REMARK    3  A    between atoms: C9_12  and  O3_13 
REMARK    4  A    between atoms: N2_15  and  C10_16 
REMARK    5  A    between atoms: C16_22  and  N3_23 
REMARK    6  A    between atoms: C17_25  and  C18_26 
REMARK    7  A    between atoms: C18_26  and  N4_27 
ROOT
HETATM    1  C7  UNL     1     -16.233   0.831 -23.108  1.00  0.00     0.025 A 
HETATM    2  C8  UNL     1     -17.417   0.756 -23.856  1.00  0.00     0.072 A 
HETATM    3  C9  UNL     1     -18.279   1.765 -23.492  1.00  0.00     0.144 A 
HETATM    4  N2  UNL     1     -17.639   2.477 -22.516  1.00  0.00    -0.308 N 
HETATM    5  C16 UNL     1     -16.433   1.931 -22.287  1.00  0.00     0.120 A 
ENDROOT
BRANCH   5   6
HETATM    6  N3  UNL     1     -15.456   2.403 -21.342  1.00  0.00    -0.353 N 
HETATM    7  C17 UNL     1     -14.788   3.497 -21.580  1.00  0.00     0.092 C 
ATOM      8  H3  UNL     1     -15.286   1.880 -20.483  1.00  0.00     0.166 HD
BRANCH   7   9
HETATM    9  C18 UNL     1     -13.800   3.931 -20.574  1.00  0.00     0.317 C 
BRANCH   9  10
HETATM   10  N4  UNL     1     -14.232   5.161 -19.920  1.00  0.00     0.093 N 
HETATM   11  C19 UNL     1     -13.109   6.076 -19.806  1.00  0.00     0.273 C 
HETATM   12  C20 UNL     1     -13.552   7.330 -19.120  1.00  0.00     0.030 C 
HETATM   13  C21 UNL     1     -14.641   8.009 -19.926  1.00  0.00     0.003 C 
HETATM   14  C22 UNL     1     -15.781   7.048 -20.098  1.00  0.00     0.030 C 
HETATM   15  C23 UNL     1     -15.241   5.776 -20.722  1.00  0.00     0.273 C 
ENDBRANCH   9  10
ENDBRANCH   7   9
ENDBRANCH   5   6
BRANCH   1  16
HETATM   16  C6  UNL     1     -15.111  -0.086 -23.210  1.00  0.00     0.011 A 
HETATM   17  C1  UNL     1     -15.298  -1.429 -23.311  1.00  0.00     0.114 A 
HETATM   18  C2  UNL     1     -14.172  -2.261 -23.409  1.00  0.00     0.037 A 
HETATM   19  C3  UNL     1     -12.890  -1.761 -23.407  1.00  0.00     0.002 A 
HETATM   20  C4  UNL     1     -12.700  -0.407 -23.306  1.00  0.00     0.001 A 
HETATM   21  C5  UNL     1     -13.798   0.413 -23.208  1.00  0.00     0.015 A 
BRANCH  17  22
HETATM   22  N1  UNL     1     -16.583  -1.999 -23.312  1.00  0.00    -0.115 N 
HETATM   23  O1  UNL     1     -17.312  -2.192 -22.339  1.00  0.00    -0.532 OA
HETATM   24  O2  UNL     1     -17.088  -2.385 -24.554  1.00  0.00    -0.532 OA
ENDBRANCH  17  22
ENDBRANCH   1  16
BRANCH   4  25
HETATM   25  C10 UNL     1     -18.245   3.613 -21.868  1.00  0.00     0.093 C 
HETATM   26  C11 UNL     1     -19.657   3.303 -21.405  1.00  0.00     0.026 C 
HETATM   27  C12 UNL     1     -20.673   4.313 -21.860  1.00  0.00     0.002 C 
HETATM   28  C13 UNL     1     -20.277   5.698 -21.464  1.00  0.00     0.000 C 
HETATM   29  C14 UNL     1     -18.852   5.958 -21.825  1.00  0.00     0.002 C 
HETATM   30  C15 UNL     1     -18.265   4.857 -22.719  1.00  0.00     0.026 C 
ENDBRANCH   4  25
BRANCH   3  31
HETATM   31  O3  UNL     1     -19.547   1.994 -24.029  1.00  0.00    -0.346 OA
ATOM     32  H3  UNL     1     -19.775   1.966 -24.951  1.00  0.00     0.219 HD
ENDBRANCH   3  31
TORSDOF 7
ENDMDL
MODEL 4
REMARK VINA RESULT: -8.332261412      2.896      7.734
REMARK  7 active torsions:
REMARK  status: ('A' for Active; 'I' for Inactive)
REMARK    1  A    between atoms: N1_2  and  C1_4 
REMARK    2  A    between atoms: C6_9  and  C7_10 
REMARK    3  A    between atoms: C9_12  and  O3_13 
REMARK    4  A    between atoms: N2_15  and  C10_16 
REMARK    5  A    between atoms: C16_22  and  N3_23 
REMARK    6  A    between atoms: C17_25  and  C18_26 
REMARK    7  A    between atoms: C18_26  and  N4_27 
ROOT
HETATM    1  C7  UNL     1     -15.051   1.269 -22.228  1.00  0.00     0.025 A 
HETATM    2  C8  UNL     1     -14.395   2.156 -21.361  1.00  0.00     0.072 A 
HETATM    3  C9  UNL     1     -15.080   3.347 -21.284  1.00  0.00     0.144 A 
HETATM    4  N2  UNL     1     -16.168   3.212 -22.100  1.00  0.00    -0.308 N 
HETATM    5  C16 UNL     1     -16.156   1.990 -22.658  1.00  0.00     0.120 A 
ENDROOT
BRANCH   5   6
HETATM    6  N3  UNL     1     -17.140   1.464 -23.566  1.00  0.00    -0.353 N 
HETATM    7  C17 UNL     1     -18.321   1.126 -23.129  1.00  0.00     0.092 C 
ATOM      8  H3  UNL     1     -16.914   1.356 -24.555  1.00  0.00     0.166 HD
BRANCH   7   9
HETATM    9  C18 UNL     1     -19.288   0.593 -24.107  1.00  0.00     0.317 C 
BRANCH   9  10
HETATM   10  N4  UNL     1     -20.658   0.836 -23.667  1.00  0.00     0.093 N 
HETATM   11  C19 UNL     1     -21.027   2.213 -23.949  1.00  0.00     0.273 C 
HETATM   12  C20 UNL     1     -22.426   2.462 -23.482  1.00  0.00     0.030 C 
HETATM   13  C21 UNL     1     -23.391   1.550 -24.212  1.00  0.00     0.003 C 
HETATM   14  C22 UNL     1     -22.980   0.127 -23.973  1.00  0.00     0.030 C 
HETATM   15  C23 UNL     1     -21.532  -0.029 -24.394  1.00  0.00     0.273 C 
ENDBRANCH   9  10
ENDBRANCH   7   9
ENDBRANCH   5   6
BRANCH   1  16
HETATM   16  C6  UNL     1     -14.600  -0.070 -22.566  1.00  0.00     0.011 A 
HETATM   17  C1  UNL     1     -13.300  -0.325 -22.873  1.00  0.00     0.114 A 
HETATM   18  C2  UNL     1     -12.928  -1.641 -23.188  1.00  0.00     0.037 A 
HETATM   19  C3  UNL     1     -13.834  -2.677 -23.196  1.00  0.00     0.002 A 
HETATM   20  C4  UNL     1     -15.145  -2.421 -22.886  1.00  0.00     0.001 A 
HETATM   21  C5  UNL     1     -15.516  -1.134 -22.577  1.00  0.00     0.015 A 
BRANCH  17  22
HETATM   22  N1  UNL     1     -12.329   0.692 -22.887  1.00  0.00    -0.115 N 
HETATM   23  O1  UNL     1     -11.947   1.341 -23.861  1.00  0.00    -0.532 OA
HETATM   24  O2  UNL     1     -11.737   1.000 -21.663  1.00  0.00    -0.532 OA
ENDBRANCH  17  22
ENDBRANCH   1  16
BRANCH   4  25
HETATM   25  C10 UNL     1     -17.121   4.275 -22.294  1.00  0.00     0.093 C 
HETATM   26  C11 UNL     1     -16.435   5.624 -22.419  1.00  0.00     0.026 C 
HETATM   27  C12 UNL     1     -16.996   6.669 -21.497  1.00  0.00     0.002 C 
HETATM   28  C13 UNL     1     -18.474   6.808 -21.669  1.00  0.00     0.000 C 
HETATM   29  C14 UNL     1     -19.131   5.467 -21.654  1.00  0.00     0.002 C 
HETATM   30  C15 UNL     1     -18.171   4.352 -21.217  1.00  0.00     0.026 C 
ENDBRANCH   4  25
BRANCH   3  31
HETATM   31  O3  UNL     1     -14.715   4.454 -20.516  1.00  0.00    -0.346 OA
ATOM     32  H3  UNL     1     -15.290   5.160 -20.247  1.00  0.00     0.219 HD
ENDBRANCH   3  31
TORSDOF 7
ENDMDL
MODEL 5
REMARK VINA RESULT: -8.313625271      2.567      6.924
REMARK  7 active torsions:
REMARK  status: ('A' for Active; 'I' for Inactive)
REMARK    1  A    between atoms: N1_2  and  C1_4 
REMARK    2  A    between atoms: C6_9  and  C7_10 
REMARK    3  A    between atoms: C9_12  and  O3_13 
REMARK    4  A    between atoms: N2_15  and  C10_16 
REMARK    5  A    between atoms: C16_22  and  N3_23 
REMARK    6  A    between atoms: C17_25  and  C18_26 
REMARK    7  A    between atoms: C18_26  and  N4_27 
ROOT
HETATM    1  C7  UNL     1     -16.857   2.303 -23.018  1.00  0.00     0.025 A 
HETATM    2  C8  UNL     1     -15.670   2.919 -23.445  1.00  0.00     0.072 A 
HETATM    3  C9  UNL     1     -15.576   4.190 -22.927  1.00  0.00     0.144 A 
HETATM    4  N2  UNL     1     -16.701   4.377 -22.174  1.00  0.00    -0.308 N 
HETATM    5  C16 UNL     1     -17.458   3.269 -22.223  1.00  0.00     0.120 A 
ENDROOT
BRANCH   5   6
HETATM    6  N3  UNL     1     -18.714   3.070 -21.549  1.00  0.00    -0.353 N 
HETATM    7  C17 UNL     1     -19.793   3.653 -21.988  1.00  0.00     0.092 C 
ATOM      8  H3  UNL     1     -18.759   2.470 -20.726  1.00  0.00     0.166 HD
BRANCH   7   9
HETATM    9  C18 UNL     1     -21.051   3.412 -21.256  1.00  0.00     0.317 C 
BRANCH   9  10
HETATM   10  N4  UNL     1     -21.821   4.644 -21.127  1.00  0.00     0.093 N 
HETATM   11  C19 UNL     1     -20.969   5.787 -21.410  1.00  0.00     0.273 C 
HETATM   12  C20 UNL     1     -21.759   7.049 -21.262  1.00  0.00     0.030 C 
HETATM   13  C21 UNL     1     -22.914   7.061 -22.242  1.00  0.00     0.003 C 
HETATM   14  C22 UNL     1     -23.766   5.851 -21.994  1.00  0.00     0.030 C 
HETATM   15  C23 UNL     1     -22.884   4.621 -22.081  1.00  0.00     0.273 C 
ENDBRANCH   9  10
ENDBRANCH   7   9
ENDBRANCH   5   6
BRANCH   1  16
HETATM   16  C6  UNL     1     -17.296   0.969 -23.388  1.00  0.00     0.011 A 
HETATM   17  C1  UNL     1     -16.465  -0.104 -23.293  1.00  0.00     0.114 A 
HETATM   18  C2  UNL     1     -16.951  -1.367 -23.663  1.00  0.00     0.037 A 
HETATM   19  C3  UNL     1     -18.237  -1.553 -24.116  1.00  0.00     0.002 A 
HETATM   20  C4  UNL     1     -19.076  -0.473 -24.211  1.00  0.00     0.001 A 
HETATM   21  C5  UNL     1     -18.606   0.768 -23.851  1.00  0.00     0.015 A 
BRANCH  17  22
HETATM   22  N1  UNL     1     -15.140   0.024 -22.843  1.00  0.00    -0.115 N 
HETATM   23  O1  UNL     1     -14.764   0.236 -21.690  1.00  0.00    -0.532 OA
HETATM   24  O2  UNL     1     -14.142  -0.105 -23.809  1.00  0.00    -0.532 OA
ENDBRANCH  17  22
ENDBRANCH   1  16
BRANCH   4  25
HETATM   25  C10 UNL     1     -16.968   5.613 -21.482  1.00  0.00     0.093 C 
HETATM   26  C11 UNL     1     -17.501   6.676 -22.426  1.00  0.00     0.026 C 
HETATM   27  C12 UNL     1     -16.757   7.979 -22.344  1.00  0.00     0.002 C 
HETATM   28  C13 UNL     1     -16.710   8.490 -20.941  1.00  0.00     0.000 C 
HETATM   29  C14 UNL     1     -16.289   7.407 -20.003  1.00  0.00     0.002 C 
HETATM   30  C15 UNL     1     -15.777   6.162 -20.741  1.00  0.00     0.026 C 
ENDBRANCH   4  25
BRANCH   3  31
HETATM   31  O3  UNL     1     -14.529   5.087 -23.143  1.00  0.00    -0.346 OA
ATOM     32  H3  UNL     1     -14.181   5.702 -22.508  1.00  0.00     0.219 HD
ENDBRANCH   3  31
TORSDOF 7
ENDMDL
