MODEL 1
REMARK VINA RESULT: -8.956212028      0.000      0.000
REMARK  9 active torsions:
REMARK  status: ('A' for Active; 'I' for Inactive)
REMARK       I    between atoms: N1_2  and  C3_4 
REMARK    1  A    between atoms: C3_4  and  C4_6 
REMARK    2  A    between atoms: C4_6  and  N2_7 
REMARK    3  A    between atoms: C5_10  and  C6_11 
REMARK    4  A    between atoms: C7_14  and  C8_15 
REMARK    5  A    between atoms: N7_19  and  C9_20 
REMARK    6  A    between atoms: C10_26  and  N10_27 
REMARK    7  A    between atoms: C11_32  and  O3_33 
REMARK    8  A    between atoms: C12_35  and  O4_36 
REMARK    9  A    between atoms: C13_38  and  O5_39 
ROOT
HETATM    1  C6  UNL     1      -5.258 -33.355  -1.510  1.00  0.00     0.116 A 
HETATM    2  N4  UNL     1      -5.191 -32.045  -1.119  1.00  0.00    -0.345 N 
ATOM      3  H4  UNL     1      -5.160 -31.325  -1.840  1.00  0.00     0.166 HD
HETATM    4  C7  UNL     1      -5.163 -31.663   0.164  1.00  0.00     0.116 A 
HETATM    5  C11 UNL     1      -5.202 -32.607   1.191  1.00  0.00     0.132 A 
HETATM    6  C12 UNL     1      -5.269 -33.926   0.804  1.00  0.00     0.137 A 
HETATM    7  C13 UNL     1      -5.298 -34.309  -0.545  1.00  0.00     0.132 A 
ENDROOT
BRANCH   4   8
HETATM    8  C8  UNL     1      -5.095 -30.251   0.522  1.00  0.00     0.164 A 
HETATM    9  N5  UNL     1      -6.087 -29.559   1.086  1.00  0.00    -0.265 N 
HETATM   10  N6  UNL     1      -5.696 -28.301   1.279  1.00  0.00     0.004 NA
ATOM     11  H5  UNL     1      -7.002 -29.936   1.331  1.00  0.00     0.186 HD
HETATM   12  N7  UNL     1      -4.454 -28.219   0.831  1.00  0.00    -0.156 N 
HETATM   13  N11 UNL     1      -4.066 -29.395   0.365  1.00  0.00    -0.261 N 
ATOM     14  H11 UNL     1      -3.156 -29.614  -0.039  1.00  0.00     0.190 HD
BRANCH  12  15
HETATM   15  C9  UNL     1      -3.662 -27.025   0.855  1.00  0.00     0.210 A 
HETATM   16  N8  UNL     1      -2.631 -26.686   0.061  1.00  0.00    -0.219 N 
HETATM   17  O2  UNL     1      -2.169 -25.500   0.406  1.00  0.00    -0.153 OA
ATOM     18  H8  UNL     1      -2.260 -27.262  -0.695  1.00  0.00     0.198 HD
HETATM   19  N9  UNL     1      -2.875 -25.064   1.401  1.00  0.00    -0.222 N 
HETATM   20  C10 UNL     1      -3.812 -25.963   1.721  1.00  0.00     0.170 A 
ATOM     21  H9  UNL     1      -2.737 -24.169   1.871  1.00  0.00     0.198 HD
BRANCH  20  22
HETATM   22  N10 UNL     1      -4.686 -25.884   2.641  1.00  0.00    -0.381 N 
ATOM     23 2H10 UNL     1      -4.810 -26.505   3.440  1.00  0.00     0.157 HD
ATOM     24 1H10 UNL     1      -5.408 -25.166   2.707  1.00  0.00     0.157 HD
ENDBRANCH  20  22
ENDBRANCH  12  15
ENDBRANCH   4   8
BRANCH   5  25
HETATM   25  O3  UNL     1      -5.173 -32.219   2.517  1.00  0.00    -0.356 OA
ATOM     26  H3  UNL     1      -4.654 -32.693   3.156  1.00  0.00     0.218 HD
ENDBRANCH   5  25
BRANCH   1  27
HETATM   27  C5  UNL     1      -5.284 -33.674  -2.942  1.00  0.00     0.164 C 
HETATM   28  N3  UNL     1      -4.593 -34.501  -3.629  1.00  0.00    -0.267 N 
HETATM   29  N2  UNL     1      -4.945 -34.490  -4.994  1.00  0.00    -0.207 N 
ATOM     30  H3  UNL     1      -3.868 -35.101  -3.234  1.00  0.00     0.190 HD
HETATM   31  N13 UNL     1      -6.062 -33.675  -5.093  1.00  0.00    -0.002 NA
HETATM   32  N12 UNL     1      -6.184 -33.032  -3.880  1.00  0.00    -0.265 N 
ATOM     33  H12 UNL     1      -6.798 -32.244  -3.678  1.00  0.00     0.186 HD
BRANCH  29  34
HETATM   34  C4  UNL     1      -4.262 -35.200  -6.051  1.00  0.00     0.270 C 
BRANCH  34  35
HETATM   35  C3  UNL     1      -2.837 -34.845  -6.101  1.00  0.00     0.240 C 
HETATM   36  N1  UNL     1      -2.280 -34.420  -7.337  1.00  0.00    -0.359 N 
HETATM   37  C1  UNL     1      -0.863 -34.067  -7.382  1.00  0.00     0.152 C 
HETATM   38  C2  UNL     1      -3.116 -34.346  -8.512  1.00  0.00     0.152 C 
HETATM   39  O1  UNL     1      -2.131 -34.916  -5.075  1.00  0.00    -0.271 OA
ENDBRANCH  34  35
ENDBRANCH  29  34
ENDBRANCH   1  27
BRANCH   6  40
HETATM   40  O4  UNL     1      -5.310 -34.923   1.757  1.00  0.00    -0.356 OA
ATOM     41  H4  UNL     1      -5.228 -35.833   1.496  1.00  0.00     0.218 HD
ENDBRANCH   6  40
BRANCH   7  42
HETATM   42  O5  UNL     1      -5.367 -35.642  -0.837  1.00  0.00    -0.356 OA
ATOM     43  H5  UNL     1      -4.605 -36.209  -0.811  1.00  0.00     0.218 HD
ENDBRANCH   7  42
TORSDOF 9
ENDMDL
MODEL 2
REMARK VINA RESULT: -8.824517882      0.768      1.161
REMARK  9 active torsions:
REMARK  status: ('A' for Active; 'I' for Inactive)
REMARK       I    between atoms: N1_2  and  C3_4 
REMARK    1  A    between atoms: C3_4  and  C4_6 
REMARK    2  A    between atoms: C4_6  and  N2_7 
REMARK    3  A    between atoms: C5_10  and  C6_11 
REMARK    4  A    between atoms: C7_14  and  C8_15 
REMARK    5  A    between atoms: N7_19  and  C9_20 
REMARK    6  A    between atoms: C10_26  and  N10_27 
REMARK    7  A    between atoms: C11_32  and  O3_33 
REMARK    8  A    between atoms: C12_35  and  O4_36 
REMARK    9  A    between atoms: C13_38  and  O5_39 
ROOT
HETATM    1  C6  UNL     1      -5.288 -33.257  -1.246  1.00  0.00     0.116 A 
HETATM    2  N4  UNL     1      -5.411 -31.940  -0.892  1.00  0.00    -0.345 N 
ATOM      3  H4  UNL     1      -5.530 -31.249  -1.633  1.00  0.00     0.166 HD
HETATM    4  C7  UNL     1      -5.385 -31.517   0.377  1.00  0.00     0.116 A 
HETATM    5  C11 UNL     1      -5.224 -32.420   1.429  1.00  0.00     0.132 A 
HETATM    6  C12 UNL     1      -5.099 -33.745   1.079  1.00  0.00     0.137 A 
HETATM    7  C13 UNL     1      -5.129 -34.173  -0.257  1.00  0.00     0.132 A 
ENDROOT
BRANCH   4   8
HETATM    8  C8  UNL     1      -5.525 -30.100   0.695  1.00  0.00     0.164 A 
HETATM    9  N5  UNL     1      -6.671 -29.419   0.649  1.00  0.00    -0.265 N 
HETATM   10  N6  UNL     1      -6.449 -28.153   0.997  1.00  0.00     0.004 NA
ATOM     11  H5  UNL     1      -7.577 -29.808   0.388  1.00  0.00     0.186 HD
HETATM   12  N7  UNL     1      -5.155 -28.056   1.259  1.00  0.00    -0.156 N 
HETATM   13  N11 UNL     1      -4.572 -29.230   1.082  1.00  0.00    -0.261 N 
ATOM     14  H11 UNL     1      -3.582 -29.438   1.215  1.00  0.00     0.190 HD
BRANCH  12  15
HETATM   15  C9  UNL     1      -4.503 -26.849   1.672  1.00  0.00     0.210 A 
HETATM   16  N8  UNL     1      -4.794 -26.053   2.716  1.00  0.00    -0.219 N 
HETATM   17  O2  UNL     1      -3.955 -25.037   2.755  1.00  0.00    -0.153 OA
ATOM     18  H8  UNL     1      -5.552 -26.212   3.380  1.00  0.00     0.198 HD
HETATM   19  N9  UNL     1      -3.130 -25.155   1.763  1.00  0.00    -0.222 N 
HETATM   20  C10 UNL     1      -3.420 -26.256   1.061  1.00  0.00     0.170 A 
ATOM     21  H9  UNL     1      -2.372 -24.506   1.549  1.00  0.00     0.198 HD
BRANCH  20  22
HETATM   22  N10 UNL     1      -2.830 -26.697   0.024  1.00  0.00    -0.381 N 
ATOM     23 2H10 UNL     1      -3.152 -27.421  -0.617  1.00  0.00     0.157 HD
ATOM     24 1H10 UNL     1      -1.924 -26.376  -0.319  1.00  0.00     0.157 HD
ENDBRANCH  20  22
ENDBRANCH  12  15
ENDBRANCH   4   8
BRANCH   5  25
HETATM   25  O3  UNL     1      -5.195 -31.989   2.741  1.00  0.00    -0.356 OA
ATOM     26  H3  UNL     1      -5.883 -32.227   3.351  1.00  0.00     0.218 HD
ENDBRANCH   5  25
BRANCH   1  27
HETATM   27  C5  UNL     1      -5.330 -33.623  -2.666  1.00  0.00     0.164 C 
HETATM   28  N3  UNL     1      -4.689 -34.514  -3.322  1.00  0.00    -0.267 N 
HETATM   29  N2  UNL     1      -5.037 -34.529  -4.688  1.00  0.00    -0.207 N 
ATOM     30  H3  UNL     1      -4.002 -35.142  -2.903  1.00  0.00     0.190 HD
HETATM   31  N13 UNL     1      -6.103 -33.653  -4.819  1.00  0.00    -0.002 NA
HETATM   32  N12 UNL     1      -6.188 -32.961  -3.630  1.00  0.00    -0.265 N 
ATOM     33  H12 UNL     1      -6.754 -32.131  -3.458  1.00  0.00     0.186 HD
BRANCH  29  34
HETATM   34  C4  UNL     1      -4.396 -35.315  -5.717  1.00  0.00     0.270 C 
BRANCH  34  35
HETATM   35  C3  UNL     1      -2.959 -35.018  -5.801  1.00  0.00     0.240 C 
HETATM   36  N1  UNL     1      -2.319 -35.085  -7.068  1.00  0.00    -0.359 N 
HETATM   37  C1  UNL     1      -0.891 -34.788  -7.147  1.00  0.00     0.152 C 
HETATM   38  C2  UNL     1      -3.084 -35.441  -8.240  1.00  0.00     0.152 C 
HETATM   39  O1  UNL     1      -2.316 -34.713  -4.777  1.00  0.00    -0.271 OA
ENDBRANCH  34  35
ENDBRANCH  29  34
ENDBRANCH   1  27
BRANCH   6  40
HETATM   40  O4  UNL     1      -4.936 -34.704   2.057  1.00  0.00    -0.356 OA
ATOM     41  H4  UNL     1      -4.232 -35.339   1.988  1.00  0.00     0.218 HD
ENDBRANCH   6  40
BRANCH   7  42
HETATM   42  O5  UNL     1      -4.999 -35.509  -0.511  1.00  0.00    -0.356 OA
ATOM     43  H5  UNL     1      -5.284 -36.174   0.104  1.00  0.00     0.218 HD
ENDBRANCH   7  42
TORSDOF 9
ENDMDL
MODEL 3
REMARK VINA RESULT: -8.642586216      5.956     13.540
REMARK  9 active torsions:
REMARK  status: ('A' for Active; 'I' for Inactive)
REMARK       I    between atoms: N1_2  and  C3_4 
REMARK    1  A    between atoms: C3_4  and  C4_6 
REMARK    2  A    between atoms: C4_6  and  N2_7 
REMARK    3  A    between atoms: C5_10  and  C6_11 
REMARK    4  A    between atoms: C7_14  and  C8_15 
REMARK    5  A    between atoms: N7_19  and  C9_20 
REMARK    6  A    between atoms: C10_26  and  N10_27 
REMARK    7  A    between atoms: C11_32  and  O3_33 
REMARK    8  A    between atoms: C12_35  and  O4_36 
REMARK    9  A    between atoms: C13_38  and  O5_39 
ROOT
HETATM    1  C6  UNL     1      -0.990 -35.247  -8.974  1.00  0.00     0.116 A 
HETATM    2  N4  UNL     1      -0.638 -35.188 -10.296  1.00  0.00    -0.345 N 
ATOM      3  H4  UNL     1      -1.033 -34.442 -10.869  1.00  0.00     0.166 HD
HETATM    4  C7  UNL     1       0.198 -36.060 -10.872  1.00  0.00     0.116 A 
HETATM    5  C11 UNL     1       0.766 -37.100 -10.134  1.00  0.00     0.132 A 
HETATM    6  C12 UNL     1       0.416 -37.165  -8.805  1.00  0.00     0.137 A 
HETATM    7  C13 UNL     1      -0.463 -36.242  -8.216  1.00  0.00     0.132 A 
ENDROOT
BRANCH   4   8
HETATM    8  C8  UNL     1       0.540 -35.946 -12.285  1.00  0.00     0.164 A 
HETATM    9  N5  UNL     1       1.477 -35.133 -12.779  1.00  0.00    -0.265 N 
HETATM   10  N6  UNL     1       1.534 -35.274 -14.102  1.00  0.00     0.004 NA
ATOM     11  H5  UNL     1       2.059 -34.502 -12.227  1.00  0.00     0.186 HD
HETATM   12  N7  UNL     1       0.625 -36.181 -14.423  1.00  0.00    -0.156 N 
HETATM   13  N11 UNL     1       0.007 -36.604 -13.332  1.00  0.00    -0.261 N 
ATOM     14  H11 UNL     1      -0.736 -37.301 -13.292  1.00  0.00     0.190 HD
BRANCH  12  15
HETATM   15  C9  UNL     1       0.363 -36.625 -15.760  1.00  0.00     0.210 A 
HETATM   16  N8  UNL     1      -0.756 -36.473 -16.490  1.00  0.00    -0.219 N 
HETATM   17  O2  UNL     1      -0.596 -37.024 -17.677  1.00  0.00    -0.153 OA
ATOM     18  H8  UNL     1      -1.603 -36.002 -16.172  1.00  0.00     0.198 HD
HETATM   19  N9  UNL     1       0.596 -37.528 -17.733  1.00  0.00    -0.222 N 
HETATM   20  C10 UNL     1       1.234 -37.311 -16.578  1.00  0.00     0.170 A 
ATOM     21  H9  UNL     1       0.989 -38.017 -18.538  1.00  0.00     0.198 HD
BRANCH  20  22
HETATM   22  N10 UNL     1       2.417 -37.658 -16.264  1.00  0.00    -0.381 N 
ATOM     23 2H10 UNL     1       2.706 -38.276 -15.506  1.00  0.00     0.157 HD
ATOM     24 1H10 UNL     1       3.266 -37.355 -16.742  1.00  0.00     0.157 HD
ENDBRANCH  20  22
ENDBRANCH  12  15
ENDBRANCH   4   8
BRANCH   5  25
HETATM   25  O3  UNL     1       1.629 -38.003 -10.723  1.00  0.00    -0.356 OA
ATOM     26  H3  UNL     1       1.446 -38.935 -10.712  1.00  0.00     0.218 HD
ENDBRANCH   5  25
BRANCH   1  27
HETATM   27  C5  UNL     1      -1.915 -34.244  -8.434  1.00  0.00     0.164 C 
HETATM   28  N3  UNL     1      -2.944 -34.369  -7.688  1.00  0.00    -0.267 N 
HETATM   29  N2  UNL     1      -3.553 -33.130  -7.400  1.00  0.00    -0.207 N 
ATOM     30  H3  UNL     1      -3.287 -35.264  -7.339  1.00  0.00     0.190 HD
HETATM   31  N13 UNL     1      -2.704 -32.161  -7.914  1.00  0.00    -0.002 NA
HETATM   32  N12 UNL     1      -1.784 -32.824  -8.697  1.00  0.00    -0.265 N 
ATOM     33  H12 UNL     1      -1.128 -32.392  -9.347  1.00  0.00     0.186 HD
BRANCH  29  34
HETATM   34  C4  UNL     1      -4.805 -32.942  -6.706  1.00  0.00     0.270 C 
BRANCH  34  35
HETATM   35  C3  UNL     1      -4.784 -33.574  -5.380  1.00  0.00     0.240 C 
HETATM   36  N1  UNL     1      -5.937 -33.474  -4.554  1.00  0.00    -0.359 N 
HETATM   37  C1  UNL     1      -5.912 -34.106  -3.238  1.00  0.00     0.152 C 
HETATM   38  C2  UNL     1      -7.097 -32.756  -5.028  1.00  0.00     0.152 C 
HETATM   39  O1  UNL     1      -3.772 -34.189  -4.989  1.00  0.00    -0.271 OA
ENDBRANCH  34  35
ENDBRANCH  29  34
ENDBRANCH   1  27
BRANCH   6  40
HETATM   40  O4  UNL     1       0.931 -38.162  -8.003  1.00  0.00    -0.356 OA
ATOM     41  H4  UNL     1       0.376 -38.592  -7.363  1.00  0.00     0.218 HD
ENDBRANCH   6  40
BRANCH   7  42
HETATM   42  O5  UNL     1      -0.753 -36.382  -6.888  1.00  0.00    -0.356 OA
ATOM     43  H5  UNL     1      -0.142 -36.766  -6.272  1.00  0.00     0.218 HD
ENDBRANCH   7  42
TORSDOF 9
ENDMDL
MODEL 4
REMARK VINA RESULT: -8.568573330      7.649     11.502
REMARK  9 active torsions:
REMARK  status: ('A' for Active; 'I' for Inactive)
REMARK       I    between atoms: N1_2  and  C3_4 
REMARK    1  A    between atoms: C3_4  and  C4_6 
REMARK    2  A    between atoms: C4_6  and  N2_7 
REMARK    3  A    between atoms: C5_10  and  C6_11 
REMARK    4  A    between atoms: C7_14  and  C8_15 
REMARK    5  A    between atoms: N7_19  and  C9_20 
REMARK    6  A    between atoms: C10_26  and  N10_27 
REMARK    7  A    between atoms: C11_32  and  O3_33 
REMARK    8  A    between atoms: C12_35  and  O4_36 
REMARK    9  A    between atoms: C13_38  and  O5_39 
ROOT
HETATM    1  C6  UNL     1      -3.748 -33.653  -8.009  1.00  0.00     0.116 A 
HETATM    2  N4  UNL     1      -2.723 -34.038  -8.831  1.00  0.00    -0.345 N 
ATOM      3  H4  UNL     1      -2.746 -33.741  -9.806  1.00  0.00     0.166 HD
HETATM    4  C7  UNL     1      -1.693 -34.786  -8.417  1.00  0.00     0.116 A 
HETATM    5  C11 UNL     1      -1.613 -35.221  -7.093  1.00  0.00     0.132 A 
HETATM    6  C12 UNL     1      -2.640 -34.837  -6.263  1.00  0.00     0.137 A 
HETATM    7  C13 UNL     1      -3.713 -34.052  -6.712  1.00  0.00     0.132 A 
ENDROOT
BRANCH   4   8
HETATM    8  C8  UNL     1      -0.626 -35.164  -9.337  1.00  0.00     0.164 A 
HETATM    9  N5  UNL     1       0.674 -35.161  -9.038  1.00  0.00    -0.265 N 
HETATM   10  N6  UNL     1       1.374 -35.557 -10.099  1.00  0.00     0.004 NA
ATOM     11  H5  UNL     1       1.070 -34.896  -8.136  1.00  0.00     0.186 HD
HETATM   12  N7  UNL     1       0.497 -35.807 -11.058  1.00  0.00    -0.156 N 
HETATM   13  N11 UNL     1      -0.729 -35.574 -10.616  1.00  0.00    -0.261 N 
ATOM     14  H11 UNL     1      -1.593 -35.685 -11.147  1.00  0.00     0.190 HD
BRANCH  12  15
HETATM   15  C9  UNL     1       0.842 -36.260 -12.372  1.00  0.00     0.210 A 
HETATM   16  N8  UNL     1       0.326 -35.877 -13.554  1.00  0.00    -0.219 N 
HETATM   17  O2  UNL     1       0.916 -36.532 -14.535  1.00  0.00    -0.153 OA
ATOM     18  H8  UNL     1      -0.412 -35.184 -13.673  1.00  0.00     0.198 HD
HETATM   19  N9  UNL     1       1.798 -37.328 -14.018  1.00  0.00    -0.222 N 
HETATM   20  C10 UNL     1       1.797 -37.202 -12.687  1.00  0.00     0.170 A 
ATOM     21  H9  UNL     1       2.403 -37.956 -14.548  1.00  0.00     0.198 HD
BRANCH  20  22
HETATM   22  N10 UNL     1       2.525 -37.818 -11.845  1.00  0.00    -0.381 N 
ATOM     23 2H10 UNL     1       2.311 -38.685 -11.352  1.00  0.00     0.157 HD
ATOM     24 1H10 UNL     1       3.451 -37.521 -11.538  1.00  0.00     0.157 HD
ENDBRANCH  20  22
ENDBRANCH  12  15
ENDBRANCH   4   8
BRANCH   5  25
HETATM   25  O3  UNL     1      -0.552 -35.994  -6.660  1.00  0.00    -0.356 OA
ATOM     26  H3  UNL     1      -0.576 -36.941  -6.727  1.00  0.00     0.218 HD
ENDBRANCH   5  25
BRANCH   1  27
HETATM   27  C5  UNL     1      -4.834 -32.832  -8.557  1.00  0.00     0.164 C 
HETATM   28  N3  UNL     1      -4.832 -31.640  -9.018  1.00  0.00    -0.267 N 
HETATM   29  N2  UNL     1      -6.110 -31.229  -9.448  1.00  0.00    -0.207 N 
ATOM     30  H3  UNL     1      -3.999 -31.053  -9.070  1.00  0.00     0.190 HD
HETATM   31  N13 UNL     1      -6.919 -32.351  -9.364  1.00  0.00    -0.002 NA
HETATM   32  N12 UNL     1      -6.203 -33.297  -8.663  1.00  0.00    -0.265 N 
ATOM     33  H12 UNL     1      -6.571 -34.169  -8.285  1.00  0.00     0.186 HD
BRANCH  29  34
HETATM   34  C4  UNL     1      -6.471 -29.900  -9.884  1.00  0.00     0.270 C 
BRANCH  34  35
HETATM   35  C3  UNL     1      -5.591 -28.883  -9.291  1.00  0.00     0.240 C 
HETATM   36  N1  UNL     1      -4.653 -28.216 -10.125  1.00  0.00    -0.359 N 
HETATM   37  C1  UNL     1      -3.782 -27.206  -9.531  1.00  0.00     0.152 C 
HETATM   38  C2  UNL     1      -4.581 -28.548 -11.528  1.00  0.00     0.152 C 
HETATM   39  O1  UNL     1      -5.669 -28.612  -8.076  1.00  0.00    -0.271 OA
ENDBRANCH  34  35
ENDBRANCH  29  34
ENDBRANCH   1  27
BRANCH   6  40
HETATM   40  O4  UNL     1      -2.638 -35.225  -4.939  1.00  0.00    -0.356 OA
ATOM     41  H4  UNL     1      -3.322 -35.797  -4.610  1.00  0.00     0.218 HD
ENDBRANCH   6  40
BRANCH   7  42
HETATM   42  O5  UNL     1      -4.688 -33.717  -5.817  1.00  0.00    -0.356 OA
ATOM     43  H5  UNL     1      -4.895 -34.257  -5.064  1.00  0.00     0.218 HD
ENDBRANCH   7  42
TORSDOF 9
ENDMDL
MODEL 5
REMARK VINA RESULT: -8.546053688      3.659      6.958
REMARK  9 active torsions:
REMARK  status: ('A' for Active; 'I' for Inactive)
REMARK       I    between atoms: N1_2  and  C3_4 
REMARK    1  A    between atoms: C3_4  and  C4_6 
REMARK    2  A    between atoms: C4_6  and  N2_7 
REMARK    3  A    between atoms: C5_10  and  C6_11 
REMARK    4  A    between atoms: C7_14  and  C8_15 
REMARK    5  A    between atoms: N7_19  and  C9_20 
REMARK    6  A    between atoms: C10_26  and  N10_27 
REMARK    7  A    between atoms: C11_32  and  O3_33 
REMARK    8  A    between atoms: C12_35  and  O4_36 
REMARK    9  A    between atoms: C13_38  and  O5_39 
ROOT
HETATM    1  C6  UNL     1      -3.837 -33.304  -7.533  1.00  0.00     0.116 A 
HETATM    2  N4  UNL     1      -4.044 -33.596  -6.211  1.00  0.00    -0.345 N 
ATOM      3  H4  UNL     1      -3.410 -34.252  -5.755  1.00  0.00     0.166 HD
HETATM    4  C7  UNL     1      -5.036 -33.063  -5.489  1.00  0.00     0.116 A 
HETATM    5  C11 UNL     1      -5.933 -32.161  -6.064  1.00  0.00     0.132 A 
HETATM    6  C12 UNL     1      -5.731 -31.864  -7.392  1.00  0.00     0.137 A 
HETATM    7  C13 UNL     1      -4.684 -32.431  -8.136  1.00  0.00     0.132 A 
ENDROOT
BRANCH   4   8
HETATM    8  C8  UNL     1      -5.207 -33.408  -4.083  1.00  0.00     0.164 A 
HETATM    9  N5  UNL     1      -5.522 -34.623  -3.629  1.00  0.00    -0.265 N 
HETATM   10  N6  UNL     1      -5.601 -34.594  -2.300  1.00  0.00     0.004 NA
ATOM     11  H5  UNL     1      -5.678 -35.446  -4.211  1.00  0.00     0.186 HD
HETATM   12  N7  UNL     1      -5.331 -33.350  -1.934  1.00  0.00    -0.156 N 
HETATM   13  N11 UNL     1      -5.088 -32.610  -3.004  1.00  0.00    -0.261 N 
ATOM     14  H11 UNL     1      -4.854 -31.618  -3.010  1.00  0.00     0.190 HD
BRANCH  12  15
HETATM   15  C9  UNL     1      -5.311 -32.894  -0.576  1.00  0.00     0.210 A 
HETATM   16  N8  UNL     1      -5.295 -31.630  -0.117  1.00  0.00    -0.219 N 
HETATM   17  O2  UNL     1      -5.280 -31.631   1.201  1.00  0.00    -0.153 OA
ATOM     18  H8  UNL     1      -5.294 -30.794  -0.702  1.00  0.00     0.198 HD
HETATM   19  N9  UNL     1      -5.286 -32.863   1.606  1.00  0.00    -0.222 N 
HETATM   20  C10 UNL     1      -5.306 -33.685   0.551  1.00  0.00     0.170 A 
ATOM     21  H9  UNL     1      -5.276 -33.160   2.582  1.00  0.00     0.198 HD
BRANCH  20  22
HETATM   22  N10 UNL     1      -5.317 -34.957   0.556  1.00  0.00    -0.381 N 
ATOM     23 2H10 UNL     1      -4.950 -35.582   1.273  1.00  0.00     0.157 HD
ATOM     24 1H10 UNL     1      -5.706 -35.545  -0.181  1.00  0.00     0.157 HD
ENDBRANCH  20  22
ENDBRANCH  12  15
ENDBRANCH   4   8
BRANCH   5  25
HETATM   25  O3  UNL     1      -6.961 -31.607  -5.324  1.00  0.00    -0.356 OA
ATOM     26  H3  UNL     1      -7.803 -31.416  -5.720  1.00  0.00     0.218 HD
ENDBRANCH   5  25
BRANCH   1  27
HETATM   27  C5  UNL     1      -2.720 -33.940  -8.240  1.00  0.00     0.164 C 
HETATM   28  N3  UNL     1      -2.667 -34.512  -9.381  1.00  0.00    -0.267 N 
HETATM   29  N2  UNL     1      -1.376 -34.994  -9.681  1.00  0.00    -0.207 N 
ATOM     30  H3  UNL     1      -3.468 -34.609 -10.005  1.00  0.00     0.190 HD
HETATM   31  N13 UNL     1      -0.551 -34.526  -8.670  1.00  0.00    -0.002 NA
HETATM   32  N12 UNL     1      -1.380 -34.024  -7.691  1.00  0.00    -0.265 N 
ATOM     33  H12 UNL     1      -1.101 -33.758  -6.747  1.00  0.00     0.186 HD
BRANCH  29  34
HETATM   34  C4  UNL     1      -1.019 -35.807 -10.821  1.00  0.00     0.270 C 
BRANCH  34  35
HETATM   35  C3  UNL     1       0.031 -35.168 -11.626  1.00  0.00     0.240 C 
HETATM   36  N1  UNL     1       1.345 -35.709 -11.593  1.00  0.00    -0.359 N 
HETATM   37  C1  UNL     1       2.385 -35.072 -12.397  1.00  0.00     0.152 C 
HETATM   38  C2  UNL     1       1.623 -36.865 -10.774  1.00  0.00     0.152 C 
HETATM   39  O1  UNL     1      -0.229 -34.169 -12.327  1.00  0.00    -0.271 OA
ENDBRANCH  34  35
ENDBRANCH  29  34
ENDBRANCH   1  27
BRANCH   6  40
HETATM   40  O4  UNL     1      -6.572 -30.981  -8.038  1.00  0.00    -0.356 OA
ATOM     41  H4  UNL     1      -6.337 -30.063  -8.107  1.00  0.00     0.218 HD
ENDBRANCH   6  40
BRANCH   7  42
HETATM   42  O5  UNL     1      -4.558 -32.077  -9.449  1.00  0.00    -0.356 OA
ATOM     43  H5  UNL     1      -5.309 -31.934 -10.012  1.00  0.00     0.218 HD
ENDBRANCH   7  42
TORSDOF 9
ENDMDL
