MODEL 1
REMARK VINA RESULT: -7.442523524      0.000      0.000
REMARK  4 active torsions:
REMARK  status: ('A' for Active; 'I' for Inactive)
REMARK    1  A    between atoms: C2_2  and  C3_3 
REMARK    2  A    between atoms: C3_3  and  O1_4 
REMARK    3  A    between atoms: C8_10  and  N1_11 
REMARK    4  A    between atoms: N2_20  and  C17_21 
ROOT
HETATM    1  C3  UNL     1       1.277  -7.442 -28.755  1.00  0.00     0.079 C 
HETATM    2  C4  UNL     1       0.568  -6.366 -28.038  1.00  0.00     0.067 C 
HETATM    3  C5  UNL     1       1.114  -5.962 -26.679  1.00  0.00     0.083 C 
HETATM    4  C6  UNL     1       0.191  -6.281 -25.559  1.00  0.00     0.027 C 
HETATM    5  C7  UNL     1      -0.112  -7.728 -25.356  1.00  0.00     0.038 C 
HETATM    6  C8  UNL     1       1.051  -8.591 -25.068  1.00  0.00     0.225 C 
HETATM    7  C14 UNL     1       2.037  -8.834 -26.145  1.00  0.00     0.060 C 
HETATM    8  C15 UNL     1       2.765  -7.712 -26.745  1.00  0.00     0.085 C 
HETATM    9  C16 UNL     1       2.639  -7.814 -28.254  1.00  0.00     0.067 C 
HETATM   10  N2  UNL     1       2.399  -6.383 -26.398  1.00  0.00    -0.399 N 
ENDROOT
BRANCH  10  11
HETATM   11  C17 UNL     1       3.379  -5.589 -25.810  1.00  0.00     0.080 C 
HETATM   12  C18 UNL     1       3.271  -4.105 -25.943  1.00  0.00     0.029 C 
HETATM   13  C19 UNL     1       4.340  -3.431 -25.101  1.00  0.00    -0.012 C 
HETATM   14  C20 UNL     1       3.866  -2.937 -23.779  1.00  0.00     0.005 C 
HETATM   15  C24 UNL     1       5.538  -4.334 -24.905  1.00  0.00     0.009 C 
HETATM   16  C21 UNL     1       4.546  -3.469 -22.569  1.00  0.00     0.001 C 
HETATM   17  C22 UNL     1       4.972  -4.894 -22.606  1.00  0.00     0.005 C 
HETATM   18  C23 UNL     1       5.107  -5.457 -24.017  1.00  0.00    -0.012 C 
HETATM   19  C25 UNL     1       3.707  -5.931 -24.383  1.00  0.00     0.029 C 
ENDBRANCH  10  11
BRANCH   1  20
HETATM   20  C2  UNL     1       1.459  -7.122 -30.208  1.00  0.00     0.000 C 
HETATM   21  C1  UNL     1       2.607  -6.527 -30.537  1.00  0.00     0.010 C 
ENDBRANCH   1  20
BRANCH   1  22
HETATM   22  O1  UNL     1       0.416  -8.575 -28.794  1.00  0.00    -0.386 OA
ATOM     23  H1  UNL     1       0.435  -8.879 -27.894  1.00  0.00     0.211 HD
ENDBRANCH   1  22
BRANCH   6  24
HETATM   24  N1  UNL     1       0.635  -9.916 -24.599  1.00  0.00     0.093 N 
HETATM   25  C9  UNL     1      -0.319 -10.481 -25.554  1.00  0.00     0.273 C 
HETATM   26  C10 UNL     1      -0.852 -11.798 -25.105  1.00  0.00     0.030 C 
HETATM   27  C11 UNL     1      -0.252 -12.125 -23.744  1.00  0.00     0.003 C 
HETATM   28  C12 UNL     1       1.247 -12.131 -23.933  1.00  0.00     0.030 C 
HETATM   29  C13 UNL     1       1.750 -10.845 -24.533  1.00  0.00     0.273 C 
ENDBRANCH   6  24
TORSDOF 4
ENDMDL
MODEL 2
REMARK VINA RESULT: -7.014440309      2.218      6.999
REMARK  4 active torsions:
REMARK  status: ('A' for Active; 'I' for Inactive)
REMARK    1  A    between atoms: C2_2  and  C3_3 
REMARK    2  A    between atoms: C3_3  and  O1_4 
REMARK    3  A    between atoms: C8_10  and  N1_11 
REMARK    4  A    between atoms: N2_20  and  C17_21 
ROOT
HETATM    1  C3  UNL     1       3.010  -7.065 -23.617  1.00  0.00     0.079 C 
HETATM    2  C4  UNL     1       1.537  -7.103 -23.542  1.00  0.00     0.067 C 
HETATM    3  C5  UNL     1       0.836  -8.248 -24.252  1.00  0.00     0.083 C 
HETATM    4  C6  UNL     1       0.009  -7.803 -25.405  1.00  0.00     0.027 C 
HETATM    5  C7  UNL     1       0.749  -7.148 -26.524  1.00  0.00     0.038 C 
HETATM    6  C8  UNL     1       1.788  -7.972 -27.173  1.00  0.00     0.225 C 
HETATM    7  C14 UNL     1       3.011  -8.303 -26.409  1.00  0.00     0.060 C 
HETATM    8  C15 UNL     1       2.917  -9.054 -25.154  1.00  0.00     0.085 C 
HETATM    9  C16 UNL     1       3.701  -8.306 -24.091  1.00  0.00     0.067 C 
HETATM   10  N2  UNL     1       1.635  -9.319 -24.599  1.00  0.00    -0.399 N 
ENDROOT
BRANCH  10  11
HETATM   11  C17 UNL     1       1.283 -10.655 -24.429  1.00  0.00     0.080 C 
HETATM   12  C18 UNL     1       2.165 -11.525 -23.592  1.00  0.00     0.029 C 
HETATM   13  C19 UNL     1       1.521 -12.887 -23.406  1.00  0.00    -0.012 C 
HETATM   14  C20 UNL     1       0.808 -13.062 -22.110  1.00  0.00     0.005 C 
HETATM   15  C24 UNL     1       0.584 -13.215 -24.548  1.00  0.00     0.009 C 
HETATM   16  C21 UNL     1      -0.637 -13.405 -22.169  1.00  0.00     0.001 C 
HETATM   17  C22 UNL     1      -1.434 -12.783 -23.260  1.00  0.00     0.005 C 
HETATM   18  C23 UNL     1      -0.592 -12.298 -24.435  1.00  0.00    -0.012 C 
HETATM   19  C25 UNL     1      -0.150 -10.895 -24.044  1.00  0.00     0.029 C 
ENDBRANCH  10  11
BRANCH   1  20
HETATM   20  C2  UNL     1       3.630  -6.743 -22.291  1.00  0.00     0.000 C 
HETATM   21  C1  UNL     1       3.307  -5.561 -21.765  1.00  0.00     0.010 C 
ENDBRANCH   1  20
BRANCH   1  22
HETATM   22  O1  UNL     1       3.373  -5.940 -24.410  1.00  0.00    -0.386 OA
ATOM     23  H1  UNL     1       2.610  -5.822 -24.963  1.00  0.00     0.211 HD
ENDBRANCH   1  22
BRANCH   6  24
HETATM   24  N1  UNL     1       2.249  -7.368 -28.427  1.00  0.00     0.093 N 
HETATM   25  C9  UNL     1       1.160  -7.410 -29.404  1.00  0.00     0.273 C 
HETATM   26  C10 UNL     1       1.577  -6.884 -30.734  1.00  0.00     0.030 C 
HETATM   27  C11 UNL     1       3.050  -6.501 -30.663  1.00  0.00     0.003 C 
HETATM   28  C12 UNL     1       3.166  -5.473 -29.563  1.00  0.00     0.030 C 
HETATM   29  C13 UNL     1       2.598  -5.968 -28.260  1.00  0.00     0.273 C 
ENDBRANCH   6  24
TORSDOF 4
ENDMDL
MODEL 3
REMARK VINA RESULT: -6.967701494      0.886      1.820
REMARK  4 active torsions:
REMARK  status: ('A' for Active; 'I' for Inactive)
REMARK    1  A    between atoms: C2_2  and  C3_3 
REMARK    2  A    between atoms: C3_3  and  O1_4 
REMARK    3  A    between atoms: C8_10  and  N1_11 
REMARK    4  A    between atoms: N2_20  and  C17_21 
ROOT
HETATM    1  C3  UNL     1       1.272  -7.430 -28.857  1.00  0.00     0.079 C 
HETATM    2  C4  UNL     1       0.351  -6.486 -28.195  1.00  0.00     0.067 C 
HETATM    3  C5  UNL     1       0.798  -5.899 -26.867  1.00  0.00     0.083 C 
HETATM    4  C6  UNL     1      -0.040  -6.338 -25.721  1.00  0.00     0.027 C 
HETATM    5  C7  UNL     1      -0.034  -7.803 -25.433  1.00  0.00     0.038 C 
HETATM    6  C8  UNL     1       1.283  -8.386 -25.108  1.00  0.00     0.225 C 
HETATM    7  C14 UNL     1       2.300  -8.479 -26.179  1.00  0.00     0.060 C 
HETATM    8  C15 UNL     1       2.779  -7.267 -26.850  1.00  0.00     0.085 C 
HETATM    9  C16 UNL     1       2.680  -7.480 -28.349  1.00  0.00     0.067 C 
HETATM   10  N2  UNL     1       2.142  -6.025 -26.575  1.00  0.00    -0.399 N 
ENDROOT
BRANCH  10  11
HETATM   11  C17 UNL     1       2.934  -5.012 -26.043  1.00  0.00     0.080 C 
HETATM   12  C18 UNL     1       4.007  -5.381 -25.071  1.00  0.00     0.029 C 
HETATM   13  C19 UNL     1       4.847  -4.160 -24.741  1.00  0.00    -0.012 C 
HETATM   14  C20 UNL     1       6.128  -4.067 -25.495  1.00  0.00     0.005 C 
HETATM   15  C24 UNL     1       4.058  -2.882 -24.924  1.00  0.00     0.009 C 
HETATM   16  C21 UNL     1       6.343  -2.855 -26.326  1.00  0.00     0.001 C 
HETATM   17  C22 UNL     1       5.152  -2.289 -27.014  1.00  0.00     0.005 C 
HETATM   18  C23 UNL     1       3.825  -2.710 -26.390  1.00  0.00    -0.012 C 
HETATM   19  C25 UNL     1       3.493  -4.043 -27.047  1.00  0.00     0.029 C 
ENDBRANCH  10  11
BRANCH   1  20
HETATM   20  C2  UNL     1       1.386  -7.163 -30.327  1.00  0.00     0.000 C 
HETATM   21  C1  UNL     1       2.446  -6.452 -30.712  1.00  0.00     0.010 C 
ENDBRANCH   1  20
BRANCH   1  22
HETATM   22  O1  UNL     1       0.666  -8.718 -28.822  1.00  0.00    -0.386 OA
ATOM     23  H1  UNL     1      -0.252  -8.511 -28.696  1.00  0.00     0.211 HD
ENDBRANCH   1  22
BRANCH   6  24
HETATM   24  N1  UNL     1       1.152  -9.740 -24.561  1.00  0.00     0.093 N 
HETATM   25  C9  UNL     1       0.144 -10.470 -25.330  1.00  0.00     0.273 C 
HETATM   26  C10 UNL     1      -0.105 -11.832 -24.783  1.00  0.00     0.030 C 
HETATM   27  C11 UNL     1       0.759 -12.021 -23.541  1.00  0.00     0.003 C 
HETATM   28  C12 UNL     1       2.187 -11.818 -23.986  1.00  0.00     0.030 C 
HETATM   29  C13 UNL     1       2.387 -10.496 -24.678  1.00  0.00     0.273 C 
ENDBRANCH   6  24
TORSDOF 4
ENDMDL
MODEL 4
REMARK VINA RESULT: -6.904456584      3.762      6.976
REMARK  4 active torsions:
REMARK  status: ('A' for Active; 'I' for Inactive)
REMARK    1  A    between atoms: C2_2  and  C3_3 
REMARK    2  A    between atoms: C3_3  and  O1_4 
REMARK    3  A    between atoms: C8_10  and  N1_11 
REMARK    4  A    between atoms: N2_20  and  C17_21 
ROOT
HETATM    1  C3  UNL     1       3.202  -5.330 -24.932  1.00  0.00     0.079 C 
HETATM    2  C4  UNL     1       4.646  -5.029 -24.893  1.00  0.00     0.067 C 
HETATM    3  C5  UNL     1       5.462  -5.690 -23.795  1.00  0.00     0.083 C 
HETATM    4  C6  UNL     1       6.006  -4.721 -22.808  1.00  0.00     0.027 C 
HETATM    5  C7  UNL     1       4.994  -3.951 -22.025  1.00  0.00     0.038 C 
HETATM    6  C8  UNL     1       4.069  -4.759 -21.206  1.00  0.00     0.225 C 
HETATM    7  C14 UNL     1       3.062  -5.598 -21.893  1.00  0.00     0.060 C 
HETATM    8  C15 UNL     1       3.487  -6.656 -22.814  1.00  0.00     0.085 C 
HETATM    9  C16 UNL     1       2.724  -6.491 -24.116  1.00  0.00     0.067 C 
HETATM   10  N2  UNL     1       4.862  -6.760 -23.162  1.00  0.00    -0.399 N 
ENDROOT
BRANCH  10  11
HETATM   11  C17 UNL     1       5.505  -7.955 -22.850  1.00  0.00     0.080 C 
HETATM   12  C18 UNL     1       4.713  -9.221 -22.884  1.00  0.00     0.029 C 
HETATM   13  C19 UNL     1       5.632 -10.412 -22.672  1.00  0.00    -0.012 C 
HETATM   14  C20 UNL     1       6.036 -11.111 -23.923  1.00  0.00     0.005 C 
HETATM   15  C24 UNL     1       6.866 -10.023 -21.888  1.00  0.00     0.009 C 
HETATM   16  C21 UNL     1       7.490 -11.205 -24.212  1.00  0.00     0.001 C 
HETATM   17  C22 UNL     1       8.330 -10.037 -23.831  1.00  0.00     0.005 C 
HETATM   18  C23 UNL     1       7.694  -9.145 -22.770  1.00  0.00    -0.012 C 
HETATM   19  C25 UNL     1       6.816  -8.178 -23.552  1.00  0.00     0.029 C 
ENDBRANCH  10  11
BRANCH   1  20
HETATM   20  C2  UNL     1       2.723  -5.598 -26.327  1.00  0.00     0.000 C 
HETATM   21  C1  UNL     1       2.196  -6.804 -26.543  1.00  0.00     0.010 C 
ENDBRANCH   1  20
BRANCH   1  22
HETATM   22  O1  UNL     1       2.504  -4.138 -24.589  1.00  0.00    -0.386 OA
ATOM     23  H1  UNL     1       1.603  -4.435 -24.536  1.00  0.00     0.211 HD
ENDBRANCH   1  22
BRANCH   6  24
HETATM   24  N1  UNL     1       3.319  -3.925 -20.261  1.00  0.00     0.093 N 
HETATM   25  C9  UNL     1       3.039  -4.705 -19.056  1.00  0.00     0.273 C 
HETATM   26  C10 UNL     1       2.207  -3.951 -18.077  1.00  0.00     0.030 C 
HETATM   27  C11 UNL     1       1.870  -2.591 -18.675  1.00  0.00     0.003 C 
HETATM   28  C12 UNL     1       3.190  -1.918 -18.966  1.00  0.00     0.030 C 
HETATM   29  C13 UNL     1       4.082  -2.766 -19.833  1.00  0.00     0.273 C 
ENDBRANCH   6  24
TORSDOF 4
ENDMDL
MODEL 5
REMARK VINA RESULT: -6.889157160      3.480      6.371
REMARK  4 active torsions:
REMARK  status: ('A' for Active; 'I' for Inactive)
REMARK    1  A    between atoms: C2_2  and  C3_3 
REMARK    2  A    between atoms: C3_3  and  O1_4 
REMARK    3  A    between atoms: C8_10  and  N1_11 
REMARK    4  A    between atoms: N2_20  and  C17_21 
ROOT
HETATM    1  C3  UNL     1       3.572  -5.529 -20.914  1.00  0.00     0.079 C 
HETATM    2  C4  UNL     1       4.470  -4.613 -21.642  1.00  0.00     0.067 C 
HETATM    3  C5  UNL     1       4.514  -4.742 -23.155  1.00  0.00     0.083 C 
HETATM    4  C6  UNL     1       5.828  -5.216 -23.663  1.00  0.00     0.027 C 
HETATM    5  C7  UNL     1       6.244  -6.580 -23.221  1.00  0.00     0.038 C 
HETATM    6  C8  UNL     1       5.336  -7.681 -23.601  1.00  0.00     0.225 C 
HETATM    7  C14 UNL     1       4.006  -7.757 -22.958  1.00  0.00     0.060 C 
HETATM    8  C15 UNL     1       3.052  -6.653 -23.103  1.00  0.00     0.085 C 
HETATM    9  C16 UNL     1       2.552  -6.270 -21.722  1.00  0.00     0.067 C 
HETATM   10  N2  UNL     1       3.476  -5.448 -23.728  1.00  0.00    -0.399 N 
ENDROOT
BRANCH  10  11
HETATM   11  C17 UNL     1       2.793  -5.056 -24.876  1.00  0.00     0.080 C 
HETATM   12  C18 UNL     1       3.507  -5.118 -26.187  1.00  0.00     0.029 C 
HETATM   13  C19 UNL     1       2.541  -4.805 -27.317  1.00  0.00    -0.012 C 
HETATM   14  C20 UNL     1       2.000  -6.001 -28.018  1.00  0.00     0.005 C 
HETATM   15  C24 UNL     1       1.397  -3.937 -26.839  1.00  0.00     0.009 C 
HETATM   16  C21 UNL     1       0.524  -6.174 -28.032  1.00  0.00     0.001 C 
HETATM   17  C22 UNL     1      -0.215  -5.759 -26.810  1.00  0.00     0.005 C 
HETATM   18  C23 UNL     1       0.553  -4.774 -25.934  1.00  0.00    -0.012 C 
HETATM   19  C25 UNL     1       1.420  -5.647 -25.037  1.00  0.00     0.029 C 
ENDBRANCH  10  11
BRANCH   1  20
HETATM   20  C2  UNL     1       2.797  -4.822 -19.843  1.00  0.00     0.000 C 
HETATM   21  C1  UNL     1       3.049  -5.202 -18.590  1.00  0.00     0.010 C 
ENDBRANCH   1  20
BRANCH   1  22
HETATM   22  O1  UNL     1       4.385  -6.426 -20.166  1.00  0.00    -0.386 OA
ATOM     23  H1  UNL     1       4.472  -7.167 -20.755  1.00  0.00     0.211 HD
ENDBRANCH   1  22
BRANCH   6  24
HETATM   24  N1  UNL     1       5.960  -8.990 -23.388  1.00  0.00     0.093 N 
HETATM   25  C9  UNL     1       5.284  -9.982 -24.226  1.00  0.00     0.273 C 
HETATM   26  C10 UNL     1       5.810 -11.357 -24.006  1.00  0.00     0.030 C 
HETATM   27  C11 UNL     1       6.879 -11.300 -22.922  1.00  0.00     0.003 C 
HETATM   28  C12 UNL     1       7.934 -10.341 -23.421  1.00  0.00     0.030 C 
HETATM   29  C13 UNL     1       7.357  -8.999 -23.786  1.00  0.00     0.273 C 
ENDBRANCH   6  24
TORSDOF 4
ENDMDL
