MODEL 1
REMARK VINA RESULT: -10.316319334      0.000      0.000
REMARK  7 active torsions:
REMARK  status: ('A' for Active; 'I' for Inactive)
REMARK    1  A    between atoms: C5_5  and  N1_6 
REMARK       I    between atoms: N1_6  and  C6_7 
REMARK    2  A    between atoms: N1_6  and  C15_24 
REMARK    3  A    between atoms: C6_7  and  C7_9 
REMARK    4  A    between atoms: C7_9  and  N2_10 
REMARK    5  A    between atoms: C8_15  and  C9_16 
REMARK    6  A    between atoms: C15_24  and  C16_30 
REMARK    7  A    between atoms: N6_25  and  N7_27 
ROOT
HETATM    1  N1  UNL     1      16.771  66.083  44.515  1.00  0.00    -0.265 N 
HETATM    2  C6  UNL     1      15.478  66.444  44.172  1.00  0.00     0.251 C 
HETATM    3  O1  UNL     1      15.090  67.635  44.501  1.00  0.00    -0.271 OA
ENDROOT
BRANCH   1   4
HETATM    4  C5  UNL     1      17.585  67.164  45.092  1.00  0.00     0.044 A 
HETATM    5  C4  UNL     1      17.611  67.377  46.441  1.00  0.00     0.030 A 
HETATM    6  C3  UNL     1      18.396  68.411  46.960  1.00  0.00     0.009 A 
HETATM    7  C2  UNL     1      19.141  69.210  46.104  1.00  0.00    -0.062 A 
HETATM    8  C1  UNL     1      19.976  70.304  46.610  1.00  0.00     0.048 C 
HETATM    9  C23 UNL     1      19.107  68.984  44.745  1.00  0.00     0.009 A 
HETATM   10  C22 UNL     1      18.316  67.944  44.240  1.00  0.00     0.030 A 
ENDBRANCH   1   4
BRANCH   1  11
HETATM   11  C15 UNL     1      17.392  64.844  44.425  1.00  0.00     0.139 C 
HETATM   12  N6  UNL     1      18.357  64.703  43.489  1.00  0.00    -0.291 N 
ATOM     13  H6  UNL     1      18.619  65.473  42.874  1.00  0.00     0.188 HD
BRANCH  12  14
HETATM   14  N7  UNL     1      18.971  63.474  43.403  1.00  0.00    -0.344 N 
ATOM     15  H72 UNL     1      18.438  62.617  43.545  1.00  0.00     0.176 HD
ATOM     16  H71 UNL     1      19.969  63.468  43.194  1.00  0.00     0.176 HD
ENDBRANCH  12  14
BRANCH  11  17
HETATM   17  C16 UNL     1      17.130  63.709  45.270  1.00  0.00     0.010 A 
HETATM   18  C17 UNL     1      17.901  63.599  46.445  1.00  0.00     0.015 A 
HETATM   19  C18 UNL     1      17.759  62.527  47.287  1.00  0.00     0.001 A 
HETATM   20  C19 UNL     1      16.867  61.513  47.035  1.00  0.00     0.000 A 
HETATM   21  C20 UNL     1      16.099  61.606  45.881  1.00  0.00     0.001 A 
HETATM   22  C21 UNL     1      16.250  62.694  45.035  1.00  0.00     0.015 A 
ENDBRANCH  11  17
ENDBRANCH   1  11
BRANCH   2  23
HETATM   23  C7  UNL     1      14.459  65.658  43.475  1.00  0.00     0.274 C 
BRANCH  23  24
HETATM   24  N2  UNL     1      14.500  66.013  42.042  1.00  0.00    -0.209 N 
HETATM   25  N3  UNL     1      13.519  66.416  41.280  1.00  0.00    -0.224 N 
HETATM   26  N4  UNL     1      14.050  66.647  40.061  1.00  0.00    -0.268 N 
ATOM     27  H3  UNL     1      12.543  66.532  41.553  1.00  0.00     0.210 HD
HETATM   28  C8  UNL     1      15.355  66.387  40.075  1.00  0.00     0.147 A 
ATOM     29  H4  UNL     1      13.528  66.974  39.248  1.00  0.00     0.190 HD
HETATM   30  N5  UNL     1      15.618  65.985  41.346  1.00  0.00    -0.265 N 
ATOM     31  H5  UNL     1      16.532  65.707  41.703  1.00  0.00     0.190 HD
BRANCH  28  32
HETATM   32  C9  UNL     1      16.365  66.495  39.039  1.00  0.00     0.011 A 
HETATM   33  C10 UNL     1      16.161  65.977  37.769  1.00  0.00     0.015 A 
HETATM   34  C11 UNL     1      17.083  66.032  36.752  1.00  0.00     0.001 A 
HETATM   35  C12 UNL     1      18.285  66.649  37.035  1.00  0.00     0.000 A 
HETATM   36  C13 UNL     1      18.546  67.182  38.273  1.00  0.00     0.001 A 
HETATM   37  C14 UNL     1      17.578  67.103  39.281  1.00  0.00     0.015 A 
ENDBRANCH  28  32
ENDBRANCH  23  24
ENDBRANCH   2  23
TORSDOF 7
ENDMDL
MODEL 2
REMARK VINA RESULT: -9.834010794      2.292      5.111
REMARK  7 active torsions:
REMARK  status: ('A' for Active; 'I' for Inactive)
REMARK    1  A    between atoms: C5_5  and  N1_6 
REMARK       I    between atoms: N1_6  and  C6_7 
REMARK    2  A    between atoms: N1_6  and  C15_24 
REMARK    3  A    between atoms: C6_7  and  C7_9 
REMARK    4  A    between atoms: C7_9  and  N2_10 
REMARK    5  A    between atoms: C8_15  and  C9_16 
REMARK    6  A    between atoms: C15_24  and  C16_30 
REMARK    7  A    between atoms: N6_25  and  N7_27 
ROOT
HETATM    1  N1  UNL     1      18.219  66.142  45.191  1.00  0.00    -0.265 N 
HETATM    2  C6  UNL     1      19.056  66.177  44.088  1.00  0.00     0.251 C 
HETATM    3  O1  UNL     1      19.438  65.039  43.599  1.00  0.00    -0.271 OA
ENDROOT
BRANCH   1   4
HETATM    4  C5  UNL     1      17.761  64.800  45.581  1.00  0.00     0.044 A 
HETATM    5  C4  UNL     1      16.954  64.068  44.757  1.00  0.00     0.030 A 
HETATM    6  C3  UNL     1      16.536  62.795  45.155  1.00  0.00     0.009 A 
HETATM    7  C2  UNL     1      16.943  62.285  46.380  1.00  0.00    -0.062 A 
HETATM    8  C1  UNL     1      16.524  60.955  46.832  1.00  0.00     0.048 C 
HETATM    9  C23 UNL     1      17.757  63.033  47.202  1.00  0.00     0.009 A 
HETATM   10  C22 UNL     1      18.168  64.307  46.790  1.00  0.00     0.030 A 
ENDBRANCH   1   4
BRANCH   1  11
HETATM   11  C15 UNL     1      17.784  67.185  45.999  1.00  0.00     0.139 C 
HETATM   12  N6  UNL     1      18.727  67.888  46.663  1.00  0.00    -0.291 N 
ATOM     13  H6  UNL     1      19.718  67.664  46.576  1.00  0.00     0.188 HD
BRANCH  12  14
HETATM   14  N7  UNL     1      18.292  68.921  47.462  1.00  0.00    -0.344 N 
ATOM     15  H72 UNL     1      17.334  69.265  47.389  1.00  0.00     0.176 HD
ATOM     16  H71 UNL     1      18.965  69.316  48.118  1.00  0.00     0.176 HD
ENDBRANCH  12  14
BRANCH  11  17
HETATM   17  C16 UNL     1      16.418  67.611  46.156  1.00  0.00     0.010 A 
HETATM   18  C17 UNL     1      15.619  67.630  44.995  1.00  0.00     0.015 A 
HETATM   19  C18 UNL     1      14.321  68.069  45.035  1.00  0.00     0.001 A 
HETATM   20  C19 UNL     1      13.735  68.510  46.197  1.00  0.00     0.000 A 
HETATM   21  C20 UNL     1      14.508  68.499  47.350  1.00  0.00     0.001 A 
HETATM   22  C21 UNL     1      15.821  68.053  47.299  1.00  0.00     0.015 A 
ENDBRANCH  11  17
ENDBRANCH   1  11
BRANCH   2  23
HETATM   23  C7  UNL     1      19.586  67.339  43.372  1.00  0.00     0.274 C 
BRANCH  23  24
HETATM   24  N2  UNL     1      19.182  67.236  41.956  1.00  0.00    -0.209 N 
HETATM   25  N3  UNL     1      19.907  67.448  40.891  1.00  0.00    -0.224 N 
HETATM   26  N4  UNL     1      19.112  67.196  39.829  1.00  0.00    -0.268 N 
ATOM     27  H3  UNL     1      20.882  67.744  40.866  1.00  0.00     0.210 HD
HETATM   28  C8  UNL     1      17.901  66.831  40.242  1.00  0.00     0.147 A 
ATOM     29  H4  UNL     1      19.398  67.274  38.853  1.00  0.00     0.190 HD
HETATM   30  N5  UNL     1      17.970  66.863  41.599  1.00  0.00    -0.265 N 
ATOM     31  H5  UNL     1      17.208  66.636  42.237  1.00  0.00     0.190 HD
BRANCH  28  32
HETATM   32  C9  UNL     1      16.714  66.441  39.505  1.00  0.00     0.011 A 
HETATM   33  C10 UNL     1      15.527  66.132  40.151  1.00  0.00     0.015 A 
HETATM   34  C11 UNL     1      14.375  65.740  39.513  1.00  0.00     0.001 A 
HETATM   35  C12 UNL     1      14.427  65.656  38.136  1.00  0.00     0.000 A 
HETATM   36  C13 UNL     1      15.572  65.950  37.439  1.00  0.00     0.001 A 
HETATM   37  C14 UNL     1      16.723  66.345  38.130  1.00  0.00     0.015 A 
ENDBRANCH  28  32
ENDBRANCH  23  24
ENDBRANCH   2  23
TORSDOF 7
ENDMDL
MODEL 3
REMARK VINA RESULT: -9.661907084      4.590      8.840
REMARK  7 active torsions:
REMARK  status: ('A' for Active; 'I' for Inactive)
REMARK    1  A    between atoms: C5_5  and  N1_6 
REMARK       I    between atoms: N1_6  and  C6_7 
REMARK    2  A    between atoms: N1_6  and  C15_24 
REMARK    3  A    between atoms: C6_7  and  C7_9 
REMARK    4  A    between atoms: C7_9  and  N2_10 
REMARK    5  A    between atoms: C8_15  and  C9_16 
REMARK    6  A    between atoms: C15_24  and  C16_30 
REMARK    7  A    between atoms: N6_25  and  N7_27 
ROOT
HETATM    1  N1  UNL     1      17.122  68.860  46.730  1.00  0.00    -0.265 N 
HETATM    2  C6  UNL     1      17.999  69.924  46.867  1.00  0.00     0.251 C 
HETATM    3  O1  UNL     1      17.494  71.065  47.217  1.00  0.00    -0.271 OA
ENDROOT
BRANCH   1   4
HETATM    4  C5  UNL     1      15.737  69.140  47.139  1.00  0.00     0.044 A 
HETATM    5  C4  UNL     1      14.941  69.965  46.398  1.00  0.00     0.030 A 
HETATM    6  C3  UNL     1      13.628  70.210  46.812  1.00  0.00     0.009 A 
HETATM    7  C2  UNL     1      13.145  69.614  47.969  1.00  0.00    -0.062 A 
HETATM    8  C1  UNL     1      11.775  69.848  48.435  1.00  0.00     0.048 C 
HETATM    9  C23 UNL     1      13.959  68.783  48.708  1.00  0.00     0.009 A 
HETATM   10  C22 UNL     1      15.271  68.547  48.281  1.00  0.00     0.030 A 
ENDBRANCH   1   4
BRANCH   1  11
HETATM   11  C15 UNL     1      17.356  67.585  46.229  1.00  0.00     0.139 C 
HETATM   12  N6  UNL     1      17.830  66.660  47.092  1.00  0.00    -0.291 N 
ATOM     13  H6  UNL     1      18.010  66.887  48.070  1.00  0.00     0.188 HD
BRANCH  12  14
HETATM   14  N7  UNL     1      18.060  65.398  46.593  1.00  0.00    -0.344 N 
ATOM     15  H72 UNL     1      17.511  65.042  45.811  1.00  0.00     0.176 HD
ATOM     16  H71 UNL     1      18.794  64.849  47.039  1.00  0.00     0.176 HD
ENDBRANCH  12  14
BRANCH  11  17
HETATM   17  C16 UNL     1      17.095  67.152  44.882  1.00  0.00     0.010 A 
HETATM   18  C17 UNL     1      18.089  67.425  43.922  1.00  0.00     0.015 A 
HETATM   19  C18 UNL     1      17.910  67.096  42.603  1.00  0.00     0.001 A 
HETATM   20  C19 UNL     1      16.763  66.489  42.151  1.00  0.00     0.000 A 
HETATM   21  C20 UNL     1      15.773  66.213  43.085  1.00  0.00     0.001 A 
HETATM   22  C21 UNL     1      15.964  66.549  44.417  1.00  0.00     0.015 A 
ENDBRANCH  11  17
ENDBRANCH   1  11
BRANCH   2  23
HETATM   23  C7  UNL     1      19.449  69.951  46.670  1.00  0.00     0.274 C 
BRANCH  23  24
HETATM   24  N2  UNL     1      20.037  70.863  47.672  1.00  0.00    -0.209 N 
HETATM   25  N3  UNL     1      19.763  70.950  48.945  1.00  0.00    -0.224 N 
HETATM   26  N4  UNL     1      20.576  71.902  49.449  1.00  0.00    -0.268 N 
ATOM     27  H3  UNL     1      19.070  70.405  49.459  1.00  0.00     0.210 HD
HETATM   28  C8  UNL     1      21.348  72.398  48.485  1.00  0.00     0.147 A 
ATOM     29  H4  UNL     1      20.597  72.197  50.425  1.00  0.00     0.190 HD
HETATM   30  N5  UNL     1      20.987  71.721  47.364  1.00  0.00    -0.265 N 
ATOM     31  H5  UNL     1      21.386  71.856  46.435  1.00  0.00     0.190 HD
BRANCH  28  32
HETATM   32  C9  UNL     1      22.386  73.411  48.516  1.00  0.00     0.011 A 
HETATM   33  C10 UNL     1      23.388  73.454  47.557  1.00  0.00     0.015 A 
HETATM   34  C11 UNL     1      24.407  74.374  47.540  1.00  0.00     0.001 A 
HETATM   35  C12 UNL     1      24.415  75.310  48.555  1.00  0.00     0.000 A 
HETATM   36  C13 UNL     1      23.452  75.320  49.533  1.00  0.00     0.001 A 
HETATM   37  C14 UNL     1      22.432  74.363  49.512  1.00  0.00     0.015 A 
ENDBRANCH  28  32
ENDBRANCH  23  24
ENDBRANCH   2  23
TORSDOF 7
ENDMDL
MODEL 4
REMARK VINA RESULT: -9.548689210      7.564      9.437
REMARK  7 active torsions:
REMARK  status: ('A' for Active; 'I' for Inactive)
REMARK    1  A    between atoms: C5_5  and  N1_6 
REMARK       I    between atoms: N1_6  and  C6_7 
REMARK    2  A    between atoms: N1_6  and  C15_24 
REMARK    3  A    between atoms: C6_7  and  C7_9 
REMARK    4  A    between atoms: C7_9  and  N2_10 
REMARK    5  A    between atoms: C8_15  and  C9_16 
REMARK    6  A    between atoms: C15_24  and  C16_30 
REMARK    7  A    between atoms: N6_25  and  N7_27 
ROOT
HETATM    1  N1  UNL     1      10.690  69.030  49.677  1.00  0.00    -0.265 N 
HETATM    2  C6  UNL     1      11.998  69.148  49.237  1.00  0.00     0.251 C 
HETATM    3  O1  UNL     1      12.356  70.294  48.748  1.00  0.00    -0.271 OA
ENDROOT
BRANCH   1   4
HETATM    4  C5  UNL     1       9.912  70.279  49.656  1.00  0.00     0.044 A 
HETATM    5  C4  UNL     1       9.345  70.732  48.499  1.00  0.00     0.030 A 
HETATM    6  C3  UNL     1       8.611  71.921  48.511  1.00  0.00     0.009 A 
HETATM    7  C2  UNL     1       8.462  72.630  49.695  1.00  0.00    -0.062 A 
HETATM    8  C1  UNL     1       7.700  73.882  49.747  1.00  0.00     0.048 C 
HETATM    9  C23 UNL     1       9.038  72.162  50.856  1.00  0.00     0.009 A 
HETATM   10  C22 UNL     1       9.772  70.970  50.828  1.00  0.00     0.030 A 
ENDBRANCH   1   4
BRANCH   1  11
HETATM   11  C15 UNL     1      10.001  67.900  50.098  1.00  0.00     0.139 C 
HETATM   12  N6  UNL     1       9.072  67.393  49.258  1.00  0.00    -0.291 N 
ATOM     13  H6  UNL     1       8.883  67.823  48.352  1.00  0.00     0.188 HD
BRANCH  12  14
HETATM   14  N7  UNL     1       8.392  66.273  49.678  1.00  0.00    -0.344 N 
ATOM     15  H72 UNL     1       7.713  66.333  50.437  1.00  0.00     0.176 HD
ATOM     16  H71 UNL     1       8.599  65.397  49.199  1.00  0.00     0.176 HD
ENDBRANCH  12  14
BRANCH  11  17
HETATM   17  C16 UNL     1      10.222  67.194  51.333  1.00  0.00     0.010 A 
HETATM   18  C17 UNL     1      11.182  66.163  51.313  1.00  0.00     0.015 A 
HETATM   19  C18 UNL     1      11.426  65.400  52.426  1.00  0.00     0.001 A 
HETATM   20  C19 UNL     1      10.754  65.598  53.608  1.00  0.00     0.000 A 
HETATM   21  C20 UNL     1       9.803  66.609  53.644  1.00  0.00     0.001 A 
HETATM   22  C21 UNL     1       9.564  67.375  52.513  1.00  0.00     0.015 A 
ENDBRANCH  11  17
ENDBRANCH   1  11
BRANCH   2  23
HETATM   23  C7  UNL     1      13.064  68.145  49.243  1.00  0.00     0.274 C 
BRANCH  23  24
HETATM   24  N2  UNL     1      13.935  68.386  48.075  1.00  0.00    -0.209 N 
HETATM   25  N3  UNL     1      13.611  68.386  46.811  1.00  0.00    -0.224 N 
HETATM   26  N4  UNL     1      14.734  68.688  46.126  1.00  0.00    -0.268 N 
ATOM     27  H3  UNL     1      12.689  68.196  46.418  1.00  0.00     0.210 HD
HETATM   28  C8  UNL     1      15.747  68.873  46.970  1.00  0.00     0.147 A 
ATOM     29  H4  UNL     1      14.798  68.764  45.111  1.00  0.00     0.190 HD
HETATM   30  N5  UNL     1      15.213  68.675  48.204  1.00  0.00    -0.265 N 
ATOM     31  H5  UNL     1      15.720  68.741  49.087  1.00  0.00     0.190 HD
BRANCH  28  32
HETATM   32  C9  UNL     1      17.133  69.229  46.739  1.00  0.00     0.011 A 
HETATM   33  C10 UNL     1      17.959  68.455  45.938  1.00  0.00     0.015 A 
HETATM   34  C11 UNL     1      19.283  68.729  45.694  1.00  0.00     0.001 A 
HETATM   35  C12 UNL     1      19.805  69.856  46.298  1.00  0.00     0.000 A 
HETATM   36  C13 UNL     1      19.039  70.662  47.101  1.00  0.00     0.001 A 
HETATM   37  C14 UNL     1      17.694  70.346  47.323  1.00  0.00     0.015 A 
ENDBRANCH  28  32
ENDBRANCH  23  24
ENDBRANCH   2  23
TORSDOF 7
ENDMDL
MODEL 5
REMARK VINA RESULT: -9.414459336      3.388      6.485
REMARK  7 active torsions:
REMARK  status: ('A' for Active; 'I' for Inactive)
REMARK    1  A    between atoms: C5_5  and  N1_6 
REMARK       I    between atoms: N1_6  and  C6_7 
REMARK    2  A    between atoms: N1_6  and  C15_24 
REMARK    3  A    between atoms: C6_7  and  C7_9 
REMARK    4  A    between atoms: C7_9  and  N2_10 
REMARK    5  A    between atoms: C8_15  and  C9_16 
REMARK    6  A    between atoms: C15_24  and  C16_30 
REMARK    7  A    between atoms: N6_25  and  N7_27 
ROOT
HETATM    1  N1  UNL     1      17.395  69.441  46.708  1.00  0.00    -0.265 N 
HETATM    2  C6  UNL     1      17.733  68.425  45.829  1.00  0.00     0.251 C 
HETATM    3  O1  UNL     1      16.822  67.542  45.568  1.00  0.00    -0.271 OA
ENDROOT
BRANCH   1   4
HETATM    4  C5  UNL     1      15.984  69.458  47.126  1.00  0.00     0.044 A 
HETATM    5  C4  UNL     1      15.081  70.277  46.510  1.00  0.00     0.030 A 
HETATM    6  C3  UNL     1      13.748  70.270  46.929  1.00  0.00     0.009 A 
HETATM    7  C2  UNL     1      13.351  69.431  47.962  1.00  0.00    -0.062 A 
HETATM    8  C1  UNL     1      11.961  69.396  48.428  1.00  0.00     0.048 C 
HETATM    9  C23 UNL     1      14.271  68.609  48.574  1.00  0.00     0.009 A 
HETATM   10  C22 UNL     1      15.604  68.627  48.144  1.00  0.00     0.030 A 
ENDBRANCH   1   4
BRANCH   1  11
HETATM   11  C15 UNL     1      18.202  70.419  47.277  1.00  0.00     0.139 C 
HETATM   12  N6  UNL     1      18.953  70.059  48.341  1.00  0.00    -0.291 N 
ATOM     13  H6  UNL     1      18.929  69.109  48.712  1.00  0.00     0.188 HD
BRANCH  12  14
HETATM   14  N7  UNL     1      19.751  71.029  48.901  1.00  0.00    -0.344 N 
ATOM     15  H72 UNL     1      20.185  70.881  49.812  1.00  0.00     0.176 HD
ATOM     16  H71 UNL     1      19.884  71.888  48.366  1.00  0.00     0.176 HD
ENDBRANCH  12  14
BRANCH  11  17
HETATM   17  C16 UNL     1      18.342  71.771  46.804  1.00  0.00     0.010 A 
HETATM   18  C17 UNL     1      19.410  72.030  45.923  1.00  0.00     0.015 A 
HETATM   19  C18 UNL     1      19.656  73.297  45.459  1.00  0.00     0.001 A 
HETATM   20  C19 UNL     1      18.881  74.371  45.826  1.00  0.00     0.000 A 
HETATM   21  C20 UNL     1      17.824  74.133  46.695  1.00  0.00     0.001 A 
HETATM   22  C21 UNL     1      17.584  72.848  47.158  1.00  0.00     0.015 A 
ENDBRANCH  11  17
ENDBRANCH   1  11
BRANCH   2  23
HETATM   23  C7  UNL     1      19.000  68.196  45.134  1.00  0.00     0.274 C 
BRANCH  23  24
HETATM   24  N2  UNL     1      18.750  67.280  44.003  1.00  0.00    -0.209 N 
HETATM   25  N3  UNL     1      18.917  65.986  43.958  1.00  0.00    -0.224 N 
HETATM   26  N4  UNL     1      18.524  65.590  42.729  1.00  0.00    -0.268 N 
ATOM     27  H3  UNL     1      19.275  65.391  44.705  1.00  0.00     0.210 HD
HETATM   28  C8  UNL     1      18.116  66.641  42.020  1.00  0.00     0.147 A 
ATOM     29  H4  UNL     1      18.538  64.628  42.392  1.00  0.00     0.190 HD
HETATM   30  N5  UNL     1      18.269  67.704  42.852  1.00  0.00    -0.265 N 
ATOM     31  H5  UNL     1      18.047  68.673  42.623  1.00  0.00     0.190 HD
BRANCH  28  32
HETATM   32  C9  UNL     1      17.588  66.741  40.673  1.00  0.00     0.011 A 
HETATM   33  C10 UNL     1      16.258  66.464  40.392  1.00  0.00     0.015 A 
HETATM   34  C11 UNL     1      15.702  66.524  39.138  1.00  0.00     0.001 A 
HETATM   35  C12 UNL     1      16.541  66.885  38.103  1.00  0.00     0.000 A 
HETATM   36  C13 UNL     1      17.866  67.171  38.317  1.00  0.00     0.001 A 
HETATM   37  C14 UNL     1      18.391  67.098  39.611  1.00  0.00     0.015 A 
ENDBRANCH  28  32
ENDBRANCH  23  24
ENDBRANCH   2  23
TORSDOF 7
ENDMDL
