MODEL 1
REMARK VINA RESULT: -7.763461431      0.000      0.000
REMARK  5 active torsions:
REMARK  status: ('A' for Active; 'I' for Inactive)
REMARK    1  A    between atoms: C1_2  and  C2_3 
REMARK       I    between atoms: C1_2  and  N3_17 
REMARK    2  A    between atoms: C2_3  and  N1_4 
REMARK    3  A    between atoms: N2_8  and  C4_9 
REMARK    4  A    between atoms: N3_17  and  C11_19 
REMARK    5  A    between atoms: N5_22  and  C12_23 
ROOT
HETATM    1  O1  UNL     1     -13.872 -12.545 -24.998  1.00  0.00    -0.271 OA
HETATM    2  C1  UNL     1     -13.185 -11.787 -25.722  1.00  0.00     0.244 C 
HETATM    3  N3  UNL     1     -12.369 -10.813 -25.166  1.00  0.00    -0.304 N 
ATOM      4  H3  UNL     1     -11.481 -10.677 -25.647  1.00  0.00     0.171 HD
ENDROOT
BRANCH   2   5
HETATM    5  C2  UNL     1     -13.272 -11.972 -27.212  1.00  0.00     0.265 C 
BRANCH   5   6
HETATM    6  N1  UNL     1     -14.568 -11.452 -27.635  1.00  0.00    -0.188 N 
HETATM    7  O2  UNL     1     -15.542 -12.117 -28.113  1.00  0.00    -0.173 OA
HETATM    8  C3  UNL     1     -16.572 -11.366 -28.394  1.00  0.00     0.398 A 
HETATM    9  O3  UNL     1     -17.661 -11.721 -28.869  1.00  0.00    -0.235 OA
HETATM   10  N2  UNL     1     -16.250 -10.089 -28.073  1.00  0.00    -0.206 N 
HETATM   11  C10 UNL     1     -14.982 -10.173 -27.598  1.00  0.00     0.358 A 
HETATM   12  O4  UNL     1     -14.350  -9.156 -27.198  1.00  0.00    -0.244 OA
BRANCH  10  13
HETATM   13  C4  UNL     1     -17.065  -8.916 -28.195  1.00  0.00     0.049 A 
HETATM   14  C5  UNL     1     -17.760  -8.686 -29.359  1.00  0.00     0.030 A 
HETATM   15  C6  UNL     1     -18.549  -7.561 -29.481  1.00  0.00     0.002 A 
HETATM   16  C7  UNL     1     -18.618  -6.688 -28.417  1.00  0.00     0.000 A 
HETATM   17  C8  UNL     1     -17.918  -6.916 -27.242  1.00  0.00     0.002 A 
HETATM   18  C9  UNL     1     -17.149  -8.034 -27.152  1.00  0.00     0.030 A 
ENDBRANCH  10  13
ENDBRANCH   5   6
ENDBRANCH   2   5
BRANCH   3  19
HETATM   19  C11 UNL     1     -12.545 -10.067 -24.165  1.00  0.00     0.185 A 
HETATM   20  S1  UNL     1     -12.431 -10.559 -22.522  1.00  0.00     0.039 SA
HETATM   21  N4  UNL     1     -12.840  -8.960 -22.479  1.00  0.00    -0.049 NA
HETATM   22  N5  UNL     1     -12.871  -8.802 -23.799  1.00  0.00    -0.226 N 
BRANCH  22  23
HETATM   23  C12 UNL     1     -13.157  -7.627 -24.548  1.00  0.00     0.056 A 
HETATM   24  C13 UNL     1     -12.206  -6.933 -25.278  1.00  0.00     0.031 A 
HETATM   25  C14 UNL     1     -12.523  -5.809 -26.000  1.00  0.00     0.002 A 
HETATM   26  C15 UNL     1     -13.805  -5.310 -26.036  1.00  0.00     0.000 A 
HETATM   27  C16 UNL     1     -14.778  -5.976 -25.319  1.00  0.00     0.002 A 
HETATM   28  C17 UNL     1     -14.450  -7.103 -24.599  1.00  0.00     0.031 A 
ENDBRANCH  22  23
ENDBRANCH   3  19
TORSDOF 5
ENDMDL
MODEL 2
REMARK VINA RESULT: -7.735178769      0.068      1.295
REMARK  5 active torsions:
REMARK  status: ('A' for Active; 'I' for Inactive)
REMARK    1  A    between atoms: C1_2  and  C2_3 
REMARK       I    between atoms: C1_2  and  N3_17 
REMARK    2  A    between atoms: C2_3  and  N1_4 
REMARK    3  A    between atoms: N2_8  and  C4_9 
REMARK    4  A    between atoms: N3_17  and  C11_19 
REMARK    5  A    between atoms: N5_22  and  C12_23 
ROOT
HETATM    1  O1  UNL     1     -13.876 -12.521 -25.001  1.00  0.00    -0.271 OA
HETATM    2  C1  UNL     1     -13.172 -11.779 -25.725  1.00  0.00     0.244 C 
HETATM    3  N3  UNL     1     -12.335 -10.823 -25.169  1.00  0.00    -0.304 N 
ATOM      4  H3  UNL     1     -11.443 -10.708 -25.650  1.00  0.00     0.171 HD
ENDROOT
BRANCH   2   5
HETATM    5  C2  UNL     1     -13.262 -11.963 -27.215  1.00  0.00     0.265 C 
BRANCH   5   6
HETATM    6  N1  UNL     1     -14.561 -11.449 -27.634  1.00  0.00    -0.188 N 
HETATM    7  O2  UNL     1     -15.537 -12.120 -28.100  1.00  0.00    -0.173 OA
HETATM    8  C3  UNL     1     -16.570 -11.373 -28.382  1.00  0.00     0.398 A 
HETATM    9  O3  UNL     1     -17.662 -11.734 -28.847  1.00  0.00    -0.235 OA
HETATM   10  N2  UNL     1     -16.248 -10.092 -28.074  1.00  0.00    -0.206 N 
HETATM   11  C10 UNL     1     -14.977 -10.171 -27.606  1.00  0.00     0.358 A 
HETATM   12  O4  UNL     1     -14.344  -9.149 -27.219  1.00  0.00    -0.244 OA
BRANCH  10  13
HETATM   13  C4  UNL     1     -17.066  -8.922 -28.201  1.00  0.00     0.049 A 
HETATM   14  C5  UNL     1     -17.164  -8.041 -27.151  1.00  0.00     0.030 A 
HETATM   15  C6  UNL     1     -17.948  -6.911 -27.269  1.00  0.00     0.002 A 
HETATM   16  C7  UNL     1     -18.618  -6.697 -28.454  1.00  0.00     0.000 A 
HETATM   17  C8  UNL     1     -18.522  -7.584 -29.514  1.00  0.00     0.002 A 
HETATM   18  C9  UNL     1     -17.742  -8.688 -29.368  1.00  0.00     0.030 A 
ENDBRANCH  10  13
ENDBRANCH   5   6
ENDBRANCH   2   5
BRANCH   3  19
HETATM   19  C11 UNL     1     -12.495 -10.073 -24.168  1.00  0.00     0.185 A 
HETATM   20  S1  UNL     1     -12.352 -10.557 -22.525  1.00  0.00     0.039 SA
HETATM   21  N4  UNL     1     -12.763  -8.959 -22.483  1.00  0.00    -0.049 NA
HETATM   22  N5  UNL     1     -12.817  -8.807 -23.804  1.00  0.00    -0.226 N 
BRANCH  22  23
HETATM   23  C12 UNL     1     -13.117  -7.636 -24.553  1.00  0.00     0.056 A 
HETATM   24  C13 UNL     1     -14.383  -7.079 -24.631  1.00  0.00     0.031 A 
HETATM   25  C14 UNL     1     -14.632  -5.940 -25.355  1.00  0.00     0.002 A 
HETATM   26  C15 UNL     1     -13.634  -5.288 -26.043  1.00  0.00     0.000 A 
HETATM   27  C16 UNL     1     -12.360  -5.814 -25.988  1.00  0.00     0.002 A 
HETATM   28  C17 UNL     1     -12.120  -6.958 -25.259  1.00  0.00     0.031 A 
ENDBRANCH  22  23
ENDBRANCH   3  19
TORSDOF 5
ENDMDL
MODEL 3
REMARK VINA RESULT: -7.537484163      2.957      6.046
REMARK  5 active torsions:
REMARK  status: ('A' for Active; 'I' for Inactive)
REMARK    1  A    between atoms: C1_2  and  C2_3 
REMARK       I    between atoms: C1_2  and  N3_17 
REMARK    2  A    between atoms: C2_3  and  N1_4 
REMARK    3  A    between atoms: N2_8  and  C4_9 
REMARK    4  A    between atoms: N3_17  and  C11_19 
REMARK    5  A    between atoms: N5_22  and  C12_23 
ROOT
HETATM    1  O1  UNL     1     -16.666 -10.819 -28.677  1.00  0.00    -0.271 OA
HETATM    2  C1  UNL     1     -15.926  -9.960 -28.143  1.00  0.00     0.244 C 
HETATM    3  N3  UNL     1     -16.440  -8.750 -27.701  1.00  0.00    -0.304 N 
ATOM      4  H3  UNL     1     -16.032  -8.406 -26.833  1.00  0.00     0.171 HD
ENDROOT
BRANCH   2   5
HETATM    5  C2  UNL     1     -14.466 -10.286 -27.994  1.00  0.00     0.265 C 
BRANCH   5   6
HETATM    6  N1  UNL     1     -14.252 -10.681 -26.607  1.00  0.00    -0.188 N 
HETATM    7  O2  UNL     1     -14.172 -11.866 -26.151  1.00  0.00    -0.173 OA
HETATM    8  C3  UNL     1     -13.973 -11.894 -24.860  1.00  0.00     0.398 A 
HETATM    9  O3  UNL     1     -13.853 -12.893 -24.134  1.00  0.00    -0.235 OA
HETATM   10  N2  UNL     1     -13.916 -10.612 -24.424  1.00  0.00    -0.206 N 
HETATM   11  C10 UNL     1     -14.095  -9.870 -25.546  1.00  0.00     0.358 A 
HETATM   12  O4  UNL     1     -14.101  -8.608 -25.517  1.00  0.00    -0.244 OA
BRANCH  10  13
HETATM   13  C4  UNL     1     -13.702 -10.144 -23.087  1.00  0.00     0.049 A 
HETATM   14  C5  UNL     1     -12.432 -10.137 -22.561  1.00  0.00     0.030 A 
HETATM   15  C6  UNL     1     -12.220  -9.684 -21.274  1.00  0.00     0.002 A 
HETATM   16  C7  UNL     1     -13.304  -9.246 -20.545  1.00  0.00     0.000 A 
HETATM   17  C8  UNL     1     -14.586  -9.253 -21.072  1.00  0.00     0.002 A 
HETATM   18  C9  UNL     1     -14.764  -9.705 -22.342  1.00  0.00     0.030 A 
ENDBRANCH  10  13
ENDBRANCH   5   6
ENDBRANCH   2   5
BRANCH   3  19
HETATM   19  C11 UNL     1     -17.329  -8.004 -28.196  1.00  0.00     0.185 A 
HETATM   20  S1  UNL     1     -18.179  -8.301 -29.660  1.00  0.00     0.039 SA
HETATM   21  N4  UNL     1     -18.751  -6.858 -29.100  1.00  0.00    -0.049 NA
HETATM   22  N5  UNL     1     -17.987  -6.833 -28.011  1.00  0.00    -0.226 N 
BRANCH  22  23
HETATM   23  C12 UNL     1     -17.930  -5.848 -26.987  1.00  0.00     0.056 A 
HETATM   24  C13 UNL     1     -16.794  -5.583 -26.241  1.00  0.00     0.031 A 
HETATM   25  C14 UNL     1     -16.773  -4.614 -25.268  1.00  0.00     0.002 A 
HETATM   26  C15 UNL     1     -17.883  -3.853 -24.982  1.00  0.00     0.000 A 
HETATM   27  C16 UNL     1     -19.034  -4.090 -25.706  1.00  0.00     0.002 A 
HETATM   28  C17 UNL     1     -19.044  -5.064 -26.680  1.00  0.00     0.031 A 
ENDBRANCH  22  23
ENDBRANCH   3  19
TORSDOF 5
ENDMDL
MODEL 4
REMARK VINA RESULT: -7.415787790      1.972      2.991
REMARK  5 active torsions:
REMARK  status: ('A' for Active; 'I' for Inactive)
REMARK    1  A    between atoms: C1_2  and  C2_3 
REMARK       I    between atoms: C1_2  and  N3_17 
REMARK    2  A    between atoms: C2_3  and  N1_4 
REMARK    3  A    between atoms: N2_8  and  C4_9 
REMARK    4  A    between atoms: N3_17  and  C11_19 
REMARK    5  A    between atoms: N5_22  and  C12_23 
ROOT
HETATM    1  O1  UNL     1     -14.030 -12.819 -26.130  1.00  0.00    -0.271 OA
HETATM    2  C1  UNL     1     -13.806 -11.967 -27.021  1.00  0.00     0.244 C 
HETATM    3  N3  UNL     1     -12.553 -11.388 -27.158  1.00  0.00    -0.304 N 
ATOM      4  H3  UNL     1     -12.262 -11.226 -28.122  1.00  0.00     0.171 HD
ENDROOT
BRANCH   2   5
HETATM    5  C2  UNL     1     -14.939 -11.596 -27.938  1.00  0.00     0.265 C 
BRANCH   5   6
HETATM    6  N1  UNL     1     -15.306 -10.218 -27.634  1.00  0.00    -0.188 N 
HETATM    7  O2  UNL     1     -14.583  -9.341 -27.061  1.00  0.00    -0.173 OA
HETATM    8  C3  UNL     1     -15.195  -8.193 -26.933  1.00  0.00     0.398 A 
HETATM    9  O3  UNL     1     -14.754  -7.154 -26.420  1.00  0.00    -0.235 OA
HETATM   10  N2  UNL     1     -16.433  -8.325 -27.469  1.00  0.00    -0.206 N 
HETATM   11  C10 UNL     1     -16.475  -9.610 -27.902  1.00  0.00     0.358 A 
HETATM   12  O4  UNL     1     -17.497 -10.092 -28.465  1.00  0.00    -0.244 OA
BRANCH  10  13
HETATM   13  C4  UNL     1     -17.461  -7.331 -27.568  1.00  0.00     0.049 A 
HETATM   14  C5  UNL     1     -18.381  -7.401 -28.587  1.00  0.00     0.030 A 
HETATM   15  C6  UNL     1     -19.375  -6.448 -28.686  1.00  0.00     0.002 A 
HETATM   16  C7  UNL     1     -19.416  -5.441 -27.746  1.00  0.00     0.000 A 
HETATM   17  C8  UNL     1     -18.489  -5.368 -26.718  1.00  0.00     0.002 A 
HETATM   18  C9  UNL     1     -17.521  -6.321 -26.647  1.00  0.00     0.030 A 
ENDBRANCH  10  13
ENDBRANCH   5   6
ENDBRANCH   2   5
BRANCH   3  19
HETATM   19  C11 UNL     1     -11.714 -11.027 -26.288  1.00  0.00     0.185 A 
HETATM   20  S1  UNL     1     -10.020 -11.307 -26.359  1.00  0.00     0.039 SA
HETATM   21  N4  UNL     1     -10.280 -10.522 -24.931  1.00  0.00    -0.049 NA
HETATM   22  N5  UNL     1     -11.597 -10.413 -25.084  1.00  0.00    -0.226 N 
BRANCH  22  23
HETATM   23  C12 UNL     1     -12.547  -9.812 -24.214  1.00  0.00     0.056 A 
HETATM   24  C13 UNL     1     -12.616  -8.449 -23.978  1.00  0.00     0.031 A 
HETATM   25  C14 UNL     1     -13.556  -7.903 -23.140  1.00  0.00     0.002 A 
HETATM   26  C15 UNL     1     -14.484  -8.683 -22.488  1.00  0.00     0.000 A 
HETATM   27  C16 UNL     1     -14.446 -10.046 -22.700  1.00  0.00     0.002 A 
HETATM   28  C17 UNL     1     -13.498 -10.584 -23.543  1.00  0.00     0.031 A 
ENDBRANCH  22  23
ENDBRANCH   3  19
TORSDOF 5
ENDMDL
MODEL 5
REMARK VINA RESULT: -7.374977107      8.806     10.905
REMARK  5 active torsions:
REMARK  status: ('A' for Active; 'I' for Inactive)
REMARK    1  A    between atoms: C1_2  and  C2_3 
REMARK       I    between atoms: C1_2  and  N3_17 
REMARK    2  A    between atoms: C2_3  and  N1_4 
REMARK    3  A    between atoms: N2_8  and  C4_9 
REMARK    4  A    between atoms: N3_17  and  C11_19 
REMARK    5  A    between atoms: N5_22  and  C12_23 
ROOT
HETATM    1  O1  UNL     1     -18.665   0.454 -27.265  1.00  0.00    -0.271 OA
HETATM    2  C1  UNL     1     -18.913  -0.423 -28.125  1.00  0.00     0.244 C 
HETATM    3  N3  UNL     1     -19.898  -1.375 -27.911  1.00  0.00    -0.304 N 
ATOM      4  H3  UNL     1     -20.440  -1.620 -28.739  1.00  0.00     0.171 HD
ENDROOT
BRANCH   2   5
HETATM    5  C2  UNL     1     -18.111  -0.406 -29.397  1.00  0.00     0.265 C 
BRANCH   5   6
HETATM    6  N1  UNL     1     -19.019  -0.030 -30.474  1.00  0.00    -0.188 N 
HETATM    7  O2  UNL     1     -20.205   0.416 -30.357  1.00  0.00    -0.173 OA
HETATM    8  C3  UNL     1     -20.763   0.664 -31.511  1.00  0.00     0.398 A 
HETATM    9  O3  UNL     1     -21.904   1.103 -31.722  1.00  0.00    -0.235 OA
HETATM   10  N2  UNL     1     -19.865   0.355 -32.478  1.00  0.00    -0.206 N 
HETATM   11  C10 UNL     1     -18.776  -0.080 -31.796  1.00  0.00     0.358 A 
HETATM   12  O4  UNL     1     -17.727  -0.460 -32.386  1.00  0.00    -0.244 OA
BRANCH  10  13
HETATM   13  C4  UNL     1     -20.023   0.471 -33.898  1.00  0.00     0.049 A 
HETATM   14  C5  UNL     1     -20.670  -0.520 -34.597  1.00  0.00     0.030 A 
HETATM   15  C6  UNL     1     -20.827  -0.411 -35.964  1.00  0.00     0.002 A 
HETATM   16  C7  UNL     1     -20.323   0.705 -36.596  1.00  0.00     0.000 A 
HETATM   17  C8  UNL     1     -19.670   1.706 -35.895  1.00  0.00     0.002 A 
HETATM   18  C9  UNL     1     -19.530   1.571 -34.549  1.00  0.00     0.030 A 
ENDBRANCH  10  13
ENDBRANCH   5   6
ENDBRANCH   2   5
BRANCH   3  19
HETATM   19  C11 UNL     1     -20.234  -1.989 -26.861  1.00  0.00     0.185 A 
HETATM   20  S1  UNL     1     -21.476  -1.504 -25.776  1.00  0.00     0.039 SA
HETATM   21  N4  UNL     1     -20.834  -2.880 -25.130  1.00  0.00    -0.049 NA
HETATM   22  N5  UNL     1     -19.935  -3.066 -26.093  1.00  0.00    -0.226 N 
BRANCH  22  23
HETATM   23  C12 UNL     1     -18.979  -4.109 -26.228  1.00  0.00     0.056 A 
HETATM   24  C13 UNL     1     -19.184  -5.242 -26.998  1.00  0.00     0.031 A 
HETATM   25  C14 UNL     1     -18.230  -6.223 -27.115  1.00  0.00     0.002 A 
HETATM   26  C15 UNL     1     -17.017  -6.133 -26.471  1.00  0.00     0.000 A 
HETATM   27  C16 UNL     1     -16.779  -5.018 -25.695  1.00  0.00     0.002 A 
HETATM   28  C17 UNL     1     -17.741  -4.039 -25.584  1.00  0.00     0.031 A 
ENDBRANCH  22  23
ENDBRANCH   3  19
TORSDOF 5
ENDMDL
