MODEL 1
REMARK VINA RESULT: -8.548075369      0.000      0.000
REMARK  14 active torsions:
REMARK  status: ('A' for Active; 'I' for Inactive)
REMARK    1  A    between atoms: C2_2  and  C3_3 
REMARK    2  A    between atoms: C3_3  and  C4_4 
REMARK    3  A    between atoms: C4_4  and  C5_5 
REMARK    4  A    between atoms: C5_5  and  C6_6 
REMARK    5  A    between atoms: C8_10  and  C9_11 
REMARK    6  A    between atoms: C9_11  and  C10_12 
REMARK    7  A    between atoms: C17_21  and  C18_22 
REMARK    8  A    between atoms: C18_22  and  C19_23 
REMARK    9  A    between atoms: N3_24  and  N4_26 
REMARK   10  A    between atoms: C20_31  and  O1_32 
REMARK   11  A    between atoms: C20_31  and  N6_34 
REMARK   12  A    between atoms: N6_34  and  C21_36 
REMARK   13  A    between atoms: C21_36  and  C23_38 
REMARK       I    between atoms: C23_38  and  N7_40 
REMARK   14  A    between atoms: C27_44  and  C28_45 
ROOT
HETATM    1  C6  UNL     1      20.284   7.166  28.263  1.00  0.00    -0.030 A 
HETATM    2  C7  UNL     1      19.583   7.750  29.293  1.00  0.00     0.096 A 
HETATM    3  N1  UNL     1      20.399   8.658  29.909  1.00  0.00    -0.365 N 
ATOM      4  H1  UNL     1      20.137   9.237  30.707  1.00  0.00     0.165 HD
HETATM    5  C8  UNL     1      21.599   8.671  29.304  1.00  0.00     0.041 A 
HETATM    6  C17 UNL     1      21.517   7.725  28.266  1.00  0.00    -0.019 A 
ENDROOT
BRANCH   1   7
HETATM    7  C5  UNL     1      19.747   6.125  27.334  1.00  0.00     0.068 C 
BRANCH   7   8
HETATM    8  C4  UNL     1      19.484   6.616  26.019  1.00  0.00    -0.006 C 
BRANCH   8   9
HETATM    9  C3  UNL     1      18.978   5.921  24.993  1.00  0.00     0.010 C 
HETATM   10  C20 UNL     1      18.420   6.735  23.941  1.00  0.00     0.146 C 
BRANCH   9  11
HETATM   11  C2  UNL     1      19.018   4.496  24.998  1.00  0.00     0.005 C 
HETATM   12  C1  UNL     1      19.615   3.606  24.295  1.00  0.00     0.012 C 
ENDBRANCH   9  11
BRANCH  10  13
HETATM   13  O1  UNL     1      18.495   8.043  24.154  1.00  0.00    -0.346 OA
ATOM     14  H1  UNL     1      17.738   8.417  24.590  1.00  0.00     0.219 HD
ENDBRANCH  10  13
BRANCH  10  15
HETATM   15  N6  UNL     1      17.812   6.411  22.739  1.00  0.00    -0.357 N 
ATOM     16  H6  UNL     1      18.318   6.537  21.862  1.00  0.00     0.162 HD
BRANCH  15  17
HETATM   17  C21 UNL     1      16.419   5.879  22.728  1.00  0.00     0.172 C 
HETATM   18  C22 UNL     1      16.055   5.671  21.293  1.00  0.00     0.042 C 
BRANCH  17  19
HETATM   19  C23 UNL     1      15.531   6.895  23.326  1.00  0.00     0.243 C 
HETATM   20  O2  UNL     1      15.281   7.955  22.655  1.00  0.00    -0.271 OA
HETATM   21  N7  UNL     1      14.958   6.723  24.608  1.00  0.00    -0.337 N 
HETATM   22  C24 UNL     1      15.150   5.594  25.468  1.00  0.00     0.127 C 
HETATM   23  C27 UNL     1      14.084   7.670  25.254  1.00  0.00     0.176 C 
HETATM   24  C25 UNL     1      14.349   5.870  26.726  1.00  0.00     0.022 C 
HETATM   25  C26 UNL     1      13.281   6.830  26.220  1.00  0.00     0.036 C 
BRANCH  23  26
HETATM   26  C28 UNL     1      14.841   8.753  25.930  1.00  0.00     0.254 C 
HETATM   27  N8  UNL     1      14.176   9.878  26.431  1.00  0.00    -0.060 NA
HETATM   28  O3  UNL     1      16.084   8.640  26.042  1.00  0.00    -0.275 OA
ENDBRANCH  23  26
ENDBRANCH  17  19
ENDBRANCH  15  17
ENDBRANCH  10  15
ENDBRANCH   8   9
ENDBRANCH   7   8
ENDBRANCH   1   7
BRANCH   6  29
HETATM   29  C18 UNL     1      22.669   7.451  27.374  1.00  0.00     0.087 C 
BRANCH  29  30
HETATM   30  C19 UNL     1      23.390   6.195  27.785  1.00  0.00     0.086 C 
HETATM   31  N3  UNL     1      24.560   5.920  27.333  1.00  0.00    -0.302 N 
ATOM     32  H3  UNL     1      25.015   6.561  26.684  1.00  0.00     0.187 HD
BRANCH  31  33
HETATM   33  N4  UNL     1      25.211   4.756  27.724  1.00  0.00    -0.250 N 
HETATM   34  N5  UNL     1      25.301   3.754  26.928  1.00  0.00    -0.331 N 
ATOM     35  H52 UNL     1      24.884   3.828  25.999  1.00  0.00     0.178 HD
ATOM     36  H51 UNL     1      25.778   2.899  27.214  1.00  0.00     0.178 HD
ATOM     37  H4  UNL     1      25.622   4.698  28.655  1.00  0.00     0.207 HD
ENDBRANCH  31  33
ENDBRANCH  29  30
ENDBRANCH   6  29
BRANCH   5  38
HETATM   38  C9  UNL     1      22.720   9.512  29.687  1.00  0.00     0.060 C 
BRANCH  38  39
HETATM   39  C10 UNL     1      23.671   9.122  30.509  1.00  0.00     0.041 A 
HETATM   40  N2  UNL     1      23.847   7.882  30.999  1.00  0.00    -0.356 N 
HETATM   41  C11 UNL     1      24.936   7.868  31.820  1.00  0.00     0.029 A 
ATOM     42  H2  UNL     1      23.257   7.077  30.788  1.00  0.00     0.166 HD
HETATM   43  C12 UNL     1      25.382   6.811  32.459  1.00  0.00     0.043 C 
HETATM   44  C13 UNL     1      25.474   9.141  31.855  1.00  0.00    -0.028 A 
HETATM   45  C14 UNL     1      26.679   9.595  32.628  1.00  0.00     0.051 C 
HETATM   46  C15 UNL     1      24.670   9.910  31.030  1.00  0.00    -0.027 A 
HETATM   47  C16 UNL     1      24.841  11.358  30.742  1.00  0.00     0.051 C 
ENDBRANCH  38  39
ENDBRANCH   5  38
TORSDOF 14
ENDMDL
MODEL 2
REMARK VINA RESULT: -8.536638773      1.530      3.043
REMARK  14 active torsions:
REMARK  status: ('A' for Active; 'I' for Inactive)
REMARK    1  A    between atoms: C2_2  and  C3_3 
REMARK    2  A    between atoms: C3_3  and  C4_4 
REMARK    3  A    between atoms: C4_4  and  C5_5 
REMARK    4  A    between atoms: C5_5  and  C6_6 
REMARK    5  A    between atoms: C8_10  and  C9_11 
REMARK    6  A    between atoms: C9_11  and  C10_12 
REMARK    7  A    between atoms: C17_21  and  C18_22 
REMARK    8  A    between atoms: C18_22  and  C19_23 
REMARK    9  A    between atoms: N3_24  and  N4_26 
REMARK   10  A    between atoms: C20_31  and  O1_32 
REMARK   11  A    between atoms: C20_31  and  N6_34 
REMARK   12  A    between atoms: N6_34  and  C21_36 
REMARK   13  A    between atoms: C21_36  and  C23_38 
REMARK       I    between atoms: C23_38  and  N7_40 
REMARK   14  A    between atoms: C27_44  and  C28_45 
ROOT
HETATM    1  C6  UNL     1      21.411   6.841  27.481  1.00  0.00    -0.030 A 
HETATM    2  C7  UNL     1      22.758   6.693  27.239  1.00  0.00     0.096 A 
HETATM    3  N1  UNL     1      23.430   7.650  27.946  1.00  0.00    -0.365 N 
ATOM      4  H1  UNL     1      24.443   7.773  27.952  1.00  0.00     0.165 HD
HETATM    5  C8  UNL     1      22.555   8.405  28.631  1.00  0.00     0.041 A 
HETATM    6  C17 UNL     1      21.282   7.887  28.331  1.00  0.00    -0.019 A 
ENDROOT
BRANCH   1   7
HETATM    7  C5  UNL     1      20.331   5.984  26.905  1.00  0.00     0.068 C 
BRANCH   7   8
HETATM    8  C4  UNL     1      19.719   6.543  25.741  1.00  0.00    -0.006 C 
BRANCH   8   9
HETATM    9  C3  UNL     1      19.168   5.868  24.726  1.00  0.00     0.010 C 
HETATM   10  C20 UNL     1      18.474   6.695  23.769  1.00  0.00     0.146 C 
BRANCH   9  11
HETATM   11  C2  UNL     1      19.291   4.450  24.652  1.00  0.00     0.005 C 
HETATM   12  C1  UNL     1      19.902   3.634  23.873  1.00  0.00     0.012 C 
ENDBRANCH   9  11
BRANCH  10  13
HETATM   13  O1  UNL     1      18.491   7.993  24.044  1.00  0.00    -0.346 OA
ATOM     14  H1  UNL     1      17.699   8.459  23.805  1.00  0.00     0.219 HD
ENDBRANCH  10  13
BRANCH  10  15
HETATM   15  N6  UNL     1      17.785   6.392  22.606  1.00  0.00    -0.357 N 
ATOM     16  H6  UNL     1      18.236   6.512  21.699  1.00  0.00     0.162 HD
BRANCH  15  17
HETATM   17  C21 UNL     1      16.382   5.891  22.681  1.00  0.00     0.172 C 
HETATM   18  C22 UNL     1      15.914   5.725  21.271  1.00  0.00     0.042 C 
BRANCH  17  19
HETATM   19  C23 UNL     1      15.562   6.911  23.362  1.00  0.00     0.243 C 
HETATM   20  O2  UNL     1      15.448   8.063  22.817  1.00  0.00    -0.271 OA
HETATM   21  N7  UNL     1      14.907   6.646  24.587  1.00  0.00    -0.337 N 
HETATM   22  C24 UNL     1      14.948   5.409  25.309  1.00  0.00     0.127 C 
HETATM   23  C27 UNL     1      14.092   7.590  25.309  1.00  0.00     0.176 C 
HETATM   24  C25 UNL     1      14.109   5.611  26.557  1.00  0.00     0.022 C 
HETATM   25  C26 UNL     1      13.164   6.725  26.129  1.00  0.00     0.036 C 
BRANCH  23  26
HETATM   26  C28 UNL     1      14.909   8.506  26.144  1.00  0.00     0.254 C 
HETATM   27  N8  UNL     1      16.275   8.265  26.334  1.00  0.00    -0.060 NA
HETATM   28  O3  UNL     1      14.352   9.496  26.674  1.00  0.00    -0.275 OA
ENDBRANCH  23  26
ENDBRANCH  17  19
ENDBRANCH  15  17
ENDBRANCH  10  15
ENDBRANCH   8   9
ENDBRANCH   7   8
ENDBRANCH   1   7
BRANCH   6  29
HETATM   29  C18 UNL     1      20.050   8.478  28.904  1.00  0.00     0.087 C 
BRANCH  29  30
HETATM   30  C19 UNL     1      19.025   7.417  29.207  1.00  0.00     0.086 C 
HETATM   31  N3  UNL     1      17.810   7.531  28.809  1.00  0.00    -0.302 N 
ATOM     32  H3  UNL     1      17.527   8.353  28.277  1.00  0.00     0.187 HD
BRANCH  31  33
HETATM   33  N4  UNL     1      16.878   6.541  29.097  1.00  0.00    -0.250 N 
HETATM   34  N5  UNL     1      15.656   6.841  29.346  1.00  0.00    -0.331 N 
ATOM     35  H52 UNL     1      15.380   7.823  29.328  1.00  0.00     0.178 HD
ATOM     36  H51 UNL     1      14.971   6.115  29.558  1.00  0.00     0.178 HD
ATOM     37  H4  UNL     1      17.170   5.564  29.111  1.00  0.00     0.207 HD
ENDBRANCH  31  33
ENDBRANCH  29  30
ENDBRANCH   6  29
BRANCH   5  38
HETATM   38  C9  UNL     1      22.907   9.521  29.494  1.00  0.00     0.060 C 
BRANCH  38  39
HETATM   39  C10 UNL     1      23.631   9.391  30.584  1.00  0.00     0.041 A 
HETATM   40  N2  UNL     1      24.958   9.582  30.693  1.00  0.00    -0.356 N 
HETATM   41  C11 UNL     1      25.348   9.351  31.979  1.00  0.00     0.029 A 
ATOM     42  H2  UNL     1      25.576   9.858  29.930  1.00  0.00     0.166 HD
HETATM   43  C12 UNL     1      26.581   9.451  32.421  1.00  0.00     0.043 C 
HETATM   44  C13 UNL     1      24.232   9.001  32.718  1.00  0.00    -0.028 A 
HETATM   45  C14 UNL     1      24.184   8.658  34.179  1.00  0.00     0.051 C 
HETATM   46  C15 UNL     1      23.171   9.032  31.829  1.00  0.00    -0.027 A 
HETATM   47  C16 UNL     1      21.751   8.726  32.149  1.00  0.00     0.051 C 
ENDBRANCH  38  39
ENDBRANCH   5  38
TORSDOF 14
ENDMDL
MODEL 3
REMARK VINA RESULT: -8.390255840      2.359      4.058
REMARK  14 active torsions:
REMARK  status: ('A' for Active; 'I' for Inactive)
REMARK    1  A    between atoms: C2_2  and  C3_3 
REMARK    2  A    between atoms: C3_3  and  C4_4 
REMARK    3  A    between atoms: C4_4  and  C5_5 
REMARK    4  A    between atoms: C5_5  and  C6_6 
REMARK    5  A    between atoms: C8_10  and  C9_11 
REMARK    6  A    between atoms: C9_11  and  C10_12 
REMARK    7  A    between atoms: C17_21  and  C18_22 
REMARK    8  A    between atoms: C18_22  and  C19_23 
REMARK    9  A    between atoms: N3_24  and  N4_26 
REMARK   10  A    between atoms: C20_31  and  O1_32 
REMARK   11  A    between atoms: C20_31  and  N6_34 
REMARK   12  A    between atoms: N6_34  and  C21_36 
REMARK   13  A    between atoms: C21_36  and  C23_38 
REMARK       I    between atoms: C23_38  and  N7_40 
REMARK   14  A    between atoms: C27_44  and  C28_45 
ROOT
HETATM    1  C6  UNL     1      22.260   8.240  28.281  1.00  0.00    -0.030 A 
HETATM    2  C7  UNL     1      22.840   9.432  27.911  1.00  0.00     0.096 A 
HETATM    3  N1  UNL     1      23.181  10.115  29.045  1.00  0.00    -0.365 N 
ATOM      4  H1  UNL     1      23.629  11.031  29.067  1.00  0.00     0.165 HD
HETATM    5  C8  UNL     1      22.837   9.396  30.127  1.00  0.00     0.041 A 
HETATM    6  C17 UNL     1      22.255   8.214  29.634  1.00  0.00    -0.019 A 
ENDROOT
BRANCH   1   7
HETATM    7  C5  UNL     1      21.754   7.196  27.338  1.00  0.00     0.068 C 
BRANCH   7   8
HETATM    8  C4  UNL     1      20.358   7.311  27.055  1.00  0.00    -0.006 C 
BRANCH   8   9
HETATM    9  C3  UNL     1      19.441   6.343  27.153  1.00  0.00     0.010 C 
HETATM   10  C20 UNL     1      18.213   6.749  27.792  1.00  0.00     0.146 C 
BRANCH   9  11
HETATM   11  C2  UNL     1      19.714   5.037  26.650  1.00  0.00     0.005 C 
HETATM   12  C1  UNL     1      19.656   4.483  25.494  1.00  0.00     0.012 C 
ENDBRANCH   9  11
BRANCH  10  13
HETATM   13  O1  UNL     1      18.185   8.017  28.182  1.00  0.00    -0.346 OA
ATOM     14  H1  UNL     1      17.375   8.473  27.987  1.00  0.00     0.219 HD
ENDBRANCH  10  13
BRANCH  10  15
HETATM   15  N6  UNL     1      17.045   6.063  28.082  1.00  0.00    -0.357 N 
ATOM     16  H6  UNL     1      17.067   5.262  28.714  1.00  0.00     0.162 HD
BRANCH  15  17
HETATM   17  C21 UNL     1      15.756   6.497  27.471  1.00  0.00     0.172 C 
HETATM   18  C22 UNL     1      14.701   5.584  28.011  1.00  0.00     0.042 C 
BRANCH  17  19
HETATM   19  C23 UNL     1      15.858   6.329  26.008  1.00  0.00     0.243 C 
HETATM   20  O2  UNL     1      16.065   5.156  25.543  1.00  0.00    -0.271 OA
HETATM   21  N7  UNL     1      15.734   7.425  25.122  1.00  0.00    -0.337 N 
HETATM   22  C24 UNL     1      15.505   8.788  25.500  1.00  0.00     0.127 C 
HETATM   23  C27 UNL     1      15.822   7.339  23.686  1.00  0.00     0.176 C 
HETATM   24  C25 UNL     1      15.458   9.589  24.213  1.00  0.00     0.022 C 
HETATM   25  C26 UNL     1      15.042   8.535  23.196  1.00  0.00     0.036 C 
BRANCH  23  26
HETATM   26  C28 UNL     1      17.230   7.342  23.215  1.00  0.00     0.254 C 
HETATM   27  N8  UNL     1      18.273   7.648  24.097  1.00  0.00    -0.060 NA
HETATM   28  O3  UNL     1      17.464   7.064  22.015  1.00  0.00    -0.275 OA
ENDBRANCH  23  26
ENDBRANCH  17  19
ENDBRANCH  15  17
ENDBRANCH  10  15
ENDBRANCH   8   9
ENDBRANCH   7   8
ENDBRANCH   1   7
BRANCH   6  29
HETATM   29  C18 UNL     1      21.737   7.167  30.547  1.00  0.00     0.087 C 
BRANCH  29  30
HETATM   30  C19 UNL     1      20.262   7.341  30.797  1.00  0.00     0.086 C 
HETATM   31  N3  UNL     1      19.727   8.508  30.839  1.00  0.00    -0.302 N 
ATOM     32  H3  UNL     1      20.307   9.336  30.703  1.00  0.00     0.187 HD
BRANCH  31  33
HETATM   33  N4  UNL     1      18.365   8.650  31.070  1.00  0.00    -0.250 N 
HETATM   34  N5  UNL     1      17.609   7.622  31.207  1.00  0.00    -0.331 N 
ATOM     35  H52 UNL     1      18.030   6.695  31.143  1.00  0.00     0.178 HD
ATOM     36  H51 UNL     1      16.609   7.726  31.377  1.00  0.00     0.178 HD
ATOM     37  H4  UNL     1      17.960   9.584  31.132  1.00  0.00     0.207 HD
ENDBRANCH  31  33
ENDBRANCH  29  30
ENDBRANCH   6  29
BRANCH   5  38
HETATM   38  C9  UNL     1      23.046   9.806  31.506  1.00  0.00     0.060 C 
BRANCH  38  39
HETATM   39  C10 UNL     1      24.125   9.502  32.195  1.00  0.00     0.041 A 
HETATM   40  N2  UNL     1      25.371   9.956  31.974  1.00  0.00    -0.356 N 
HETATM   41  C11 UNL     1      26.222   9.416  32.892  1.00  0.00     0.029 A 
ATOM     42  H2  UNL     1      25.638  10.605  31.234  1.00  0.00     0.166 HD
HETATM   43  C12 UNL     1      27.512   9.655  32.955  1.00  0.00     0.043 C 
HETATM   44  C13 UNL     1      25.495   8.588  33.729  1.00  0.00    -0.028 A 
HETATM   45  C14 UNL     1      26.016   7.784  34.886  1.00  0.00     0.051 C 
HETATM   46  C15 UNL     1      24.188   8.656  33.277  1.00  0.00    -0.027 A 
HETATM   47  C16 UNL     1      23.023   7.934  33.854  1.00  0.00     0.051 C 
ENDBRANCH  38  39
ENDBRANCH   5  38
TORSDOF 14
ENDMDL
MODEL 4
REMARK VINA RESULT: -8.375457554      1.598      2.953
REMARK  14 active torsions:
REMARK  status: ('A' for Active; 'I' for Inactive)
REMARK    1  A    between atoms: C2_2  and  C3_3 
REMARK    2  A    between atoms: C3_3  and  C4_4 
REMARK    3  A    between atoms: C4_4  and  C5_5 
REMARK    4  A    between atoms: C5_5  and  C6_6 
REMARK    5  A    between atoms: C8_10  and  C9_11 
REMARK    6  A    between atoms: C9_11  and  C10_12 
REMARK    7  A    between atoms: C17_21  and  C18_22 
REMARK    8  A    between atoms: C18_22  and  C19_23 
REMARK    9  A    between atoms: N3_24  and  N4_26 
REMARK   10  A    between atoms: C20_31  and  O1_32 
REMARK   11  A    between atoms: C20_31  and  N6_34 
REMARK   12  A    between atoms: N6_34  and  C21_36 
REMARK   13  A    between atoms: C21_36  and  C23_38 
REMARK       I    between atoms: C23_38  and  N7_40 
REMARK   14  A    between atoms: C27_44  and  C28_45 
ROOT
HETATM    1  C6  UNL     1      19.751   7.509  28.919  1.00  0.00    -0.030 A 
HETATM    2  C7  UNL     1      19.363   7.813  30.203  1.00  0.00     0.096 A 
HETATM    3  N1  UNL     1      20.337   8.581  30.778  1.00  0.00    -0.365 N 
ATOM      4  H1  UNL     1      20.310   8.950  31.728  1.00  0.00     0.165 HD
HETATM    5  C8  UNL     1      21.335   8.777  29.900  1.00  0.00     0.041 A 
HETATM    6  C17 UNL     1      20.956   8.096  28.729  1.00  0.00    -0.019 A 
ENDROOT
BRANCH   1   7
HETATM    7  C5  UNL     1      18.961   6.694  27.947  1.00  0.00     0.068 C 
BRANCH   7   8
HETATM    8  C4  UNL     1      17.654   6.357  28.416  1.00  0.00    -0.006 C 
BRANCH   8   9
HETATM    9  C3  UNL     1      16.704   5.707  27.734  1.00  0.00     0.010 C 
HETATM   10  C20 UNL     1      15.357   6.100  28.069  1.00  0.00     0.146 C 
BRANCH   9  11
HETATM   11  C2  UNL     1      17.056   4.717  26.771  1.00  0.00     0.005 C 
HETATM   12  C1  UNL     1      16.884   3.450  26.671  1.00  0.00     0.012 C 
ENDBRANCH   9  11
BRANCH  10  13
HETATM   13  O1  UNL     1      15.271   7.044  28.998  1.00  0.00    -0.346 OA
ATOM     14  H1  UNL     1      14.814   7.830  28.723  1.00  0.00     0.219 HD
ENDBRANCH  10  13
BRANCH  10  15
HETATM   15  N6  UNL     1      14.122   5.678  27.604  1.00  0.00    -0.357 N 
ATOM     16  H6  UNL     1      13.740   4.783  27.911  1.00  0.00     0.162 HD
BRANCH  15  17
HETATM   17  C21 UNL     1      13.353   6.532  26.654  1.00  0.00     0.172 C 
HETATM   18  C22 UNL     1      12.072   5.812  26.376  1.00  0.00     0.042 C 
BRANCH  17  19
HETATM   19  C23 UNL     1      14.134   6.659  25.408  1.00  0.00     0.243 C 
HETATM   20  O2  UNL     1      14.469   5.591  24.789  1.00  0.00    -0.271 OA
HETATM   21  N7  UNL     1      14.515   7.920  24.892  1.00  0.00    -0.337 N 
HETATM   22  C24 UNL     1      14.214   9.192  25.478  1.00  0.00     0.127 C 
HETATM   23  C27 UNL     1      15.276   8.121  23.685  1.00  0.00     0.176 C 
HETATM   24  C25 UNL     1      14.837  10.240  24.576  1.00  0.00     0.022 C 
HETATM   25  C26 UNL     1      14.898   9.514  23.239  1.00  0.00     0.036 C 
BRANCH  23  26
HETATM   26  C28 UNL     1      16.735   7.970  23.916  1.00  0.00     0.254 C 
HETATM   27  N8  UNL     1      17.613   7.816  22.837  1.00  0.00    -0.060 NA
HETATM   28  O3  UNL     1      17.162   7.984  25.095  1.00  0.00    -0.275 OA
ENDBRANCH  23  26
ENDBRANCH  17  19
ENDBRANCH  15  17
ENDBRANCH  10  15
ENDBRANCH   8   9
ENDBRANCH   7   8
ENDBRANCH   1   7
BRANCH   6  29
HETATM   29  C18 UNL     1      21.825   8.078  27.528  1.00  0.00     0.087 C 
BRANCH  29  30
HETATM   30  C19 UNL     1      22.633   6.808  27.458  1.00  0.00     0.086 C 
HETATM   31  N3  UNL     1      23.903   6.815  27.643  1.00  0.00    -0.302 N 
ATOM     32  H3  UNL     1      24.380   7.694  27.841  1.00  0.00     0.187 HD
BRANCH  31  33
HETATM   33  N4  UNL     1      24.632   5.634  27.575  1.00  0.00    -0.250 N 
HETATM   34  N5  UNL     1      24.378   4.755  26.676  1.00  0.00    -0.331 N 
ATOM     35  H52 UNL     1      23.629   4.941  26.009  1.00  0.00     0.178 HD
ATOM     36  H51 UNL     1      24.913   3.888  26.625  1.00  0.00     0.178 HD
ATOM     37  H4  UNL     1      25.377   5.464  28.249  1.00  0.00     0.207 HD
ENDBRANCH  31  33
ENDBRANCH  29  30
ENDBRANCH   6  29
BRANCH   5  38
HETATM   38  C9  UNL     1      22.540   9.546  30.160  1.00  0.00     0.060 C 
BRANCH  38  39
HETATM   39  C10 UNL     1      23.562   9.080  30.846  1.00  0.00     0.041 A 
HETATM   40  N2  UNL     1      23.702   7.832  31.327  1.00  0.00    -0.356 N 
HETATM   41  C11 UNL     1      24.892   7.728  31.985  1.00  0.00     0.029 A 
ATOM     42  H2  UNL     1      23.022   7.080  31.218  1.00  0.00     0.166 HD
HETATM   43  C12 UNL     1      25.335   6.640  32.572  1.00  0.00     0.043 C 
HETATM   44  C13 UNL     1      25.536   8.951  31.920  1.00  0.00    -0.028 A 
HETATM   45  C14 UNL     1      26.874   9.303  32.504  1.00  0.00     0.051 C 
HETATM   46  C15 UNL     1      24.690   9.781  31.204  1.00  0.00    -0.027 A 
HETATM   47  C16 UNL     1      24.939  11.208  30.868  1.00  0.00     0.051 C 
ENDBRANCH  38  39
ENDBRANCH   5  38
TORSDOF 14
ENDMDL
MODEL 5
REMARK VINA RESULT: -8.360747439      3.084      5.444
REMARK  14 active torsions:
REMARK  status: ('A' for Active; 'I' for Inactive)
REMARK    1  A    between atoms: C2_2  and  C3_3 
REMARK    2  A    between atoms: C3_3  and  C4_4 
REMARK    3  A    between atoms: C4_4  and  C5_5 
REMARK    4  A    between atoms: C5_5  and  C6_6 
REMARK    5  A    between atoms: C8_10  and  C9_11 
REMARK    6  A    between atoms: C9_11  and  C10_12 
REMARK    7  A    between atoms: C17_21  and  C18_22 
REMARK    8  A    between atoms: C18_22  and  C19_23 
REMARK    9  A    between atoms: N3_24  and  N4_26 
REMARK   10  A    between atoms: C20_31  and  O1_32 
REMARK   11  A    between atoms: C20_31  and  N6_34 
REMARK   12  A    between atoms: N6_34  and  C21_36 
REMARK   13  A    between atoms: C21_36  and  C23_38 
REMARK       I    between atoms: C23_38  and  N7_40 
REMARK   14  A    between atoms: C27_44  and  C28_45 
ROOT
HETATM    1  C6  UNL     1      21.199   4.909  26.571  1.00  0.00    -0.030 A 
HETATM    2  C7  UNL     1      22.543   4.983  26.858  1.00  0.00     0.096 A 
HETATM    3  N1  UNL     1      22.835   6.269  27.221  1.00  0.00    -0.365 N 
ATOM      4  H1  UNL     1      23.759   6.608  27.487  1.00  0.00     0.165 HD
HETATM    5  C8  UNL     1      21.720   7.017  27.174  1.00  0.00     0.041 A 
HETATM    6  C17 UNL     1      20.692   6.150  26.762  1.00  0.00    -0.019 A 
ENDROOT
BRANCH   1   7
HETATM    7  C5  UNL     1      20.475   3.674  26.143  1.00  0.00     0.068 C 
BRANCH   7   8
HETATM    8  C4  UNL     1      20.054   3.703  24.778  1.00  0.00    -0.006 C 
BRANCH   8   9
HETATM    9  C3  UNL     1      20.789   3.379  23.708  1.00  0.00     0.010 C 
HETATM   10  C20 UNL     1      20.236   3.820  22.451  1.00  0.00     0.146 C 
BRANCH   9  11
HETATM   11  C2  UNL     1      22.008   2.656  23.863  1.00  0.00     0.005 C 
HETATM   12  C1  UNL     1      23.251   2.940  23.723  1.00  0.00     0.012 C 
ENDBRANCH   9  11
BRANCH  10  13
HETATM   13  O1  UNL     1      19.088   4.477  22.551  1.00  0.00    -0.346 OA
ATOM     14  H1  UNL     1      18.954   5.144  21.889  1.00  0.00     0.219 HD
ENDBRANCH  10  13
BRANCH  10  15
HETATM   15  N6  UNL     1      20.677   3.687  21.144  1.00  0.00    -0.357 N 
ATOM     16  H6  UNL     1      21.483   4.222  20.821  1.00  0.00     0.162 HD
BRANCH  15  17
HETATM   17  C21 UNL     1      19.971   2.762  20.211  1.00  0.00     0.172 C 
HETATM   18  C22 UNL     1      21.013   2.209  19.292  1.00  0.00     0.042 C 
BRANCH  17  19
HETATM   19  C23 UNL     1      18.989   3.545  19.437  1.00  0.00     0.243 C 
HETATM   20  O2  UNL     1      19.424   4.394  18.584  1.00  0.00    -0.271 OA
HETATM   21  N7  UNL     1      17.596   3.380  19.616  1.00  0.00    -0.337 N 
HETATM   22  C24 UNL     1      16.969   2.474  20.532  1.00  0.00     0.127 C 
HETATM   23  C27 UNL     1      16.580   4.108  18.898  1.00  0.00     0.176 C 
HETATM   24  C25 UNL     1      15.474   2.665  20.370  1.00  0.00     0.022 C 
HETATM   25  C26 UNL     1      15.372   3.203  18.949  1.00  0.00     0.036 C 
BRANCH  23  26
HETATM   26  C28 UNL     1      16.323   5.441  19.498  1.00  0.00     0.254 C 
HETATM   27  N8  UNL     1      17.159   5.940  20.504  1.00  0.00    -0.060 NA
HETATM   28  O3  UNL     1      15.344   6.108  19.087  1.00  0.00    -0.275 OA
ENDBRANCH  23  26
ENDBRANCH  17  19
ENDBRANCH  15  17
ENDBRANCH  10  15
ENDBRANCH   8   9
ENDBRANCH   7   8
ENDBRANCH   1   7
BRANCH   6  29
HETATM   29  C18 UNL     1      19.300   6.628  26.584  1.00  0.00     0.087 C 
BRANCH  29  30
HETATM   30  C19 UNL     1      19.072   7.134  25.184  1.00  0.00     0.086 C 
HETATM   31  N3  UNL     1      18.139   6.653  24.445  1.00  0.00    -0.302 N 
ATOM     32  H3  UNL     1      17.537   5.913  24.807  1.00  0.00     0.187 HD
BRANCH  31  33
HETATM   33  N4  UNL     1      17.942   7.133  23.156  1.00  0.00    -0.250 N 
HETATM   34  N5  UNL     1      17.323   8.238  22.953  1.00  0.00    -0.331 N 
ATOM     35  H52 UNL     1      16.976   8.759  23.758  1.00  0.00     0.178 HD
ATOM     36  H51 UNL     1      17.178   8.591  22.006  1.00  0.00     0.178 HD
ATOM     37  H4  UNL     1      18.295   6.600  22.362  1.00  0.00     0.207 HD
ENDBRANCH  31  33
ENDBRANCH  29  30
ENDBRANCH   6  29
BRANCH   5  38
HETATM   38  C9  UNL     1      21.648   8.433  27.494  1.00  0.00     0.060 C 
BRANCH  38  39
HETATM   39  C10 UNL     1      22.054   8.937  28.640  1.00  0.00     0.041 A 
HETATM   40  N2  UNL     1      23.105   9.753  28.829  1.00  0.00    -0.356 N 
HETATM   41  C11 UNL     1      23.210  10.061  30.153  1.00  0.00     0.029 A 
ATOM     42  H2  UNL     1      23.727  10.090  28.095  1.00  0.00     0.166 HD
HETATM   43  C12 UNL     1      24.132  10.839  30.674  1.00  0.00     0.043 C 
HETATM   44  C13 UNL     1      22.191   9.420  30.834  1.00  0.00    -0.028 A 
HETATM   45  C14 UNL     1      21.915   9.470  32.309  1.00  0.00     0.051 C 
HETATM   46  C15 UNL     1      21.480   8.723  29.872  1.00  0.00    -0.027 A 
HETATM   47  C16 UNL     1      20.285   7.872  30.110  1.00  0.00     0.051 C 
ENDBRANCH  38  39
ENDBRANCH   5  38
TORSDOF 14
ENDMDL
