MODEL 1
REMARK VINA RESULT: -9.514356764      0.000      0.000
REMARK  8 active torsions:
REMARK  status: ('A' for Active; 'I' for Inactive)
REMARK    1  A    between atoms: C7_7  and  C8_8 
REMARK    2  A    between atoms: C7_7  and  C30_37 
REMARK       I    between atoms: C8_8  and  N1_10 
REMARK    3  A    between atoms: C11_13  and  N2_15 
REMARK    4  A    between atoms: C15_18  and  C16_19 
REMARK    5  A    between atoms: C16_19  and  N3_20 
REMARK    6  A    between atoms: N3_20  and  C17_22 
REMARK    7  A    between atoms: C17_22  and  C18_23 
REMARK    8  A    between atoms: C17_22  and  C24_31 
ROOT
HETATM    1  C8  UNL     1     -35.973  12.934 -51.687  1.00  0.00     0.233 C 
HETATM    2  O1  UNL     1     -36.460  12.543 -52.821  1.00  0.00    -0.272 OA
HETATM    3  N1  UNL     1     -35.436  11.879 -50.905  1.00  0.00    -0.351 N 
HETATM    4  C9  UNL     1     -34.836  12.025 -49.627  1.00  0.00     0.128 C 
HETATM    5  C10 UNL     1     -33.601  11.157 -49.456  1.00  0.00     0.050 C 
HETATM    6  C11 UNL     1     -33.946   9.700 -49.700  1.00  0.00     0.031 C 
HETATM    7  C12 UNL     1     -35.063   9.269 -48.745  1.00  0.00     0.039 C 
HETATM    8  C28 UNL     1     -34.508   9.569 -51.121  1.00  0.00     0.050 C 
HETATM    9  C29 UNL     1     -35.554  10.535 -51.459  1.00  0.00     0.128 C 
ENDROOT
BRANCH   6  10
HETATM   10  N2  UNL     1     -32.840   8.889 -49.581  1.00  0.00    -0.384 N 
HETATM   11  C13 UNL     1     -31.702   9.336 -48.885  1.00  0.00     0.060 C 
HETATM   12  C14 UNL     1     -30.724   8.178 -48.987  1.00  0.00     0.056 C 
HETATM   13  C15 UNL     1     -31.179   7.452 -50.239  1.00  0.00     0.046 C 
HETATM   14  C27 UNL     1     -32.697   7.672 -50.224  1.00  0.00     0.133 C 
BRANCH  13  15
HETATM   15  C16 UNL     1     -30.625   8.050 -51.482  1.00  0.00     0.062 C 
BRANCH  15  16
HETATM   16  N3  UNL     1     -31.437   8.120 -52.603  1.00  0.00    -0.393 N 
ATOM     17  H3  UNL     1     -32.439   7.988 -52.464  1.00  0.00     0.159 HD
BRANCH  16  18
HETATM   18  C17 UNL     1     -31.000   8.354 -53.904  1.00  0.00     0.118 C 
BRANCH  18  19
HETATM   19  C18 UNL     1     -31.148   9.837 -54.155  1.00  0.00    -0.029 A 
HETATM   20  C19 UNL     1     -30.222  10.522 -54.902  1.00  0.00     0.051 A 
HETATM   21  C20 UNL     1     -30.373  11.900 -55.115  1.00  0.00     0.119 A 
HETATM   22  F1  UNL     1     -29.464  12.577 -55.849  1.00  0.00    -0.206 F 
HETATM   23  C21 UNL     1     -31.448  12.578 -54.581  1.00  0.00     0.084 A 
HETATM   24  C22 UNL     1     -32.376  11.881 -53.829  1.00  0.00     0.119 A 
HETATM   25  F2  UNL     1     -33.437  12.534 -53.300  1.00  0.00    -0.206 F 
HETATM   26  C23 UNL     1     -32.207  10.501 -53.626  1.00  0.00     0.051 A 
ENDBRANCH  18  19
BRANCH  18  27
HETATM   27  C24 UNL     1     -29.585   8.007 -54.257  1.00  0.00     0.013 A 
HETATM   28  C25 UNL     1     -29.433   7.134 -55.492  1.00  0.00     0.007 A 
HETATM   29  C26 UNL     1     -29.103   6.572 -54.167  1.00  0.00     0.007 A 
ENDBRANCH  18  27
ENDBRANCH  16  18
ENDBRANCH  15  16
ENDBRANCH  13  15
ENDBRANCH   6  10
BRANCH   1  30
HETATM   30  C7  UNL     1     -36.048  14.371 -51.384  1.00  0.00     0.072 C 
HETATM   31  C2  UNL     1     -37.313  14.954 -51.878  1.00  0.00     0.004 C 
HETATM   32  C1  UNL     1     -37.666  16.289 -51.236  1.00  0.00     0.011 C 
HETATM   33  C3  UNL     1     -38.430  14.008 -51.431  1.00  0.00     0.006 C 
HETATM   34  C4  UNL     1     -38.486  13.918 -49.946  1.00  0.00     0.000 C 
HETATM   35  C5  UNL     1     -37.322  14.435 -49.189  1.00  0.00     0.002 C 
HETATM   36  C6  UNL     1     -36.001  14.468 -49.838  1.00  0.00     0.025 C 
BRANCH  30  37
HETATM   37  C30 UNL     1     -34.806  15.021 -51.846  1.00  0.00    -0.025 A 
HETATM   38  C31 UNL     1     -33.684  14.981 -51.009  1.00  0.00     0.011 A 
HETATM   39  C32 UNL     1     -32.503  15.577 -51.364  1.00  0.00     0.018 A 
HETATM   40  C33 UNL     1     -32.370  16.243 -52.563  1.00  0.00     0.087 A 
HETATM   41  N4  UNL     1     -33.454  16.272 -53.353  1.00  0.00    -0.375 N 
HETATM   42  C34 UNL     1     -34.631  15.691 -53.027  1.00  0.00     0.096 A 
ATOM     43  H4  UNL     1     -33.386  16.758 -54.248  1.00  0.00     0.164 HD
ENDBRANCH  30  37
ENDBRANCH   1  30
TORSDOF 8
ENDMDL
MODEL 2
REMARK VINA RESULT: -9.228106901      1.873      3.206
REMARK  8 active torsions:
REMARK  status: ('A' for Active; 'I' for Inactive)
REMARK    1  A    between atoms: C7_7  and  C8_8 
REMARK    2  A    between atoms: C7_7  and  C30_37 
REMARK       I    between atoms: C8_8  and  N1_10 
REMARK    3  A    between atoms: C11_13  and  N2_15 
REMARK    4  A    between atoms: C15_18  and  C16_19 
REMARK    5  A    between atoms: C16_19  and  N3_20 
REMARK    6  A    between atoms: N3_20  and  C17_22 
REMARK    7  A    between atoms: C17_22  and  C18_23 
REMARK    8  A    between atoms: C17_22  and  C24_31 
ROOT
HETATM    1  C8  UNL     1     -35.552  13.168 -51.908  1.00  0.00     0.233 C 
HETATM    2  O1  UNL     1     -35.844  12.886 -53.137  1.00  0.00    -0.272 OA
HETATM    3  N1  UNL     1     -35.155  12.039 -51.145  1.00  0.00    -0.351 N 
HETATM    4  C9  UNL     1     -34.775  12.063 -49.778  1.00  0.00     0.128 C 
HETATM    5  C10 UNL     1     -33.588  11.161 -49.484  1.00  0.00     0.050 C 
HETATM    6  C11 UNL     1     -33.892   9.738 -49.910  1.00  0.00     0.031 C 
HETATM    7  C12 UNL     1     -35.153   9.245 -49.195  1.00  0.00     0.039 C 
HETATM    8  C28 UNL     1     -34.210   9.742 -51.410  1.00  0.00     0.050 C 
HETATM    9  C29 UNL     1     -35.183  10.751 -51.829  1.00  0.00     0.128 C 
ENDROOT
BRANCH   6  10
HETATM   10  N2  UNL     1     -32.823   8.900 -49.683  1.00  0.00    -0.384 N 
HETATM   11  C13 UNL     1     -31.830   9.251 -48.751  1.00  0.00     0.060 C 
HETATM   12  C14 UNL     1     -30.847   8.094 -48.800  1.00  0.00     0.056 C 
HETATM   13  C15 UNL     1     -31.068   7.513 -50.184  1.00  0.00     0.046 C 
HETATM   14  C27 UNL     1     -32.564   7.755 -50.416  1.00  0.00     0.133 C 
BRANCH  13  15
HETATM   15  C16 UNL     1     -30.301   8.230 -51.236  1.00  0.00     0.062 C 
BRANCH  15  16
HETATM   16  N3  UNL     1     -30.758   8.174 -52.543  1.00  0.00    -0.393 N 
ATOM     17  H3  UNL     1     -31.661   7.729 -52.704  1.00  0.00     0.159 HD
BRANCH  16  18
HETATM   18  C17 UNL     1     -30.087   8.674 -53.656  1.00  0.00     0.118 C 
BRANCH  18  19
HETATM   19  C18 UNL     1     -29.644   7.482 -54.472  1.00  0.00    -0.029 A 
HETATM   20  C19 UNL     1     -30.089   7.304 -55.759  1.00  0.00     0.051 A 
HETATM   21  C20 UNL     1     -29.673   6.186 -56.497  1.00  0.00     0.119 A 
HETATM   22  F1  UNL     1     -30.108   6.008 -57.762  1.00  0.00    -0.206 F 
HETATM   23  C21 UNL     1     -28.818   5.259 -55.942  1.00  0.00     0.084 A 
HETATM   24  C22 UNL     1     -28.375   5.445 -54.645  1.00  0.00     0.119 A 
HETATM   25  F2  UNL     1     -27.533   4.543 -54.087  1.00  0.00    -0.206 F 
HETATM   26  C23 UNL     1     -28.803   6.571 -53.921  1.00  0.00     0.051 A 
ENDBRANCH  18  19
BRANCH  18  27
HETATM   27  C24 UNL     1     -30.831   9.575 -54.595  1.00  0.00     0.013 A 
HETATM   28  C25 UNL     1     -30.327  11.009 -54.634  1.00  0.00     0.007 A 
HETATM   29  C26 UNL     1     -31.658  10.726 -54.058  1.00  0.00     0.007 A 
ENDBRANCH  18  27
ENDBRANCH  16  18
ENDBRANCH  15  16
ENDBRANCH  13  15
ENDBRANCH   6  10
BRANCH   1  30
HETATM   30  C7  UNL     1     -35.672  14.574 -51.495  1.00  0.00     0.072 C 
HETATM   31  C2  UNL     1     -36.852  15.212 -52.114  1.00  0.00     0.004 C 
HETATM   32  C1  UNL     1     -37.297  16.490 -51.416  1.00  0.00     0.011 C 
HETATM   33  C3  UNL     1     -38.021  14.243 -51.918  1.00  0.00     0.006 C 
HETATM   34  C4  UNL     1     -38.291  14.026 -50.470  1.00  0.00     0.000 C 
HETATM   35  C5  UNL     1     -37.251  14.463 -49.510  1.00  0.00     0.002 C 
HETATM   36  C6  UNL     1     -35.849  14.537 -49.956  1.00  0.00     0.025 C 
BRANCH  30  37
HETATM   37  C30 UNL     1     -34.377  15.248 -51.714  1.00  0.00    -0.025 A 
HETATM   38  C31 UNL     1     -34.219  16.027 -52.866  1.00  0.00     0.011 A 
HETATM   39  C32 UNL     1     -33.041  16.667 -53.143  1.00  0.00     0.018 A 
HETATM   40  C33 UNL     1     -31.957  16.570 -52.297  1.00  0.00     0.087 A 
HETATM   41  N4  UNL     1     -32.124  15.820 -51.197  1.00  0.00    -0.375 N 
HETATM   42  C34 UNL     1     -33.278  15.179 -50.900  1.00  0.00     0.096 A 
ATOM     43  H4  UNL     1     -31.340  15.729 -50.551  1.00  0.00     0.164 HD
ENDBRANCH  30  37
ENDBRANCH   1  30
TORSDOF 8
ENDMDL
MODEL 3
REMARK VINA RESULT: -9.105539234      2.529      6.666
REMARK  8 active torsions:
REMARK  status: ('A' for Active; 'I' for Inactive)
REMARK    1  A    between atoms: C7_7  and  C8_8 
REMARK    2  A    between atoms: C7_7  and  C30_37 
REMARK       I    between atoms: C8_8  and  N1_10 
REMARK    3  A    between atoms: C11_13  and  N2_15 
REMARK    4  A    between atoms: C15_18  and  C16_19 
REMARK    5  A    between atoms: C16_19  and  N3_20 
REMARK    6  A    between atoms: N3_20  and  C17_22 
REMARK    7  A    between atoms: C17_22  and  C18_23 
REMARK    8  A    between atoms: C17_22  and  C24_31 
ROOT
HETATM    1  C8  UNL     1     -36.362  10.143 -48.811  1.00  0.00     0.233 C 
HETATM    2  O1  UNL     1     -37.536   9.915 -49.306  1.00  0.00    -0.272 OA
HETATM    3  N1  UNL     1     -35.305   9.929 -49.735  1.00  0.00    -0.351 N 
HETATM    4  C9  UNL     1     -33.925  10.110 -49.460  1.00  0.00     0.128 C 
HETATM    5  C10 UNL     1     -33.178  10.760 -50.613  1.00  0.00     0.050 C 
HETATM    6  C11 UNL     1     -33.350   9.941 -51.877  1.00  0.00     0.031 C 
HETATM    7  C12 UNL     1     -32.858   8.512 -51.636  1.00  0.00     0.039 C 
HETATM    8  C28 UNL     1     -34.848   9.844 -52.189  1.00  0.00     0.050 C 
HETATM    9  C29 UNL     1     -35.686   9.447 -51.057  1.00  0.00     0.128 C 
ENDROOT
BRANCH   6  10
HETATM   10  N2  UNL     1     -32.708  10.521 -52.949  1.00  0.00    -0.384 N 
HETATM   11  C13 UNL     1     -31.347  10.261 -53.187  1.00  0.00     0.060 C 
HETATM   12  C14 UNL     1     -31.023  11.076 -54.428  1.00  0.00     0.056 C 
HETATM   13  C15 UNL     1     -32.066  12.177 -54.399  1.00  0.00     0.046 C 
HETATM   14  C27 UNL     1     -33.278  11.477 -53.772  1.00  0.00     0.133 C 
BRANCH  13  15
HETATM   15  C16 UNL     1     -31.672  13.316 -53.529  1.00  0.00     0.062 C 
BRANCH  15  16
HETATM   16  N3  UNL     1     -32.621  13.855 -52.673  1.00  0.00    -0.393 N 
ATOM     17  H3  UNL     1     -32.968  13.256 -51.924  1.00  0.00     0.159 HD
BRANCH  16  18
HETATM   18  C17 UNL     1     -33.139  15.145 -52.751  1.00  0.00     0.118 C 
BRANCH  18  19
HETATM   19  C18 UNL     1     -34.589  15.059 -52.337  1.00  0.00    -0.029 A 
HETATM   20  C19 UNL     1     -35.346  16.194 -52.179  1.00  0.00     0.051 A 
HETATM   21  C20 UNL     1     -36.689  16.092 -51.785  1.00  0.00     0.119 A 
HETATM   22  F1  UNL     1     -37.436  17.206 -51.629  1.00  0.00    -0.206 F 
HETATM   23  C21 UNL     1     -37.261  14.860 -51.555  1.00  0.00     0.084 A 
HETATM   24  C22 UNL     1     -36.492  13.722 -51.716  1.00  0.00     0.119 A 
HETATM   25  F2  UNL     1     -37.041  12.504 -51.494  1.00  0.00    -0.206 F 
HETATM   26  C23 UNL     1     -35.148  13.843 -52.110  1.00  0.00     0.051 A 
ENDBRANCH  18  19
BRANCH  18  27
HETATM   27  C24 UNL     1     -32.522  16.216 -51.904  1.00  0.00     0.013 A 
HETATM   28  C25 UNL     1     -31.790  17.299 -52.681  1.00  0.00     0.007 A 
HETATM   29  C26 UNL     1     -31.015  16.367 -51.836  1.00  0.00     0.007 A 
ENDBRANCH  18  27
ENDBRANCH  16  18
ENDBRANCH  15  16
ENDBRANCH  13  15
ENDBRANCH   6  10
BRANCH   1  30
HETATM   30  C7  UNL     1     -36.297  10.575 -47.407  1.00  0.00     0.072 C 
HETATM   31  C2  UNL     1     -35.399  11.737 -47.249  1.00  0.00     0.004 C 
HETATM   32  C1  UNL     1     -35.611  12.506 -45.952  1.00  0.00     0.011 C 
HETATM   33  C3  UNL     1     -35.777  12.731 -48.349  1.00  0.00     0.006 C 
HETATM   34  C4  UNL     1     -37.186  13.184 -48.191  1.00  0.00     0.000 C 
HETATM   35  C5  UNL     1     -38.055  12.403 -47.281  1.00  0.00     0.002 C 
HETATM   36  C6  UNL     1     -37.745  10.984 -47.036  1.00  0.00     0.025 C 
BRANCH  30  37
HETATM   37  C30 UNL     1     -36.002   9.402 -46.561  1.00  0.00    -0.025 A 
HETATM   38  C31 UNL     1     -36.894   9.086 -45.529  1.00  0.00     0.011 A 
HETATM   39  C32 UNL     1     -36.677   8.023 -44.694  1.00  0.00     0.018 A 
HETATM   40  C33 UNL     1     -35.567   7.218 -44.834  1.00  0.00     0.087 A 
HETATM   41  N4  UNL     1     -34.723   7.533 -45.828  1.00  0.00    -0.375 N 
HETATM   42  C34 UNL     1     -34.915   8.577 -46.667  1.00  0.00     0.096 A 
ATOM     43  H4  UNL     1     -33.892   6.955 -45.958  1.00  0.00     0.164 HD
ENDBRANCH  30  37
ENDBRANCH   1  30
TORSDOF 8
ENDMDL
MODEL 4
REMARK VINA RESULT: -9.094935947      2.547      6.662
REMARK  8 active torsions:
REMARK  status: ('A' for Active; 'I' for Inactive)
REMARK    1  A    between atoms: C7_7  and  C8_8 
REMARK    2  A    between atoms: C7_7  and  C30_37 
REMARK       I    between atoms: C8_8  and  N1_10 
REMARK    3  A    between atoms: C11_13  and  N2_15 
REMARK    4  A    between atoms: C15_18  and  C16_19 
REMARK    5  A    between atoms: C16_19  and  N3_20 
REMARK    6  A    between atoms: N3_20  and  C17_22 
REMARK    7  A    between atoms: C17_22  and  C18_23 
REMARK    8  A    between atoms: C17_22  and  C24_31 
ROOT
HETATM    1  C8  UNL     1     -36.401  10.224 -48.824  1.00  0.00     0.233 C 
HETATM    2  O1  UNL     1     -37.582  10.035 -49.319  1.00  0.00    -0.272 OA
HETATM    3  N1  UNL     1     -35.353   9.996 -49.754  1.00  0.00    -0.351 N 
HETATM    4  C9  UNL     1     -33.967  10.135 -49.482  1.00  0.00     0.128 C 
HETATM    5  C10 UNL     1     -33.207  10.783 -50.627  1.00  0.00     0.050 C 
HETATM    6  C11 UNL     1     -33.404   9.989 -51.903  1.00  0.00     0.031 C 
HETATM    7  C12 UNL     1     -32.951   8.543 -51.686  1.00  0.00     0.039 C 
HETATM    8  C28 UNL     1     -34.905   9.937 -52.211  1.00  0.00     0.050 C 
HETATM    9  C29 UNL     1     -35.751   9.545 -51.083  1.00  0.00     0.128 C 
ENDROOT
BRANCH   6  10
HETATM   10  N2  UNL     1     -32.750  10.567 -52.968  1.00  0.00    -0.384 N 
HETATM   11  C13 UNL     1     -31.391  10.292 -53.201  1.00  0.00     0.060 C 
HETATM   12  C14 UNL     1     -31.051  11.111 -54.435  1.00  0.00     0.056 C 
HETATM   13  C15 UNL     1     -32.080  12.225 -54.403  1.00  0.00     0.046 C 
HETATM   14  C27 UNL     1     -33.304  11.536 -53.787  1.00  0.00     0.133 C 
BRANCH  13  15
HETATM   15  C16 UNL     1     -31.676  13.353 -53.523  1.00  0.00     0.062 C 
BRANCH  15  16
HETATM   16  N3  UNL     1     -32.618  13.889 -52.659  1.00  0.00    -0.393 N 
ATOM     17  H3  UNL     1     -32.952  13.293 -51.903  1.00  0.00     0.159 HD
BRANCH  16  18
HETATM   18  C17 UNL     1     -33.148  15.175 -52.739  1.00  0.00     0.118 C 
BRANCH  18  19
HETATM   19  C18 UNL     1     -34.595  15.079 -52.315  1.00  0.00    -0.029 A 
HETATM   20  C19 UNL     1     -35.176  13.861 -52.062  1.00  0.00     0.051 A 
HETATM   21  C20 UNL     1     -36.524  13.792 -51.678  1.00  0.00     0.119 A 
HETATM   22  F1  UNL     1     -37.099  12.596 -51.430  1.00  0.00    -0.206 F 
HETATM   23  C21 UNL     1     -37.275  14.940 -51.550  1.00  0.00     0.084 A 
HETATM   24  C22 UNL     1     -36.682  16.163 -51.807  1.00  0.00     0.119 A 
HETATM   25  F2  UNL     1     -37.408  17.300 -51.683  1.00  0.00    -0.206 F 
HETATM   26  C23 UNL     1     -35.331  16.212 -52.191  1.00  0.00     0.051 A 
ENDBRANCH  18  19
BRANCH  18  27
HETATM   27  C24 UNL     1     -32.534  16.254 -51.899  1.00  0.00     0.013 A 
HETATM   28  C25 UNL     1     -31.818  17.342 -52.685  1.00  0.00     0.007 A 
HETATM   29  C26 UNL     1     -31.028  16.419 -51.844  1.00  0.00     0.007 A 
ENDBRANCH  18  27
ENDBRANCH  16  18
ENDBRANCH  15  16
ENDBRANCH  13  15
ENDBRANCH   6  10
BRANCH   1  30
HETATM   30  C7  UNL     1     -36.320  10.632 -47.414  1.00  0.00     0.072 C 
HETATM   31  C2  UNL     1     -35.422  11.793 -47.246  1.00  0.00     0.004 C 
HETATM   32  C1  UNL     1     -35.621  12.539 -45.935  1.00  0.00     0.011 C 
HETATM   33  C3  UNL     1     -35.816  12.805 -48.325  1.00  0.00     0.006 C 
HETATM   34  C4  UNL     1     -37.224  13.252 -48.143  1.00  0.00     0.000 C 
HETATM   35  C5  UNL     1     -38.080  12.453 -47.236  1.00  0.00     0.002 C 
HETATM   36  C6  UNL     1     -37.765  11.031 -47.018  1.00  0.00     0.025 C 
BRANCH  30  37
HETATM   37  C30 UNL     1     -36.013   9.445 -46.592  1.00  0.00    -0.025 A 
HETATM   38  C31 UNL     1     -36.903   9.097 -45.568  1.00  0.00     0.011 A 
HETATM   39  C32 UNL     1     -36.674   8.020 -44.755  1.00  0.00     0.018 A 
HETATM   40  C33 UNL     1     -35.555   7.231 -44.909  1.00  0.00     0.087 A 
HETATM   41  N4  UNL     1     -34.712   7.577 -45.894  1.00  0.00    -0.375 N 
HETATM   42  C34 UNL     1     -34.916   8.635 -46.712  1.00  0.00     0.096 A 
ATOM     43  H4  UNL     1     -33.874   7.012 -46.034  1.00  0.00     0.164 HD
ENDBRANCH  30  37
ENDBRANCH   1  30
TORSDOF 8
ENDMDL
MODEL 5
REMARK VINA RESULT: -8.973594874      2.560      7.189
REMARK  8 active torsions:
REMARK  status: ('A' for Active; 'I' for Inactive)
REMARK    1  A    between atoms: C7_7  and  C8_8 
REMARK    2  A    between atoms: C7_7  and  C30_37 
REMARK       I    between atoms: C8_8  and  N1_10 
REMARK    3  A    between atoms: C11_13  and  N2_15 
REMARK    4  A    between atoms: C15_18  and  C16_19 
REMARK    5  A    between atoms: C16_19  and  N3_20 
REMARK    6  A    between atoms: N3_20  and  C17_22 
REMARK    7  A    between atoms: C17_22  and  C18_23 
REMARK    8  A    between atoms: C17_22  and  C24_31 
ROOT
HETATM    1  C8  UNL     1     -34.272   8.037 -49.043  1.00  0.00     0.233 C 
HETATM    2  O1  UNL     1     -35.276   7.332 -49.459  1.00  0.00    -0.272 OA
HETATM    3  N1  UNL     1     -33.386   8.429 -50.081  1.00  0.00    -0.351 N 
HETATM    4  C9  UNL     1     -32.213   9.208 -49.909  1.00  0.00     0.128 C 
HETATM    5  C10 UNL     1     -32.025  10.236 -51.012  1.00  0.00     0.050 C 
HETATM    6  C11 UNL     1     -31.997   9.553 -52.366  1.00  0.00     0.031 C 
HETATM    7  C12 UNL     1     -30.882   8.504 -52.391  1.00  0.00     0.039 C 
HETATM    8  C28 UNL     1     -33.317   8.795 -52.551  1.00  0.00     0.050 C 
HETATM    9  C29 UNL     1     -33.703   7.949 -51.421  1.00  0.00     0.128 C 
ENDROOT
BRANCH   6  10
HETATM   10  N2  UNL     1     -31.857  10.461 -53.391  1.00  0.00    -0.384 N 
HETATM   11  C13 UNL     1     -30.631  10.583 -54.070  1.00  0.00     0.060 C 
HETATM   12  C14 UNL     1     -30.882  11.673 -55.099  1.00  0.00     0.056 C 
HETATM   13  C15 UNL     1     -32.020  12.468 -54.488  1.00  0.00     0.046 C 
HETATM   14  C27 UNL     1     -32.819  11.393 -53.740  1.00  0.00     0.133 C 
BRANCH  13  15
HETATM   15  C16 UNL     1     -31.550  13.481 -53.507  1.00  0.00     0.062 C 
BRANCH  15  16
HETATM   16  N3  UNL     1     -32.446  13.948 -52.557  1.00  0.00    -0.393 N 
ATOM     17  H3  UNL     1     -32.709  13.309 -51.808  1.00  0.00     0.159 HD
BRANCH  16  18
HETATM   18  C17 UNL     1     -33.018  15.218 -52.542  1.00  0.00     0.118 C 
BRANCH  18  19
HETATM   19  C18 UNL     1     -34.388  15.073 -51.924  1.00  0.00    -0.029 A 
HETATM   20  C19 UNL     1     -34.744  13.926 -51.259  1.00  0.00     0.051 A 
HETATM   21  C20 UNL     1     -36.025  13.808 -50.699  1.00  0.00     0.119 A 
HETATM   22  F1  UNL     1     -36.378  12.681 -50.045  1.00  0.00    -0.206 F 
HETATM   23  C21 UNL     1     -36.936  14.836 -50.810  1.00  0.00     0.084 A 
HETATM   24  C22 UNL     1     -36.570  15.988 -51.483  1.00  0.00     0.119 A 
HETATM   25  F2  UNL     1     -37.454  17.007 -51.598  1.00  0.00    -0.206 F 
HETATM   26  C23 UNL     1     -35.282  16.088 -52.037  1.00  0.00     0.051 A 
ENDBRANCH  18  19
BRANCH  18  27
HETATM   27  C24 UNL     1     -32.324  16.305 -51.779  1.00  0.00     0.013 A 
HETATM   28  C25 UNL     1     -31.629  17.346 -52.643  1.00  0.00     0.007 A 
HETATM   29  C26 UNL     1     -30.813  16.428 -51.821  1.00  0.00     0.007 A 
ENDBRANCH  18  27
ENDBRANCH  16  18
ENDBRANCH  15  16
ENDBRANCH  13  15
ENDBRANCH   6  10
BRANCH   1  30
HETATM   30  C7  UNL     1     -34.198   8.317 -47.602  1.00  0.00     0.072 C 
HETATM   31  C2  UNL     1     -34.620   7.143 -46.809  1.00  0.00     0.004 C 
HETATM   32  C1  UNL     1     -34.163   7.186 -45.358  1.00  0.00     0.011 C 
HETATM   33  C3  UNL     1     -33.892   5.935 -47.403  1.00  0.00     0.006 C 
HETATM   34  C4  UNL     1     -32.416   6.095 -47.284  1.00  0.00     0.000 C 
HETATM   35  C5  UNL     1     -31.902   7.445 -46.959  1.00  0.00     0.002 C 
HETATM   36  C6  UNL     1     -32.706   8.625 -47.319  1.00  0.00     0.025 C 
BRANCH  30  37
HETATM   37  C30 UNL     1     -34.909   9.580 -47.325  1.00  0.00    -0.025 A 
HETATM   38  C31 UNL     1     -34.198  10.782 -47.438  1.00  0.00     0.011 A 
HETATM   39  C32 UNL     1     -34.786  11.990 -47.180  1.00  0.00     0.018 A 
HETATM   40  C33 UNL     1     -36.107  12.075 -46.796  1.00  0.00     0.087 A 
HETATM   41  N4  UNL     1     -36.775  10.916 -46.692  1.00  0.00    -0.375 N 
HETATM   42  C34 UNL     1     -36.217   9.710 -46.942  1.00  0.00     0.096 A 
ATOM     43  H4  UNL     1     -37.755  10.947 -46.410  1.00  0.00     0.164 HD
ENDBRANCH  30  37
ENDBRANCH   1  30
TORSDOF 8
ENDMDL
