MODEL 1
REMARK VINA RESULT: -6.777009903      0.000      0.000
REMARK  14 active torsions:
REMARK  status: ('A' for Active; 'I' for Inactive)
REMARK    1  A    between atoms: C2_2  and  C4_4 
REMARK    2  A    between atoms: C5_7  and  O1_8 
REMARK    3  A    between atoms: C6_10  and  C7_11 
REMARK    4  A    between atoms: C7_11  and  C8_12 
REMARK    5  A    between atoms: C8_12  and  C9_13 
REMARK    6  A    between atoms: C9_13  and  C10_14 
REMARK    7  A    between atoms: C10_14  and  C11_15 
REMARK    8  A    between atoms: C11_15  and  C12_16 
REMARK    9  A    between atoms: C14_23  and  C15_24 
REMARK   10  A    between atoms: C15_24  and  C16_25 
REMARK   11  A    between atoms: C16_25  and  C17_26 
REMARK   12  A    between atoms: C18_30  and  C19_31 
REMARK   13  A    between atoms: C19_31  and  C20_32 
REMARK   14  A    between atoms: C26_40  and  O4_41 
ROOT
HETATM    1  C4  UNL     1      23.748  44.614  43.192  1.00  0.00     0.065 C 
HETATM    2  N1  UNL     1      22.782  44.000  44.022  1.00  0.00    -0.338 N 
ATOM      3  H1  UNL     1      23.006  43.017  44.178  1.00  0.00     0.167 HD
HETATM    4  C5  UNL     1      21.621  44.356  44.681  1.00  0.00     0.139 C 
HETATM    5  C6  UNL     1      20.321  44.822  44.243  1.00  0.00     0.159 C 
HETATM    6  N3  UNL     1      19.902  46.125  44.690  1.00  0.00    -0.344 N 
ATOM      7  H3  UNL     1      19.072  46.468  44.204  1.00  0.00     0.163 HD
HETATM    8  C13 UNL     1      20.377  47.005  45.628  1.00  0.00     0.268 C 
HETATM    9  O3  UNL     1      19.585  47.343  46.591  1.00  0.00    -0.266 OA
HETATM   10  C14 UNL     1      21.715  47.685  45.751  1.00  0.00     0.094 C 
HETATM   11  N4  UNL     1      22.612  47.428  44.708  1.00  0.00    -0.364 N 
ATOM     12  H4  UNL     1      23.557  47.081  44.864  1.00  0.00     0.162 HD
HETATM   13  C18 UNL     1      22.084  47.696  43.389  1.00  0.00     0.187 C 
HETATM   14  N5  UNL     1      22.432  46.737  42.381  1.00  0.00    -0.348 N 
ATOM     15  H5  UNL     1      21.861  46.796  41.539  1.00  0.00     0.163 HD
HETATM   16  C26 UNL     1      23.401  45.741  42.335  1.00  0.00     0.161 C 
ENDROOT
BRANCH   5  17
HETATM   17  C7  UNL     1      19.202  43.811  44.464  1.00  0.00     0.033 C 
BRANCH  17  18
HETATM   18  C8  UNL     1      17.828  44.306  44.267  1.00  0.00     0.002 C 
BRANCH  18  19
HETATM   19  C9  UNL     1      17.432  44.034  42.806  1.00  0.00     0.001 C 
BRANCH  19  20
HETATM   20  C10 UNL     1      17.097  45.279  42.063  1.00  0.00     0.009 C 
BRANCH  20  21
HETATM   21  C11 UNL     1      16.034  45.046  40.992  1.00  0.00     0.099 C 
BRANCH  21  22
HETATM   22  C12 UNL     1      16.672  44.423  39.779  1.00  0.00     0.231 C 
HETATM   23  N2  UNL     1      15.944  43.542  38.963  1.00  0.00    -0.062 NA
HETATM   24  O2  UNL     1      17.867  44.680  39.474  1.00  0.00    -0.277 OA
ENDBRANCH  21  22
ENDBRANCH  20  21
ENDBRANCH  19  20
ENDBRANCH  18  19
ENDBRANCH  17  18
ENDBRANCH   5  17
BRANCH   4  25
HETATM   25  O1  UNL     1      21.711  44.247  45.981  1.00  0.00    -0.348 OA
ATOM     26  H1  UNL     1      21.003  43.745  46.366  1.00  0.00     0.219 HD
ENDBRANCH   4  25
BRANCH   1  27
HETATM   27  C2  UNL     1      25.068  44.852  43.951  1.00  0.00     0.032 C 
HETATM   28  C1  UNL     1      25.194  46.297  44.369  1.00  0.00     0.016 C 
HETATM   29  C3  UNL     1      25.143  44.018  45.207  1.00  0.00     0.016 C 
ENDBRANCH   1  27
BRANCH  10  30
HETATM   30  C15 UNL     1      22.086  47.647  47.156  1.00  0.00     0.009 C 
BRANCH  30  31
HETATM   31  C16 UNL     1      23.123  48.459  47.781  1.00  0.00     0.040 C 
BRANCH  31  32
HETATM   32  C17 UNL     1      22.977  48.865  49.215  1.00  0.00     0.089 C 
HETATM   33 BR1  UNL     1      23.558  50.736  49.386  1.00  0.00    -0.096 Br
ENDBRANCH  31  32
ENDBRANCH  30  31
ENDBRANCH  10  30
BRANCH  16  34
HETATM   34  O4  UNL     1      24.180  45.832  41.282  1.00  0.00    -0.345 OA
ATOM     35  H4  UNL     1      23.706  46.079  40.497  1.00  0.00     0.219 HD
ENDBRANCH  16  34
BRANCH  13  36
HETATM   36  C19 UNL     1      22.708  49.046  42.980  1.00  0.00     0.085 C 
BRANCH  36  37
HETATM   37  C20 UNL     1      22.486  50.098  43.963  1.00  0.00    -0.055 A 
HETATM   38  C21 UNL     1      21.242  50.621  44.210  1.00  0.00     0.007 A 
HETATM   39  C22 UNL     1      21.029  51.607  45.143  1.00  0.00     0.001 A 
HETATM   40  C23 UNL     1      22.077  52.115  45.876  1.00  0.00     0.000 A 
HETATM   41  C24 UNL     1      23.335  51.601  45.638  1.00  0.00     0.001 A 
HETATM   42  C25 UNL     1      23.539  50.599  44.689  1.00  0.00     0.007 A 
ENDBRANCH  36  37
ENDBRANCH  13  36
TORSDOF 14
ENDMDL
MODEL 2
REMARK VINA RESULT: -6.569659032      2.525      7.565
REMARK  14 active torsions:
REMARK  status: ('A' for Active; 'I' for Inactive)
REMARK    1  A    between atoms: C2_2  and  C4_4 
REMARK    2  A    between atoms: C5_7  and  O1_8 
REMARK    3  A    between atoms: C6_10  and  C7_11 
REMARK    4  A    between atoms: C7_11  and  C8_12 
REMARK    5  A    between atoms: C8_12  and  C9_13 
REMARK    6  A    between atoms: C9_13  and  C10_14 
REMARK    7  A    between atoms: C10_14  and  C11_15 
REMARK    8  A    between atoms: C11_15  and  C12_16 
REMARK    9  A    between atoms: C14_23  and  C15_24 
REMARK   10  A    between atoms: C15_24  and  C16_25 
REMARK   11  A    between atoms: C16_25  and  C17_26 
REMARK   12  A    between atoms: C18_30  and  C19_31 
REMARK   13  A    between atoms: C19_31  and  C20_32 
REMARK   14  A    between atoms: C26_40  and  O4_41 
ROOT
HETATM    1  C4  UNL     1      19.585  44.822  46.022  1.00  0.00     0.065 C 
HETATM    2  N1  UNL     1      20.589  45.754  46.374  1.00  0.00    -0.338 N 
ATOM      3  H1  UNL     1      20.831  45.675  47.361  1.00  0.00     0.167 HD
HETATM    4  C5  UNL     1      21.335  46.741  45.757  1.00  0.00     0.139 C 
HETATM    5  C6  UNL     1      21.001  47.993  45.111  1.00  0.00     0.159 C 
HETATM    6  N3  UNL     1      21.340  48.129  43.717  1.00  0.00    -0.344 N 
ATOM      7  H3  UNL     1      20.919  48.949  43.281  1.00  0.00     0.163 HD
HETATM    8  C13 UNL     1      22.107  47.392  42.851  1.00  0.00     0.268 C 
HETATM    9  O3  UNL     1      23.111  47.981  42.289  1.00  0.00    -0.266 OA
HETATM   10  C14 UNL     1      21.992  45.957  42.411  1.00  0.00     0.094 C 
HETATM   11  N4  UNL     1      20.887  45.265  42.920  1.00  0.00    -0.364 N 
ATOM     12  H4  UNL     1      20.971  44.377  43.414  1.00  0.00     0.162 HD
HETATM   13  C18 UNL     1      19.618  45.916  42.689  1.00  0.00     0.187 C 
HETATM   14  N5  UNL     1      18.695  45.870  43.785  1.00  0.00    -0.348 N 
ATOM     15  H5  UNL     1      17.924  46.533  43.705  1.00  0.00     0.163 HD
HETATM   16  C26 UNL     1      18.650  45.094  44.937  1.00  0.00     0.161 C 
ENDROOT
BRANCH   5  17
HETATM   17  C7  UNL     1      21.469  49.222  45.881  1.00  0.00     0.033 C 
BRANCH  17  18
HETATM   18  C8  UNL     1      22.871  49.627  45.675  1.00  0.00     0.002 C 
BRANCH  18  19
HETATM   19  C9  UNL     1      23.338  50.375  46.934  1.00  0.00     0.001 C 
BRANCH  19  20
HETATM   20  C10 UNL     1      23.436  49.485  48.123  1.00  0.00     0.009 C 
BRANCH  20  21
HETATM   21  C11 UNL     1      23.477  50.270  49.432  1.00  0.00     0.099 C 
BRANCH  21  22
HETATM   22  C12 UNL     1      22.977  49.401  50.554  1.00  0.00     0.231 C 
HETATM   23  N2  UNL     1      23.463  49.572  51.860  1.00  0.00    -0.062 NA
HETATM   24  O2  UNL     1      22.114  48.507  50.344  1.00  0.00    -0.277 OA
ENDBRANCH  21  22
ENDBRANCH  20  21
ENDBRANCH  19  20
ENDBRANCH  18  19
ENDBRANCH  17  18
ENDBRANCH   5  17
BRANCH   4  25
HETATM   25  O1  UNL     1      22.619  46.493  45.757  1.00  0.00    -0.348 OA
ATOM     26  H1  UNL     1      23.043  46.713  44.936  1.00  0.00     0.219 HD
ENDBRANCH   4  25
BRANCH   1  27
HETATM   27  C2  UNL     1      20.151  43.390  45.951  1.00  0.00     0.032 C 
HETATM   28  C1  UNL     1      21.399  43.348  45.103  1.00  0.00     0.016 C 
HETATM   29  C3  UNL     1      20.527  42.874  47.320  1.00  0.00     0.016 C 
ENDBRANCH   1  27
BRANCH  10  30
HETATM   30  C15 UNL     1      23.338  45.410  42.382  1.00  0.00     0.009 C 
BRANCH  30  31
HETATM   31  C16 UNL     1      23.829  44.321  43.218  1.00  0.00     0.040 C 
BRANCH  31  32
HETATM   32  C17 UNL     1      24.663  44.635  44.421  1.00  0.00     0.089 C 
HETATM   33 BR1  UNL     1      25.595  46.336  44.096  1.00  0.00    -0.096 Br
ENDBRANCH  31  32
ENDBRANCH  30  31
ENDBRANCH  10  30
BRANCH  16  34
HETATM   34  O4  UNL     1      17.509  44.460  45.085  1.00  0.00    -0.345 OA
ATOM     35  H4  UNL     1      16.794  44.885  44.628  1.00  0.00     0.219 HD
ENDBRANCH  16  34
BRANCH  13  36
HETATM   36  C19 UNL     1      18.985  45.141  41.516  1.00  0.00     0.085 C 
BRANCH  36  37
HETATM   37  C20 UNL     1      17.560  45.403  41.361  1.00  0.00    -0.055 A 
HETATM   38  C21 UNL     1      17.080  46.603  40.903  1.00  0.00     0.007 A 
HETATM   39  C22 UNL     1      15.737  46.849  40.748  1.00  0.00     0.001 A 
HETATM   40  C23 UNL     1      14.808  45.880  41.055  1.00  0.00     0.000 A 
HETATM   41  C24 UNL     1      15.275  44.668  41.519  1.00  0.00     0.001 A 
HETATM   42  C25 UNL     1      16.641  44.429  41.672  1.00  0.00     0.007 A 
ENDBRANCH  36  37
ENDBRANCH  13  36
TORSDOF 14
ENDMDL
MODEL 3
REMARK VINA RESULT: -5.409979212      2.890      7.659
REMARK  14 active torsions:
REMARK  status: ('A' for Active; 'I' for Inactive)
REMARK    1  A    between atoms: C2_2  and  C4_4 
REMARK    2  A    between atoms: C5_7  and  O1_8 
REMARK    3  A    between atoms: C6_10  and  C7_11 
REMARK    4  A    between atoms: C7_11  and  C8_12 
REMARK    5  A    between atoms: C8_12  and  C9_13 
REMARK    6  A    between atoms: C9_13  and  C10_14 
REMARK    7  A    between atoms: C10_14  and  C11_15 
REMARK    8  A    between atoms: C11_15  and  C12_16 
REMARK    9  A    between atoms: C14_23  and  C15_24 
REMARK   10  A    between atoms: C15_24  and  C16_25 
REMARK   11  A    between atoms: C16_25  and  C17_26 
REMARK   12  A    between atoms: C18_30  and  C19_31 
REMARK   13  A    between atoms: C19_31  and  C20_32 
REMARK   14  A    between atoms: C26_40  and  O4_41 
ROOT
HETATM    1  C4  UNL     1      19.599  44.870  46.012  1.00  0.00     0.065 C 
HETATM    2  N1  UNL     1      20.623  45.782  46.355  1.00  0.00    -0.338 N 
ATOM      3  H1  UNL     1      20.868  45.703  47.343  1.00  0.00     0.167 HD
HETATM    4  C5  UNL     1      21.387  46.750  45.730  1.00  0.00     0.139 C 
HETATM    5  C6  UNL     1      21.077  48.006  45.080  1.00  0.00     0.159 C 
HETATM    6  N3  UNL     1      21.414  48.128  43.684  1.00  0.00    -0.344 N 
ATOM      7  H3  UNL     1      21.008  48.954  43.245  1.00  0.00     0.163 HD
HETATM    8  C13 UNL     1      22.161  47.371  42.819  1.00  0.00     0.268 C 
HETATM    9  O3  UNL     1      23.175  47.935  42.250  1.00  0.00    -0.266 OA
HETATM   10  C14 UNL     1      22.014  45.936  42.386  1.00  0.00     0.094 C 
HETATM   11  N4  UNL     1      20.897  45.270  42.904  1.00  0.00    -0.364 N 
ATOM     12  H4  UNL     1      20.964  44.383  43.401  1.00  0.00     0.162 HD
HETATM   13  C18 UNL     1      19.641  45.946  42.674  1.00  0.00     0.187 C 
HETATM   14  N5  UNL     1      18.721  45.926  43.774  1.00  0.00    -0.348 N 
ATOM     15  H5  UNL     1      17.965  46.604  43.693  1.00  0.00     0.163 HD
HETATM   16  C26 UNL     1      18.665  45.156  44.930  1.00  0.00     0.161 C 
ENDROOT
BRANCH   5  17
HETATM   17  C7  UNL     1      21.574  49.229  45.842  1.00  0.00     0.033 C 
BRANCH  17  18
HETATM   18  C8  UNL     1      22.937  49.688  45.522  1.00  0.00     0.002 C 
BRANCH  18  19
HETATM   19  C9  UNL     1      22.845  51.144  45.037  1.00  0.00     0.001 C 
BRANCH  19  20
HETATM   20  C10 UNL     1      23.435  52.107  46.006  1.00  0.00     0.009 C 
BRANCH  20  21
HETATM   21  C11 UNL     1      23.259  53.557  45.562  1.00  0.00     0.099 C 
BRANCH  21  22
HETATM   22  C12 UNL     1      24.490  54.344  45.918  1.00  0.00     0.231 C 
HETATM   23  N2  UNL     1      25.584  53.719  46.538  1.00  0.00    -0.062 NA
HETATM   24  O2  UNL     1      24.563  55.578  45.668  1.00  0.00    -0.277 OA
ENDBRANCH  21  22
ENDBRANCH  20  21
ENDBRANCH  19  20
ENDBRANCH  18  19
ENDBRANCH  17  18
ENDBRANCH   5  17
BRANCH   4  25
HETATM   25  O1  UNL     1      22.666  46.475  45.727  1.00  0.00    -0.348 OA
ATOM     26  H1  UNL     1      22.927  45.898  46.434  1.00  0.00     0.219 HD
ENDBRANCH   4  25
BRANCH   1  27
HETATM   27  C2  UNL     1      20.134  43.426  45.947  1.00  0.00     0.032 C 
HETATM   28  C1  UNL     1      21.350  43.345  45.057  1.00  0.00     0.016 C 
HETATM   29  C3  UNL     1      20.547  42.925  47.310  1.00  0.00     0.016 C 
ENDBRANCH   1  27
BRANCH  10  30
HETATM   30  C15 UNL     1      23.349  45.361  42.354  1.00  0.00     0.009 C 
BRANCH  30  31
HETATM   31  C16 UNL     1      23.830  44.288  43.216  1.00  0.00     0.040 C 
BRANCH  31  32
HETATM   32  C17 UNL     1      24.623  44.626  44.440  1.00  0.00     0.089 C 
HETATM   33 BR1  UNL     1      25.631  46.277  44.082  1.00  0.00    -0.096 Br
ENDBRANCH  31  32
ENDBRANCH  30  31
ENDBRANCH  10  30
BRANCH  16  34
HETATM   34  O4  UNL     1      17.512  44.547  45.085  1.00  0.00    -0.345 OA
ATOM     35  H4  UNL     1      17.112  44.307  44.258  1.00  0.00     0.219 HD
ENDBRANCH  16  34
BRANCH  13  36
HETATM   36  C19 UNL     1      18.987  45.179  41.507  1.00  0.00     0.085 C 
BRANCH  36  37
HETATM   37  C20 UNL     1      17.563  45.453  41.371  1.00  0.00    -0.055 A 
HETATM   38  C21 UNL     1      17.086  46.658  40.923  1.00  0.00     0.007 A 
HETATM   39  C22 UNL     1      15.744  46.916  40.786  1.00  0.00     0.001 A 
HETATM   40  C23 UNL     1      14.811  45.954  41.100  1.00  0.00     0.000 A 
HETATM   41  C24 UNL     1      15.273  44.736  41.554  1.00  0.00     0.001 A 
HETATM   42  C25 UNL     1      16.639  44.486  41.689  1.00  0.00     0.007 A 
ENDBRANCH  36  37
ENDBRANCH  13  36
TORSDOF 14
ENDMDL
MODEL 4
REMARK VINA RESULT: -5.276677572      3.196      7.874
REMARK  14 active torsions:
REMARK  status: ('A' for Active; 'I' for Inactive)
REMARK    1  A    between atoms: C2_2  and  C4_4 
REMARK    2  A    between atoms: C5_7  and  O1_8 
REMARK    3  A    between atoms: C6_10  and  C7_11 
REMARK    4  A    between atoms: C7_11  and  C8_12 
REMARK    5  A    between atoms: C8_12  and  C9_13 
REMARK    6  A    between atoms: C9_13  and  C10_14 
REMARK    7  A    between atoms: C10_14  and  C11_15 
REMARK    8  A    between atoms: C11_15  and  C12_16 
REMARK    9  A    between atoms: C14_23  and  C15_24 
REMARK   10  A    between atoms: C15_24  and  C16_25 
REMARK   11  A    between atoms: C16_25  and  C17_26 
REMARK   12  A    between atoms: C18_30  and  C19_31 
REMARK   13  A    between atoms: C19_31  and  C20_32 
REMARK   14  A    between atoms: C26_40  and  O4_41 
ROOT
HETATM    1  C4  UNL     1      19.779  44.698  46.023  1.00  0.00     0.065 C 
HETATM    2  N1  UNL     1      20.788  45.636  46.338  1.00  0.00    -0.338 N 
ATOM      3  H1  UNL     1      21.106  45.523  47.301  1.00  0.00     0.167 HD
HETATM    4  C5  UNL     1      21.465  46.664  45.709  1.00  0.00     0.139 C 
HETATM    5  C6  UNL     1      21.060  47.935  45.144  1.00  0.00     0.159 C 
HETATM    6  N3  UNL     1      21.290  48.134  43.736  1.00  0.00    -0.344 N 
ATOM      7  H3  UNL     1      20.821  48.962  43.367  1.00  0.00     0.163 HD
HETATM    8  C13 UNL     1      22.003  47.451  42.785  1.00  0.00     0.268 C 
HETATM    9  O3  UNL     1      22.950  48.085  42.175  1.00  0.00    -0.266 OA
HETATM   10  C14 UNL     1      21.883  46.033  42.294  1.00  0.00     0.094 C 
HETATM   11  N4  UNL     1      20.833  45.296  42.855  1.00  0.00    -0.364 N 
ATOM     12  H4  UNL     1      20.971  44.391  43.302  1.00  0.00     0.162 HD
HETATM   13  C18 UNL     1      19.538  45.927  42.746  1.00  0.00     0.187 C 
HETATM   14  N5  UNL     1      18.701  45.816  43.906  1.00  0.00    -0.348 N 
ATOM     15  H5  UNL     1      17.914  46.464  43.911  1.00  0.00     0.163 HD
HETATM   16  C26 UNL     1      18.759  44.992  45.024  1.00  0.00     0.161 C 
ENDROOT
BRANCH   5  17
HETATM   17  C7  UNL     1      21.560  49.141  45.929  1.00  0.00     0.033 C 
BRANCH  17  18
HETATM   18  C8  UNL     1      23.008  49.409  45.860  1.00  0.00     0.002 C 
BRANCH  18  19
HETATM   19  C9  UNL     1      23.447  49.993  47.213  1.00  0.00     0.001 C 
BRANCH  19  20
HETATM   20  C10 UNL     1      23.302  49.019  48.329  1.00  0.00     0.009 C 
BRANCH  20  21
HETATM   21  C11 UNL     1      23.829  49.571  49.651  1.00  0.00     0.099 C 
BRANCH  21  22
HETATM   22  C12 UNL     1      22.910  49.161  50.769  1.00  0.00     0.231 C 
HETATM   23  N2  UNL     1      23.171  49.558  52.091  1.00  0.00    -0.062 NA
HETATM   24  O2  UNL     1      21.891  48.456  50.542  1.00  0.00    -0.277 OA
ENDBRANCH  21  22
ENDBRANCH  20  21
ENDBRANCH  19  20
ENDBRANCH  18  19
ENDBRANCH  17  18
ENDBRANCH   5  17
BRANCH   4  25
HETATM   25  O1  UNL     1      22.751  46.446  45.603  1.00  0.00    -0.348 OA
ATOM     26  H1  UNL     1      22.964  45.756  44.986  1.00  0.00     0.219 HD
ENDBRANCH   4  25
BRANCH   1  27
HETATM   27  C2  UNL     1      20.365  43.283  45.850  1.00  0.00     0.032 C 
HETATM   28  C1  UNL     1      21.679  43.334  45.109  1.00  0.00     0.016 C 
HETATM   29  C3  UNL     1      20.632  42.626  47.183  1.00  0.00     0.016 C 
ENDBRANCH   1  27
BRANCH  10  30
HETATM   30  C15 UNL     1      23.233  45.519  42.141  1.00  0.00     0.009 C 
BRANCH  30  31
HETATM   31  C16 UNL     1      23.859  45.144  40.878  1.00  0.00     0.040 C 
BRANCH  31  32
HETATM   32  C17 UNL     1      23.552  45.931  39.642  1.00  0.00     0.089 C 
HETATM   33 BR1  UNL     1      23.733  44.734  38.091  1.00  0.00    -0.096 Br
ENDBRANCH  31  32
ENDBRANCH  30  31
ENDBRANCH  10  30
BRANCH  16  34
HETATM   34  O4  UNL     1      17.645  44.327  45.230  1.00  0.00    -0.345 OA
ATOM     35  H4  UNL     1      17.049  44.785  45.811  1.00  0.00     0.219 HD
ENDBRANCH  16  34
BRANCH  13  36
HETATM   36  C19 UNL     1      18.833  45.187  41.592  1.00  0.00     0.085 C 
BRANCH  36  37
HETATM   37  C20 UNL     1      17.439  45.579  41.429  1.00  0.00    -0.055 A 
HETATM   38  C21 UNL     1      17.074  46.772  40.861  1.00  0.00     0.007 A 
HETATM   39  C22 UNL     1      15.761  47.140  40.698  1.00  0.00     0.001 A 
HETATM   40  C23 UNL     1      14.744  46.307  41.109  1.00  0.00     0.000 A 
HETATM   41  C24 UNL     1      15.095  45.103  41.684  1.00  0.00     0.001 A 
HETATM   42  C25 UNL     1      16.432  44.740  41.844  1.00  0.00     0.007 A 
ENDBRANCH  36  37
ENDBRANCH  13  36
TORSDOF 14
ENDMDL
MODEL 5
REMARK VINA RESULT: -5.024253674      2.700      7.203
REMARK  14 active torsions:
REMARK  status: ('A' for Active; 'I' for Inactive)
REMARK    1  A    between atoms: C2_2  and  C4_4 
REMARK    2  A    between atoms: C5_7  and  O1_8 
REMARK    3  A    between atoms: C6_10  and  C7_11 
REMARK    4  A    between atoms: C7_11  and  C8_12 
REMARK    5  A    between atoms: C8_12  and  C9_13 
REMARK    6  A    between atoms: C9_13  and  C10_14 
REMARK    7  A    between atoms: C10_14  and  C11_15 
REMARK    8  A    between atoms: C11_15  and  C12_16 
REMARK    9  A    between atoms: C14_23  and  C15_24 
REMARK   10  A    between atoms: C15_24  and  C16_25 
REMARK   11  A    between atoms: C16_25  and  C17_26 
REMARK   12  A    between atoms: C18_30  and  C19_31 
REMARK   13  A    between atoms: C19_31  and  C20_32 
REMARK   14  A    between atoms: C26_40  and  O4_41 
ROOT
HETATM    1  C4  UNL     1      19.602  44.853  45.999  1.00  0.00     0.065 C 
HETATM    2  N1  UNL     1      20.641  45.752  46.332  1.00  0.00    -0.338 N 
ATOM      3  H1  UNL     1      20.893  45.671  47.317  1.00  0.00     0.167 HD
HETATM    4  C5  UNL     1      21.411  46.710  45.700  1.00  0.00     0.139 C 
HETATM    5  C6  UNL     1      21.112  47.970  45.050  1.00  0.00     0.159 C 
HETATM    6  N3  UNL     1      21.437  48.086  43.652  1.00  0.00    -0.344 N 
ATOM      7  H3  UNL     1      21.038  48.917  43.215  1.00  0.00     0.163 HD
HETATM    8  C13 UNL     1      22.168  47.319  42.781  1.00  0.00     0.268 C 
HETATM    9  O3  UNL     1      23.184  47.870  42.203  1.00  0.00    -0.266 OA
HETATM   10  C14 UNL     1      21.999  45.886  42.351  1.00  0.00     0.094 C 
HETATM   11  N4  UNL     1      20.879  45.234  42.879  1.00  0.00    -0.364 N 
ATOM     12  H4  UNL     1      20.939  44.346  43.377  1.00  0.00     0.162 HD
HETATM   13  C18 UNL     1      19.629  45.926  42.659  1.00  0.00     0.187 C 
HETATM   14  N5  UNL     1      18.719  45.917  43.767  1.00  0.00    -0.348 N 
ATOM     15  H5  UNL     1      17.970  46.605  43.692  1.00  0.00     0.163 HD
HETATM   16  C26 UNL     1      18.663  45.149  44.924  1.00  0.00     0.161 C 
ENDROOT
BRANCH   5  17
HETATM   17  C7  UNL     1      21.630  49.187  45.807  1.00  0.00     0.033 C 
BRANCH  17  18
HETATM   18  C8  UNL     1      22.974  49.663  45.434  1.00  0.00     0.002 C 
BRANCH  18  19
HETATM   19  C9  UNL     1      22.826  51.065  44.820  1.00  0.00     0.001 C 
BRANCH  19  20
HETATM   20  C10 UNL     1      22.288  52.059  45.789  1.00  0.00     0.009 C 
BRANCH  20  21
HETATM   21  C11 UNL     1      20.829  52.410  45.509  1.00  0.00     0.099 C 
BRANCH  21  22
HETATM   22  C12 UNL     1      20.491  53.718  46.171  1.00  0.00     0.231 C 
HETATM   23  N2  UNL     1      19.734  53.744  47.354  1.00  0.00    -0.062 NA
HETATM   24  O2  UNL     1      20.879  54.811  45.679  1.00  0.00    -0.277 OA
ENDBRANCH  21  22
ENDBRANCH  20  21
ENDBRANCH  19  20
ENDBRANCH  18  19
ENDBRANCH  17  18
ENDBRANCH   5  17
BRANCH   4  25
HETATM   25  O1  UNL     1      22.687  46.420  45.685  1.00  0.00    -0.348 OA
ATOM     26  H1  UNL     1      23.233  47.147  45.412  1.00  0.00     0.219 HD
ENDBRANCH   4  25
BRANCH   1  27
HETATM   27  C2  UNL     1      20.119  43.403  45.930  1.00  0.00     0.032 C 
HETATM   28  C1  UNL     1      21.332  43.307  45.037  1.00  0.00     0.016 C 
HETATM   29  C3  UNL     1      20.529  42.895  47.292  1.00  0.00     0.016 C 
ENDBRANCH   1  27
BRANCH  10  30
HETATM   30  C15 UNL     1      23.326  45.294  42.308  1.00  0.00     0.009 C 
BRANCH  30  31
HETATM   31  C16 UNL     1      23.845  44.308  43.249  1.00  0.00     0.040 C 
BRANCH  31  32
HETATM   32  C17 UNL     1      24.457  44.770  44.536  1.00  0.00     0.089 C 
HETATM   33 BR1  UNL     1      25.715  46.226  44.130  1.00  0.00    -0.096 Br
ENDBRANCH  31  32
ENDBRANCH  30  31
ENDBRANCH  10  30
BRANCH  16  34
HETATM   34  O4  UNL     1      17.504  44.555  45.091  1.00  0.00    -0.345 OA
ATOM     35  H4  UNL     1      17.366  44.267  45.985  1.00  0.00     0.219 HD
ENDBRANCH  16  34
BRANCH  13  36
HETATM   36  C19 UNL     1      18.955  45.165  41.499  1.00  0.00     0.085 C 
BRANCH  36  37
HETATM   37  C20 UNL     1      17.531  45.450  41.381  1.00  0.00    -0.055 A 
HETATM   38  C21 UNL     1      16.569  44.540  41.737  1.00  0.00     0.007 A 
HETATM   39  C22 UNL     1      15.226  44.809  41.635  1.00  0.00     0.001 A 
HETATM   40  C23 UNL     1      14.790  46.026  41.161  1.00  0.00     0.000 A 
HETATM   41  C24 UNL     1      15.745  46.952  40.797  1.00  0.00     0.001 A 
HETATM   42  C25 UNL     1      17.107  46.668  40.906  1.00  0.00     0.007 A 
ENDBRANCH  36  37
ENDBRANCH  13  36
TORSDOF 14
ENDMDL
