MODEL 1
REMARK VINA RESULT: -7.101366738      0.000      0.000
REMARK  4 active torsions:
REMARK  status: ('A' for Active; 'I' for Inactive)
REMARK    1  A    between atoms: N1_1  and  C1_4 
REMARK    2  A    between atoms: C2_7  and  C3_8 
REMARK    3  A    between atoms: C3_8  and  C4_9 
REMARK    4  A    between atoms: N6_20  and  N7_21 
ROOT
HETATM    1  C1  UNL     1      31.968   3.926  15.345  1.00  0.00     0.692 A 
HETATM    2  N2  UNL     1      31.644   3.807  16.662  1.00  0.00    -0.189 N 
ATOM      3  H2  UNL     1      31.075   4.522  17.115  1.00  0.00     0.184 HD
HETATM    4  C2  UNL     1      32.074   2.748  17.366  1.00  0.00     0.103 A 
HETATM    5  C6  UNL     1      32.838   1.820  16.695  1.00  0.00     0.305 A 
HETATM    6  O2  UNL     1      33.274   0.801  17.294  1.00  0.00    -0.263 OA
HETATM    7  N6  UNL     1      33.143   1.971  15.374  1.00  0.00    -0.148 N 
HETATM    8  N8  UNL     1      32.712   3.017  14.698  1.00  0.00    -0.108 N 
ATOM      9  H8  UNL     1      32.939   3.131  13.710  1.00  0.00     0.208 HD
ENDROOT
BRANCH   4  10
HETATM   10  C3  UNL     1      31.782   2.522  18.799  1.00  0.00     0.128 C 
BRANCH  10  11
HETATM   11  C4  UNL     1      30.347   2.450  19.092  1.00  0.00     0.102 A 
HETATM   12  N3  UNL     1      29.623   3.472  19.581  1.00  0.00    -0.285 N 
HETATM   13  N4  UNL     1      28.374   3.078  19.729  1.00  0.00    -0.240 N 
ATOM     14  H3  UNL     1      29.982   4.401  19.801  1.00  0.00     0.188 HD
HETATM   15  N5  UNL     1      28.284   1.821  19.343  1.00  0.00    -0.250 N 
ATOM     16  H4  UNL     1      27.607   3.650  20.083  1.00  0.00     0.208 HD
HETATM   17  C5  UNL     1      29.483   1.385  18.938  1.00  0.00     0.285 A 
ATOM     18  H5  UNL     1      27.429   1.265  19.350  1.00  0.00     0.192 HD
HETATM   19  O1  UNL     1      29.722   0.235  18.514  1.00  0.00    -0.265 OA
ENDBRANCH  10  11
ENDBRANCH   4  10
BRANCH   1  20
HETATM   20  N1  UNL     1      31.555   4.950  14.659  1.00  0.00    -0.233 N 
ATOM     21  H12 UNL     1      31.247   5.769  15.183  1.00  0.00     0.174 HD
ATOM     22  H11 UNL     1      31.546   4.916  13.639  1.00  0.00     0.174 HD
ENDBRANCH   1  20
BRANCH   7  23
HETATM   23  N7  UNL     1      33.917   1.033  14.677  1.00  0.00    -0.320 N 
ATOM     24  H72 UNL     1      33.875   0.064  14.995  1.00  0.00     0.179 HD
ATOM     25  H71 UNL     1      34.503   1.296  13.885  1.00  0.00     0.179 HD
ENDBRANCH   7  23
TORSDOF 4
ENDMDL
MODEL 2
REMARK VINA RESULT: -7.032426770      1.583      5.231
REMARK  4 active torsions:
REMARK  status: ('A' for Active; 'I' for Inactive)
REMARK    1  A    between atoms: N1_1  and  C1_4 
REMARK    2  A    between atoms: C2_7  and  C3_8 
REMARK    3  A    between atoms: C3_8  and  C4_9 
REMARK    4  A    between atoms: N6_20  and  N7_21 
ROOT
HETATM    1  C1  UNL     1      28.820   1.169  18.582  1.00  0.00     0.692 A 
HETATM    2  N2  UNL     1      30.041   1.058  17.989  1.00  0.00    -0.189 N 
ATOM      3  H2  UNL     1      30.193   0.361  17.259  1.00  0.00     0.184 HD
HETATM    4  C2  UNL     1      31.044   1.867  18.363  1.00  0.00     0.103 A 
HETATM    5  C6  UNL     1      30.772   2.786  19.350  1.00  0.00     0.305 A 
HETATM    6  O2  UNL     1      31.668   3.577  19.750  1.00  0.00    -0.263 OA
HETATM    7  N6  UNL     1      29.537   2.869  19.923  1.00  0.00    -0.148 N 
HETATM    8  N8  UNL     1      28.563   2.068  19.544  1.00  0.00    -0.108 N 
ATOM      9  H8  UNL     1      27.638   2.129  19.970  1.00  0.00     0.208 HD
ENDROOT
BRANCH   4  10
HETATM   10  C3  UNL     1      32.407   1.831  17.786  1.00  0.00     0.128 C 
BRANCH  10  11
HETATM   11  C4  UNL     1      32.468   2.351  16.416  1.00  0.00     0.102 A 
HETATM   12  N3  UNL     1      31.738   3.386  15.966  1.00  0.00    -0.285 N 
HETATM   13  N4  UNL     1      32.030   3.596  14.698  1.00  0.00    -0.240 N 
ATOM     14  H3  UNL     1      31.066   3.921  16.516  1.00  0.00     0.188 HD
HETATM   15  N5  UNL     1      32.937   2.714  14.327  1.00  0.00    -0.250 N 
ATOM     16  H4  UNL     1      31.623   4.319  14.105  1.00  0.00     0.208 HD
HETATM   17  C5  UNL     1      33.242   1.918  15.359  1.00  0.00     0.285 A 
ATOM     18  H5  UNL     1      33.346   2.649  13.395  1.00  0.00     0.192 HD
HETATM   19  O1  UNL     1      34.070   0.983  15.322  1.00  0.00    -0.265 OA
ENDBRANCH  10  11
ENDBRANCH   4  10
BRANCH   1  20
HETATM   20  N1  UNL     1      27.844   0.388  18.224  1.00  0.00    -0.233 N 
ATOM     21  H12 UNL     1      28.082  -0.575  17.985  1.00  0.00     0.174 HD
ATOM     22  H11 UNL     1      26.889   0.742  18.190  1.00  0.00     0.174 HD
ENDBRANCH   1  20
BRANCH   7  23
HETATM   23  N7  UNL     1      29.244   3.801  20.929  1.00  0.00    -0.320 N 
ATOM     24  H72 UNL     1      29.766   4.678  20.918  1.00  0.00     0.179 HD
ATOM     25  H71 UNL     1      28.541   3.621  21.646  1.00  0.00     0.179 HD
ENDBRANCH   7  23
TORSDOF 4
ENDMDL
MODEL 3
REMARK VINA RESULT: -6.921596421      1.169      1.363
REMARK  4 active torsions:
REMARK  status: ('A' for Active; 'I' for Inactive)
REMARK    1  A    between atoms: N1_1  and  C1_4 
REMARK    2  A    between atoms: C2_7  and  C3_8 
REMARK    3  A    between atoms: C3_8  and  C4_9 
REMARK    4  A    between atoms: N6_20  and  N7_21 
ROOT
HETATM    1  C1  UNL     1      32.010   3.898  15.294  1.00  0.00     0.692 A 
HETATM    2  N2  UNL     1      31.584   3.717  16.575  1.00  0.00    -0.189 N 
ATOM      3  H2  UNL     1      30.953   4.394  17.004  1.00  0.00     0.184 HD
HETATM    4  C2  UNL     1      31.993   2.646  17.273  1.00  0.00     0.103 A 
HETATM    5  C6  UNL     1      32.843   1.772  16.636  1.00  0.00     0.305 A 
HETATM    6  O2  UNL     1      33.266   0.746  17.233  1.00  0.00    -0.263 OA
HETATM    7  N6  UNL     1      33.249   1.984  15.351  1.00  0.00    -0.148 N 
HETATM    8  N8  UNL     1      32.837   3.039  14.680  1.00  0.00    -0.108 N 
ATOM      9  H8  UNL     1      33.139   3.200  13.718  1.00  0.00     0.208 HD
ENDROOT
BRANCH   4  10
HETATM   10  C3  UNL     1      31.593   2.355  18.668  1.00  0.00     0.128 C 
BRANCH  10  11
HETATM   11  C4  UNL     1      30.175   2.006  18.802  1.00  0.00     0.102 A 
HETATM   12  N3  UNL     1      29.516   1.185  17.965  1.00  0.00    -0.285 N 
HETATM   13  N4  UNL     1      28.265   1.083  18.365  1.00  0.00    -0.240 N 
ATOM     14  H3  UNL     1      29.920   0.718  17.153  1.00  0.00     0.188 HD
HETATM   15  N5  UNL     1      28.109   1.823  19.445  1.00  0.00    -0.250 N 
ATOM     16  H4  UNL     1      27.540   0.525  17.915  1.00  0.00     0.208 HD
HETATM   17  C5  UNL     1      29.268   2.417  19.757  1.00  0.00     0.285 A 
ATOM     18  H5  UNL     1      27.238   1.926  19.965  1.00  0.00     0.192 HD
HETATM   19  O1  UNL     1      29.442   3.182  20.728  1.00  0.00    -0.265 OA
ENDBRANCH  10  11
ENDBRANCH   4  10
BRANCH   1  20
HETATM   20  N1  UNL     1      31.616   4.932  14.613  1.00  0.00    -0.233 N 
ATOM     21  H12 UNL     1      30.768   4.828  14.056  1.00  0.00     0.174 HD
ATOM     22  H11 UNL     1      32.147   5.802  14.647  1.00  0.00     0.174 HD
ENDBRANCH   1  20
BRANCH   7  23
HETATM   23  N7  UNL     1      34.112   1.100  14.688  1.00  0.00    -0.320 N 
ATOM     24  H72 UNL     1      34.749   0.548  15.265  1.00  0.00     0.179 HD
ATOM     25  H71 UNL     1      34.114   1.004  13.673  1.00  0.00     0.179 HD
ENDBRANCH   7  23
TORSDOF 4
ENDMDL
MODEL 4
REMARK VINA RESULT: -6.796919569      5.408      7.893
REMARK  4 active torsions:
REMARK  status: ('A' for Active; 'I' for Inactive)
REMARK    1  A    between atoms: N1_1  and  C1_4 
REMARK    2  A    between atoms: C2_7  and  C3_8 
REMARK    3  A    between atoms: C3_8  and  C4_9 
REMARK    4  A    between atoms: N6_20  and  N7_21 
ROOT
HETATM    1  C1  UNL     1      30.320  10.225  15.703  1.00  0.00     0.692 A 
HETATM    2  N2  UNL     1      31.341   9.325  15.765  1.00  0.00    -0.189 N 
ATOM      3  H2  UNL     1      31.515   8.809  16.628  1.00  0.00     0.184 HD
HETATM    4  C2  UNL     1      32.116   9.115  14.690  1.00  0.00     0.103 A 
HETATM    5  C6  UNL     1      31.826   9.842  13.558  1.00  0.00     0.305 A 
HETATM    6  O2  UNL     1      32.514   9.694  12.513  1.00  0.00    -0.263 OA
HETATM    7  N6  UNL     1      30.796  10.735  13.531  1.00  0.00    -0.148 N 
HETATM    8  N8  UNL     1      30.044  10.929  14.595  1.00  0.00    -0.108 N 
ATOM      9  H8  UNL     1      29.272  11.596  14.577  1.00  0.00     0.208 HD
ENDROOT
BRANCH   4  10
HETATM   10  C3  UNL     1      33.249   8.164  14.650  1.00  0.00     0.128 C 
BRANCH  10  11
HETATM   11  C4  UNL     1      32.875   6.841  14.139  1.00  0.00     0.102 A 
HETATM   12  N3  UNL     1      33.089   6.429  12.877  1.00  0.00    -0.285 N 
HETATM   13  N4  UNL     1      32.638   5.198  12.747  1.00  0.00    -0.240 N 
ATOM     14  H3  UNL     1      33.528   6.981  12.139  1.00  0.00     0.188 HD
HETATM   15  N5  UNL     1      32.139   4.811  13.905  1.00  0.00    -0.250 N 
ATOM     16  H4  UNL     1      32.669   4.639  11.895  1.00  0.00     0.208 HD
HETATM   17  C5  UNL     1      32.263   5.797  14.802  1.00  0.00     0.285 A 
ATOM     18  H5  UNL     1      31.723   3.898  14.089  1.00  0.00     0.192 HD
HETATM   19  O1  UNL     1      31.884   5.736  15.991  1.00  0.00    -0.265 OA
ENDBRANCH  10  11
ENDBRANCH   4  10
BRANCH   1  20
HETATM   20  N1  UNL     1      29.566  10.432  16.741  1.00  0.00    -0.233 N 
ATOM     21  H12 UNL     1      30.008  10.372  17.658  1.00  0.00     0.174 HD
ATOM     22  H11 UNL     1      28.576  10.645  16.622  1.00  0.00     0.174 HD
ENDBRANCH   1  20
BRANCH   7  23
HETATM   23  N7  UNL     1      30.487  11.481  12.385  1.00  0.00    -0.320 N 
ATOM     24  H72 UNL     1      31.019  11.276  11.538  1.00  0.00     0.179 HD
ATOM     25  H71 UNL     1      29.764  12.200  12.385  1.00  0.00     0.179 HD
ENDBRANCH   7  23
TORSDOF 4
ENDMDL
MODEL 5
REMARK VINA RESULT: -6.600968335      1.243      5.094
REMARK  4 active torsions:
REMARK  status: ('A' for Active; 'I' for Inactive)
REMARK    1  A    between atoms: N1_1  and  C1_4 
REMARK    2  A    between atoms: C2_7  and  C3_8 
REMARK    3  A    between atoms: C3_8  and  C4_9 
REMARK    4  A    between atoms: N6_20  and  N7_21 
ROOT
HETATM    1  C1  UNL     1      29.967   3.326  20.943  1.00  0.00     0.692 A 
HETATM    2  N2  UNL     1      31.133   3.167  20.258  1.00  0.00    -0.189 N 
ATOM      3  H2  UNL     1      31.916   3.799  20.428  1.00  0.00     0.184 HD
HETATM    4  C2  UNL     1      31.253   2.177  19.359  1.00  0.00     0.103 A 
HETATM    5  C6  UNL     1      30.161   1.360  19.179  1.00  0.00     0.305 A 
HETATM    6  O2  UNL     1      30.205   0.411  18.350  1.00  0.00    -0.263 OA
HETATM    7  N6  UNL     1      29.008   1.548  19.883  1.00  0.00    -0.148 N 
HETATM    8  N8  UNL     1      28.907   2.524  20.762  1.00  0.00    -0.108 N 
ATOM      9  H8  UNL     1      28.046   2.666  21.290  1.00  0.00     0.208 HD
ENDROOT
BRANCH   4  10
HETATM   10  C3  UNL     1      32.472   1.917  18.560  1.00  0.00     0.128 C 
BRANCH  10  11
HETATM   11  C4  UNL     1      32.374   2.404  17.181  1.00  0.00     0.102 A 
HETATM   12  N3  UNL     1      31.692   3.503  16.813  1.00  0.00    -0.285 N 
HETATM   13  N4  UNL     1      31.806   3.660  15.510  1.00  0.00    -0.240 N 
ATOM     14  H3  UNL     1      31.171   4.115  17.441  1.00  0.00     0.188 HD
HETATM   15  N5  UNL     1      32.550   2.682  15.034  1.00  0.00    -0.250 N 
ATOM     16  H4  UNL     1      31.388   4.412  14.962  1.00  0.00     0.208 HD
HETATM   17  C5  UNL     1      32.928   1.875  16.033  1.00  0.00     0.285 A 
ATOM     18  H5  UNL     1      32.801   2.559  14.053  1.00  0.00     0.192 HD
HETATM   19  O1  UNL     1      33.641   0.857  15.902  1.00  0.00    -0.265 OA
ENDBRANCH  10  11
ENDBRANCH   4  10
BRANCH   1  20
HETATM   20  N1  UNL     1      29.845   4.282  21.815  1.00  0.00    -0.233 N 
ATOM     21  H12 UNL     1      30.414   4.218  22.659  1.00  0.00     0.174 HD
ATOM     22  H11 UNL     1      29.202   5.055  21.643  1.00  0.00     0.174 HD
ENDBRANCH   1  20
BRANCH   7  23
HETATM   23  N7  UNL     1      27.888   0.722  19.711  1.00  0.00    -0.320 N 
ATOM     24  H72 UNL     1      27.883   0.106  18.898  1.00  0.00     0.179 HD
ATOM     25  H71 UNL     1      27.105   0.729  20.365  1.00  0.00     0.179 HD
ENDBRANCH   7  23
TORSDOF 4
ENDMDL
