MODEL 1
REMARK VINA RESULT: -7.258168372      0.000      0.000
REMARK  14 active torsions:
REMARK  status: ('A' for Active; 'I' for Inactive)
REMARK    1  A    between atoms: C4_5  and  C5_6 
REMARK    2  A    between atoms: C5_6  and  O2_7 
REMARK    3  A    between atoms: C7_10  and  C8_11 
REMARK    4  A    between atoms: C8_11  and  C9_12 
REMARK    5  A    between atoms: C9_12  and  C10_13 
REMARK    6  A    between atoms: C10_13  and  O3_14 
REMARK    7  A    between atoms: O3_14  and  C11_15 
REMARK    8  A    between atoms: C12_17  and  C13_18 
REMARK    9  A    between atoms: C13_18  and  O5_19 
REMARK   10  A    between atoms: C14_21  and  O6_22 
REMARK   11  A    between atoms: O6_22  and  C15_23 
REMARK   12  A    between atoms: C21_29  and  O7_30 
REMARK   13  A    between atoms: C22_32  and  O8_33 
REMARK   14  A    between atoms: C23_35  and  O9_36 
ROOT
HETATM    1  C11 UNL     1      37.867  50.071  13.815  1.00  0.00     0.291 C 
HETATM    2  O4  UNL     1      36.633  50.389  13.355  1.00  0.00    -0.348 OA
HETATM    3  C12 UNL     1      35.576  50.169  14.225  1.00  0.00     0.179 C 
HETATM    4  C14 UNL     1      35.802  51.074  15.412  1.00  0.00     0.184 C 
HETATM    5  C21 UNL     1      36.969  50.422  16.139  1.00  0.00     0.183 C 
HETATM    6  C22 UNL     1      38.149  50.402  15.245  1.00  0.00     0.204 C 
ENDROOT
BRANCH   1   7
HETATM    7  O3  UNL     1      38.803  50.777  13.043  1.00  0.00    -0.359 OA
BRANCH   7   8
HETATM    8  C10 UNL     1      38.209  51.352  11.918  1.00  0.00     0.171 C 
BRANCH   8   9
HETATM    9  C9  UNL     1      38.999  50.876  10.717  1.00  0.00     0.027 C 
BRANCH   9  10
HETATM   10  C8  UNL     1      40.474  50.848  10.972  1.00  0.00     0.009 C 
BRANCH  10  11
HETATM   11  C7  UNL     1      41.125  49.637  10.329  1.00  0.00     0.016 C 
HETATM   12  C6  UNL     1      40.018  48.707   9.911  1.00  0.00     0.021 C 
HETATM   13  C4  UNL     1      40.458  47.614   8.995  1.00  0.00     0.080 C 
HETATM   14  C3  UNL     1      41.370  48.142   7.932  1.00  0.00     0.139 C 
HETATM   15  C2  UNL     1      41.453  49.642   7.838  1.00  0.00     0.081 C 
HETATM   16  O1  UNL     1      41.982  47.394   7.221  1.00  0.00    -0.297 OA
HETATM   17  C1  UNL     1      42.462  50.036   6.782  1.00  0.00     0.020 C 
HETATM   18  C23 UNL     1      41.937  50.142   9.161  1.00  0.00     0.133 C 
BRANCH  13  19
HETATM   19  C5  UNL     1      39.208  47.122   8.253  1.00  0.00     0.176 C 
BRANCH  19  20
HETATM   20  O2  UNL     1      39.437  45.876   7.717  1.00  0.00    -0.400 OA
ATOM     21  H2  UNL     1      39.492  45.934   6.770  1.00  0.00     0.209 HD
ENDBRANCH  19  20
ENDBRANCH  13  19
BRANCH  18  22
HETATM   22  O9  UNL     1      43.270  49.735   9.304  1.00  0.00    -0.394 OA
ATOM     23  H9  UNL     1      43.416  49.554  10.225  1.00  0.00     0.210 HD
ENDBRANCH  18  22
ENDBRANCH  10  11
ENDBRANCH   9  10
ENDBRANCH   8   9
ENDBRANCH   7   8
ENDBRANCH   1   7
BRANCH   6  24
HETATM   24  O8  UNL     1      38.841  51.609  15.402  1.00  0.00    -0.388 OA
ATOM     25  H8  UNL     1      39.741  51.565  15.100  1.00  0.00     0.210 HD
ENDBRANCH   6  24
BRANCH   3  26
HETATM   26  C13 UNL     1      34.307  50.479  13.510  1.00  0.00     0.198 C 
BRANCH  26  27
HETATM   27  O5  UNL     1      33.257  49.789  14.068  1.00  0.00    -0.398 OA
ATOM     28  H5  UNL     1      32.921  49.142  13.460  1.00  0.00     0.209 HD
ENDBRANCH  26  27
ENDBRANCH   3  26
BRANCH   5  29
HETATM   29  O7  UNL     1      37.270  50.997  17.345  1.00  0.00    -0.390 OA
ATOM     30  H7  UNL     1      38.004  50.595  17.795  1.00  0.00     0.210 HD
ENDBRANCH   5  29
BRANCH   4  31
HETATM   31  O6  UNL     1      34.720  51.260  16.225  1.00  0.00    -0.375 OA
BRANCH  31  32
HETATM   32  C15 UNL     1      34.441  52.557  16.579  1.00  0.00     0.122 C 
HETATM   33  C16 UNL     1      33.388  52.471  17.702  1.00  0.00     0.032 C 
HETATM   34  C17 UNL     1      32.517  53.712  17.695  1.00  0.00     0.002 C 
HETATM   35  C18 UNL     1      31.636  53.625  16.463  1.00  0.00     0.000 C 
HETATM   36  C19 UNL     1      32.425  53.176  15.254  1.00  0.00     0.002 C 
HETATM   37  C20 UNL     1      33.915  53.423  15.468  1.00  0.00     0.032 C 
ENDBRANCH  31  32
ENDBRANCH   4  31
TORSDOF 14
ENDMDL
MODEL 2
REMARK VINA RESULT: -7.185238925      3.154      9.226
REMARK  14 active torsions:
REMARK  status: ('A' for Active; 'I' for Inactive)
REMARK    1  A    between atoms: C4_5  and  C5_6 
REMARK    2  A    between atoms: C5_6  and  O2_7 
REMARK    3  A    between atoms: C7_10  and  C8_11 
REMARK    4  A    between atoms: C8_11  and  C9_12 
REMARK    5  A    between atoms: C9_12  and  C10_13 
REMARK    6  A    between atoms: C10_13  and  O3_14 
REMARK    7  A    between atoms: O3_14  and  C11_15 
REMARK    8  A    between atoms: C12_17  and  C13_18 
REMARK    9  A    between atoms: C13_18  and  O5_19 
REMARK   10  A    between atoms: C14_21  and  O6_22 
REMARK   11  A    between atoms: O6_22  and  C15_23 
REMARK   12  A    between atoms: C21_29  and  O7_30 
REMARK   13  A    between atoms: C22_32  and  O8_33 
REMARK   14  A    between atoms: C23_35  and  O9_36 
ROOT
HETATM    1  C11 UNL     1      41.321  50.983   8.571  1.00  0.00     0.291 C 
HETATM    2  O4  UNL     1      41.474  50.233   7.453  1.00  0.00    -0.348 OA
HETATM    3  C12 UNL     1      42.056  48.986   7.624  1.00  0.00     0.179 C 
HETATM    4  C14 UNL     1      41.122  48.194   8.509  1.00  0.00     0.184 C 
HETATM    5  C21 UNL     1      41.304  48.834   9.878  1.00  0.00     0.183 C 
HETATM    6  C22 UNL     1      40.902  50.257   9.807  1.00  0.00     0.204 C 
ENDROOT
BRANCH   1   7
HETATM    7  O3  UNL     1      40.330  51.941   8.306  1.00  0.00    -0.359 OA
BRANCH   7   8
HETATM    8  C10 UNL     1      40.757  53.227   8.641  1.00  0.00     0.171 C 
BRANCH   8   9
HETATM    9  C9  UNL     1      39.687  53.823   9.531  1.00  0.00     0.027 C 
BRANCH   9  10
HETATM   10  C8  UNL     1      40.156  54.025  10.938  1.00  0.00     0.009 C 
BRANCH  10  11
HETATM   11  C7  UNL     1      38.987  54.135  11.901  1.00  0.00     0.016 C 
HETATM   12  C6  UNL     1      37.838  54.733  11.138  1.00  0.00     0.021 C 
HETATM   13  C4  UNL     1      36.524  54.631  11.841  1.00  0.00     0.080 C 
HETATM   14  C3  UNL     1      36.340  53.270  12.434  1.00  0.00     0.139 C 
HETATM   15  C2  UNL     1      37.345  52.235  12.003  1.00  0.00     0.081 C 
HETATM   16  O1  UNL     1      35.443  53.050  13.199  1.00  0.00    -0.297 OA
HETATM   17  C1  UNL     1      37.090  50.935  12.733  1.00  0.00     0.020 C 
HETATM   18  C23 UNL     1      38.696  52.740  12.400  1.00  0.00     0.133 C 
BRANCH  13  19
HETATM   19  C5  UNL     1      35.433  54.762  10.770  1.00  0.00     0.176 C 
BRANCH  19  20
HETATM   20  O2  UNL     1      34.198  54.874  11.367  1.00  0.00    -0.400 OA
ATOM     21  H2  UNL     1      33.514  54.849  10.707  1.00  0.00     0.209 HD
ENDBRANCH  19  20
ENDBRANCH  13  19
BRANCH  18  22
HETATM   22  O9  UNL     1      38.761  52.717  13.798  1.00  0.00    -0.394 OA
ATOM     23  H9  UNL     1      39.400  52.058  14.045  1.00  0.00     0.210 HD
ENDBRANCH  18  22
ENDBRANCH  10  11
ENDBRANCH   9  10
ENDBRANCH   8   9
ENDBRANCH   7   8
ENDBRANCH   1   7
BRANCH   6  24
HETATM   24  O8  UNL     1      39.525  50.338  10.050  1.00  0.00    -0.388 OA
ATOM     25  H8  UNL     1      39.240  49.781  10.766  1.00  0.00     0.210 HD
ENDBRANCH   6  24
BRANCH   3  26
HETATM   26  C13 UNL     1      42.229  48.361   6.283  1.00  0.00     0.198 C 
BRANCH  26  27
HETATM   27  O5  UNL     1      42.596  49.306   5.353  1.00  0.00    -0.398 OA
ATOM     28  H5  UNL     1      41.952  49.358   4.657  1.00  0.00     0.209 HD
ENDBRANCH  26  27
ENDBRANCH   3  26
BRANCH   5  29
HETATM   29  O7  UNL     1      40.651  48.183  10.891  1.00  0.00    -0.390 OA
ATOM     30  H7  UNL     1      40.401  48.744  11.615  1.00  0.00     0.210 HD
ENDBRANCH   5  29
BRANCH   4  31
HETATM   31  O6  UNL     1      41.334  46.845   8.531  1.00  0.00    -0.375 OA
BRANCH  31  32
HETATM   32  C15 UNL     1      40.419  46.097   9.229  1.00  0.00     0.122 C 
HETATM   33  C16 UNL     1      41.080  44.723   9.455  1.00  0.00     0.032 C 
HETATM   34  C17 UNL     1      40.019  43.644   9.558  1.00  0.00     0.002 C 
HETATM   35  C18 UNL     1      39.438  43.463   8.168  1.00  0.00     0.000 C 
HETATM   36  C19 UNL     1      39.185  44.796   7.501  1.00  0.00     0.002 C 
HETATM   37  C20 UNL     1      39.094  45.906   8.544  1.00  0.00     0.032 C 
ENDBRANCH  31  32
ENDBRANCH   4  31
TORSDOF 14
ENDMDL
MODEL 3
REMARK VINA RESULT: -7.099267481      6.008     10.632
REMARK  14 active torsions:
REMARK  status: ('A' for Active; 'I' for Inactive)
REMARK    1  A    between atoms: C4_5  and  C5_6 
REMARK    2  A    between atoms: C5_6  and  O2_7 
REMARK    3  A    between atoms: C7_10  and  C8_11 
REMARK    4  A    between atoms: C8_11  and  C9_12 
REMARK    5  A    between atoms: C9_12  and  C10_13 
REMARK    6  A    between atoms: C10_13  and  O3_14 
REMARK    7  A    between atoms: O3_14  and  C11_15 
REMARK    8  A    between atoms: C12_17  and  C13_18 
REMARK    9  A    between atoms: C13_18  and  O5_19 
REMARK   10  A    between atoms: C14_21  and  O6_22 
REMARK   11  A    between atoms: O6_22  and  C15_23 
REMARK   12  A    between atoms: C21_29  and  O7_30 
REMARK   13  A    between atoms: C22_32  and  O8_33 
REMARK   14  A    between atoms: C23_35  and  O9_36 
ROOT
HETATM    1  C11 UNL     1      41.468  51.551   7.905  1.00  0.00     0.291 C 
HETATM    2  O4  UNL     1      42.472  50.678   7.649  1.00  0.00    -0.348 OA
HETATM    3  C12 UNL     1      42.767  50.453   6.313  1.00  0.00     0.179 C 
HETATM    4  C14 UNL     1      43.236  51.774   5.749  1.00  0.00     0.184 C 
HETATM    5  C21 UNL     1      41.960  52.599   5.672  1.00  0.00     0.183 C 
HETATM    6  C22 UNL     1      41.402  52.763   7.034  1.00  0.00     0.204 C 
ENDROOT
BRANCH   1   7
HETATM    7  O3  UNL     1      41.628  52.005   9.223  1.00  0.00    -0.359 OA
BRANCH   7   8
HETATM    8  C10 UNL     1      41.522  50.961  10.142  1.00  0.00     0.171 C 
BRANCH   8   9
HETATM    9  C9  UNL     1      40.064  50.877  10.541  1.00  0.00     0.027 C 
BRANCH   9  10
HETATM   10  C8  UNL     1      39.596  49.467  10.721  1.00  0.00     0.009 C 
BRANCH  10  11
HETATM   11  C7  UNL     1      40.507  48.485  10.007  1.00  0.00     0.016 C 
HETATM   12  C6  UNL     1      40.851  47.401  10.992  1.00  0.00     0.021 C 
HETATM   13  C4  UNL     1      41.487  46.199  10.374  1.00  0.00     0.080 C 
HETATM   14  C3  UNL     1      40.777  45.806   9.117  1.00  0.00     0.139 C 
HETATM   15  C2  UNL     1      39.464  46.501   8.871  1.00  0.00     0.081 C 
HETATM   16  O1  UNL     1      41.249  44.990   8.375  1.00  0.00    -0.297 OA
HETATM   17  C1  UNL     1      38.896  46.069   7.538  1.00  0.00     0.020 C 
HETATM   18  C23 UNL     1      39.745  47.968   8.811  1.00  0.00     0.133 C 
BRANCH  13  19
HETATM   19  C5  UNL     1      41.275  45.032  11.347  1.00  0.00     0.176 C 
BRANCH  19  20
HETATM   20  O2  UNL     1      40.664  43.983  10.698  1.00  0.00    -0.400 OA
ATOM     21  H2  UNL     1      39.988  43.608  11.250  1.00  0.00     0.209 HD
ENDBRANCH  19  20
ENDBRANCH  13  19
BRANCH  18  22
HETATM   22  O9  UNL     1      40.482  48.208   7.644  1.00  0.00    -0.394 OA
ATOM     23  H9  UNL     1      39.863  48.412   6.952  1.00  0.00     0.210 HD
ENDBRANCH  18  22
ENDBRANCH  10  11
ENDBRANCH   9  10
ENDBRANCH   8   9
ENDBRANCH   7   8
ENDBRANCH   1   7
BRANCH   6  24
HETATM   24  O8  UNL     1      41.992  53.890   7.618  1.00  0.00    -0.388 OA
ATOM     25  H8  UNL     1      41.471  54.679   7.515  1.00  0.00     0.210 HD
ENDBRANCH   6  24
BRANCH   3  26
HETATM   26  C13 UNL     1      43.816  49.400   6.234  1.00  0.00     0.198 C 
BRANCH  26  27
HETATM   27  O5  UNL     1      44.621  49.435   7.349  1.00  0.00    -0.398 OA
ATOM     28  H5  UNL     1      45.497  49.135   7.138  1.00  0.00     0.209 HD
ENDBRANCH  26  27
ENDBRANCH   3  26
BRANCH   5  29
HETATM   29  O7  UNL     1      42.113  53.810   5.050  1.00  0.00    -0.390 OA
ATOM     30  H7  UNL     1      41.800  54.550   5.557  1.00  0.00     0.210 HD
ENDBRANCH   5  29
BRANCH   4  31
HETATM   31  O6  UNL     1      43.886  51.705   4.549  1.00  0.00    -0.375 OA
BRANCH  31  32
HETATM   32  C15 UNL     1      44.920  52.589   4.367  1.00  0.00     0.122 C 
HETATM   33  C16 UNL     1      45.433  52.348   2.933  1.00  0.00     0.032 C 
HETATM   34  C17 UNL     1      46.905  52.698   2.840  1.00  0.00     0.002 C 
HETATM   35  C18 UNL     1      47.662  51.627   3.603  1.00  0.00     0.000 C 
HETATM   36  C19 UNL     1      46.982  51.302   4.913  1.00  0.00     0.002 C 
HETATM   37  C20 UNL     1      46.062  52.444   5.335  1.00  0.00     0.032 C 
ENDBRANCH  31  32
ENDBRANCH   4  31
TORSDOF 14
ENDMDL
MODEL 4
REMARK VINA RESULT: -6.991524426      1.604      2.392
REMARK  14 active torsions:
REMARK  status: ('A' for Active; 'I' for Inactive)
REMARK    1  A    between atoms: C4_5  and  C5_6 
REMARK    2  A    between atoms: C5_6  and  O2_7 
REMARK    3  A    between atoms: C7_10  and  C8_11 
REMARK    4  A    between atoms: C8_11  and  C9_12 
REMARK    5  A    between atoms: C9_12  and  C10_13 
REMARK    6  A    between atoms: C10_13  and  O3_14 
REMARK    7  A    between atoms: O3_14  and  C11_15 
REMARK    8  A    between atoms: C12_17  and  C13_18 
REMARK    9  A    between atoms: C13_18  and  O5_19 
REMARK   10  A    between atoms: C14_21  and  O6_22 
REMARK   11  A    between atoms: O6_22  and  C15_23 
REMARK   12  A    between atoms: C21_29  and  O7_30 
REMARK   13  A    between atoms: C22_32  and  O8_33 
REMARK   14  A    between atoms: C23_35  and  O9_36 
ROOT
HETATM    1  C11 UNL     1      36.395  50.979  12.917  1.00  0.00     0.291 C 
HETATM    2  O4  UNL     1      36.106  52.303  12.878  1.00  0.00    -0.348 OA
HETATM    3  C12 UNL     1      34.783  52.637  12.630  1.00  0.00     0.179 C 
HETATM    4  C14 UNL     1      33.978  52.088  13.784  1.00  0.00     0.184 C 
HETATM    5  C21 UNL     1      33.990  50.585  13.542  1.00  0.00     0.183 C 
HETATM    6  C22 UNL     1      35.388  50.097  13.580  1.00  0.00     0.204 C 
ENDROOT
BRANCH   1   7
HETATM    7  O3  UNL     1      37.597  50.828  13.625  1.00  0.00    -0.359 OA
BRANCH   7   8
HETATM    8  C10 UNL     1      38.367  49.783  13.113  1.00  0.00     0.171 C 
BRANCH   8   9
HETATM    9  C9  UNL     1      38.452  49.998  11.616  1.00  0.00     0.027 C 
BRANCH   9  10
HETATM   10  C8  UNL     1      39.813  50.435  11.173  1.00  0.00     0.009 C 
BRANCH  10  11
HETATM   11  C7  UNL     1      40.585  49.289  10.544  1.00  0.00     0.016 C 
HETATM   12  C6  UNL     1      39.573  48.325   9.987  1.00  0.00     0.021 C 
HETATM   13  C4  UNL     1      40.153  47.299   9.070  1.00  0.00     0.080 C 
HETATM   14  C3  UNL     1      41.128  47.922   8.120  1.00  0.00     0.139 C 
HETATM   15  C2  UNL     1      41.137  49.427   8.097  1.00  0.00     0.081 C 
HETATM   16  O1  UNL     1      41.841  47.240   7.438  1.00  0.00    -0.297 OA
HETATM   17  C1  UNL     1      42.215  49.920   7.157  1.00  0.00     0.020 C 
HETATM   18  C23 UNL     1      41.471  49.888   9.479  1.00  0.00     0.133 C 
BRANCH  13  19
HETATM   19  C5  UNL     1      39.004  46.780   8.196  1.00  0.00     0.176 C 
BRANCH  19  20
HETATM   20  O2  UNL     1      39.346  45.569   7.638  1.00  0.00    -0.400 OA
ATOM     21  H2  UNL     1      39.065  45.538   6.731  1.00  0.00     0.209 HD
ENDBRANCH  19  20
ENDBRANCH  13  19
BRANCH  18  22
HETATM   22  O9  UNL     1      42.805  49.543   9.728  1.00  0.00    -0.394 OA
ATOM     23  H9  UNL     1      42.919  49.500  10.671  1.00  0.00     0.210 HD
ENDBRANCH  18  22
ENDBRANCH  10  11
ENDBRANCH   9  10
ENDBRANCH   8   9
ENDBRANCH   7   8
ENDBRANCH   1   7
BRANCH   6  24
HETATM   24  O8  UNL     1      35.713  49.797  14.909  1.00  0.00    -0.388 OA
ATOM     25  H8  UNL     1      35.065  49.248  15.335  1.00  0.00     0.210 HD
ENDBRANCH   6  24
BRANCH   3  26
HETATM   26  C13 UNL     1      34.685  54.119  12.526  1.00  0.00     0.198 C 
BRANCH  26  27
HETATM   27  O5  UNL     1      33.615  54.478  11.740  1.00  0.00    -0.398 OA
ATOM     28  H5  UNL     1      32.797  54.312  12.194  1.00  0.00     0.209 HD
ENDBRANCH  26  27
ENDBRANCH   3  26
BRANCH   5  29
HETATM   29  O7  UNL     1      33.192  49.874  14.398  1.00  0.00    -0.390 OA
ATOM     30  H7  UNL     1      32.688  49.187  13.979  1.00  0.00     0.210 HD
ENDBRANCH   5  29
BRANCH   4  31
HETATM   31  O6  UNL     1      32.712  52.586  13.908  1.00  0.00    -0.375 OA
BRANCH  31  32
HETATM   32  C15 UNL     1      32.440  53.272  15.066  1.00  0.00     0.122 C 
HETATM   33  C16 UNL     1      33.467  52.774  16.102  1.00  0.00     0.032 C 
HETATM   34  C17 UNL     1      32.891  52.881  17.500  1.00  0.00     0.002 C 
HETATM   35  C18 UNL     1      31.818  51.815  17.618  1.00  0.00     0.000 C 
HETATM   36  C19 UNL     1      30.952  51.768  16.381  1.00  0.00     0.002 C 
HETATM   37  C20 UNL     1      31.051  53.082  15.610  1.00  0.00     0.032 C 
ENDBRANCH  31  32
ENDBRANCH   4  31
TORSDOF 14
ENDMDL
MODEL 5
REMARK VINA RESULT: -6.981738494      2.869      9.091
REMARK  14 active torsions:
REMARK  status: ('A' for Active; 'I' for Inactive)
REMARK    1  A    between atoms: C4_5  and  C5_6 
REMARK    2  A    between atoms: C5_6  and  O2_7 
REMARK    3  A    between atoms: C7_10  and  C8_11 
REMARK    4  A    between atoms: C8_11  and  C9_12 
REMARK    5  A    between atoms: C9_12  and  C10_13 
REMARK    6  A    between atoms: C10_13  and  O3_14 
REMARK    7  A    between atoms: O3_14  and  C11_15 
REMARK    8  A    between atoms: C12_17  and  C13_18 
REMARK    9  A    between atoms: C13_18  and  O5_19 
REMARK   10  A    between atoms: C14_21  and  O6_22 
REMARK   11  A    between atoms: O6_22  and  C15_23 
REMARK   12  A    between atoms: C21_29  and  O7_30 
REMARK   13  A    between atoms: C22_32  and  O8_33 
REMARK   14  A    between atoms: C23_35  and  O9_36 
ROOT
HETATM    1  C11 UNL     1      41.307  50.908   8.636  1.00  0.00     0.291 C 
HETATM    2  O4  UNL     1      41.470  50.176   7.508  1.00  0.00    -0.348 OA
HETATM    3  C12 UNL     1      42.040  48.922   7.665  1.00  0.00     0.179 C 
HETATM    4  C14 UNL     1      41.089  48.123   8.524  1.00  0.00     0.184 C 
HETATM    5  C21 UNL     1      41.257  48.738   9.906  1.00  0.00     0.183 C 
HETATM    6  C22 UNL     1      40.866  50.165   9.854  1.00  0.00     0.204 C 
ENDROOT
BRANCH   1   7
HETATM    7  O3  UNL     1      40.327  51.878   8.374  1.00  0.00    -0.359 OA
BRANCH   7   8
HETATM    8  C10 UNL     1      40.723  53.141   8.818  1.00  0.00     0.171 C 
BRANCH   8   9
HETATM    9  C9  UNL     1      39.537  53.737   9.546  1.00  0.00     0.027 C 
BRANCH   9  10
HETATM   10  C8  UNL     1      39.721  53.753  11.032  1.00  0.00     0.009 C 
BRANCH  10  11
HETATM   11  C7  UNL     1      38.401  53.558  11.756  1.00  0.00     0.016 C 
HETATM   12  C6  UNL     1      38.072  52.091  11.692  1.00  0.00     0.021 C 
HETATM   13  C4  UNL     1      36.971  51.676  12.610  1.00  0.00     0.080 C 
HETATM   14  C3  UNL     1      37.137  52.299  13.960  1.00  0.00     0.139 C 
HETATM   15  C2  UNL     1      38.459  52.979  14.201  1.00  0.00     0.081 C 
HETATM   16  O1  UNL     1      36.257  52.246  14.774  1.00  0.00    -0.297 OA
HETATM   17  C1  UNL     1      38.463  53.628  15.567  1.00  0.00     0.020 C 
HETATM   18  C23 UNL     1      38.598  54.052  13.169  1.00  0.00     0.133 C 
BRANCH  13  19
HETATM   19  C5  UNL     1      37.122  50.165  12.835  1.00  0.00     0.176 C 
BRANCH  19  20
HETATM   20  O2  UNL     1      38.415  49.776  12.568  1.00  0.00    -0.400 OA
ATOM     21  H2  UNL     1      38.420  48.912  12.173  1.00  0.00     0.209 HD
ENDBRANCH  19  20
ENDBRANCH  13  19
BRANCH  18  22
HETATM   22  O9  UNL     1      37.649  55.040  13.458  1.00  0.00    -0.394 OA
ATOM     23  H9  UNL     1      37.946  55.504  14.233  1.00  0.00     0.210 HD
ENDBRANCH  18  22
ENDBRANCH  10  11
ENDBRANCH   9  10
ENDBRANCH   8   9
ENDBRANCH   7   8
ENDBRANCH   1   7
BRANCH   6  24
HETATM   24  O8  UNL     1      39.487  50.252  10.080  1.00  0.00    -0.388 OA
ATOM     25  H8  UNL     1      39.267  50.390  10.994  1.00  0.00     0.210 HD
ENDBRANCH   6  24
BRANCH   3  26
HETATM   26  C13 UNL     1      42.227  48.318   6.317  1.00  0.00     0.198 C 
BRANCH  26  27
HETATM   27  O5  UNL     1      42.593  49.280   5.404  1.00  0.00    -0.398 OA
ATOM     28  H5  UNL     1      41.840  49.561   4.896  1.00  0.00     0.209 HD
ENDBRANCH  26  27
ENDBRANCH   3  26
BRANCH   5  29
HETATM   29  O7  UNL     1      40.585  48.075  10.899  1.00  0.00    -0.390 OA
ATOM     30  H7  UNL     1      40.183  48.646  11.544  1.00  0.00     0.210 HD
ENDBRANCH   5  29
BRANCH   4  31
HETATM   31  O6  UNL     1      41.291  46.771   8.527  1.00  0.00    -0.375 OA
BRANCH  31  32
HETATM   32  C15 UNL     1      40.375  46.022   9.223  1.00  0.00     0.122 C 
HETATM   33  C16 UNL     1      41.058  44.666   9.493  1.00  0.00     0.032 C 
HETATM   34  C17 UNL     1      40.015  43.569   9.597  1.00  0.00     0.002 C 
HETATM   35  C18 UNL     1      39.468  43.346   8.200  1.00  0.00     0.000 C 
HETATM   36  C19 UNL     1      39.204  44.658   7.498  1.00  0.00     0.002 C 
HETATM   37  C20 UNL     1      39.069  45.789   8.514  1.00  0.00     0.032 C 
ENDBRANCH  31  32
ENDBRANCH   4  31
TORSDOF 14
ENDMDL
