MODEL 1
REMARK VINA RESULT: -5.885436931      0.000      0.000
REMARK  4 active torsions:
REMARK  status: ('A' for Active; 'I' for Inactive)
REMARK    1  A    between atoms: C2_4  and  C3_5 
REMARK    2  A    between atoms: C3_5  and  N1_6 
REMARK    3  A    between atoms: C5_8  and  O2_9 
REMARK    4  A    between atoms: C6_11  and  O3_12 
ROOT
HETATM    1  O1  UNL     1      -2.234  19.768  -2.574  1.00  0.00    -0.314 OA
ATOM      2  H1  UNL     1      -1.878  19.618  -1.706  1.00  0.00     0.230 HD
HETATM    3  C1  UNL     1      -2.753  20.003  -3.836  1.00  0.00     0.053 C 
HETATM    4  C2  UNL     1      -3.207  20.194  -4.943  1.00  0.00    -0.046 C 
ENDROOT
BRANCH   4   5
HETATM    5  C3  UNL     1      -3.741  20.410  -6.267  1.00  0.00     0.368 C 
BRANCH   5   6
HETATM    6  N1  UNL     1      -4.403  19.195  -6.677  1.00  0.00     0.104 N 
HETATM    7  C4  UNL     1      -3.497  18.099  -6.854  1.00  0.00     0.307 C 
HETATM    8  C5  UNL     1      -4.144  17.273  -7.919  1.00  0.00     0.176 C 
HETATM    9  C6  UNL     1      -4.715  18.309  -8.875  1.00  0.00     0.176 C 
HETATM   10  C7  UNL     1      -5.019  19.466  -7.975  1.00  0.00     0.307 C 
BRANCH   8  11
HETATM   11  O2  UNL     1      -3.272  16.390  -8.552  1.00  0.00    -0.391 OA
ATOM     12  H2  UNL     1      -3.578  16.093  -9.400  1.00  0.00     0.210 HD
ENDBRANCH   8  11
BRANCH   9  13
HETATM   13  O3  UNL     1      -3.680  18.674  -9.753  1.00  0.00    -0.391 OA
ATOM     14  H3  UNL     1      -4.070  19.202 -10.439  1.00  0.00     0.210 HD
ENDBRANCH   9  13
ENDBRANCH   5   6
ENDBRANCH   4   5
TORSDOF 4
ENDMDL
MODEL 2
REMARK VINA RESULT: -5.769223240      1.710      4.796
REMARK  4 active torsions:
REMARK  status: ('A' for Active; 'I' for Inactive)
REMARK    1  A    between atoms: C2_4  and  C3_5 
REMARK    2  A    between atoms: C3_5  and  N1_6 
REMARK    3  A    between atoms: C5_8  and  O2_9 
REMARK    4  A    between atoms: C6_11  and  O3_12 
ROOT
HETATM    1  O1  UNL     1      -4.900  15.645  -9.277  1.00  0.00    -0.314 OA
ATOM      2  H1  UNL     1      -5.005  14.735  -9.527  1.00  0.00     0.230 HD
HETATM    3  C1  UNL     1      -4.738  16.974  -8.925  1.00  0.00     0.053 C 
HETATM    4  C2  UNL     1      -4.605  18.136  -8.605  1.00  0.00    -0.046 C 
ENDROOT
BRANCH   4   5
HETATM    5  C3  UNL     1      -4.460  19.520  -8.221  1.00  0.00     0.368 C 
BRANCH   5   6
HETATM    6  N1  UNL     1      -3.462  19.584  -7.179  1.00  0.00     0.104 N 
HETATM    7  C4  UNL     1      -3.972  19.203  -5.895  1.00  0.00     0.307 C 
HETATM    8  C5  UNL     1      -3.150  20.004  -4.937  1.00  0.00     0.176 C 
HETATM    9  C6  UNL     1      -2.997  21.347  -5.634  1.00  0.00     0.176 C 
HETATM   10  C7  UNL     1      -3.038  20.979  -7.085  1.00  0.00     0.307 C 
BRANCH   8  11
HETATM   11  O2  UNL     1      -3.721  20.125  -3.672  1.00  0.00    -0.391 OA
ATOM     12  H2  UNL     1      -3.814  21.023  -3.378  1.00  0.00     0.210 HD
ENDBRANCH   8  11
BRANCH   9  13
HETATM   13  O3  UNL     1      -4.141  22.105  -5.324  1.00  0.00    -0.391 OA
ATOM     14  H3  UNL     1      -4.212  22.782  -5.986  1.00  0.00     0.210 HD
ENDBRANCH   9  13
ENDBRANCH   5   6
ENDBRANCH   4   5
TORSDOF 4
ENDMDL
MODEL 3
REMARK VINA RESULT: -5.730066211      2.694      4.097
REMARK  4 active torsions:
REMARK  status: ('A' for Active; 'I' for Inactive)
REMARK    1  A    between atoms: C2_4  and  C3_5 
REMARK    2  A    between atoms: C3_5  and  N1_6 
REMARK    3  A    between atoms: C5_8  and  O2_9 
REMARK    4  A    between atoms: C6_11  and  O3_12 
ROOT
HETATM    1  O1  UNL     1      -4.404  15.960  -9.572  1.00  0.00    -0.314 OA
ATOM      2  H1  UNL     1      -4.605  15.427 -10.332  1.00  0.00     0.230 HD
HETATM    3  C1  UNL     1      -4.095  16.732  -8.465  1.00  0.00     0.053 C 
HETATM    4  C2  UNL     1      -3.839  17.413  -7.495  1.00  0.00    -0.046 C 
ENDROOT
BRANCH   4   5
HETATM    5  C3  UNL     1      -3.542  18.234  -6.345  1.00  0.00     0.368 C 
BRANCH   5   6
HETATM    6  N1  UNL     1      -4.351  19.426  -6.437  1.00  0.00     0.104 N 
HETATM    7  C4  UNL     1      -5.600  19.202  -7.102  1.00  0.00     0.307 C 
HETATM    8  C5  UNL     1      -5.899  20.518  -7.746  1.00  0.00     0.176 C 
HETATM    9  C6  UNL     1      -4.538  20.995  -8.230  1.00  0.00     0.176 C 
HETATM   10  C7  UNL     1      -3.596  20.389  -7.235  1.00  0.00     0.307 C 
BRANCH   8  11
HETATM   11  O2  UNL     1      -6.831  20.440  -8.778  1.00  0.00    -0.391 OA
ATOM     12  H2  UNL     1      -7.652  20.877  -8.585  1.00  0.00     0.210 HD
ENDBRANCH   8  11
BRANCH   9  13
HETATM   13  O3  UNL     1      -4.317  20.403  -9.486  1.00  0.00    -0.391 OA
ATOM     14  H3  UNL     1      -3.403  20.146  -9.515  1.00  0.00     0.210 HD
ENDBRANCH   9  13
ENDBRANCH   5   6
ENDBRANCH   4   5
TORSDOF 4
ENDMDL
MODEL 4
REMARK VINA RESULT: -5.612858519      2.716      4.715
REMARK  4 active torsions:
REMARK  status: ('A' for Active; 'I' for Inactive)
REMARK    1  A    between atoms: C2_4  and  C3_5 
REMARK    2  A    between atoms: C3_5  and  N1_6 
REMARK    3  A    between atoms: C5_8  and  O2_9 
REMARK    4  A    between atoms: C6_11  and  O3_12 
ROOT
HETATM    1  O1  UNL     1      -0.875  21.263 -11.453  1.00  0.00    -0.314 OA
ATOM      2  H1  UNL     1      -0.170  21.383 -12.078  1.00  0.00     0.230 HD
HETATM    3  C1  UNL     1      -1.913  21.093 -10.553  1.00  0.00     0.053 C 
HETATM    4  C2  UNL     1      -2.813  20.940  -9.755  1.00  0.00    -0.046 C 
ENDROOT
BRANCH   4   5
HETATM    5  C3  UNL     1      -3.878  20.746  -8.800  1.00  0.00     0.368 C 
BRANCH   5   6
HETATM    6  N1  UNL     1      -3.441  19.748  -7.853  1.00  0.00     0.104 N 
HETATM    7  C4  UNL     1      -4.531  19.081  -7.204  1.00  0.00     0.307 C 
HETATM    8  C5  UNL     1      -3.979  18.723  -5.862  1.00  0.00     0.176 C 
HETATM    9  C6  UNL     1      -3.135  19.933  -5.490  1.00  0.00     0.176 C 
HETATM   10  C7  UNL     1      -2.680  20.448  -6.820  1.00  0.00     0.307 C 
BRANCH   8  11
HETATM   11  O2  UNL     1      -4.955  18.443  -4.909  1.00  0.00    -0.391 OA
ATOM     12  H2  UNL     1      -4.957  17.540  -4.617  1.00  0.00     0.210 HD
ENDBRANCH   8  11
BRANCH   9  13
HETATM   13  O3  UNL     1      -4.001  20.876  -4.909  1.00  0.00    -0.391 OA
ATOM     14  H3  UNL     1      -3.539  21.262  -4.174  1.00  0.00     0.210 HD
ENDBRANCH   9  13
ENDBRANCH   5   6
ENDBRANCH   4   5
TORSDOF 4
ENDMDL
MODEL 5
REMARK VINA RESULT: -5.566688107      1.519      4.896
REMARK  4 active torsions:
REMARK  status: ('A' for Active; 'I' for Inactive)
REMARK    1  A    between atoms: C2_4  and  C3_5 
REMARK    2  A    between atoms: C3_5  and  N1_6 
REMARK    3  A    between atoms: C5_8  and  O2_9 
REMARK    4  A    between atoms: C6_11  and  O3_12 
ROOT
HETATM    1  O1  UNL     1      -5.036  16.758 -10.493  1.00  0.00    -0.314 OA
ATOM      2  H1  UNL     1      -5.109  16.411 -11.374  1.00  0.00     0.230 HD
HETATM    3  C1  UNL     1      -4.914  17.261  -9.208  1.00  0.00     0.053 C 
HETATM    4  C2  UNL     1      -4.822  17.705  -8.084  1.00  0.00    -0.046 C 
ENDROOT
BRANCH   4   5
HETATM    5  C3  UNL     1      -4.720  18.243  -6.749  1.00  0.00     0.368 C 
BRANCH   5   6
HETATM    6  N1  UNL     1      -3.637  19.197  -6.742  1.00  0.00     0.104 N 
HETATM    7  C4  UNL     1      -2.386  18.619  -6.346  1.00  0.00     0.307 C 
HETATM    8  C5  UNL     1      -1.663  19.752  -5.692  1.00  0.00     0.176 C 
HETATM    9  C6  UNL     1      -2.758  20.478  -4.925  1.00  0.00     0.176 C 
HETATM   10  C7  UNL     1      -3.978  20.219  -5.754  1.00  0.00     0.307 C 
BRANCH   8  11
HETATM   11  O2  UNL     1      -0.616  19.348  -4.868  1.00  0.00    -0.391 OA
ATOM     12  H2  UNL     1      -0.278  20.040  -4.312  1.00  0.00     0.210 HD
ENDBRANCH   8  11
BRANCH   9  13
HETATM   13  O3  UNL     1      -2.898  19.823  -3.689  1.00  0.00    -0.391 OA
ATOM     14  H3  UNL     1      -3.643  20.216  -3.250  1.00  0.00     0.210 HD
ENDBRANCH   9  13
ENDBRANCH   5   6
ENDBRANCH   4   5
TORSDOF 4
ENDMDL
