MODEL 1
REMARK VINA RESULT: -5.257676384      0.000      0.000
REMARK  2 active torsions:
REMARK  status: ('A' for Active; 'I' for Inactive)
REMARK    1  A    between atoms: C2_2  and  N1_4 
REMARK       I    between atoms: N1_4  and  C4_6 
REMARK       I    between atoms: C4_6  and  N2_8 
REMARK    2  A    between atoms: N2_8  and  C5_10 
ROOT
HETATM    1  C5  UNL     1      11.243  -7.699 -10.352  1.00  0.00     0.038 C 
HETATM    2  C6  UNL     1      11.703  -7.737  -8.914  1.00  0.00     0.036 C 
HETATM    3  C7  UNL     1      12.971  -8.543  -8.817  1.00  0.00    -0.009 C 
HETATM    4  C8  UNL     1      14.072  -8.034  -9.686  1.00  0.00     0.009 C 
HETATM    5  C9  UNL     1      13.567  -7.998 -11.130  1.00  0.00    -0.009 C 
HETATM    6  C10 UNL     1      13.293  -9.400 -11.567  1.00  0.00     0.048 C 
HETATM    7  C11 UNL     1      12.252  -9.984 -10.646  1.00  0.00     0.106 C 
HETATM    8  F1  UNL     1      11.957 -11.256 -11.056  1.00  0.00    -0.243 F 
HETATM    9  C12 UNL     1      12.690  -9.974  -9.198  1.00  0.00     0.048 C 
HETATM   10  C13 UNL     1      11.013  -9.157 -10.757  1.00  0.00     0.074 C 
HETATM   11  C14 UNL     1      12.371  -7.095 -11.174  1.00  0.00     0.036 C 
ENDROOT
BRANCH   1  12
HETATM   12  N2  UNL     1       9.999  -6.993 -10.530  1.00  0.00    -0.334 N 
HETATM   13  C4  UNL     1       9.852  -5.593 -10.485  1.00  0.00     0.317 C 
HETATM   14  N1  UNL     1       8.589  -4.991 -10.669  1.00  0.00    -0.339 N 
HETATM   15  O1  UNL     1      10.858  -4.884 -10.278  1.00  0.00    -0.247 OA
ATOM     16  H1  UNL     1       7.774  -5.581 -10.837  1.00  0.00     0.164 HD
ATOM     17  H2  UNL     1       9.162  -7.550 -10.702  1.00  0.00     0.165 HD
BRANCH  14  18
HETATM   18  C2  UNL     1       8.426  -3.547 -10.625  1.00  0.00     0.078 C 
HETATM   19  C1  UNL     1       7.695  -3.119  -9.396  1.00  0.00     0.032 C 
HETATM   20  C3  UNL     1       7.627  -3.164 -11.854  1.00  0.00     0.032 C 
ENDBRANCH  14  18
ENDBRANCH   1  12
TORSDOF 2
ENDMDL
MODEL 2
REMARK VINA RESULT: -5.148666345      1.069      2.013
REMARK  2 active torsions:
REMARK  status: ('A' for Active; 'I' for Inactive)
REMARK    1  A    between atoms: C2_2  and  N1_4 
REMARK       I    between atoms: N1_4  and  C4_6 
REMARK       I    between atoms: C4_6  and  N2_8 
REMARK    2  A    between atoms: N2_8  and  C5_10 
ROOT
HETATM    1  C5  UNL     1      11.097  -7.835 -10.662  1.00  0.00     0.038 C 
HETATM    2  C6  UNL     1      12.220  -7.178 -11.430  1.00  0.00     0.036 C 
HETATM    3  C7  UNL     1      13.476  -7.994 -11.272  1.00  0.00    -0.009 C 
HETATM    4  C8  UNL     1      13.328  -9.413 -11.708  1.00  0.00     0.009 C 
HETATM    5  C9  UNL     1      12.176 -10.041 -10.919  1.00  0.00    -0.009 C 
HETATM    6  C10 UNL     1      12.561 -10.076  -9.476  1.00  0.00     0.048 C 
HETATM    7  C11 UNL     1      12.817  -8.662  -9.022  1.00  0.00     0.106 C 
HETATM    8  F1  UNL     1      13.131  -8.670  -7.690  1.00  0.00    -0.243 F 
HETATM    9  C12 UNL     1      13.905  -7.985  -9.827  1.00  0.00     0.048 C 
HETATM   10  C13 UNL     1      11.558  -7.878  -9.203  1.00  0.00     0.074 C 
HETATM   11  C14 UNL     1      10.938  -9.245 -11.207  1.00  0.00     0.036 C 
ENDROOT
BRANCH   1  12
HETATM   12  N2  UNL     1       9.866  -7.088 -10.711  1.00  0.00    -0.334 N 
HETATM   13  C4  UNL     1       9.771  -5.684 -10.668  1.00  0.00     0.317 C 
HETATM   14  N1  UNL     1       8.517  -5.040 -10.720  1.00  0.00    -0.339 N 
HETATM   15  O1  UNL     1      10.817  -5.008 -10.582  1.00  0.00    -0.247 OA
ATOM     16  H1  UNL     1       7.669  -5.603 -10.789  1.00  0.00     0.164 HD
ATOM     17  H2  UNL     1       8.997  -7.617 -10.782  1.00  0.00     0.165 HD
BRANCH  14  18
HETATM   18  C2  UNL     1       8.408  -3.591 -10.676  1.00  0.00     0.078 C 
HETATM   19  C1  UNL     1       7.643  -3.137  -9.478  1.00  0.00     0.032 C 
HETATM   20  C3  UNL     1       7.677  -3.174 -11.937  1.00  0.00     0.032 C 
ENDBRANCH  14  18
ENDBRANCH   1  12
TORSDOF 2
ENDMDL
MODEL 3
REMARK VINA RESULT: -5.090418836      1.489      2.443
REMARK  2 active torsions:
REMARK  status: ('A' for Active; 'I' for Inactive)
REMARK    1  A    between atoms: C2_2  and  N1_4 
REMARK       I    between atoms: N1_4  and  C4_6 
REMARK       I    between atoms: C4_6  and  N2_8 
REMARK    2  A    between atoms: N2_8  and  C5_10 
ROOT
HETATM    1  C5  UNL     1      12.253  -7.140 -10.605  1.00  0.00     0.038 C 
HETATM    2  C6  UNL     1      11.520  -8.309 -11.220  1.00  0.00     0.036 C 
HETATM    3  C7  UNL     1      12.298  -9.574 -10.968  1.00  0.00    -0.009 C 
HETATM    4  C8  UNL     1      12.554  -9.841  -9.522  1.00  0.00     0.009 C 
HETATM    5  C9  UNL     1      13.285  -8.633  -8.932  1.00  0.00    -0.009 C 
HETATM    6  C10 UNL     1      14.623  -8.526  -9.589  1.00  0.00     0.048 C 
HETATM    7  C11 UNL     1      14.407  -8.354 -11.070  1.00  0.00     0.106 C 
HETATM    8  F1  UNL     1      15.621  -8.213 -11.685  1.00  0.00    -0.243 F 
HETATM    9  C12 UNL     1      13.627  -9.499 -11.678  1.00  0.00     0.048 C 
HETATM   10  C13 UNL     1      13.623  -7.100 -11.286  1.00  0.00     0.074 C 
HETATM   11  C14 UNL     1      12.409  -7.431  -9.122  1.00  0.00     0.036 C 
ENDROOT
BRANCH   1  12
HETATM   12  N2  UNL     1      11.606  -5.875 -10.849  1.00  0.00    -0.334 N 
HETATM   13  C4  UNL     1      10.222  -5.641 -10.734  1.00  0.00     0.317 C 
HETATM   14  N1  UNL     1       9.678  -4.367 -10.996  1.00  0.00    -0.339 N 
HETATM   15  O1  UNL     1       9.474  -6.582 -10.395  1.00  0.00    -0.247 OA
ATOM     16  H1  UNL     1      10.299  -3.606 -11.273  1.00  0.00     0.164 HD
ATOM     17  H2  UNL     1      12.195  -5.090 -11.126  1.00  0.00     0.165 HD
BRANCH  14  18
HETATM   18  C2  UNL     1       8.251  -4.114 -10.879  1.00  0.00     0.078 C 
HETATM   19  C1  UNL     1       7.721  -3.413 -12.085  1.00  0.00     0.032 C 
HETATM   20  C3  UNL     1       8.065  -3.238  -9.657  1.00  0.00     0.032 C 
ENDBRANCH  14  18
ENDBRANCH   1  12
TORSDOF 2
ENDMDL
MODEL 4
REMARK VINA RESULT: -5.015690645      4.403      6.221
REMARK  2 active torsions:
REMARK  status: ('A' for Active; 'I' for Inactive)
REMARK    1  A    between atoms: C2_2  and  N1_4 
REMARK       I    between atoms: N1_4  and  C4_6 
REMARK       I    between atoms: C4_6  and  N2_8 
REMARK    2  A    between atoms: N2_8  and  C5_10 
ROOT
HETATM    1  C5  UNL     1       8.761  -3.749 -13.321  1.00  0.00     0.038 C 
HETATM    2  C6  UNL     1      10.213  -3.775 -13.736  1.00  0.00     0.036 C 
HETATM    3  C7  UNL     1      10.859  -5.031 -13.213  1.00  0.00    -0.009 C 
HETATM    4  C8  UNL     1      10.183  -6.283 -13.660  1.00  0.00     0.009 C 
HETATM    5  C9  UNL     1       8.715  -6.216 -13.234  1.00  0.00    -0.009 C 
HETATM    6  C10 UNL     1       8.659  -6.212 -11.740  1.00  0.00     0.048 C 
HETATM    7  C11 UNL     1       9.420  -5.008 -11.245  1.00  0.00     0.106 C 
HETATM    8  F1  UNL     1       9.346  -4.965  -9.880  1.00  0.00    -0.243 F 
HETATM    9  C12 UNL     1      10.862  -5.007 -11.705  1.00  0.00     0.048 C 
HETATM   10  C13 UNL     1       8.764  -3.783 -11.791  1.00  0.00     0.074 C 
HETATM   11  C14 UNL     1       8.107  -5.004 -13.875  1.00  0.00     0.036 C 
ENDROOT
BRANCH   1  12
HETATM   12  N2  UNL     1       8.077  -2.549 -13.732  1.00  0.00    -0.334 N 
HETATM   13  C4  UNL     1       7.983  -2.088 -15.059  1.00  0.00     0.317 C 
HETATM   14  N1  UNL     1       7.291  -0.897 -15.365  1.00  0.00    -0.339 N 
HETATM   15  O1  UNL     1       8.522  -2.749 -15.970  1.00  0.00    -0.247 OA
ATOM     16  H1  UNL     1       6.855  -0.365 -14.612  1.00  0.00     0.164 HD
ATOM     17  H2  UNL     1       7.626  -1.992 -13.006  1.00  0.00     0.165 HD
BRANCH  14  18
HETATM   18  C2  UNL     1       7.188  -0.412 -16.731  1.00  0.00     0.078 C 
HETATM   19  C1  UNL     1       7.143   1.079 -16.779  1.00  0.00     0.032 C 
HETATM   20  C3  UNL     1       5.901  -0.979 -17.296  1.00  0.00     0.032 C 
ENDBRANCH  14  18
ENDBRANCH   1  12
TORSDOF 2
ENDMDL
MODEL 5
REMARK VINA RESULT: -5.000708943      1.497      2.361
REMARK  2 active torsions:
REMARK  status: ('A' for Active; 'I' for Inactive)
REMARK    1  A    between atoms: C2_2  and  N1_4 
REMARK       I    between atoms: N1_4  and  C4_6 
REMARK       I    between atoms: C4_6  and  N2_8 
REMARK    2  A    between atoms: N2_8  and  C5_10 
ROOT
HETATM    1  C5  UNL     1      12.445  -7.216 -11.071  1.00  0.00     0.038 C 
HETATM    2  C6  UNL     1      13.894  -7.185 -11.499  1.00  0.00     0.036 C 
HETATM    3  C7  UNL     1      14.562  -8.471 -11.090  1.00  0.00    -0.009 C 
HETATM    4  C8  UNL     1      13.899  -9.690 -11.637  1.00  0.00     0.009 C 
HETATM    5  C9  UNL     1      12.435  -9.682 -11.194  1.00  0.00    -0.009 C 
HETATM    6  C10 UNL     1      12.393  -9.805  -9.705  1.00  0.00     0.048 C 
HETATM    7  C11 UNL     1      13.142  -8.637  -9.115  1.00  0.00     0.106 C 
HETATM    8  F1  UNL     1      13.080  -8.711  -7.751  1.00  0.00    -0.243 F 
HETATM    9  C12 UNL     1      14.579  -8.575  -9.586  1.00  0.00     0.048 C 
HETATM   10  C13 UNL     1      12.463  -7.380  -9.549  1.00  0.00     0.074 C 
HETATM   11  C14 UNL     1      11.804  -8.429 -11.725  1.00  0.00     0.036 C 
ENDROOT
BRANCH   1  12
HETATM   12  N2  UNL     1      11.740  -5.996 -11.372  1.00  0.00    -0.334 N 
HETATM   13  C4  UNL     1      10.395  -5.737 -11.041  1.00  0.00     0.317 C 
HETATM   14  N1  UNL     1       9.788  -4.510 -11.381  1.00  0.00    -0.339 N 
HETATM   15  O1  UNL     1       9.740  -6.613 -10.440  1.00  0.00    -0.247 OA
ATOM     16  H1  UNL     1      10.334  -3.803 -11.873  1.00  0.00     0.164 HD
ATOM     17  H2  UNL     1      12.254  -5.264 -11.862  1.00  0.00     0.165 HD
BRANCH  14  18
HETATM   18  C2  UNL     1       8.402  -4.233 -11.044  1.00  0.00     0.078 C 
HETATM   19  C1  UNL     1       7.717  -3.477 -12.132  1.00  0.00     0.032 C 
HETATM   20  C3  UNL     1       8.422  -3.400  -9.778  1.00  0.00     0.032 C 
ENDBRANCH  14  18
ENDBRANCH   1  12
TORSDOF 2
ENDMDL
