MODEL 1
REMARK VINA RESULT: -7.428528140      0.000      0.000
REMARK  9 active torsions:
REMARK  status: ('A' for Active; 'I' for Inactive)
REMARK    1  A    between atoms: O1_2  and  C2_3 
REMARK    2  A    between atoms: C12_14  and  C13_15 
REMARK    3  A    between atoms: C13_15  and  C14_16 
REMARK    4  A    between atoms: C17_20  and  C18_21 
REMARK    5  A    between atoms: C18_21  and  O4_22 
REMARK    6  A    between atoms: C18_21  and  C19_24 
REMARK    7  A    between atoms: C18_21  and  C20_27 
REMARK    8  A    between atoms: C19_24  and  O5_25 
REMARK    9  A    between atoms: C20_27  and  C21_28 
ROOT
HETATM    1  C14 UNL     1     -24.896 -17.456 -42.531  1.00  0.00    -0.007 C 
HETATM    2  C15 UNL     1     -24.200 -18.761 -42.285  1.00  0.00     0.031 C 
HETATM    3  C16 UNL     1     -24.157 -19.509 -43.613  1.00  0.00     0.168 C 
HETATM    4  O3  UNL     1     -24.460 -18.637 -44.674  1.00  0.00    -0.383 OA
HETATM    5  C17 UNL     1     -23.628 -17.537 -44.602  1.00  0.00     0.158 C 
HETATM    6  C25 UNL     1     -24.071 -16.623 -43.456  1.00  0.00     0.040 C 
ENDROOT
BRANCH   1   7
HETATM    7  C13 UNL     1     -25.247 -16.748 -41.226  1.00  0.00     0.032 C 
BRANCH   7   8
HETATM    8  C12 UNL     1     -26.491 -16.006 -41.307  1.00  0.00    -0.021 C 
HETATM    9  C11 UNL     1     -27.731 -16.242 -41.037  1.00  0.00    -0.050 C 
HETATM   10  C8  UNL     1     -28.437 -17.413 -40.510  1.00  0.00     0.078 C 
HETATM   11  C26 UNL     1     -28.717 -15.074 -41.298  1.00  0.00     0.047 C 
HETATM   12  O2  UNL     1     -29.537 -17.818 -41.254  1.00  0.00    -0.365 OA
HETATM   13  C9  UNL     1     -28.842 -17.072 -39.077  1.00  0.00     0.051 C 
HETATM   14  C10 UNL     1     -27.578 -18.650 -40.393  1.00  0.00     0.051 C 
HETATM   15  C6  UNL     1     -30.372 -16.889 -41.750  1.00  0.00     0.065 C 
HETATM   16  C5  UNL     1     -31.065 -17.504 -42.978  1.00  0.00     0.038 C 
HETATM   17  C7  UNL     1     -31.490 -16.613 -40.766  1.00  0.00     0.046 C 
HETATM   18  C27 UNL     1     -29.719 -15.629 -42.251  1.00  0.00     0.053 C 
HETATM   19  C4  UNL     1     -31.316 -16.514 -44.052  1.00  0.00     0.006 C 
HETATM   20  C3  UNL     1     -31.720 -15.153 -43.590  1.00  0.00     0.032 C 
HETATM   21  C2  UNL     1     -30.816 -14.616 -42.500  1.00  0.00     0.128 C 
BRANCH  21  22
HETATM   22  O1  UNL     1     -30.330 -13.355 -42.774  1.00  0.00    -0.390 OA
HETATM   23  C1  UNL     1     -31.373 -12.484 -43.166  1.00  0.00     0.202 C 
ENDBRANCH  21  22
ENDBRANCH   7   8
ENDBRANCH   1   7
BRANCH   5  24
HETATM   24  C18 UNL     1     -23.511 -16.745 -45.855  1.00  0.00     0.108 C 
BRANCH  24  25
HETATM   25  O4  UNL     1     -22.265 -16.089 -45.918  1.00  0.00    -0.385 OA
ATOM     26  H4  UNL     1     -22.326 -15.296 -46.437  1.00  0.00     0.210 HD
ENDBRANCH  24  25
BRANCH  24  27
HETATM   27  C19 UNL     1     -23.498 -17.746 -47.010  1.00  0.00     0.204 C 
BRANCH  27  28
HETATM   28  O5  UNL     1     -22.412 -17.568 -47.844  1.00  0.00    -0.398 OA
ATOM     29  H5  UNL     1     -21.951 -18.381 -48.014  1.00  0.00     0.209 HD
ENDBRANCH  27  28
ENDBRANCH  24  27
BRANCH  24  30
HETATM   30  C20 UNL     1     -24.629 -15.785 -46.060  1.00  0.00     0.070 C 
BRANCH  30  31
HETATM   31  C21 UNL     1     -25.672 -16.214 -47.012  1.00  0.00    -0.022 C 
HETATM   32  C22 UNL     1     -26.931 -16.459 -46.624  1.00  0.00    -0.091 C 
HETATM   33  C23 UNL     1     -27.968 -16.886 -47.574  1.00  0.00     0.042 C 
HETATM   34  C24 UNL     1     -27.313 -16.300 -45.178  1.00  0.00     0.042 C 
ENDBRANCH  30  31
ENDBRANCH  24  30
ENDBRANCH   5  24
TORSDOF 9
ENDMDL
MODEL 2
REMARK VINA RESULT: -7.241186064      3.349      6.530
REMARK  9 active torsions:
REMARK  status: ('A' for Active; 'I' for Inactive)
REMARK    1  A    between atoms: O1_2  and  C2_3 
REMARK    2  A    between atoms: C12_14  and  C13_15 
REMARK    3  A    between atoms: C13_15  and  C14_16 
REMARK    4  A    between atoms: C17_20  and  C18_21 
REMARK    5  A    between atoms: C18_21  and  O4_22 
REMARK    6  A    between atoms: C18_21  and  C19_24 
REMARK    7  A    between atoms: C18_21  and  C20_27 
REMARK    8  A    between atoms: C19_24  and  O5_25 
REMARK    9  A    between atoms: C20_27  and  C21_28 
ROOT
HETATM    1  C14 UNL     1     -25.171 -16.833 -46.546  1.00  0.00    -0.007 C 
HETATM    2  C15 UNL     1     -24.137 -17.321 -47.515  1.00  0.00     0.031 C 
HETATM    3  C16 UNL     1     -22.838 -17.502 -46.738  1.00  0.00     0.168 C 
HETATM    4  O3  UNL     1     -23.090 -17.488 -45.354  1.00  0.00    -0.383 OA
HETATM    5  C17 UNL     1     -24.071 -18.416 -45.068  1.00  0.00     0.158 C 
HETATM    6  C25 UNL     1     -25.435 -17.894 -45.529  1.00  0.00     0.040 C 
ENDROOT
BRANCH   1   7
HETATM    7  C13 UNL     1     -26.430 -16.348 -47.260  1.00  0.00     0.032 C 
BRANCH   7   8
HETATM    8  C12 UNL     1     -27.137 -17.418 -47.938  1.00  0.00    -0.021 C 
HETATM    9  C11 UNL     1     -28.169 -18.150 -47.688  1.00  0.00    -0.050 C 
HETATM   10  C8  UNL     1     -29.106 -18.214 -46.563  1.00  0.00     0.078 C 
HETATM   11  C26 UNL     1     -28.545 -19.188 -48.778  1.00  0.00     0.047 C 
HETATM   12  O2  UNL     1     -29.296 -19.481 -46.030  1.00  0.00    -0.365 OA
HETATM   13  C9  UNL     1     -30.426 -17.626 -47.057  1.00  0.00     0.051 C 
HETATM   14  C10 UNL     1     -28.711 -17.358 -45.383  1.00  0.00     0.051 C 
HETATM   15  C6  UNL     1     -29.411 -20.532 -46.859  1.00  0.00     0.065 C 
HETATM   16  C5  UNL     1     -28.984 -21.785 -46.075  1.00  0.00     0.038 C 
HETATM   17  C7  UNL     1     -30.867 -20.766 -47.208  1.00  0.00     0.046 C 
HETATM   18  C27 UNL     1     -28.523 -20.502 -48.074  1.00  0.00     0.053 C 
HETATM   19  C4  UNL     1     -28.277 -22.778 -46.918  1.00  0.00     0.006 C 
HETATM   20  C3  UNL     1     -28.801 -22.929 -48.308  1.00  0.00     0.032 C 
HETATM   21  C2  UNL     1     -28.991 -21.598 -49.006  1.00  0.00     0.128 C 
BRANCH  21  22
HETATM   22  O1  UNL     1     -28.383 -21.547 -50.243  1.00  0.00    -0.390 OA
HETATM   23  C1  UNL     1     -28.382 -22.819 -50.861  1.00  0.00     0.202 C 
ENDBRANCH  21  22
ENDBRANCH   7   8
ENDBRANCH   1   7
BRANCH   5  24
HETATM   24  C18 UNL     1     -24.153 -18.836 -43.644  1.00  0.00     0.108 C 
BRANCH  24  25
HETATM   25  O4  UNL     1     -25.386 -19.466 -43.378  1.00  0.00    -0.385 OA
ATOM     26  H4  UNL     1     -25.337 -19.983 -42.583  1.00  0.00     0.210 HD
ENDBRANCH  24  25
BRANCH  24  27
HETATM   27  C19 UNL     1     -23.096 -19.921 -43.442  1.00  0.00     0.204 C 
BRANCH  27  28
HETATM   28  O5  UNL     1     -22.416 -20.212 -44.608  1.00  0.00    -0.398 OA
ATOM     29  H5  UNL     1     -22.116 -21.113 -44.635  1.00  0.00     0.209 HD
ENDBRANCH  27  28
ENDBRANCH  24  27
BRANCH  24  30
HETATM   30  C20 UNL     1     -23.902 -17.730 -42.682  1.00  0.00     0.070 C 
BRANCH  30  31
HETATM   31  C21 UNL     1     -25.016 -17.414 -41.767  1.00  0.00    -0.022 C 
HETATM   32  C22 UNL     1     -25.814 -16.354 -41.959  1.00  0.00    -0.091 C 
HETATM   33  C23 UNL     1     -26.923 -16.040 -41.047  1.00  0.00     0.042 C 
HETATM   34  C24 UNL     1     -25.582 -15.447 -43.136  1.00  0.00     0.042 C 
ENDBRANCH  30  31
ENDBRANCH  24  30
ENDBRANCH   5  24
TORSDOF 9
ENDMDL
MODEL 3
REMARK VINA RESULT: -7.149625574      2.367      7.098
REMARK  9 active torsions:
REMARK  status: ('A' for Active; 'I' for Inactive)
REMARK    1  A    between atoms: O1_2  and  C2_3 
REMARK    2  A    between atoms: C12_14  and  C13_15 
REMARK    3  A    between atoms: C13_15  and  C14_16 
REMARK    4  A    between atoms: C17_20  and  C18_21 
REMARK    5  A    between atoms: C18_21  and  O4_22 
REMARK    6  A    between atoms: C18_21  and  C19_24 
REMARK    7  A    between atoms: C18_21  and  C20_27 
REMARK    8  A    between atoms: C19_24  and  O5_25 
REMARK    9  A    between atoms: C20_27  and  C21_28 
ROOT
HETATM    1  C14 UNL     1     -27.487 -19.413 -40.053  1.00  0.00    -0.007 C 
HETATM    2  C15 UNL     1     -27.670 -20.132 -38.750  1.00  0.00     0.031 C 
HETATM    3  C16 UNL     1     -27.754 -19.073 -37.656  1.00  0.00     0.168 C 
HETATM    4  O3  UNL     1     -27.970 -17.803 -38.222  1.00  0.00    -0.383 OA
HETATM    5  C17 UNL     1     -29.070 -17.865 -39.055  1.00  0.00     0.158 C 
HETATM    6  C25 UNL     1     -28.706 -18.603 -40.346  1.00  0.00     0.040 C 
ENDROOT
BRANCH   1   7
HETATM    7  C13 UNL     1     -27.109 -20.372 -41.178  1.00  0.00     0.032 C 
BRANCH   7   8
HETATM    8  C12 UNL     1     -26.864 -19.692 -42.435  1.00  0.00    -0.021 C 
HETATM    9  C11 UNL     1     -25.830 -19.441 -43.167  1.00  0.00    -0.050 C 
HETATM   10  C8  UNL     1     -24.404 -19.751 -43.030  1.00  0.00     0.078 C 
HETATM   11  C26 UNL     1     -26.101 -18.660 -44.479  1.00  0.00     0.047 C 
HETATM   12  O2  UNL     1     -23.552 -18.664 -43.173  1.00  0.00    -0.365 OA
HETATM   13  C9  UNL     1     -24.089 -20.832 -44.061  1.00  0.00     0.051 C 
HETATM   14  C10 UNL     1     -24.031 -20.356 -41.697  1.00  0.00     0.051 C 
HETATM   15  C6  UNL     1     -23.796 -17.761 -44.138  1.00  0.00     0.065 C 
HETATM   16  C5  UNL     1     -23.156 -16.434 -43.698  1.00  0.00     0.038 C 
HETATM   17  C7  UNL     1     -23.065 -18.146 -45.409  1.00  0.00     0.046 C 
HETATM   18  C27 UNL     1     -25.247 -17.443 -44.380  1.00  0.00     0.053 C 
HETATM   19  C4  UNL     1     -23.945 -15.250 -44.113  1.00  0.00     0.006 C 
HETATM   20  C3  UNL     1     -24.581 -15.343 -45.461  1.00  0.00     0.032 C 
HETATM   21  C2  UNL     1     -25.330 -16.644 -45.663  1.00  0.00     0.128 C 
BRANCH  21  22
HETATM   22  O1  UNL     1     -26.625 -16.459 -46.097  1.00  0.00    -0.390 OA
HETATM   23  C1  UNL     1     -26.696 -16.493 -47.509  1.00  0.00     0.202 C 
ENDBRANCH  21  22
ENDBRANCH   7   8
ENDBRANCH   1   7
BRANCH   5  24
HETATM   24  C18 UNL     1     -29.690 -16.555 -39.387  1.00  0.00     0.108 C 
BRANCH  24  25
HETATM   25  O4  UNL     1     -30.520 -16.668 -40.522  1.00  0.00    -0.385 OA
ATOM     26  H4  UNL     1     -30.012 -16.586 -41.320  1.00  0.00     0.210 HD
ENDBRANCH  24  25
BRANCH  24  27
HETATM   27  C19 UNL     1     -30.632 -16.207 -38.234  1.00  0.00     0.204 C 
BRANCH  27  28
HETATM   28  O5  UNL     1     -30.193 -16.717 -37.028  1.00  0.00    -0.398 OA
ATOM     29  H5  UNL     1     -30.831 -17.295 -36.628  1.00  0.00     0.209 HD
ENDBRANCH  27  28
ENDBRANCH  24  27
BRANCH  24  30
HETATM   30  C20 UNL     1     -28.704 -15.454 -39.555  1.00  0.00     0.070 C 
BRANCH  30  31
HETATM   31  C21 UNL     1     -28.567 -14.923 -40.925  1.00  0.00    -0.022 C 
HETATM   32  C22 UNL     1     -27.508 -15.209 -41.695  1.00  0.00    -0.091 C 
HETATM   33  C23 UNL     1     -27.373 -14.679 -43.059  1.00  0.00     0.042 C 
HETATM   34  C24 UNL     1     -26.415 -16.095 -41.165  1.00  0.00     0.042 C 
ENDBRANCH  30  31
ENDBRANCH  24  30
ENDBRANCH   5  24
TORSDOF 9
ENDMDL
MODEL 4
REMARK VINA RESULT: -7.104711862      3.642      5.345
REMARK  9 active torsions:
REMARK  status: ('A' for Active; 'I' for Inactive)
REMARK    1  A    between atoms: O1_2  and  C2_3 
REMARK    2  A    between atoms: C12_14  and  C13_15 
REMARK    3  A    between atoms: C13_15  and  C14_16 
REMARK    4  A    between atoms: C17_20  and  C18_21 
REMARK    5  A    between atoms: C18_21  and  O4_22 
REMARK    6  A    between atoms: C18_21  and  C19_24 
REMARK    7  A    between atoms: C18_21  and  C20_27 
REMARK    8  A    between atoms: C19_24  and  O5_25 
REMARK    9  A    between atoms: C20_27  and  C21_28 
ROOT
HETATM    1  C14 UNL     1     -24.902 -19.937 -43.940  1.00  0.00    -0.007 C 
HETATM    2  C15 UNL     1     -23.608 -20.164 -43.218  1.00  0.00     0.031 C 
HETATM    3  C16 UNL     1     -22.483 -19.819 -44.188  1.00  0.00     0.168 C 
HETATM    4  O3  UNL     1     -22.987 -19.100 -45.286  1.00  0.00    -0.383 OA
HETATM    5  C17 UNL     1     -23.705 -18.015 -44.821  1.00  0.00     0.158 C 
HETATM    6  C25 UNL     1     -25.047 -18.483 -44.251  1.00  0.00     0.040 C 
ENDROOT
BRANCH   1   7
HETATM    7  C13 UNL     1     -26.086 -20.515 -43.171  1.00  0.00     0.032 C 
BRANCH   7   8
HETATM    8  C12 UNL     1     -27.325 -20.461 -43.925  1.00  0.00    -0.021 C 
HETATM    9  C11 UNL     1     -27.959 -21.253 -44.723  1.00  0.00    -0.050 C 
HETATM   10  C8  UNL     1     -27.682 -22.601 -45.229  1.00  0.00     0.078 C 
HETATM   11  C26 UNL     1     -29.301 -20.717 -45.285  1.00  0.00     0.047 C 
HETATM   12  O2  UNL     1     -27.760 -22.736 -46.609  1.00  0.00    -0.365 OA
HETATM   13  C9  UNL     1     -28.664 -23.540 -44.532  1.00  0.00     0.051 C 
HETATM   14  C10 UNL     1     -26.312 -23.125 -44.870  1.00  0.00     0.051 C 
HETATM   15  C6  UNL     1     -28.756 -22.127 -47.273  1.00  0.00     0.065 C 
HETATM   16  C5  UNL     1     -28.277 -21.904 -48.718  1.00  0.00     0.038 C 
HETATM   17  C7  UNL     1     -29.947 -23.058 -47.395  1.00  0.00     0.046 C 
HETATM   18  C27 UNL     1     -29.139 -20.763 -46.765  1.00  0.00     0.053 C 
HETATM   19  C4  UNL     1     -28.782 -20.640 -49.302  1.00  0.00     0.006 C 
HETATM   20  C3  UNL     1     -30.182 -20.276 -48.933  1.00  0.00     0.032 C 
HETATM   21  C2  UNL     1     -30.435 -20.373 -47.443  1.00  0.00     0.128 C 
BRANCH  21  22
HETATM   22  O1  UNL     1     -30.993 -19.228 -46.915  1.00  0.00    -0.390 OA
HETATM   23  C1  UNL     1     -32.395 -19.218 -47.094  1.00  0.00     0.202 C 
ENDBRANCH  21  22
ENDBRANCH   7   8
ENDBRANCH   1   7
BRANCH   5  24
HETATM   24  C18 UNL     1     -23.936 -16.933 -45.814  1.00  0.00     0.108 C 
BRANCH  24  25
HETATM   25  O4  UNL     1     -22.949 -15.932 -45.702  1.00  0.00    -0.385 OA
ATOM     26  H4  UNL     1     -22.410 -15.900 -46.484  1.00  0.00     0.210 HD
ENDBRANCH  24  25
BRANCH  24  27
HETATM   27  C19 UNL     1     -23.726 -17.550 -47.197  1.00  0.00     0.204 C 
BRANCH  27  28
HETATM   28  O5  UNL     1     -22.396 -17.565 -47.566  1.00  0.00    -0.398 OA
ATOM     29  H5  UNL     1     -22.099 -18.435 -47.807  1.00  0.00     0.209 HD
ENDBRANCH  27  28
ENDBRANCH  24  27
BRANCH  24  30
HETATM   30  C20 UNL     1     -25.300 -16.345 -45.749  1.00  0.00     0.070 C 
BRANCH  30  31
HETATM   31  C21 UNL     1     -26.139 -16.544 -46.946  1.00  0.00    -0.022 C 
HETATM   32  C22 UNL     1     -27.449 -16.816 -46.859  1.00  0.00    -0.091 C 
HETATM   33  C23 UNL     1     -28.282 -17.014 -48.053  1.00  0.00     0.042 C 
HETATM   34  C24 UNL     1     -28.102 -16.926 -45.510  1.00  0.00     0.042 C 
ENDBRANCH  30  31
ENDBRANCH  24  30
ENDBRANCH   5  24
TORSDOF 9
ENDMDL
MODEL 5
REMARK VINA RESULT: -7.092720686      1.593      3.195
REMARK  9 active torsions:
REMARK  status: ('A' for Active; 'I' for Inactive)
REMARK    1  A    between atoms: O1_2  and  C2_3 
REMARK    2  A    between atoms: C12_14  and  C13_15 
REMARK    3  A    between atoms: C13_15  and  C14_16 
REMARK    4  A    between atoms: C17_20  and  C18_21 
REMARK    5  A    between atoms: C18_21  and  O4_22 
REMARK    6  A    between atoms: C18_21  and  C19_24 
REMARK    7  A    between atoms: C18_21  and  C20_27 
REMARK    8  A    between atoms: C19_24  and  O5_25 
REMARK    9  A    between atoms: C20_27  and  C21_28 
ROOT
HETATM    1  C14 UNL     1     -25.342 -17.143 -42.494  1.00  0.00    -0.007 C 
HETATM    2  C15 UNL     1     -24.573 -18.350 -42.050  1.00  0.00     0.031 C 
HETATM    3  C16 UNL     1     -24.342 -19.218 -43.282  1.00  0.00     0.168 C 
HETATM    4  O3  UNL     1     -24.607 -18.485 -44.452  1.00  0.00    -0.383 OA
HETATM    5  C17 UNL     1     -23.876 -17.314 -44.423  1.00  0.00     0.158 C 
HETATM    6  C25 UNL     1     -24.499 -16.335 -43.425  1.00  0.00     0.040 C 
ENDROOT
BRANCH   1   7
HETATM    7  C13 UNL     1     -25.875 -16.344 -41.308  1.00  0.00     0.032 C 
BRANCH   7   8
HETATM    8  C12 UNL     1     -27.181 -16.795 -40.868  1.00  0.00    -0.021 C 
HETATM    9  C11 UNL     1     -28.400 -16.402 -41.029  1.00  0.00    -0.050 C 
HETATM   10  C8  UNL     1     -29.005 -15.281 -41.755  1.00  0.00     0.078 C 
HETATM   11  C26 UNL     1     -29.488 -17.263 -40.338  1.00  0.00     0.047 C 
HETATM   12  O2  UNL     1     -29.886 -14.508 -41.011  1.00  0.00    -0.365 OA
HETATM   13  C9  UNL     1     -29.700 -15.876 -42.978  1.00  0.00     0.051 C 
HETATM   14  C10 UNL     1     -28.005 -14.295 -42.311  1.00  0.00     0.051 C 
HETATM   15  C6  UNL     1     -30.749 -15.113 -40.179  1.00  0.00     0.065 C 
HETATM   16  C5  UNL     1     -31.119 -14.100 -39.083  1.00  0.00     0.038 C 
HETATM   17  C7  UNL     1     -32.051 -15.403 -40.899  1.00  0.00     0.046 C 
HETATM   18  C27 UNL     1     -30.214 -16.315 -39.447  1.00  0.00     0.053 C 
HETATM   19  C4  UNL     1     -31.322 -14.734 -37.759  1.00  0.00     0.006 C 
HETATM   20  C3  UNL     1     -31.999 -16.064 -37.781  1.00  0.00     0.032 C 
HETATM   21  C2  UNL     1     -31.390 -17.010 -38.795  1.00  0.00     0.128 C 
BRANCH  21  22
HETATM   22  O1  UNL     1     -31.057 -18.236 -38.257  1.00  0.00    -0.390 OA
HETATM   23  C1  UNL     1     -31.689 -18.429 -37.007  1.00  0.00     0.202 C 
ENDBRANCH  21  22
ENDBRANCH   7   8
ENDBRANCH   1   7
BRANCH   5  24
HETATM   24  C18 UNL     1     -23.700 -16.642 -45.738  1.00  0.00     0.108 C 
BRANCH  24  25
HETATM   25  O4  UNL     1     -22.452 -15.988 -45.802  1.00  0.00    -0.385 OA
ATOM     26  H4  UNL     1     -21.824 -16.506 -46.291  1.00  0.00     0.210 HD
ENDBRANCH  24  25
BRANCH  24  27
HETATM   27  C19 UNL     1     -23.629 -17.746 -46.792  1.00  0.00     0.204 C 
BRANCH  27  28
HETATM   28  O5  UNL     1     -22.508 -17.636 -47.591  1.00  0.00    -0.398 OA
ATOM     29  H5  UNL     1     -22.694 -17.200 -48.414  1.00  0.00     0.209 HD
ENDBRANCH  27  28
ENDBRANCH  24  27
BRANCH  24  30
HETATM   30  C20 UNL     1     -24.807 -15.713 -46.085  1.00  0.00     0.070 C 
BRANCH  30  31
HETATM   31  C21 UNL     1     -25.722 -16.177 -47.145  1.00  0.00    -0.022 C 
HETATM   32  C22 UNL     1     -26.984 -16.548 -46.884  1.00  0.00    -0.091 C 
HETATM   33  C23 UNL     1     -27.893 -17.011 -47.941  1.00  0.00     0.042 C 
HETATM   34  C24 UNL     1     -27.501 -16.498 -45.473  1.00  0.00     0.042 C 
ENDBRANCH  30  31
ENDBRANCH  24  30
ENDBRANCH   5  24
TORSDOF 9
ENDMDL
