MODEL 1
REMARK VINA RESULT: -6.574368595      0.000      0.000
REMARK  2 active torsions:
REMARK  status: ('A' for Active; 'I' for Inactive)
REMARK    1  A    between atoms: O1_1  and  C1_3 
REMARK    2  A    between atoms: C1_3  and  C2_4 
ROOT
HETATM    1  C2  UNL     1      13.998  20.417  17.631  1.00  0.00     0.184 C 
HETATM    2  C3  UNL     1      14.427  20.003  16.226  1.00  0.00     0.044 C 
HETATM    3  C4  UNL     1      15.891  19.788  16.175  1.00  0.00     0.020 C 
HETATM    4  C5  UNL     1      16.389  18.898  15.091  1.00  0.00     0.007 C 
HETATM    5  C6  UNL     1      17.720  18.417  15.642  1.00  0.00     0.003 C 
HETATM    6  C7  UNL     1      17.712  18.746  17.130  1.00  0.00     0.035 C 
HETATM    7  C8  UNL     1      16.262  18.946  17.409  1.00  0.00     0.164 C 
HETATM    8  O2  UNL     1      15.968  19.732  18.497  1.00  0.00    -0.235 OA
HETATM    9  O3  UNL     1      14.656  19.752  18.622  1.00  0.00    -0.233 OA
ENDROOT
BRANCH   1  10
HETATM   10  C1  UNL     1      12.516  20.049  17.734  1.00  0.00     0.199 C 
BRANCH  10  11
HETATM   11  O1  UNL     1      11.802  21.201  18.075  1.00  0.00    -0.398 OA
ATOM     12  H1  UNL     1      10.899  21.082  17.804  1.00  0.00     0.209 HD
ENDBRANCH  10  11
ENDBRANCH   1  10
TORSDOF 2
ENDMDL
MODEL 2
REMARK VINA RESULT: -6.199783087      1.930      4.332
REMARK  2 active torsions:
REMARK  status: ('A' for Active; 'I' for Inactive)
REMARK    1  A    between atoms: O1_1  and  C1_3 
REMARK    2  A    between atoms: C1_3  and  C2_4 
ROOT
HETATM    1  C2  UNL     1      17.322  18.608  15.972  1.00  0.00     0.184 C 
HETATM    2  C3  UNL     1      16.092  19.337  15.441  1.00  0.00     0.044 C 
HETATM    3  C4  UNL     1      14.990  19.282  16.430  1.00  0.00     0.020 C 
HETATM    4  C5  UNL     1      13.957  20.348  16.326  1.00  0.00     0.007 C 
HETATM    5  C6  UNL     1      13.378  20.386  17.730  1.00  0.00     0.003 C 
HETATM    6  C7  UNL     1      14.359  19.633  18.619  1.00  0.00     0.035 C 
HETATM    7  C8  UNL     1      15.603  19.631  17.799  1.00  0.00     0.164 C 
HETATM    8  O2  UNL     1      16.496  18.624  18.074  1.00  0.00    -0.235 OA
HETATM    9  O3  UNL     1      17.547  18.810  17.301  1.00  0.00    -0.233 OA
ENDROOT
BRANCH   1  10
HETATM   10  C1  UNL     1      18.511  19.195  15.209  1.00  0.00     0.199 C 
BRANCH  10  11
HETATM   11  O1  UNL     1      19.306  18.139  14.756  1.00  0.00    -0.398 OA
ATOM     12  H1  UNL     1      20.031  18.502  14.261  1.00  0.00     0.209 HD
ENDBRANCH  10  11
ENDBRANCH   1  10
TORSDOF 2
ENDMDL
MODEL 3
REMARK VINA RESULT: -5.939126037      1.591      2.146
REMARK  2 active torsions:
REMARK  status: ('A' for Active; 'I' for Inactive)
REMARK    1  A    between atoms: O1_1  and  C1_3 
REMARK    2  A    between atoms: C1_3  and  C2_4 
ROOT
HETATM    1  C2  UNL     1      13.409  20.151  16.791  1.00  0.00     0.184 C 
HETATM    2  C3  UNL     1      14.153  19.855  18.089  1.00  0.00     0.044 C 
HETATM    3  C4  UNL     1      15.314  18.972  17.830  1.00  0.00     0.020 C 
HETATM    4  C5  UNL     1      16.415  19.020  18.830  1.00  0.00     0.007 C 
HETATM    5  C6  UNL     1      17.612  18.535  18.029  1.00  0.00     0.003 C 
HETATM    6  C7  UNL     1      17.206  18.613  16.563  1.00  0.00     0.035 C 
HETATM    7  C8  UNL     1      16.041  19.541  16.599  1.00  0.00     0.164 C 
HETATM    8  O2  UNL     1      15.154  19.424  15.556  1.00  0.00    -0.235 OA
HETATM    9  O3  UNL     1      14.230  20.350  15.723  1.00  0.00    -0.233 OA
ENDROOT
BRANCH   1  10
HETATM   10  C1  UNL     1      12.652  21.457  17.040  1.00  0.00     0.199 C 
BRANCH  10  11
HETATM   11  O1  UNL     1      11.815  21.275  18.145  1.00  0.00    -0.398 OA
ATOM     12  H1  UNL     1      11.988  21.972  18.767  1.00  0.00     0.209 HD
ENDBRANCH  10  11
ENDBRANCH   1  10
TORSDOF 2
ENDMDL
MODEL 4
REMARK VINA RESULT: -5.732670521      1.525      4.192
REMARK  2 active torsions:
REMARK  status: ('A' for Active; 'I' for Inactive)
REMARK    1  A    between atoms: O1_1  and  C1_3 
REMARK    2  A    between atoms: C1_3  and  C2_4 
ROOT
HETATM    1  C2  UNL     1      16.568  18.836  16.650  1.00  0.00     0.184 C 
HETATM    2  C3  UNL     1      15.635  19.709  15.816  1.00  0.00     0.044 C 
HETATM    3  C4  UNL     1      14.272  19.713  16.396  1.00  0.00     0.020 C 
HETATM    4  C5  UNL     1      13.414  20.880  16.055  1.00  0.00     0.007 C 
HETATM    5  C6  UNL     1      12.416  20.904  17.201  1.00  0.00     0.003 C 
HETATM    6  C7  UNL     1      12.996  20.014  18.292  1.00  0.00     0.035 C 
HETATM    7  C8  UNL     1      14.434  19.931  17.912  1.00  0.00     0.164 C 
HETATM    8  O2  UNL     1      15.110  18.828  18.375  1.00  0.00    -0.235 OA
HETATM    9  O3  UNL     1      16.366  18.949  17.993  1.00  0.00    -0.233 OA
ENDROOT
BRANCH   1  10
HETATM   10  C1  UNL     1      17.980  19.342  16.352  1.00  0.00     0.199 C 
BRANCH  10  11
HETATM   11  O1  UNL     1      18.628  18.389  15.560  1.00  0.00    -0.398 OA
ATOM     12  H1  UNL     1      18.441  17.528  15.917  1.00  0.00     0.209 HD
ENDBRANCH  10  11
ENDBRANCH   1  10
TORSDOF 2
ENDMDL
MODEL 5
REMARK VINA RESULT: -5.704543340      1.340      1.602
REMARK  2 active torsions:
REMARK  status: ('A' for Active; 'I' for Inactive)
REMARK    1  A    between atoms: O1_1  and  C1_3 
REMARK    2  A    between atoms: C1_3  and  C2_4 
ROOT
HETATM    1  C2  UNL     1      13.612  20.559  16.810  1.00  0.00     0.184 C 
HETATM    2  C3  UNL     1      14.737  19.897  16.020  1.00  0.00     0.044 C 
HETATM    3  C4  UNL     1      15.917  19.674  16.887  1.00  0.00     0.020 C 
HETATM    4  C5  UNL     1      16.855  18.600  16.460  1.00  0.00     0.007 C 
HETATM    5  C6  UNL     1      17.545  18.226  17.761  1.00  0.00     0.003 C 
HETATM    6  C7  UNL     1      16.700  18.820  18.880  1.00  0.00     0.035 C 
HETATM    7  C8  UNL     1      15.396  19.069  18.203  1.00  0.00     0.164 C 
HETATM    8  O2  UNL     1      14.606  20.040  18.771  1.00  0.00    -0.235 OA
HETATM    9  O3  UNL     1      13.484  20.085  18.081  1.00  0.00    -0.233 OA
ENDROOT
BRANCH   1  10
HETATM   10  C1  UNL     1      12.324  20.218  16.059  1.00  0.00     0.199 C 
BRANCH  10  11
HETATM   11  O1  UNL     1      11.960  21.327  15.289  1.00  0.00    -0.398 OA
ATOM     12  H1  UNL     1      11.310  21.824  15.772  1.00  0.00     0.209 HD
ENDBRANCH  10  11
ENDBRANCH   1  10
TORSDOF 2
ENDMDL
