MODEL 1
REMARK VINA RESULT: -5.253960174      0.000      0.000
REMARK  7 active torsions:
REMARK  status: ('A' for Active; 'I' for Inactive)
REMARK    1  A    between atoms: N1_1  and  C1_4 
REMARK    2  A    between atoms: C4_12  and  C5_13 
REMARK    3  A    between atoms: C5_13  and  O3_15 
REMARK    4  A    between atoms: O3_15  and  C6_16 
REMARK    5  A    between atoms: C6_16  and  C7_18 
REMARK    6  A    between atoms: C7_18  and  N4_19 
REMARK    7  A    between atoms: C7_18  and  N5_23 
ROOT
HETATM    1  C5  UNL     1      -5.466  12.689  12.748  1.00  0.00     0.306 C 
HETATM    2  O2  UNL     1      -5.787  12.937  13.938  1.00  0.00    -0.259 OA
ENDROOT
BRANCH   1   3
HETATM    3  C4  UNL     1      -4.462  11.650  12.497  1.00  0.00     0.099 A 
HETATM    4  C1  UNL     1      -3.168  11.756  12.939  1.00  0.00     0.120 A 
HETATM    5  N2  UNL     1      -2.319  10.743  12.657  1.00  0.00    -0.294 N 
HETATM    6  C2  UNL     1      -2.659   9.655  11.980  1.00  0.00     0.325 A 
ATOM      7  H2  UNL     1      -1.357  10.820  12.986  1.00  0.00     0.172 HD
HETATM    8  O1  UNL     1      -1.872   8.705  11.712  1.00  0.00    -0.247 OA
HETATM    9  N3  UNL     1      -3.923   9.531  11.537  1.00  0.00    -0.318 N 
HETATM   10  C3  UNL     1      -4.797  10.512  11.796  1.00  0.00     0.114 A 
ATOM     11  H3  UNL     1      -4.212   8.705  11.013  1.00  0.00     0.170 HD
BRANCH   4  12
HETATM   12  N1  UNL     1      -2.803  12.796  13.599  1.00  0.00    -0.384 N 
ATOM     13  H12 UNL     1      -2.919  13.722  13.188  1.00  0.00     0.157 HD
ATOM     14  H11 UNL     1      -2.396  12.737  14.532  1.00  0.00     0.157 HD
ENDBRANCH   4  12
ENDBRANCH   1   3
BRANCH   1  15
HETATM   15  O3  UNL     1      -6.069  13.404  11.731  1.00  0.00    -0.238 OA
BRANCH  15  16
HETATM   16  C6  UNL     1      -6.147  14.777  11.699  1.00  0.00     0.325 C 
HETATM   17  O4  UNL     1      -5.176  15.418  11.221  1.00  0.00    -0.260 OA
BRANCH  16  18
HETATM   18  C7  UNL     1      -7.301  15.568  12.189  1.00  0.00     0.476 C 
BRANCH  18  19
HETATM   19  N4  UNL     1      -8.462  15.470  11.389  1.00  0.00    -0.041 N 
ATOM     20  H43 UNL     1      -9.247  15.937  11.844  1.00  0.00     0.277 HD
ATOM     21  H42 UNL     1      -8.370  16.053  10.557  1.00  0.00     0.277 HD
ATOM     22  H41 UNL     1      -8.718  14.518  11.130  1.00  0.00     0.277 HD
ENDBRANCH  18  19
BRANCH  18  23
HETATM   23  N5  UNL     1      -7.603  15.148  13.540  1.00  0.00    -0.041 N 
ATOM     24  H53 UNL     1      -7.307  14.190  13.728  1.00  0.00     0.277 HD
ATOM     25  H52 UNL     1      -7.019  15.612  14.236  1.00  0.00     0.277 HD
ATOM     26  H51 UNL     1      -8.599  15.290  13.707  1.00  0.00     0.277 HD
ENDBRANCH  18  23
ENDBRANCH  16  18
ENDBRANCH  15  16
ENDBRANCH   1  15
TORSDOF 7
ENDMDL
MODEL 2
REMARK VINA RESULT: -5.037798170      1.687      2.032
REMARK  7 active torsions:
REMARK  status: ('A' for Active; 'I' for Inactive)
REMARK    1  A    between atoms: N1_1  and  C1_4 
REMARK    2  A    between atoms: C4_12  and  C5_13 
REMARK    3  A    between atoms: C5_13  and  O3_15 
REMARK    4  A    between atoms: O3_15  and  C6_16 
REMARK    5  A    between atoms: C6_16  and  C7_18 
REMARK    6  A    between atoms: C7_18  and  N4_19 
REMARK    7  A    between atoms: C7_18  and  N5_23 
ROOT
HETATM    1  C5  UNL     1      -5.669  13.728  13.210  1.00  0.00     0.306 C 
HETATM    2  O2  UNL     1      -4.888  14.456  13.875  1.00  0.00    -0.259 OA
ENDROOT
BRANCH   1   3
HETATM    3  C4  UNL     1      -5.266  12.346  12.929  1.00  0.00     0.099 A 
HETATM    4  C1  UNL     1      -5.229  11.835  11.656  1.00  0.00     0.120 A 
HETATM    5  N2  UNL     1      -4.844  10.549  11.503  1.00  0.00    -0.294 N 
HETATM    6  C2  UNL     1      -4.500   9.752  12.505  1.00  0.00     0.325 A 
ATOM      7  H2  UNL     1      -4.815  10.168  10.557  1.00  0.00     0.172 HD
HETATM    8  O1  UNL     1      -4.140   8.549  12.369  1.00  0.00    -0.247 OA
HETATM    9  N3  UNL     1      -4.530  10.233  13.761  1.00  0.00    -0.318 N 
HETATM   10  C3  UNL     1      -4.906  11.503  13.957  1.00  0.00     0.114 A 
ATOM     11  H3  UNL     1      -4.271   9.641  14.550  1.00  0.00     0.170 HD
BRANCH   4  12
HETATM   12  N1  UNL     1      -5.555  12.579  10.662  1.00  0.00    -0.384 N 
ATOM     13  H12 UNL     1      -5.578  12.186   9.721  1.00  0.00     0.157 HD
ATOM     14  H11 UNL     1      -5.797  13.564  10.771  1.00  0.00     0.157 HD
ENDBRANCH   4  12
ENDBRANCH   1   3
BRANCH   1  15
HETATM   15  O3  UNL     1      -6.867  14.258  12.774  1.00  0.00    -0.238 OA
BRANCH  15  16
HETATM   16  C6  UNL     1      -6.971  15.406  12.021  1.00  0.00     0.325 C 
HETATM   17  O4  UNL     1      -6.189  15.554  11.048  1.00  0.00    -0.260 OA
BRANCH  16  18
HETATM   18  C7  UNL     1      -7.948  16.493  12.273  1.00  0.00     0.476 C 
BRANCH  18  19
HETATM   19  N4  UNL     1      -9.139  16.399  11.518  1.00  0.00    -0.041 N 
ATOM     20  H43 UNL     1      -9.038  15.700  10.781  1.00  0.00     0.277 HD
ATOM     21  H42 UNL     1      -9.877  15.965  12.072  1.00  0.00     0.277 HD
ATOM     22  H41 UNL     1      -9.462  17.282  11.125  1.00  0.00     0.277 HD
ENDBRANCH  18  19
BRANCH  18  23
HETATM   23  N5  UNL     1      -8.265  16.506  13.684  1.00  0.00    -0.041 N 
ATOM     24  H53 UNL     1      -8.063  15.616  14.139  1.00  0.00     0.277 HD
ATOM     25  H52 UNL     1      -7.624  17.087  14.225  1.00  0.00     0.277 HD
ATOM     26  H51 UNL     1      -9.238  16.790  13.793  1.00  0.00     0.277 HD
ENDBRANCH  18  23
ENDBRANCH  16  18
ENDBRANCH  15  16
ENDBRANCH   1  15
TORSDOF 7
ENDMDL
MODEL 3
REMARK VINA RESULT: -5.032977697      2.228      5.884
REMARK  7 active torsions:
REMARK  status: ('A' for Active; 'I' for Inactive)
REMARK    1  A    between atoms: N1_1  and  C1_4 
REMARK    2  A    between atoms: C4_12  and  C5_13 
REMARK    3  A    between atoms: C5_13  and  O3_15 
REMARK    4  A    between atoms: O3_15  and  C6_16 
REMARK    5  A    between atoms: C6_16  and  C7_18 
REMARK    6  A    between atoms: C7_18  and  N4_19 
REMARK    7  A    between atoms: C7_18  and  N5_23 
ROOT
HETATM    1  C5  UNL     1      -4.525  11.579  11.799  1.00  0.00     0.306 C 
HETATM    2  O2  UNL     1      -3.295  11.774  11.617  1.00  0.00    -0.259 OA
ENDROOT
BRANCH   1   3
HETATM    3  C4  UNL     1      -5.359  12.713  12.207  1.00  0.00     0.099 A 
HETATM    4  C1  UNL     1      -5.710  12.934  13.515  1.00  0.00     0.120 A 
HETATM    5  N2  UNL     1      -6.482  14.009  13.788  1.00  0.00    -0.294 N 
HETATM    6  C2  UNL     1      -6.922  14.860  12.872  1.00  0.00     0.325 A 
ATOM      7  H2  UNL     1      -6.743  14.175  14.760  1.00  0.00     0.172 HD
HETATM    8  O1  UNL     1      -7.644  15.866  13.120  1.00  0.00    -0.247 OA
HETATM    9  N3  UNL     1      -6.590  14.661  11.584  1.00  0.00    -0.318 N 
HETATM   10  C3  UNL     1      -5.825  13.608  11.270  1.00  0.00     0.114 A 
ATOM     11  H3  UNL     1      -6.916  15.301  10.859  1.00  0.00     0.170 HD
BRANCH   4  12
HETATM   12  N1  UNL     1      -5.301  12.130  14.429  1.00  0.00    -0.384 N 
ATOM     13  H12 UNL     1      -5.335  12.416  15.407  1.00  0.00     0.157 HD
ATOM     14  H11 UNL     1      -4.938  11.200  14.217  1.00  0.00     0.157 HD
ENDBRANCH   4  12
ENDBRANCH   1   3
BRANCH   1  15
HETATM   15  O3  UNL     1      -5.033  10.309  11.607  1.00  0.00    -0.238 OA
BRANCH  15  16
HETATM   16  C6  UNL     1      -4.595   9.195  12.284  1.00  0.00     0.325 C 
HETATM   17  O4  UNL     1      -4.924   9.061  13.490  1.00  0.00    -0.260 OA
BRANCH  16  18
HETATM   18  C7  UNL     1      -3.753   8.126  11.693  1.00  0.00     0.476 C 
BRANCH  18  19
HETATM   19  N4  UNL     1      -4.426   7.290  10.774  1.00  0.00    -0.041 N 
ATOM     20  H43 UNL     1      -5.178   6.782  11.241  1.00  0.00     0.277 HD
ATOM     21  H42 UNL     1      -4.972   7.850  10.119  1.00  0.00     0.277 HD
ATOM     22  H41 UNL     1      -3.822   6.642  10.270  1.00  0.00     0.277 HD
ENDBRANCH  18  19
BRANCH  18  23
HETATM   23  N5  UNL     1      -2.616   8.744  11.047  1.00  0.00    -0.041 N 
ATOM     24  H53 UNL     1      -2.022   8.067  10.567  1.00  0.00     0.277 HD
ATOM     25  H52 UNL     1      -2.880   9.298  10.232  1.00  0.00     0.277 HD
ATOM     26  H51 UNL     1      -2.107   9.288  11.743  1.00  0.00     0.277 HD
ENDBRANCH  18  23
ENDBRANCH  16  18
ENDBRANCH  15  16
ENDBRANCH   1  15
TORSDOF 7
ENDMDL
MODEL 4
REMARK VINA RESULT: -5.015785429      2.395      3.229
REMARK  7 active torsions:
REMARK  status: ('A' for Active; 'I' for Inactive)
REMARK    1  A    between atoms: N1_1  and  C1_4 
REMARK    2  A    between atoms: C4_12  and  C5_13 
REMARK    3  A    between atoms: C5_13  and  O3_15 
REMARK    4  A    between atoms: O3_15  and  C6_16 
REMARK    5  A    between atoms: C6_16  and  C7_18 
REMARK    6  A    between atoms: C7_18  and  N4_19 
REMARK    7  A    between atoms: C7_18  and  N5_23 
ROOT
HETATM    1  C5  UNL     1      -5.276  15.301  11.762  1.00  0.00     0.306 C 
HETATM    2  O2  UNL     1      -4.277  16.064  11.761  1.00  0.00    -0.259 OA
ENDROOT
BRANCH   1   3
HETATM    3  C4  UNL     1      -5.180  14.025  12.479  1.00  0.00     0.099 A 
HETATM    4  C1  UNL     1      -5.422  12.820  11.869  1.00  0.00     0.120 A 
HETATM    5  N2  UNL     1      -5.306  11.700  12.617  1.00  0.00    -0.294 N 
HETATM    6  C2  UNL     1      -4.974  11.694  13.901  1.00  0.00     0.325 A 
ATOM      7  H2  UNL     1      -5.486  10.803  12.165  1.00  0.00     0.172 HD
HETATM    8  O1  UNL     1      -4.864  10.652  14.605  1.00  0.00    -0.247 OA
HETATM    9  N3  UNL     1      -4.733  12.865  14.517  1.00  0.00    -0.318 N 
HETATM   10  C3  UNL     1      -4.836  13.999  13.812  1.00  0.00     0.114 A 
ATOM     11  H3  UNL     1      -4.476  12.889  15.504  1.00  0.00     0.170 HD
BRANCH   4  12
HETATM   12  N1  UNL     1      -5.746  12.787  10.627  1.00  0.00    -0.384 N 
ATOM     13  H12 UNL     1      -5.854  13.659  10.110  1.00  0.00     0.157 HD
ATOM     14  H11 UNL     1      -5.903  11.913  10.125  1.00  0.00     0.157 HD
ENDBRANCH   4  12
ENDBRANCH   1   3
BRANCH   1  15
HETATM   15  O3  UNL     1      -6.418  15.695  11.092  1.00  0.00    -0.238 OA
BRANCH  15  16
HETATM   16  C6  UNL     1      -7.653  15.821  11.685  1.00  0.00     0.325 C 
HETATM   17  O4  UNL     1      -8.645  15.299  11.115  1.00  0.00    -0.260 OA
BRANCH  16  18
HETATM   18  C7  UNL     1      -7.907  16.534  12.960  1.00  0.00     0.476 C 
BRANCH  18  19
HETATM   19  N4  UNL     1      -9.030  17.391  12.940  1.00  0.00    -0.041 N 
ATOM     20  H43 UNL     1      -8.751  18.347  13.159  1.00  0.00     0.277 HD
ATOM     21  H42 UNL     1      -9.361  17.520  11.984  1.00  0.00     0.277 HD
ATOM     22  H41 UNL     1      -9.796  17.099  13.545  1.00  0.00     0.277 HD
ENDBRANCH  18  19
BRANCH  18  23
HETATM   23  N5  UNL     1      -8.062  15.552  14.011  1.00  0.00    -0.041 N 
ATOM     24  H53 UNL     1      -7.175  15.128  14.285  1.00  0.00     0.277 HD
ATOM     25  H52 UNL     1      -8.298  15.973  14.910  1.00  0.00     0.277 HD
ATOM     26  H51 UNL     1      -8.749  14.863  13.709  1.00  0.00     0.277 HD
ENDBRANCH  18  23
ENDBRANCH  16  18
ENDBRANCH  15  16
ENDBRANCH   1  15
TORSDOF 7
ENDMDL
MODEL 5
REMARK VINA RESULT: -4.934539572      1.910      6.217
REMARK  7 active torsions:
REMARK  status: ('A' for Active; 'I' for Inactive)
REMARK    1  A    between atoms: N1_1  and  C1_4 
REMARK    2  A    between atoms: C4_12  and  C5_13 
REMARK    3  A    between atoms: C5_13  and  O3_15 
REMARK    4  A    between atoms: O3_15  and  C6_16 
REMARK    5  A    between atoms: C6_16  and  C7_18 
REMARK    6  A    between atoms: C7_18  and  N4_19 
REMARK    7  A    between atoms: C7_18  and  N5_23 
ROOT
HETATM    1  C5  UNL     1      -5.940  14.056  11.703  1.00  0.00     0.306 C 
HETATM    2  O2  UNL     1      -5.456  14.155  10.546  1.00  0.00    -0.259 OA
ENDROOT
BRANCH   1   3
HETATM    3  C4  UNL     1      -6.762  15.157  12.214  1.00  0.00     0.099 A 
HETATM    4  C1  UNL     1      -6.456  15.826  13.373  1.00  0.00     0.120 A 
HETATM    5  N2  UNL     1      -7.277  16.828  13.758  1.00  0.00    -0.294 N 
HETATM    6  C2  UNL     1      -8.357  17.204  13.088  1.00  0.00     0.325 A 
ATOM      7  H2  UNL     1      -7.051  17.326  14.619  1.00  0.00     0.172 HD
HETATM    8  O1  UNL     1      -9.128  18.138  13.442  1.00  0.00    -0.247 OA
HETATM    9  N3  UNL     1      -8.674  16.561  11.949  1.00  0.00    -0.318 N 
HETATM   10  C3  UNL     1      -7.887  15.562  11.531  1.00  0.00     0.114 A 
ATOM     11  H3  UNL     1      -9.500  16.830  11.414  1.00  0.00     0.170 HD
BRANCH   4  12
HETATM   12  N1  UNL     1      -5.417  15.489  14.047  1.00  0.00    -0.384 N 
ATOM     13  H12 UNL     1      -4.659  16.158  14.177  1.00  0.00     0.157 HD
ATOM     14  H11 UNL     1      -5.314  14.566  14.469  1.00  0.00     0.157 HD
ENDBRANCH   4  12
ENDBRANCH   1   3
BRANCH   1  15
HETATM   15  O3  UNL     1      -5.678  12.917  12.440  1.00  0.00    -0.238 OA
BRANCH  15  16
HETATM   16  C6  UNL     1      -4.412  12.451  12.709  1.00  0.00     0.325 C 
HETATM   17  O4  UNL     1      -3.552  13.266  13.131  1.00  0.00    -0.260 OA
BRANCH  16  18
HETATM   18  C7  UNL     1      -3.978  11.043  12.538  1.00  0.00     0.476 C 
BRANCH  18  19
HETATM   19  N4  UNL     1      -4.840  10.256  11.741  1.00  0.00    -0.041 N 
ATOM     20  H43 UNL     1      -5.796  10.310  12.092  1.00  0.00     0.277 HD
ATOM     21  H42 UNL     1      -4.965  10.685  10.824  1.00  0.00     0.277 HD
ATOM     22  H41 UNL     1      -4.554   9.282  11.642  1.00  0.00     0.277 HD
ENDBRANCH  18  19
BRANCH  18  23
HETATM   23  N5  UNL     1      -2.649  11.039  11.968  1.00  0.00    -0.041 N 
ATOM     24  H53 UNL     1      -1.994  10.468  12.503  1.00  0.00     0.277 HD
ATOM     25  H52 UNL     1      -2.599  10.520  11.091  1.00  0.00     0.277 HD
ATOM     26  H51 UNL     1      -2.337  12.005  11.869  1.00  0.00     0.277 HD
ENDBRANCH  18  23
ENDBRANCH  16  18
ENDBRANCH  15  16
ENDBRANCH   1  15
TORSDOF 7
ENDMDL
