MODEL 1
REMARK VINA RESULT: -8.948907400      0.000      0.000
REMARK  8 active torsions:
REMARK  status: ('A' for Active; 'I' for Inactive)
REMARK    1  A    between atoms: C5_7  and  N2_8 
REMARK    2  A    between atoms: N2_8  and  C6_9 
REMARK    3  A    between atoms: C12_20  and  N4_21 
REMARK    4  A    between atoms: N4_21  and  C13_23 
REMARK    5  A    between atoms: C13_23  and  C14_24 
REMARK    6  A    between atoms: C16_26  and  O1_27 
REMARK    7  A    between atoms: C17_29  and  O2_30 
REMARK    8  A    between atoms: C18_32  and  C19_33 
ROOT
HETATM    1  C1  UNL     1       1.495  -5.458 -14.479  1.00  0.00     0.091 C 
HETATM    2  C2  UNL     1       1.460  -6.917 -14.206  1.00  0.00     0.100 A 
HETATM    3  N1  UNL     1       1.263  -7.530 -13.025  1.00  0.00    -0.352 N 
ATOM      4  H1  UNL     1       1.107  -7.052 -12.138  1.00  0.00     0.166 HD
HETATM    5  C3  UNL     1       1.303  -8.871 -13.183  1.00  0.00     0.126 A 
HETATM    6  C4  UNL     1       1.533  -9.096 -14.521  1.00  0.00     0.132 A 
HETATM    7  C5  UNL     1       1.664 -10.322 -15.197  1.00  0.00     0.224 A 
HETATM    8  N3  UNL     1       1.898 -10.202 -16.543  1.00  0.00    -0.160 N 
ATOM      9  H3  UNL     1       2.005 -11.052 -17.096  1.00  0.00     0.187 HD
HETATM   10  C12 UNL     1       1.995  -9.008 -17.170  1.00  0.00     0.699 A 
HETATM   11  N5  UNL     1       1.852  -7.898 -16.425  1.00  0.00    -0.123 N 
ATOM     12  H5  UNL     1       1.923  -6.993 -16.891  1.00  0.00     0.206 HD
HETATM   13  N6  UNL     1       1.624  -7.911 -15.109  1.00  0.00    -0.224 N 
ENDROOT
BRANCH  10  14
HETATM   14  N4  UNL     1       2.205  -9.009 -18.405  1.00  0.00    -0.200 N 
ATOM     15  H4  UNL     1       1.537  -8.414 -18.895  1.00  0.00     0.183 HD
BRANCH  14  16
HETATM   16  C13 UNL     1       3.100  -9.601 -19.292  1.00  0.00     0.117 C 
BRANCH  16  17
HETATM   17  C14 UNL     1       2.479 -10.552 -20.258  1.00  0.00    -0.017 A 
HETATM   18  C15 UNL     1       2.177 -10.216 -21.551  1.00  0.00     0.052 A 
HETATM   19  C16 UNL     1       1.586 -11.096 -22.445  1.00  0.00     0.100 A 
HETATM   20  C17 UNL     1       1.285 -12.367 -22.026  1.00  0.00     0.105 A 
HETATM   21  C18 UNL     1       1.569 -12.750 -20.745  1.00  0.00    -0.018 A 
HETATM   22  C22 UNL     1       2.163 -11.855 -19.855  1.00  0.00     0.023 A 
BRANCH  19  23
HETATM   23  O1  UNL     1       1.290 -10.716 -23.768  1.00  0.00    -0.358 OA
ATOM     24  H1  UNL     1       0.512 -10.212 -23.979  1.00  0.00     0.217 HD
ENDBRANCH  19  23
BRANCH  20  25
HETATM   25  O2  UNL     1       0.689 -13.245 -22.941  1.00  0.00    -0.357 OA
ATOM     26  H2  UNL     1       0.050 -12.896 -23.551  1.00  0.00     0.217 HD
ENDBRANCH  20  25
BRANCH  21  27
HETATM   27  C19 UNL     1       1.243 -14.116 -20.300  1.00  0.00     0.013 C 
HETATM   28  C20 UNL     1       2.457 -14.883 -19.799  1.00  0.00     0.015 C 
HETATM   29  C21 UNL     1       0.090 -14.187 -19.331  1.00  0.00     0.015 C 
ENDBRANCH  21  27
ENDBRANCH  16  17
ENDBRANCH  14  16
ENDBRANCH  10  14
BRANCH   7  30
HETATM   30  N2  UNL     1       1.577 -11.359 -14.623  1.00  0.00    -0.381 NA
BRANCH  30  31
HETATM   31  C6  UNL     1       1.487 -12.505 -14.008  1.00  0.00     0.153 A 
HETATM   32  C7  UNL     1       1.774 -13.703 -14.651  1.00  0.00     0.078 A 
HETATM   33 CL1  UNL     1       2.290 -13.663 -16.353  1.00  0.00    -0.081 Cl
HETATM   34  C8  UNL     1       1.685 -14.917 -14.055  1.00  0.00     0.051 A 
HETATM   35  C9  UNL     1       1.293 -14.989 -12.749  1.00  0.00     0.037 A 
HETATM   36 CL2  UNL     1       1.168 -16.545 -11.929  1.00  0.00    -0.084 Cl
HETATM   37  C10 UNL     1       0.998 -13.855 -12.056  1.00  0.00     0.051 A 
HETATM   38  C11 UNL     1       1.088 -12.620 -12.661  1.00  0.00     0.078 A 
HETATM   39 CL3  UNL     1       0.691 -11.212 -11.720  1.00  0.00    -0.081 Cl
ENDBRANCH  30  31
ENDBRANCH   7  30
TORSDOF 8
ENDMDL
MODEL 2
REMARK VINA RESULT: -8.941769727      2.608      5.637
REMARK  8 active torsions:
REMARK  status: ('A' for Active; 'I' for Inactive)
REMARK    1  A    between atoms: C5_7  and  N2_8 
REMARK    2  A    between atoms: N2_8  and  C6_9 
REMARK    3  A    between atoms: C12_20  and  N4_21 
REMARK    4  A    between atoms: N4_21  and  C13_23 
REMARK    5  A    between atoms: C13_23  and  C14_24 
REMARK    6  A    between atoms: C16_26  and  O1_27 
REMARK    7  A    between atoms: C17_29  and  O2_30 
REMARK    8  A    between atoms: C18_32  and  C19_33 
ROOT
HETATM    1  C1  UNL     1       1.734 -16.646 -12.394  1.00  0.00     0.091 C 
HETATM    2  C2  UNL     1       1.763 -15.213 -12.780  1.00  0.00     0.100 A 
HETATM    3  N1  UNL     1       2.380 -14.200 -12.145  1.00  0.00    -0.352 N 
ATOM      4  H1  UNL     1       2.926 -14.295 -11.289  1.00  0.00     0.166 HD
HETATM    5  C3  UNL     1       2.173 -13.040 -12.805  1.00  0.00     0.126 A 
HETATM    6  C4  UNL     1       1.395 -13.350 -13.896  1.00  0.00     0.132 A 
HETATM    7  C5  UNL     1       0.900 -12.493 -14.896  1.00  0.00     0.224 A 
HETATM    8  N3  UNL     1       0.142 -13.120 -15.851  1.00  0.00    -0.160 N 
ATOM      9  H3  UNL     1      -0.250 -12.559 -16.607  1.00  0.00     0.187 HD
HETATM   10  C12 UNL     1      -0.110 -14.449 -15.837  1.00  0.00     0.699 A 
HETATM   11  N5  UNL     1       0.414 -15.173 -14.834  1.00  0.00    -0.123 N 
ATOM     12  H5  UNL     1       0.229 -16.176 -14.817  1.00  0.00     0.206 HD
HETATM   13  N6  UNL     1       1.163 -14.655 -13.857  1.00  0.00    -0.224 N 
ENDROOT
BRANCH  10  14
HETATM   14  N4  UNL     1      -0.811 -14.923 -16.762  1.00  0.00    -0.200 N 
ATOM     15  H4  UNL     1      -1.803 -14.750 -16.601  1.00  0.00     0.183 HD
BRANCH  14  16
HETATM   16  C13 UNL     1      -0.605 -15.621 -17.948  1.00  0.00     0.117 C 
BRANCH  16  17
HETATM   17  C14 UNL     1      -0.218 -14.771 -19.110  1.00  0.00    -0.017 A 
HETATM   18  C15 UNL     1       0.997 -14.148 -19.212  1.00  0.00     0.052 A 
HETATM   19  C16 UNL     1       1.350 -13.345 -20.286  1.00  0.00     0.100 A 
HETATM   20  C17 UNL     1       0.448 -13.159 -21.302  1.00  0.00     0.105 A 
HETATM   21  C18 UNL     1      -0.778 -13.761 -21.247  1.00  0.00    -0.018 A 
HETATM   22  C22 UNL     1      -1.122 -14.566 -20.161  1.00  0.00     0.023 A 
BRANCH  19  23
HETATM   23  O1  UNL     1       2.610 -12.720 -20.357  1.00  0.00    -0.358 OA
ATOM     24  H1  UNL     1       2.886 -12.081 -19.710  1.00  0.00     0.217 HD
ENDBRANCH  19  23
BRANCH  20  25
HETATM   25  O2  UNL     1       0.820 -12.345 -22.381  1.00  0.00    -0.357 OA
ATOM     26  H2  UNL     1       0.356 -12.448 -23.203  1.00  0.00     0.217 HD
ENDBRANCH  20  25
BRANCH  21  27
HETATM   27  C19 UNL     1      -1.744 -13.557 -22.340  1.00  0.00     0.013 C 
HETATM   28  C20 UNL     1      -2.241 -14.861 -22.945  1.00  0.00     0.015 C 
HETATM   29  C21 UNL     1      -2.878 -12.627 -21.992  1.00  0.00     0.015 C 
ENDBRANCH  21  27
ENDBRANCH  16  17
ENDBRANCH  14  16
ENDBRANCH  10  14
BRANCH   7  30
HETATM   30  N2  UNL     1       1.134 -11.328 -14.886  1.00  0.00    -0.381 NA
BRANCH  30  31
HETATM   31  C6  UNL     1       1.378 -10.048 -14.886  1.00  0.00     0.153 A 
HETATM   32  C7  UNL     1       1.697  -9.367 -16.055  1.00  0.00     0.078 A 
HETATM   33 CL1  UNL     1       1.760 -10.269 -17.587  1.00  0.00    -0.081 Cl
HETATM   34  C8  UNL     1       1.968  -8.040 -16.102  1.00  0.00     0.051 A 
HETATM   35  C9  UNL     1       1.930  -7.312 -14.946  1.00  0.00     0.037 A 
HETATM   36 CL2  UNL     1       2.270  -5.581 -14.958  1.00  0.00    -0.084 Cl
HETATM   37  C10 UNL     1       1.623  -7.914 -13.765  1.00  0.00     0.051 A 
HETATM   38  C11 UNL     1       1.347  -9.264 -13.716  1.00  0.00     0.078 A 
HETATM   39 CL3  UNL     1       0.967  -9.970 -12.173  1.00  0.00    -0.081 Cl
ENDBRANCH  30  31
ENDBRANCH   7  30
TORSDOF 8
ENDMDL
MODEL 3
REMARK VINA RESULT: -8.905168566      2.685      5.990
REMARK  8 active torsions:
REMARK  status: ('A' for Active; 'I' for Inactive)
REMARK    1  A    between atoms: C5_7  and  N2_8 
REMARK    2  A    between atoms: N2_8  and  C6_9 
REMARK    3  A    between atoms: C12_20  and  N4_21 
REMARK    4  A    between atoms: N4_21  and  C13_23 
REMARK    5  A    between atoms: C13_23  and  C14_24 
REMARK    6  A    between atoms: C16_26  and  O1_27 
REMARK    7  A    between atoms: C17_29  and  O2_30 
REMARK    8  A    between atoms: C18_32  and  C19_33 
ROOT
HETATM    1  C1  UNL     1       1.809 -16.829 -12.326  1.00  0.00     0.091 C 
HETATM    2  C2  UNL     1       1.830 -15.393 -12.700  1.00  0.00     0.100 A 
HETATM    3  N1  UNL     1       2.508 -14.395 -12.105  1.00  0.00    -0.352 N 
ATOM      4  H1  UNL     1       3.116 -14.506 -11.293  1.00  0.00     0.166 HD
HETATM    5  C3  UNL     1       2.268 -13.226 -12.735  1.00  0.00     0.126 A 
HETATM    6  C4  UNL     1       1.405 -13.513 -13.767  1.00  0.00     0.132 A 
HETATM    7  C5  UNL     1       0.848 -12.639 -14.717  1.00  0.00     0.224 A 
HETATM    8  N3  UNL     1       0.010 -13.245 -15.618  1.00  0.00    -0.160 N 
ATOM      9  H3  UNL     1      -0.431 -12.670 -16.336  1.00  0.00     0.187 HD
HETATM   10  C12 UNL     1      -0.260 -14.570 -15.598  1.00  0.00     0.699 A 
HETATM   11  N5  UNL     1       0.329 -15.312 -14.644  1.00  0.00    -0.123 N 
ATOM     12  H5  UNL     1       0.131 -16.313 -14.622  1.00  0.00     0.206 HD
HETATM   13  N6  UNL     1       1.158 -14.815 -13.723  1.00  0.00    -0.224 N 
ENDROOT
BRANCH  10  14
HETATM   14  N4  UNL     1      -1.036 -15.024 -16.470  1.00  0.00    -0.200 N 
ATOM     15  H4  UNL     1      -1.885 -14.464 -16.539  1.00  0.00     0.183 HD
BRANCH  14  16
HETATM   16  C13 UNL     1      -1.056 -16.084 -17.372  1.00  0.00     0.117 C 
BRANCH  16  17
HETATM   17  C14 UNL     1       0.016 -16.038 -18.408  1.00  0.00    -0.017 A 
HETATM   18  C15 UNL     1       0.889 -17.070 -18.630  1.00  0.00     0.052 A 
HETATM   19  C16 UNL     1       1.895 -17.020 -19.584  1.00  0.00     0.100 A 
HETATM   20  C17 UNL     1       2.031 -15.889 -20.347  1.00  0.00     0.105 A 
HETATM   21  C18 UNL     1       1.183 -14.833 -20.164  1.00  0.00    -0.018 A 
HETATM   22  C22 UNL     1       0.175 -14.895 -19.202  1.00  0.00     0.023 A 
BRANCH  19  23
HETATM   23  O1  UNL     1       2.774 -18.101 -19.785  1.00  0.00    -0.358 OA
ATOM     24  H1  UNL     1       3.717 -17.982 -19.780  1.00  0.00     0.217 HD
ENDBRANCH  19  23
BRANCH  20  25
HETATM   25  O2  UNL     1       3.052 -15.854 -21.307  1.00  0.00    -0.357 OA
ATOM     26  H2  UNL     1       3.796 -15.285 -21.153  1.00  0.00     0.217 HD
ENDBRANCH  20  25
BRANCH  21  27
HETATM   27  C19 UNL     1       1.334 -13.620 -20.987  1.00  0.00     0.013 C 
HETATM   28  C20 UNL     1       0.059 -13.239 -21.722  1.00  0.00     0.015 C 
HETATM   29  C21 UNL     1       1.933 -12.450 -20.250  1.00  0.00     0.015 C 
ENDBRANCH  21  27
ENDBRANCH  16  17
ENDBRANCH  14  16
ENDBRANCH  10  14
BRANCH   7  30
HETATM   30  N2  UNL     1       1.098 -11.477 -14.714  1.00  0.00    -0.381 NA
BRANCH  30  31
HETATM   31  C6  UNL     1       1.357 -10.200 -14.714  1.00  0.00     0.153 A 
HETATM   32  C7  UNL     1       1.681  -9.521 -15.882  1.00  0.00     0.078 A 
HETATM   33 CL1  UNL     1       1.730 -10.422 -17.415  1.00  0.00    -0.081 Cl
HETATM   34  C8  UNL     1       1.968  -8.197 -15.928  1.00  0.00     0.051 A 
HETATM   35  C9  UNL     1       1.941  -7.471 -14.772  1.00  0.00     0.037 A 
HETATM   36 CL2  UNL     1       2.300  -5.744 -14.782  1.00  0.00    -0.084 Cl
HETATM   37  C10 UNL     1       1.630  -8.070 -13.590  1.00  0.00     0.051 A 
HETATM   38  C11 UNL     1       1.338  -9.417 -13.542  1.00  0.00     0.078 A 
HETATM   39 CL3  UNL     1       0.954 -10.121 -11.999  1.00  0.00    -0.081 Cl
ENDBRANCH  30  31
ENDBRANCH   7  30
TORSDOF 8
ENDMDL
MODEL 4
REMARK VINA RESULT: -8.880515555      2.550      5.855
REMARK  8 active torsions:
REMARK  status: ('A' for Active; 'I' for Inactive)
REMARK    1  A    between atoms: C5_7  and  N2_8 
REMARK    2  A    between atoms: N2_8  and  C6_9 
REMARK    3  A    between atoms: C12_20  and  N4_21 
REMARK    4  A    between atoms: N4_21  and  C13_23 
REMARK    5  A    between atoms: C13_23  and  C14_24 
REMARK    6  A    between atoms: C16_26  and  O1_27 
REMARK    7  A    between atoms: C17_29  and  O2_30 
REMARK    8  A    between atoms: C18_32  and  C19_33 
ROOT
HETATM    1  C1  UNL     1       1.732 -16.707 -12.291  1.00  0.00     0.091 C 
HETATM    2  C2  UNL     1       1.764 -15.278 -12.694  1.00  0.00     0.100 A 
HETATM    3  N1  UNL     1       2.415 -14.266 -12.093  1.00  0.00    -0.352 N 
ATOM      4  H1  UNL     1       2.990 -14.358 -11.256  1.00  0.00     0.166 HD
HETATM    5  C3  UNL     1       2.198 -13.111 -12.757  1.00  0.00     0.126 A 
HETATM    6  C4  UNL     1       1.377 -13.423 -13.817  1.00  0.00     0.132 A 
HETATM    7  C5  UNL     1       0.856 -12.570 -14.807  1.00  0.00     0.224 A 
HETATM    8  N3  UNL     1       0.057 -13.198 -15.728  1.00  0.00    -0.160 N 
ATOM      9  H3  UNL     1      -0.355 -12.640 -16.474  1.00  0.00     0.187 HD
HETATM   10  C12 UNL     1      -0.210 -14.523 -15.690  1.00  0.00     0.699 A 
HETATM   11  N5  UNL     1       0.342 -15.243 -14.698  1.00  0.00    -0.123 N 
ATOM     12  H5  UNL     1       0.146 -16.244 -14.664  1.00  0.00     0.206 HD
HETATM   13  N6  UNL     1       1.132 -14.724 -13.755  1.00  0.00    -0.224 N 
ENDROOT
BRANCH  10  14
HETATM   14  N4  UNL     1      -0.949 -14.998 -16.584  1.00  0.00    -0.200 N 
ATOM     15  H4  UNL     1      -1.934 -14.836 -16.375  1.00  0.00     0.183 HD
BRANCH  14  16
HETATM   16  C13 UNL     1      -0.793 -15.687 -17.783  1.00  0.00     0.117 C 
BRANCH  16  17
HETATM   17  C14 UNL     1      -0.090 -14.921 -18.852  1.00  0.00    -0.017 A 
HETATM   18  C15 UNL     1       1.233 -14.574 -18.779  1.00  0.00     0.052 A 
HETATM   19  C16 UNL     1       1.882 -13.848 -19.767  1.00  0.00     0.100 A 
HETATM   20  C17 UNL     1       1.176 -13.455 -20.875  1.00  0.00     0.105 A 
HETATM   21  C18 UNL     1      -0.147 -13.778 -20.995  1.00  0.00    -0.018 A 
HETATM   22  C22 UNL     1      -0.788 -14.508 -19.994  1.00  0.00     0.023 A 
BRANCH  19  23
HETATM   23  O1  UNL     1       3.244 -13.509 -19.658  1.00  0.00    -0.358 OA
ATOM     24  H1  UNL     1       3.572 -12.667 -19.950  1.00  0.00     0.217 HD
ENDBRANCH  19  23
BRANCH  20  25
HETATM   25  O2  UNL     1       1.846 -12.723 -21.865  1.00  0.00    -0.357 OA
ATOM     26  H2  UNL     1       1.424 -11.947 -22.214  1.00  0.00     0.217 HD
ENDBRANCH  20  25
BRANCH  21  27
HETATM   27  C19 UNL     1      -0.901 -13.353 -22.186  1.00  0.00     0.013 C 
HETATM   28  C20 UNL     1      -0.779 -14.329 -23.346  1.00  0.00     0.015 C 
HETATM   29  C21 UNL     1      -2.335 -12.984 -21.906  1.00  0.00     0.015 C 
ENDBRANCH  21  27
ENDBRANCH  16  17
ENDBRANCH  14  16
ENDBRANCH  10  14
BRANCH   7  30
HETATM   30  N2  UNL     1       1.104 -11.408 -14.818  1.00  0.00    -0.381 NA
BRANCH  30  31
HETATM   31  C6  UNL     1       1.376 -10.134 -14.847  1.00  0.00     0.153 A 
HETATM   32  C7  UNL     1       1.355  -9.357 -13.694  1.00  0.00     0.078 A 
HETATM   33 CL1  UNL     1       0.959 -10.132 -12.142  1.00  0.00    -0.081 Cl
HETATM   34  C8  UNL     1       1.621  -8.029 -13.677  1.00  0.00     0.051 A 
HETATM   35  C9  UNL     1       1.930  -7.398 -14.849  1.00  0.00     0.037 A 
HETATM   36 CL2  UNL     1       2.289  -5.671 -14.877  1.00  0.00    -0.084 Cl
HETATM   37  C10 UNL     1       1.970  -8.096 -16.016  1.00  0.00     0.051 A 
HETATM   38  C11 UNL     1       1.700  -9.448 -16.034  1.00  0.00     0.078 A 
HETATM   39 CL3  UNL     1       1.764 -10.279 -17.561  1.00  0.00    -0.081 Cl
ENDBRANCH  30  31
ENDBRANCH   7  30
TORSDOF 8
ENDMDL
MODEL 5
REMARK VINA RESULT: -8.878094067      2.675      6.159
REMARK  8 active torsions:
REMARK  status: ('A' for Active; 'I' for Inactive)
REMARK    1  A    between atoms: C5_7  and  N2_8 
REMARK    2  A    between atoms: N2_8  and  C6_9 
REMARK    3  A    between atoms: C12_20  and  N4_21 
REMARK    4  A    between atoms: N4_21  and  C13_23 
REMARK    5  A    between atoms: C13_23  and  C14_24 
REMARK    6  A    between atoms: C16_26  and  O1_27 
REMARK    7  A    between atoms: C17_29  and  O2_30 
REMARK    8  A    between atoms: C18_32  and  C19_33 
ROOT
HETATM    1  C1  UNL     1       1.825 -16.720 -12.296  1.00  0.00     0.091 C 
HETATM    2  C2  UNL     1       1.840 -15.287 -12.683  1.00  0.00     0.100 A 
HETATM    3  N1  UNL     1       2.512 -14.281 -12.095  1.00  0.00    -0.352 N 
ATOM      4  H1  UNL     1       3.118 -14.381 -11.282  1.00  0.00     0.166 HD
HETATM    5  C3  UNL     1       2.268 -13.118 -12.738  1.00  0.00     0.126 A 
HETATM    6  C4  UNL     1       1.408 -13.419 -13.769  1.00  0.00     0.132 A 
HETATM    7  C5  UNL     1       0.849 -12.556 -14.729  1.00  0.00     0.224 A 
HETATM    8  N3  UNL     1       0.016 -13.175 -15.626  1.00  0.00    -0.160 N 
ATOM      9  H3  UNL     1      -0.424 -12.609 -16.350  1.00  0.00     0.187 HD
HETATM   10  C12 UNL     1      -0.247 -14.501 -15.593  1.00  0.00     0.699 A 
HETATM   11  N5  UNL     1       0.343 -15.232 -14.631  1.00  0.00    -0.123 N 
ATOM     12  H5  UNL     1       0.150 -16.233 -14.601  1.00  0.00     0.206 HD
HETATM   13  N6  UNL     1       1.167 -14.722 -13.713  1.00  0.00    -0.224 N 
ENDROOT
BRANCH  10  14
HETATM   14  N4  UNL     1      -1.018 -14.967 -16.464  1.00  0.00    -0.200 N 
ATOM     15  H4  UNL     1      -1.866 -14.406 -16.546  1.00  0.00     0.183 HD
BRANCH  14  16
HETATM   16  C13 UNL     1      -1.035 -16.041 -17.348  1.00  0.00     0.117 C 
BRANCH  16  17
HETATM   17  C14 UNL     1       0.033 -16.006 -18.388  1.00  0.00    -0.017 A 
HETATM   18  C15 UNL     1       0.887 -17.052 -18.622  1.00  0.00     0.052 A 
HETATM   19  C16 UNL     1       1.890 -17.012 -19.577  1.00  0.00     0.100 A 
HETATM   20  C17 UNL     1       2.045 -15.878 -20.332  1.00  0.00     0.105 A 
HETATM   21  C18 UNL     1       1.217 -14.808 -20.138  1.00  0.00    -0.018 A 
HETATM   22  C22 UNL     1       0.212 -14.860 -19.172  1.00  0.00     0.023 A 
BRANCH  19  23
HETATM   23  O1  UNL     1       2.750 -18.107 -19.790  1.00  0.00    -0.358 OA
ATOM     24  H1  UNL     1       3.546 -18.022 -20.302  1.00  0.00     0.217 HD
ENDBRANCH  19  23
BRANCH  20  25
HETATM   25  O2  UNL     1       3.063 -15.853 -21.295  1.00  0.00    -0.357 OA
ATOM     26  H2  UNL     1       2.869 -15.480 -22.147  1.00  0.00     0.217 HD
ENDBRANCH  20  25
BRANCH  21  27
HETATM   27  C19 UNL     1       1.388 -13.591 -20.951  1.00  0.00     0.013 C 
HETATM   28  C20 UNL     1       0.135 -13.214 -21.726  1.00  0.00     0.015 C 
HETATM   29  C21 UNL     1       1.956 -12.420 -20.191  1.00  0.00     0.015 C 
ENDBRANCH  21  27
ENDBRANCH  16  17
ENDBRANCH  14  16
ENDBRANCH  10  14
BRANCH   7  30
HETATM   30  N2  UNL     1       1.095 -11.394 -14.736  1.00  0.00    -0.381 NA
BRANCH  30  31
HETATM   31  C6  UNL     1       1.356 -10.117 -14.758  1.00  0.00     0.153 A 
HETATM   32  C7  UNL     1       1.327  -9.346 -13.602  1.00  0.00     0.078 A 
HETATM   33 CL1  UNL     1       0.936 -10.132 -12.054  1.00  0.00    -0.081 Cl
HETATM   34  C8  UNL     1       1.581  -8.016 -13.578  1.00  0.00     0.051 A 
HETATM   35  C9  UNL     1       1.886  -7.376 -14.746  1.00  0.00     0.037 A 
HETATM   36 CL2  UNL     1       2.230  -5.646 -14.765  1.00  0.00    -0.084 Cl
HETATM   37  C10 UNL     1       1.933  -8.069 -15.917  1.00  0.00     0.051 A 
HETATM   38  C11 UNL     1       1.675  -9.423 -15.942  1.00  0.00     0.078 A 
HETATM   39 CL3  UNL     1       1.747 -10.245 -17.472  1.00  0.00    -0.081 Cl
ENDBRANCH  30  31
ENDBRANCH   7  30
TORSDOF 8
ENDMDL
