MODEL 1
REMARK VINA RESULT: -9.494332822      0.000      0.000
REMARK  9 active torsions:
REMARK  status: ('A' for Active; 'I' for Inactive)
REMARK    1  A    between atoms: N1_1  and  C1_4 
REMARK    2  A    between atoms: N4_13  and  C4_14 
REMARK    3  A    between atoms: C5_16  and  C6_17 
REMARK    4  A    between atoms: C6_17  and  N5_18 
REMARK    5  A    between atoms: C6_17  and  C7_22 
REMARK    6  A    between atoms: C9_26  and  C10_27 
REMARK    7  A    between atoms: C10_27  and  C11_29 
REMARK    8  A    between atoms: C11_29  and  O7_30 
REMARK    9  A    between atoms: C11_29  and  O8_32 
ROOT
HETATM    1  C4  UNL     1     123.915 101.862  13.372  1.00  0.00     0.262 C 
HETATM    2  O3  UNL     1     122.574 102.251  13.631  1.00  0.00    -0.357 OA
HETATM    3  C5  UNL     1     122.439 103.328  12.724  1.00  0.00     0.166 C 
HETATM    4  C8  UNL     1     123.170 102.959  11.482  1.00  0.00     0.051 C 
HETATM    5  C9  UNL     1     123.852 101.634  11.911  1.00  0.00     0.113 C 
ENDROOT
BRANCH   1   6
HETATM    6  N4  UNL     1     124.294 100.795  14.218  1.00  0.00    -0.104 N 
HETATM    7  C1  UNL     1     123.500  99.811  14.659  1.00  0.00     0.688 A 
HETATM    8  N2  UNL     1     123.939  98.825  15.470  1.00  0.00    -0.141 N 
HETATM    9  C2  UNL     1     125.211  98.801  15.869  1.00  0.00     0.342 A 
ATOM     10  H2  UNL     1     123.295  98.097  15.779  1.00  0.00     0.189 HD
HETATM   11  O1  UNL     1     125.631  97.885  16.627  1.00  0.00    -0.246 OA
HETATM   12  N3  UNL     1     126.047  99.765  15.456  1.00  0.00    -0.259 N 
HETATM   13  C3  UNL     1     125.590 100.745  14.644  1.00  0.00     0.346 A 
ATOM     14  H3  UNL     1     127.023  99.759  15.753  1.00  0.00     0.175 HD
HETATM   15  O2  UNL     1     126.445 101.598  14.314  1.00  0.00    -0.246 OA
BRANCH   7  16
HETATM   16  N1  UNL     1     122.273  99.809  14.306  1.00  0.00    -0.234 N 
ATOM     17  H12 UNL     1     121.851  98.930  14.006  1.00  0.00     0.174 HD
ATOM     18  H11 UNL     1     121.758 100.689  14.329  1.00  0.00     0.174 HD
ENDBRANCH   7  16
ENDBRANCH   1   6
BRANCH   5  19
HETATM   19  C10 UNL     1     125.123 101.598  11.184  1.00  0.00     0.189 C 
HETATM   20  O6  UNL     1     125.956 100.761  11.443  1.00  0.00    -0.292 OA
BRANCH  19  21
HETATM   21  C11 UNL     1     125.436 102.577  10.112  1.00  0.00     0.326 C 
BRANCH  21  22
HETATM   22  O7  UNL     1     126.624 103.264  10.372  1.00  0.00    -0.365 OA
ATOM     23  H7  UNL     1     127.383 102.780  10.070  1.00  0.00     0.213 HD
ENDBRANCH  21  22
BRANCH  21  24
HETATM   24  O8  UNL     1     125.465 101.969   8.853  1.00  0.00    -0.365 OA
ATOM     25  H8  UNL     1     125.870 101.111   8.888  1.00  0.00     0.213 HD
ENDBRANCH  21  24
ENDBRANCH  19  21
ENDBRANCH   5  19
BRANCH   3  26
HETATM   26  C6  UNL     1     120.959 103.547  12.507  1.00  0.00     0.312 C 
BRANCH  26  27
HETATM   27  N5  UNL     1     120.594 103.595  11.132  1.00  0.00    -0.063 N 
ATOM     28  H53 UNL     1     119.716 104.099  11.008  1.00  0.00     0.275 HD
ATOM     29  H52 UNL     1     121.217 104.213  10.613  1.00  0.00     0.275 HD
ATOM     30  H51 UNL     1     120.549 102.674  10.695  1.00  0.00     0.275 HD
ENDBRANCH  26  27
BRANCH  26  31
HETATM   31  C7  UNL     1     120.643 104.888  13.106  1.00  0.00     0.207 C 
HETATM   32  O4  UNL     1     119.725 105.041  13.955  1.00  0.00    -0.646 OA
HETATM   33  O5  UNL     1     121.349 106.034  12.751  1.00  0.00    -0.646 OA
ENDBRANCH  26  31
ENDBRANCH   3  26
TORSDOF 9
ENDMDL
MODEL 2
REMARK VINA RESULT: -9.180504290      0.756      1.746
REMARK  9 active torsions:
REMARK  status: ('A' for Active; 'I' for Inactive)
REMARK    1  A    between atoms: N1_1  and  C1_4 
REMARK    2  A    between atoms: N4_13  and  C4_14 
REMARK    3  A    between atoms: C5_16  and  C6_17 
REMARK    4  A    between atoms: C6_17  and  N5_18 
REMARK    5  A    between atoms: C6_17  and  C7_22 
REMARK    6  A    between atoms: C9_26  and  C10_27 
REMARK    7  A    between atoms: C10_27  and  C11_29 
REMARK    8  A    between atoms: C11_29  and  O7_30 
REMARK    9  A    between atoms: C11_29  and  O8_32 
ROOT
HETATM    1  C4  UNL     1     123.919 101.922  13.300  1.00  0.00     0.262 C 
HETATM    2  O3  UNL     1     122.568 102.290  13.537  1.00  0.00    -0.357 OA
HETATM    3  C5  UNL     1     122.432 103.365  12.628  1.00  0.00     0.166 C 
HETATM    4  C8  UNL     1     123.189 103.007  11.398  1.00  0.00     0.051 C 
HETATM    5  C9  UNL     1     123.884 101.693  11.839  1.00  0.00     0.113 C 
ENDROOT
BRANCH   1   6
HETATM    6  N4  UNL     1     124.299 100.860  14.153  1.00  0.00    -0.104 N 
HETATM    7  C1  UNL     1     125.514 100.661  14.679  1.00  0.00     0.688 A 
HETATM    8  N2  UNL     1     125.799  99.617  15.486  1.00  0.00    -0.141 N 
HETATM    9  C2  UNL     1     124.854  98.728  15.793  1.00  0.00     0.342 A 
ATOM     10  H2  UNL     1     126.741  99.508  15.863  1.00  0.00     0.189 HD
HETATM   11  O1  UNL     1     125.110  97.749  16.546  1.00  0.00    -0.246 OA
HETATM   12  N3  UNL     1     123.620  98.882  15.291  1.00  0.00    -0.259 N 
HETATM   13  C3  UNL     1     123.352  99.934  14.483  1.00  0.00     0.346 A 
ATOM     14  H3  UNL     1     122.886  98.210  15.517  1.00  0.00     0.175 HD
HETATM   15  O2  UNL     1     122.173  99.991  14.064  1.00  0.00    -0.246 OA
BRANCH   7  16
HETATM   16  N1  UNL     1     126.447 101.486  14.397  1.00  0.00    -0.234 N 
ATOM     17  H12 UNL     1     127.377 101.122  14.191  1.00  0.00     0.174 HD
ATOM     18  H11 UNL     1     126.231 102.483  14.396  1.00  0.00     0.174 HD
ENDBRANCH   7  16
ENDBRANCH   1   6
BRANCH   5  19
HETATM   19  C10 UNL     1     125.168 101.676  11.134  1.00  0.00     0.189 C 
HETATM   20  O6  UNL     1     126.026 100.881  11.437  1.00  0.00    -0.292 OA
BRANCH  19  21
HETATM   21  C11 UNL     1     125.464 102.625  10.030  1.00  0.00     0.326 C 
BRANCH  21  22
HETATM   22  O7  UNL     1     126.661 103.311  10.246  1.00  0.00    -0.365 OA
ATOM     23  H7  UNL     1     127.238 103.256   9.494  1.00  0.00     0.213 HD
ENDBRANCH  21  22
BRANCH  21  24
HETATM   24  O8  UNL     1     125.461 101.985   8.787  1.00  0.00    -0.365 OA
ATOM     25  H8  UNL     1     124.690 102.210   8.280  1.00  0.00     0.213 HD
ENDBRANCH  21  24
ENDBRANCH  19  21
ENDBRANCH   5  19
BRANCH   3  26
HETATM   26  C6  UNL     1     120.953 103.561  12.386  1.00  0.00     0.312 C 
BRANCH  26  27
HETATM   27  N5  UNL     1     120.624 103.713  11.009  1.00  0.00    -0.063 N 
ATOM     28  H53 UNL     1     120.852 102.867  10.486  1.00  0.00     0.275 HD
ATOM     29  H52 UNL     1     119.613 103.724  10.877  1.00  0.00     0.275 HD
ATOM     30  H51 UNL     1     121.055 104.532  10.579  1.00  0.00     0.275 HD
ENDBRANCH  26  27
BRANCH  26  31
HETATM   31  C7  UNL     1     120.581 104.840  13.082  1.00  0.00     0.207 C 
HETATM   32  O4  UNL     1     121.032 105.957  12.713  1.00  0.00    -0.646 OA
HETATM   33  O5  UNL     1     119.718 104.856  14.174  1.00  0.00    -0.646 OA
ENDBRANCH  26  31
ENDBRANCH   3  26
TORSDOF 9
ENDMDL
MODEL 3
REMARK VINA RESULT: -9.163841008      1.843      4.833
REMARK  9 active torsions:
REMARK  status: ('A' for Active; 'I' for Inactive)
REMARK    1  A    between atoms: N1_1  and  C1_4 
REMARK    2  A    between atoms: N4_13  and  C4_14 
REMARK    3  A    between atoms: C5_16  and  C6_17 
REMARK    4  A    between atoms: C6_17  and  N5_18 
REMARK    5  A    between atoms: C6_17  and  C7_22 
REMARK    6  A    between atoms: C9_26  and  C10_27 
REMARK    7  A    between atoms: C10_27  and  C11_29 
REMARK    8  A    between atoms: C11_29  and  O7_30 
REMARK    9  A    between atoms: C11_29  and  O8_32 
ROOT
HETATM    1  C4  UNL     1     122.809 102.696  11.997  1.00  0.00     0.262 C 
HETATM    2  O3  UNL     1     123.792 102.629  10.975  1.00  0.00    -0.357 OA
HETATM    3  C5  UNL     1     123.261 103.557  10.048  1.00  0.00     0.166 C 
HETATM    4  C8  UNL     1     122.677 104.681  10.828  1.00  0.00     0.051 C 
HETATM    5  C9  UNL     1     122.809 104.148  12.278  1.00  0.00     0.113 C 
ENDROOT
BRANCH   1   6
HETATM    6  N4  UNL     1     123.119 101.794  13.041  1.00  0.00    -0.104 N 
HETATM    7  C1  UNL     1     124.345 101.433  13.440  1.00  0.00     0.688 A 
HETATM    8  N2  UNL     1     124.559 100.561  14.448  1.00  0.00    -0.141 N 
HETATM    9  C2  UNL     1     123.527 100.016  15.094  1.00  0.00     0.342 A 
ATOM     10  H2  UNL     1     125.512 100.318  14.716  1.00  0.00     0.189 HD
HETATM   11  O1  UNL     1     123.716  99.201  16.037  1.00  0.00    -0.246 OA
HETATM   12  N3  UNL     1     122.278 100.344  14.732  1.00  0.00    -0.259 N 
HETATM   13  C3  UNL     1     122.083 101.220  13.720  1.00  0.00     0.346 A 
ATOM     14  H3  UNL     1     121.479  99.936  15.218  1.00  0.00     0.175 HD
HETATM   15  O2  UNL     1     120.883 101.462  13.456  1.00  0.00    -0.246 OA
BRANCH   7  16
HETATM   16  N1  UNL     1     125.356 101.926  12.836  1.00  0.00    -0.234 N 
ATOM     17  H12 UNL     1     126.165 101.328  12.665  1.00  0.00     0.174 HD
ATOM     18  H11 UNL     1     125.324 102.905  12.551  1.00  0.00     0.174 HD
ENDBRANCH   7  16
ENDBRANCH   1   6
BRANCH   5  19
HETATM   19  C10 UNL     1     121.655 104.690  12.998  1.00  0.00     0.189 C 
HETATM   20  O6  UNL     1     121.725 104.936  14.179  1.00  0.00    -0.292 OA
BRANCH  19  21
HETATM   21  C11 UNL     1     120.364 104.957  12.313  1.00  0.00     0.326 C 
BRANCH  21  22
HETATM   22  O7  UNL     1     119.427 103.953  12.568  1.00  0.00    -0.365 OA
ATOM     23  H7  UNL     1     119.799 103.249  13.086  1.00  0.00     0.213 HD
ENDBRANCH  21  22
BRANCH  21  24
HETATM   24  O8  UNL     1     119.858 106.220  12.642  1.00  0.00    -0.365 OA
ATOM     25  H8  UNL     1     119.955 106.832  11.922  1.00  0.00     0.213 HD
ENDBRANCH  21  24
ENDBRANCH  19  21
ENDBRANCH   5  19
BRANCH   3  26
HETATM   26  C6  UNL     1     124.393 103.980   9.140  1.00  0.00     0.312 C 
BRANCH  26  27
HETATM   27  N5  UNL     1     124.001 104.116   7.778  1.00  0.00    -0.063 N 
ATOM     28  H53 UNL     1     124.495 103.445   7.190  1.00  0.00     0.275 HD
ATOM     29  H52 UNL     1     123.046 103.788   7.642  1.00  0.00     0.275 HD
ATOM     30  H51 UNL     1     124.114 105.065   7.420  1.00  0.00     0.275 HD
ENDBRANCH  26  27
BRANCH  26  31
HETATM   31  C7  UNL     1     125.416 102.881   9.208  1.00  0.00     0.207 C 
HETATM   32  O4  UNL     1     125.452 101.950   8.361  1.00  0.00    -0.646 OA
HETATM   33  O5  UNL     1     126.378 102.837  10.213  1.00  0.00    -0.646 OA
ENDBRANCH  26  31
ENDBRANCH   3  26
TORSDOF 9
ENDMDL
MODEL 4
REMARK VINA RESULT: -8.990596475      1.215      1.950
REMARK  9 active torsions:
REMARK  status: ('A' for Active; 'I' for Inactive)
REMARK    1  A    between atoms: N1_1  and  C1_4 
REMARK    2  A    between atoms: N4_13  and  C4_14 
REMARK    3  A    between atoms: C5_16  and  C6_17 
REMARK    4  A    between atoms: C6_17  and  N5_18 
REMARK    5  A    between atoms: C6_17  and  C7_22 
REMARK    6  A    between atoms: C9_26  and  C10_27 
REMARK    7  A    between atoms: C10_27  and  C11_29 
REMARK    8  A    between atoms: C11_29  and  O7_30 
REMARK    9  A    between atoms: C11_29  and  O8_32 
ROOT
HETATM    1  C4  UNL     1     123.938 102.100  13.213  1.00  0.00     0.262 C 
HETATM    2  O3  UNL     1     122.633 102.600  13.465  1.00  0.00    -0.357 OA
HETATM    3  C5  UNL     1     122.603 103.698  12.574  1.00  0.00     0.166 C 
HETATM    4  C8  UNL     1     123.313 103.285  11.334  1.00  0.00     0.051 C 
HETATM    5  C9  UNL     1     123.872 101.900  11.748  1.00  0.00     0.113 C 
ENDROOT
BRANCH   1   6
HETATM    6  N4  UNL     1     124.213 100.992  14.046  1.00  0.00    -0.104 N 
HETATM    7  C1  UNL     1     125.399 100.674  14.579  1.00  0.00     0.688 A 
HETATM    8  N2  UNL     1     125.581  99.592  15.367  1.00  0.00    -0.141 N 
HETATM    9  C2  UNL     1     124.557  98.784  15.644  1.00  0.00     0.342 A 
ATOM     10  H2  UNL     1     126.504  99.392  15.750  1.00  0.00     0.189 HD
HETATM   11  O1  UNL     1     124.716  97.772  16.379  1.00  0.00    -0.246 OA
HETATM   12  N3  UNL     1     123.347  99.058  15.134  1.00  0.00    -0.259 N 
HETATM   13  C3  UNL     1     123.183 100.146  14.347  1.00  0.00     0.346 A 
ATOM     14  H3  UNL     1     122.554  98.449  15.338  1.00  0.00     0.175 HD
HETATM   15  O2  UNL     1     122.019 100.316  13.917  1.00  0.00    -0.246 OA
BRANCH   7  16
HETATM   16  N1  UNL     1     126.405 101.419  14.325  1.00  0.00    -0.234 N 
ATOM     17  H12 UNL     1     126.536 101.755  13.371  1.00  0.00     0.174 HD
ATOM     18  H11 UNL     1     127.046 101.646  15.084  1.00  0.00     0.174 HD
ENDBRANCH   7  16
ENDBRANCH   1   6
BRANCH   5  19
HETATM   19  C10 UNL     1     125.143 101.764  11.034  1.00  0.00     0.189 C 
HETATM   20  O6  UNL     1     125.934 100.904  11.343  1.00  0.00    -0.292 OA
BRANCH  19  21
HETATM   21  C11 UNL     1     125.509 102.668   9.913  1.00  0.00     0.326 C 
BRANCH  21  22
HETATM   22  O7  UNL     1     126.720 103.321  10.151  1.00  0.00    -0.365 OA
ATOM     23  H7  UNL     1     127.283 102.818  10.728  1.00  0.00     0.213 HD
ENDBRANCH  21  22
BRANCH  21  24
HETATM   24  O8  UNL     1     125.528 101.989   8.691  1.00  0.00    -0.365 OA
ATOM     25  H8  UNL     1     125.136 101.127   8.763  1.00  0.00     0.213 HD
ENDBRANCH  21  24
ENDBRANCH  19  21
ENDBRANCH   5  19
BRANCH   3  26
HETATM   26  C6  UNL     1     121.150 104.049  12.346  1.00  0.00     0.312 C 
BRANCH  26  27
HETATM   27  N5  UNL     1     120.320 102.907  12.155  1.00  0.00    -0.063 N 
ATOM     28  H53 UNL     1     120.663 102.115  12.699  1.00  0.00     0.275 HD
ATOM     29  H52 UNL     1     119.414 103.039  12.604  1.00  0.00     0.275 HD
ATOM     30  H51 UNL     1     120.206 102.652  11.174  1.00  0.00     0.275 HD
ENDBRANCH  26  27
BRANCH  26  31
HETATM   31  C7  UNL     1     121.109 104.854  11.077  1.00  0.00     0.207 C 
HETATM   32  O4  UNL     1     120.616 104.397  10.012  1.00  0.00    -0.646 OA
HETATM   33  O5  UNL     1     121.614 106.149  11.015  1.00  0.00    -0.646 OA
ENDBRANCH  26  31
ENDBRANCH   3  26
TORSDOF 9
ENDMDL
MODEL 5
REMARK VINA RESULT: -8.982102444      1.872      4.634
REMARK  9 active torsions:
REMARK  status: ('A' for Active; 'I' for Inactive)
REMARK    1  A    between atoms: N1_1  and  C1_4 
REMARK    2  A    between atoms: N4_13  and  C4_14 
REMARK    3  A    between atoms: C5_16  and  C6_17 
REMARK    4  A    between atoms: C6_17  and  N5_18 
REMARK    5  A    between atoms: C6_17  and  C7_22 
REMARK    6  A    between atoms: C9_26  and  C10_27 
REMARK    7  A    between atoms: C10_27  and  C11_29 
REMARK    8  A    between atoms: C11_29  and  O7_30 
REMARK    9  A    between atoms: C11_29  and  O8_32 
ROOT
HETATM    1  C4  UNL     1     123.277 101.859  12.639  1.00  0.00     0.262 C 
HETATM    2  O3  UNL     1     124.450 101.622  11.875  1.00  0.00    -0.357 OA
HETATM    3  C5  UNL     1     124.210 102.467  10.766  1.00  0.00     0.166 C 
HETATM    4  C8  UNL     1     123.562 103.703  11.280  1.00  0.00     0.051 C 
HETATM    5  C9  UNL     1     123.331 103.331  12.768  1.00  0.00     0.113 C 
ENDROOT
BRANCH   1   6
HETATM    6  N4  UNL     1     123.279 101.065  13.809  1.00  0.00    -0.104 N 
HETATM    7  C1  UNL     1     124.358 100.601  14.451  1.00  0.00     0.688 A 
HETATM    8  N2  UNL     1     124.276  99.845  15.566  1.00  0.00    -0.141 N 
HETATM    9  C2  UNL     1     123.086  99.527  16.076  1.00  0.00     0.342 A 
ATOM     10  H2  UNL     1     125.128  99.515  16.020  1.00  0.00     0.189 HD
HETATM   11  O1  UNL     1     122.999  98.821  17.117  1.00  0.00    -0.246 OA
HETATM   12  N3  UNL     1     121.973  99.967  15.470  1.00  0.00    -0.259 N 
HETATM   13  C3  UNL     1     122.074 100.724  14.353  1.00  0.00     0.346 A 
ATOM     14  H3  UNL     1     121.056  99.732  15.849  1.00  0.00     0.175 HD
HETATM   15  O2  UNL     1     120.981 101.084  13.860  1.00  0.00    -0.246 OA
BRANCH   7  16
HETATM   16  N1  UNL     1     125.515 100.876  13.984  1.00  0.00    -0.234 N 
ATOM     17  H12 UNL     1     125.912 101.797  14.171  1.00  0.00     0.174 HD
ATOM     18  H11 UNL     1     125.998 100.167  13.433  1.00  0.00     0.174 HD
ENDBRANCH   7  16
ENDBRANCH   1   6
BRANCH   5  19
HETATM   19  C10 UNL     1     122.094 104.015  13.153  1.00  0.00     0.189 C 
HETATM   20  O6  UNL     1     122.020 104.610  14.202  1.00  0.00    -0.292 OA
BRANCH  19  21
HETATM   21  C11 UNL     1     120.893 104.005  12.279  1.00  0.00     0.326 C 
BRANCH  21  22
HETATM   22  O7  UNL     1     119.806 103.390  12.903  1.00  0.00    -0.365 OA
ATOM     23  H7  UNL     1     118.978 103.727  12.580  1.00  0.00     0.213 HD
ENDBRANCH  21  22
BRANCH  21  24
HETATM   24  O8  UNL     1     120.566 105.291  11.838  1.00  0.00    -0.365 OA
ATOM     25  H8  UNL     1     119.657 105.348  11.569  1.00  0.00     0.213 HD
ENDBRANCH  21  24
ENDBRANCH  19  21
ENDBRANCH   5  19
BRANCH   3  26
HETATM   26  C6  UNL     1     125.543 102.721  10.100  1.00  0.00     0.312 C 
BRANCH  26  27
HETATM   27  N5  UNL     1     126.105 103.986  10.433  1.00  0.00    -0.063 N 
ATOM     28  H53 UNL     1     126.955 103.871  10.985  1.00  0.00     0.275 HD
ATOM     29  H52 UNL     1     126.501 104.435   9.607  1.00  0.00     0.275 HD
ATOM     30  H51 UNL     1     125.448 104.608  10.904  1.00  0.00     0.275 HD
ENDBRANCH  26  27
BRANCH  26  31
HETATM   31  C7  UNL     1     125.278 102.719   8.621  1.00  0.00     0.207 C 
HETATM   32  O4  UNL     1     124.222 103.199   8.131  1.00  0.00    -0.646 OA
HETATM   33  O5  UNL     1     126.190 102.186   7.715  1.00  0.00    -0.646 OA
ENDBRANCH  26  31
ENDBRANCH   3  26
TORSDOF 9
ENDMDL
