MODEL 1
REMARK VINA RESULT: -8.103784675      0.000      0.000
REMARK  11 active torsions:
REMARK  status: ('A' for Active; 'I' for Inactive)
REMARK    1  A    between atoms: O1_2  and  C2_3 
REMARK    2  A    between atoms: C2_3  and  C3_4 
REMARK    3  A    between atoms: C3_4  and  N1_5 
REMARK    4  A    between atoms: C3_4  and  C26_35 
REMARK       I    between atoms: N1_5  and  C4_7 
REMARK    5  A    between atoms: C4_7  and  C5_9 
REMARK    6  A    between atoms: C9_13  and  C10_14 
REMARK    7  A    between atoms: C10_14  and  N2_15 
REMARK    8  A    between atoms: C12_19  and  N4_20 
REMARK    9  A    between atoms: N4_20  and  C14_22 
REMARK   10  A    between atoms: C14_22  and  C15_23 
REMARK   11  A    between atoms: C15_23  and  C16_24 
ROOT
HETATM    1  C5  UNL     1     -55.085  -2.634  59.571  1.00  0.00     0.044 C 
HETATM    2  C6  UNL     1     -54.271  -3.204  60.727  1.00  0.00     0.026 C 
HETATM    3  C7  UNL     1     -54.674  -1.168  59.416  1.00  0.00     0.020 C 
HETATM    4  C8  UNL     1     -53.179  -1.114  59.400  1.00  0.00     0.007 C 
HETATM    5  C9  UNL     1     -52.682  -1.964  58.243  1.00  0.00     0.006 C 
HETATM    6  C22 UNL     1     -53.789  -2.536  57.442  1.00  0.00     0.016 C 
HETATM    7  C23 UNL     1     -54.757  -3.361  58.326  1.00  0.00    -0.031 C 
HETATM    8  C24 UNL     1     -55.895  -3.717  57.418  1.00  0.00     0.016 C 
HETATM    9  C25 UNL     1     -54.030  -4.652  58.639  1.00  0.00     0.016 C 
ENDROOT
BRANCH   5  10
HETATM   10  C10 UNL     1     -51.789  -1.086  57.416  1.00  0.00     0.157 C 
BRANCH  10  11
HETATM   11  N2  UNL     1     -50.383  -1.327  57.554  1.00  0.00    -0.258 N 
HETATM   12  N3  UNL     1     -49.812  -0.751  58.628  1.00  0.00    -0.305 N 
HETATM   13  C11 UNL     1     -48.511  -0.901  58.894  1.00  0.00     0.137 A 
ATOM     14  H3  UNL     1     -50.385  -0.187  59.255  1.00  0.00     0.186 HD
HETATM   15  C12 UNL     1     -47.736  -1.660  58.054  1.00  0.00     0.056 A 
HETATM   16  C20 UNL     1     -48.284  -2.264  56.944  1.00  0.00     0.107 A 
HETATM   17  C21 UNL     1     -49.629  -2.068  56.730  1.00  0.00     0.264 A 
HETATM   18  O3  UNL     1     -50.139  -2.611  55.721  1.00  0.00    -0.267 OA
BRANCH  15  19
HETATM   19  N4  UNL     1     -46.326  -1.877  58.261  1.00  0.00    -0.364 N 
HETATM   20  C13 UNL     1     -45.477  -1.602  57.137  1.00  0.00     0.155 C 
BRANCH  19  21
HETATM   21  C14 UNL     1     -45.894  -2.340  59.516  1.00  0.00     0.064 C 
BRANCH  21  22
HETATM   22  C15 UNL     1     -44.693  -1.669  60.054  1.00  0.00     0.049 C 
BRANCH  22  23
HETATM   23  C16 UNL     1     -43.576  -2.524  60.530  1.00  0.00    -0.010 C 
HETATM   24  C17 UNL     1     -42.519  -2.912  59.532  1.00  0.00     0.005 C 
HETATM   25  C18 UNL     1     -41.503  -2.767  60.672  1.00  0.00     0.001 C 
HETATM   26  C19 UNL     1     -42.471  -1.735  61.263  1.00  0.00     0.005 C 
ENDBRANCH  22  23
ENDBRANCH  21  22
ENDBRANCH  19  21
ENDBRANCH  15  19
ENDBRANCH  10  11
ENDBRANCH   5  10
BRANCH   1  27
HETATM   27  C4  UNL     1     -56.474  -2.641  60.023  1.00  0.00     0.227 C 
HETATM   28  N1  UNL     1     -56.866  -3.555  61.024  1.00  0.00    -0.353 N 
ATOM     29  H1  UNL     1     -56.166  -4.190  61.407  1.00  0.00     0.163 HD
HETATM   30  O2  UNL     1     -57.332  -1.872  59.563  1.00  0.00    -0.273 OA
BRANCH  28  31
HETATM   31  C3  UNL     1     -58.228  -3.628  61.533  1.00  0.00     0.112 C 
BRANCH  31  32
HETATM   32  C2  UNL     1     -58.284  -2.920  62.827  1.00  0.00     0.192 C 
BRANCH  32  33
HETATM   33  O1  UNL     1     -57.052  -2.614  63.393  1.00  0.00    -0.394 OA
HETATM   34  C1  UNL     1     -56.981  -2.943  64.726  1.00  0.00     0.201 C 
ENDBRANCH  32  33
ENDBRANCH  31  32
BRANCH  31  35
HETATM   35  C26 UNL     1     -58.687  -5.058  61.506  1.00  0.00     0.010 C 
HETATM   36  C27 UNL     1     -58.140  -5.904  60.421  1.00  0.00     0.007 C 
HETATM   37  C28 UNL     1     -57.181  -6.972  60.782  1.00  0.00     0.000 C 
HETATM   38  C29 UNL     1     -57.495  -7.659  62.077  1.00  0.00     0.000 C 
HETATM   39  C30 UNL     1     -57.537  -6.584  63.150  1.00  0.00     0.000 C 
HETATM   40  C31 UNL     1     -58.696  -5.693  62.869  1.00  0.00     0.007 C 
ENDBRANCH  31  35
ENDBRANCH  28  31
ENDBRANCH   1  27
TORSDOF 11
ENDMDL
MODEL 2
REMARK VINA RESULT: -7.913934553      1.663      2.637
REMARK  11 active torsions:
REMARK  status: ('A' for Active; 'I' for Inactive)
REMARK    1  A    between atoms: O1_2  and  C2_3 
REMARK    2  A    between atoms: C2_3  and  C3_4 
REMARK    3  A    between atoms: C3_4  and  N1_5 
REMARK    4  A    between atoms: C3_4  and  C26_35 
REMARK       I    between atoms: N1_5  and  C4_7 
REMARK    5  A    between atoms: C4_7  and  C5_9 
REMARK    6  A    between atoms: C9_13  and  C10_14 
REMARK    7  A    between atoms: C10_14  and  N2_15 
REMARK    8  A    between atoms: C12_19  and  N4_20 
REMARK    9  A    between atoms: N4_20  and  C14_22 
REMARK   10  A    between atoms: C14_22  and  C15_23 
REMARK   11  A    between atoms: C15_23  and  C16_24 
ROOT
HETATM    1  C5  UNL     1     -55.107  -4.755  57.992  1.00  0.00     0.044 C 
HETATM    2  C6  UNL     1     -54.202  -5.837  57.415  1.00  0.00     0.026 C 
HETATM    3  C7  UNL     1     -54.227  -3.857  58.866  1.00  0.00     0.020 C 
HETATM    4  C8  UNL     1     -53.013  -3.496  58.069  1.00  0.00     0.007 C 
HETATM    5  C9  UNL     1     -53.465  -2.785  56.805  1.00  0.00     0.006 C 
HETATM    6  C22 UNL     1     -54.934  -2.597  56.753  1.00  0.00     0.016 C 
HETATM    7  C23 UNL     1     -55.679  -3.947  56.894  1.00  0.00    -0.031 C 
HETATM    8  C24 UNL     1     -57.127  -3.575  56.998  1.00  0.00     0.016 C 
HETATM    9  C25 UNL     1     -55.506  -4.654  55.567  1.00  0.00     0.016 C 
ENDROOT
BRANCH   5  10
HETATM   10  C10 UNL     1     -52.732  -1.476  56.763  1.00  0.00     0.157 C 
BRANCH  10  11
HETATM   11  N2  UNL     1     -51.340  -1.533  57.100  1.00  0.00    -0.258 N 
HETATM   12  N3  UNL     1     -50.583  -2.259  56.256  1.00  0.00    -0.305 N 
HETATM   13  C11 UNL     1     -49.265  -2.389  56.435  1.00  0.00     0.137 A 
ATOM     14  H3  UNL     1     -51.025  -2.721  55.462  1.00  0.00     0.186 HD
HETATM   15  C12 UNL     1     -48.666  -1.769  57.501  1.00  0.00     0.056 A 
HETATM   16  C20 UNL     1     -49.408  -1.018  58.387  1.00  0.00     0.107 A 
HETATM   17  C21 UNL     1     -50.758  -0.926  58.144  1.00  0.00     0.264 A 
HETATM   18  O3  UNL     1     -51.446  -0.247  58.945  1.00  0.00    -0.267 OA
BRANCH  15  19
HETATM   19  N4  UNL     1     -47.253  -1.854  57.773  1.00  0.00    -0.364 N 
HETATM   20  C13 UNL     1     -46.384  -1.662  56.647  1.00  0.00     0.155 C 
BRANCH  19  21
HETATM   21  C14 UNL     1     -46.837  -2.123  59.088  1.00  0.00     0.064 C 
BRANCH  21  22
HETATM   22  C15 UNL     1     -45.736  -3.100  59.212  1.00  0.00     0.049 C 
BRANCH  22  23
HETATM   23  C16 UNL     1     -44.704  -2.856  60.252  1.00  0.00    -0.010 C 
HETATM   24  C17 UNL     1     -43.329  -3.421  60.019  1.00  0.00     0.005 C 
HETATM   25  C18 UNL     1     -42.782  -2.145  60.670  1.00  0.00     0.001 C 
HETATM   26  C19 UNL     1     -44.053  -1.460  60.153  1.00  0.00     0.005 C 
ENDBRANCH  22  23
ENDBRANCH  21  22
ENDBRANCH  19  21
ENDBRANCH  15  19
ENDBRANCH  10  11
ENDBRANCH   5  10
BRANCH   1  27
HETATM   27  C4  UNL     1     -56.030  -5.447  58.888  1.00  0.00     0.227 C 
HETATM   28  N1  UNL     1     -56.346  -4.862  60.133  1.00  0.00    -0.353 N 
ATOM     29  H1  UNL     1     -55.919  -3.968  60.375  1.00  0.00     0.163 HD
HETATM   30  O2  UNL     1     -56.554  -6.533  58.601  1.00  0.00    -0.273 OA
BRANCH  28  31
HETATM   31  C3  UNL     1     -57.257  -5.482  61.084  1.00  0.00     0.112 C 
BRANCH  31  32
HETATM   32  C2  UNL     1     -58.558  -4.789  61.009  1.00  0.00     0.192 C 
BRANCH  32  33
HETATM   33  O1  UNL     1     -58.502  -3.455  60.618  1.00  0.00    -0.394 OA
HETATM   34  C1  UNL     1     -59.088  -2.608  61.528  1.00  0.00     0.201 C 
ENDBRANCH  32  33
ENDBRANCH  31  32
BRANCH  31  35
HETATM   35  C26 UNL     1     -56.589  -5.556  62.428  1.00  0.00     0.010 C 
HETATM   36  C27 UNL     1     -55.934  -4.319  62.906  1.00  0.00     0.007 C 
HETATM   37  C28 UNL     1     -56.541  -3.601  64.049  1.00  0.00     0.000 C 
HETATM   38  C29 UNL     1     -57.116  -4.505  65.098  1.00  0.00     0.000 C 
HETATM   39  C30 UNL     1     -58.142  -5.389  64.407  1.00  0.00     0.000 C 
HETATM   40  C31 UNL     1     -57.421  -6.276  63.453  1.00  0.00     0.007 C 
ENDBRANCH  31  35
ENDBRANCH  28  31
ENDBRANCH   1  27
TORSDOF 11
ENDMDL
MODEL 3
REMARK VINA RESULT: -7.777567906      1.719      2.849
REMARK  11 active torsions:
REMARK  status: ('A' for Active; 'I' for Inactive)
REMARK    1  A    between atoms: O1_2  and  C2_3 
REMARK    2  A    between atoms: C2_3  and  C3_4 
REMARK    3  A    between atoms: C3_4  and  N1_5 
REMARK    4  A    between atoms: C3_4  and  C26_35 
REMARK       I    between atoms: N1_5  and  C4_7 
REMARK    5  A    between atoms: C4_7  and  C5_9 
REMARK    6  A    between atoms: C9_13  and  C10_14 
REMARK    7  A    between atoms: C10_14  and  N2_15 
REMARK    8  A    between atoms: C12_19  and  N4_20 
REMARK    9  A    between atoms: N4_20  and  C14_22 
REMARK   10  A    between atoms: C14_22  and  C15_23 
REMARK   11  A    between atoms: C15_23  and  C16_24 
ROOT
HETATM    1  C5  UNL     1     -54.454  -3.905  58.816  1.00  0.00     0.044 C 
HETATM    2  C6  UNL     1     -53.994  -5.066  57.942  1.00  0.00     0.026 C 
HETATM    3  C7  UNL     1     -53.197  -3.280  59.426  1.00  0.00     0.020 C 
HETATM    4  C8  UNL     1     -52.214  -3.063  58.319  1.00  0.00     0.007 C 
HETATM    5  C9  UNL     1     -52.852  -2.151  57.285  1.00  0.00     0.006 C 
HETATM    6  C22 UNL     1     -54.204  -1.696  57.686  1.00  0.00     0.016 C 
HETATM    7  C23 UNL     1     -55.138  -2.895  57.981  1.00  0.00    -0.031 C 
HETATM    8  C24 UNL     1     -56.388  -2.280  58.533  1.00  0.00     0.016 C 
HETATM    9  C25 UNL     1     -55.500  -3.477  56.631  1.00  0.00     0.016 C 
ENDROOT
BRANCH   5  10
HETATM   10  C10 UNL     1     -51.910  -1.000  57.087  1.00  0.00     0.157 C 
BRANCH  10  11
HETATM   11  N2  UNL     1     -50.521  -1.294  57.283  1.00  0.00    -0.258 N 
HETATM   12  N3  UNL     1     -49.978  -0.755  58.391  1.00  0.00    -0.305 N 
HETATM   13  C11 UNL     1     -48.698  -0.957  58.712  1.00  0.00     0.137 A 
ATOM     14  H3  UNL     1     -50.559  -0.179  59.000  1.00  0.00     0.186 HD
HETATM   15  C12 UNL     1     -47.913  -1.732  57.896  1.00  0.00     0.056 A 
HETATM   16  C20 UNL     1     -48.432  -2.300  56.754  1.00  0.00     0.107 A 
HETATM   17  C21 UNL     1     -49.758  -2.052  56.483  1.00  0.00     0.264 A 
HETATM   18  O3  UNL     1     -50.242  -2.562  55.444  1.00  0.00    -0.267 OA
BRANCH  15  19
HETATM   19  N4  UNL     1     -46.523  -2.003  58.162  1.00  0.00    -0.364 N 
HETATM   20  C13 UNL     1     -45.601  -1.630  57.128  1.00  0.00     0.155 C 
BRANCH  19  21
HETATM   21  C14 UNL     1     -46.178  -2.610  59.382  1.00  0.00     0.064 C 
BRANCH  21  22
HETATM   22  C15 UNL     1     -45.129  -1.915  60.156  1.00  0.00     0.049 C 
BRANCH  22  23
HETATM   23  C16 UNL     1     -43.895  -2.672  60.487  1.00  0.00    -0.010 C 
HETATM   24  C17 UNL     1     -42.896  -2.898  59.384  1.00  0.00     0.005 C 
HETATM   25  C18 UNL     1     -41.804  -2.706  60.443  1.00  0.00     0.001 C 
HETATM   26  C19 UNL     1     -42.813  -1.811  61.172  1.00  0.00     0.005 C 
ENDBRANCH  22  23
ENDBRANCH  21  22
ENDBRANCH  19  21
ENDBRANCH  15  19
ENDBRANCH  10  11
ENDBRANCH   5  10
BRANCH   1  27
HETATM   27  C4  UNL     1     -55.204  -4.509  59.914  1.00  0.00     0.227 C 
HETATM   28  N1  UNL     1     -55.814  -5.767  59.719  1.00  0.00    -0.353 N 
ATOM     29  H1  UNL     1     -55.714  -6.223  58.812  1.00  0.00     0.163 HD
HETATM   30  O2  UNL     1     -55.331  -3.962  61.020  1.00  0.00    -0.273 OA
BRANCH  28  31
HETATM   31  C3  UNL     1     -56.578  -6.441  60.759  1.00  0.00     0.112 C 
BRANCH  31  32
HETATM   32  C2  UNL     1     -56.072  -7.821  60.895  1.00  0.00     0.192 C 
BRANCH  32  33
HETATM   33  O1  UNL     1     -55.107  -8.196  59.966  1.00  0.00    -0.394 OA
HETATM   34  C1  UNL     1     -54.537  -9.413  60.252  1.00  0.00     0.201 C 
ENDBRANCH  32  33
ENDBRANCH  31  32
BRANCH  31  35
HETATM   35  C26 UNL     1     -58.045  -6.265  60.483  1.00  0.00     0.010 C 
HETATM   36  C27 UNL     1     -58.699  -5.103  61.124  1.00  0.00     0.007 C 
HETATM   37  C28 UNL     1     -59.137  -3.983  60.262  1.00  0.00     0.000 C 
HETATM   38  C29 UNL     1     -59.685  -4.415  58.934  1.00  0.00     0.000 C 
HETATM   39  C30 UNL     1     -58.599  -5.231  58.252  1.00  0.00     0.000 C 
HETATM   40  C31 UNL     1     -58.395  -6.480  59.036  1.00  0.00     0.007 C 
ENDBRANCH  31  35
ENDBRANCH  28  31
ENDBRANCH   1  27
TORSDOF 11
ENDMDL
MODEL 4
REMARK VINA RESULT: -7.762782848      1.691      2.850
REMARK  11 active torsions:
REMARK  status: ('A' for Active; 'I' for Inactive)
REMARK    1  A    between atoms: O1_2  and  C2_3 
REMARK    2  A    between atoms: C2_3  and  C3_4 
REMARK    3  A    between atoms: C3_4  and  N1_5 
REMARK    4  A    between atoms: C3_4  and  C26_35 
REMARK       I    between atoms: N1_5  and  C4_7 
REMARK    5  A    between atoms: C4_7  and  C5_9 
REMARK    6  A    between atoms: C9_13  and  C10_14 
REMARK    7  A    between atoms: C10_14  and  N2_15 
REMARK    8  A    between atoms: C12_19  and  N4_20 
REMARK    9  A    between atoms: N4_20  and  C14_22 
REMARK   10  A    between atoms: C14_22  and  C15_23 
REMARK   11  A    between atoms: C15_23  and  C16_24 
ROOT
HETATM    1  C5  UNL     1     -54.462  -3.369  59.237  1.00  0.00     0.044 C 
HETATM    2  C6  UNL     1     -54.881  -4.534  58.347  1.00  0.00     0.026 C 
HETATM    3  C7  UNL     1     -52.942  -3.241  59.118  1.00  0.00     0.020 C 
HETATM    4  C8  UNL     1     -52.596  -3.255  57.662  1.00  0.00     0.007 C 
HETATM    5  C9  UNL     1     -53.315  -2.098  56.989  1.00  0.00     0.006 C 
HETATM    6  C22 UNL     1     -54.079  -1.268  57.950  1.00  0.00     0.016 C 
HETATM    7  C23 UNL     1     -55.091  -2.122  58.752  1.00  0.00    -0.031 C 
HETATM    8  C24 UNL     1     -55.647  -1.187  59.783  1.00  0.00     0.016 C 
HETATM    9  C25 UNL     1     -56.219  -2.433  57.793  1.00  0.00     0.016 C 
ENDROOT
BRANCH   5  10
HETATM   10  C10 UNL     1     -52.266  -1.300  56.271  1.00  0.00     0.157 C 
BRANCH  10  11
HETATM   11  N2  UNL     1     -50.931  -1.434  56.775  1.00  0.00    -0.258 N 
HETATM   12  N3  UNL     1     -50.122  -2.214  56.035  1.00  0.00    -0.305 N 
HETATM   13  C11 UNL     1     -48.846  -2.418  56.374  1.00  0.00     0.137 A 
ATOM     14  H3  UNL     1     -50.490  -2.659  55.195  1.00  0.00     0.186 HD
HETATM   15  C12 UNL     1     -48.345  -1.820  57.502  1.00  0.00     0.056 A 
HETATM   16  C20 UNL     1     -49.143  -1.016  58.286  1.00  0.00     0.107 A 
HETATM   17  C21 UNL     1     -50.446  -0.848  57.879  1.00  0.00     0.264 A 
HETATM   18  O3  UNL     1     -51.184  -0.120  58.586  1.00  0.00    -0.267 OA
BRANCH  15  19
HETATM   19  N4  UNL     1     -46.983  -1.984  57.945  1.00  0.00    -0.364 N 
HETATM   20  C13 UNL     1     -45.967  -1.646  56.990  1.00  0.00     0.155 C 
BRANCH  19  21
HETATM   21  C14 UNL     1     -46.753  -2.461  59.247  1.00  0.00     0.064 C 
BRANCH  21  22
HETATM   22  C15 UNL     1     -45.630  -3.413  59.379  1.00  0.00     0.049 C 
BRANCH  22  23
HETATM   23  C16 UNL     1     -44.534  -3.066  60.319  1.00  0.00    -0.010 C 
HETATM   24  C17 UNL     1     -43.120  -3.306  59.862  1.00  0.00     0.005 C 
HETATM   25  C18 UNL     1     -42.747  -2.018  60.605  1.00  0.00     0.001 C 
HETATM   26  C19 UNL     1     -44.185  -1.563  60.326  1.00  0.00     0.005 C 
ENDBRANCH  22  23
ENDBRANCH  21  22
ENDBRANCH  19  21
ENDBRANCH  15  19
ENDBRANCH  10  11
ENDBRANCH   5  10
BRANCH   1  27
HETATM   27  C4  UNL     1     -54.747  -3.793  60.605  1.00  0.00     0.227 C 
HETATM   28  N1  UNL     1     -55.930  -4.515  60.868  1.00  0.00    -0.353 N 
ATOM     29  H1  UNL     1     -56.559  -4.723  60.092  1.00  0.00     0.163 HD
HETATM   30  O2  UNL     1     -53.988  -3.546  61.555  1.00  0.00    -0.273 OA
BRANCH  28  31
HETATM   31  C3  UNL     1     -56.291  -4.978  62.201  1.00  0.00     0.112 C 
BRANCH  31  32
HETATM   32  C2  UNL     1     -56.922  -6.307  62.082  1.00  0.00     0.192 C 
BRANCH  32  33
HETATM   33  O1  UNL     1     -56.207  -7.243  61.344  1.00  0.00    -0.394 OA
HETATM   34  C1  UNL     1     -56.555  -8.538  61.645  1.00  0.00     0.201 C 
ENDBRANCH  32  33
ENDBRANCH  31  32
BRANCH  31  35
HETATM   35  C26 UNL     1     -57.070  -3.900  62.901  1.00  0.00     0.010 C 
HETATM   36  C27 UNL     1     -58.544  -3.991  62.810  1.00  0.00     0.007 C 
HETATM   37  C28 UNL     1     -59.301  -4.334  64.035  1.00  0.00     0.000 C 
HETATM   38  C29 UNL     1     -58.740  -3.728  65.286  1.00  0.00     0.000 C 
HETATM   39  C30 UNL     1     -57.297  -4.192  65.395  1.00  0.00     0.000 C 
HETATM   40  C31 UNL     1     -56.530  -3.588  64.270  1.00  0.00     0.007 C 
ENDBRANCH  31  35
ENDBRANCH  28  31
ENDBRANCH   1  27
TORSDOF 11
ENDMDL
MODEL 5
REMARK VINA RESULT: -7.733644397      1.381      2.068
REMARK  11 active torsions:
REMARK  status: ('A' for Active; 'I' for Inactive)
REMARK    1  A    between atoms: O1_2  and  C2_3 
REMARK    2  A    between atoms: C2_3  and  C3_4 
REMARK    3  A    between atoms: C3_4  and  N1_5 
REMARK    4  A    between atoms: C3_4  and  C26_35 
REMARK       I    between atoms: N1_5  and  C4_7 
REMARK    5  A    between atoms: C4_7  and  C5_9 
REMARK    6  A    between atoms: C9_13  and  C10_14 
REMARK    7  A    between atoms: C10_14  and  N2_15 
REMARK    8  A    between atoms: C12_19  and  N4_20 
REMARK    9  A    between atoms: N4_20  and  C14_22 
REMARK   10  A    between atoms: C14_22  and  C15_23 
REMARK   11  A    between atoms: C15_23  and  C16_24 
ROOT
HETATM    1  C5  UNL     1     -55.055  -2.185  59.033  1.00  0.00     0.044 C 
HETATM    2  C6  UNL     1     -54.673  -1.058  59.985  1.00  0.00     0.026 C 
HETATM    3  C7  UNL     1     -54.941  -1.627  57.612  1.00  0.00     0.020 C 
HETATM    4  C8  UNL     1     -53.615  -0.943  57.496  1.00  0.00     0.007 C 
HETATM    5  C9  UNL     1     -52.526  -1.960  57.792  1.00  0.00     0.006 C 
HETATM    6  C22 UNL     1     -53.067  -3.317  58.038  1.00  0.00     0.016 C 
HETATM    7  C23 UNL     1     -54.107  -3.309  59.186  1.00  0.00    -0.031 C 
HETATM    8  C24 UNL     1     -54.679  -4.694  59.194  1.00  0.00     0.016 C 
HETATM    9  C25 UNL     1     -53.309  -3.161  60.464  1.00  0.00     0.016 C 
ENDROOT
BRANCH   5  10
HETATM   10  C10 UNL     1     -51.587  -1.936  56.621  1.00  0.00     0.157 C 
BRANCH  10  11
HETATM   11  N2  UNL     1     -50.192  -1.945  56.945  1.00  0.00    -0.258 N 
HETATM   12  N3  UNL     1     -49.873  -1.321  58.095  1.00  0.00    -0.305 N 
HETATM   13  C11 UNL     1     -48.612  -1.263  58.533  1.00  0.00     0.137 A 
ATOM     14  H3  UNL     1     -50.611  -0.882  58.644  1.00  0.00     0.186 HD
HETATM   15  C12 UNL     1     -47.616  -1.853  57.797  1.00  0.00     0.056 A 
HETATM   16  C20 UNL     1     -47.903  -2.500  56.615  1.00  0.00     0.107 A 
HETATM   17  C21 UNL     1     -49.221  -2.522  56.222  1.00  0.00     0.264 A 
HETATM   18  O3  UNL     1     -49.495  -3.106  55.146  1.00  0.00    -0.267 OA
BRANCH  15  19
HETATM   19  N4  UNL     1     -46.229  -1.840  58.191  1.00  0.00    -0.364 N 
HETATM   20  C13 UNL     1     -45.280  -1.614  57.139  1.00  0.00     0.155 C 
BRANCH  19  21
HETATM   21  C14 UNL     1     -45.913  -2.056  59.543  1.00  0.00     0.064 C 
BRANCH  21  22
HETATM   22  C15 UNL     1     -44.620  -1.494  59.984  1.00  0.00     0.049 C 
BRANCH  22  23
HETATM   23  C16 UNL     1     -43.589  -2.437  60.488  1.00  0.00    -0.010 C 
HETATM   24  C17 UNL     1     -42.571  -2.950  59.505  1.00  0.00     0.005 C 
HETATM   25  C18 UNL     1     -41.548  -2.870  60.645  1.00  0.00     0.001 C 
HETATM   26  C19 UNL     1     -42.416  -1.736  61.205  1.00  0.00     0.005 C 
ENDBRANCH  22  23
ENDBRANCH  21  22
ENDBRANCH  19  21
ENDBRANCH  15  19
ENDBRANCH  10  11
ENDBRANCH   5  10
BRANCH   1  27
HETATM   27  C4  UNL     1     -56.472  -2.445  59.275  1.00  0.00     0.227 C 
HETATM   28  N1  UNL     1     -56.973  -2.344  60.590  1.00  0.00    -0.353 N 
ATOM     29  H1  UNL     1     -56.330  -2.092  61.340  1.00  0.00     0.163 HD
HETATM   30  O2  UNL     1     -57.261  -2.753  58.369  1.00  0.00    -0.273 OA
BRANCH  28  31
HETATM   31  C3  UNL     1     -58.370  -2.585  60.920  1.00  0.00     0.112 C 
BRANCH  31  32
HETATM   32  C2  UNL     1     -59.036  -1.284  61.123  1.00  0.00     0.192 C 
BRANCH  32  33
HETATM   33  O1  UNL     1     -59.747  -0.801  60.030  1.00  0.00    -0.394 OA
HETATM   34  C1  UNL     1     -59.300   0.428  59.605  1.00  0.00     0.201 C 
ENDBRANCH  32  33
ENDBRANCH  31  32
BRANCH  31  35
HETATM   35  C26 UNL     1     -58.446  -3.585  62.040  1.00  0.00     0.010 C 
HETATM   36  C27 UNL     1     -57.595  -4.787  61.906  1.00  0.00     0.007 C 
HETATM   37  C28 UNL     1     -56.438  -4.931  62.818  1.00  0.00     0.000 C 
HETATM   38  C29 UNL     1     -56.698  -4.443  64.211  1.00  0.00     0.000 C 
HETATM   39  C30 UNL     1     -57.120  -2.988  64.099  1.00  0.00     0.000 C 
HETATM   40  C31 UNL     1     -58.433  -2.939  63.398  1.00  0.00     0.007 C 
ENDBRANCH  31  35
ENDBRANCH  28  31
ENDBRANCH   1  27
TORSDOF 11
ENDMDL
