MODEL 1
REMARK VINA RESULT: -6.635220495      0.000      0.000
REMARK  5 active torsions:
REMARK  status: ('A' for Active; 'I' for Inactive)
REMARK    1  A    between atoms: O1_1  and  C1_3 
REMARK    2  A    between atoms: C3_5  and  C4_6 
REMARK    3  A    between atoms: C8_10  and  O2_11 
REMARK    4  A    between atoms: N1_13  and  C9_14 
REMARK    5  A    between atoms: C9_14  and  N2_15 
ROOT
HETATM    1  C1  UNL     1      24.499   7.845  48.073  1.00  0.00     0.146 A 
HETATM    2  C2  UNL     1      24.328   9.019  47.382  1.00  0.00     0.068 A 
HETATM    3  C3  UNL     1      25.114  10.001  47.939  1.00  0.00     0.001 A 
HETATM    4  C8  UNL     1      25.766   9.373  48.994  1.00  0.00     0.152 A 
HETATM    5  N1  UNL     1      25.396   8.090  49.065  1.00  0.00    -0.280 N 
ENDROOT
BRANCH   5   6
HETATM    6  C9  UNL     1      25.823   7.104  50.031  1.00  0.00     0.406 C 
BRANCH   6   7
HETATM    7  N2  UNL     1      25.081   7.120  51.233  1.00  0.00     0.110 N 
HETATM    8  C10 UNL     1      23.876   6.382  51.299  1.00  0.00     0.300 C 
HETATM    9  C11 UNL     1      24.096   4.904  51.507  1.00  0.00     0.198 C 
HETATM   10  O3  UNL     1      25.080   4.670  52.469  1.00  0.00    -0.388 OA
HETATM   11  C12 UNL     1      25.343   5.801  53.230  1.00  0.00     0.198 C 
HETATM   12  C13 UNL     1      25.935   6.933  52.397  1.00  0.00     0.300 C 
ENDBRANCH   6   7
ENDBRANCH   5   6
BRANCH   1  13
HETATM   13  O1  UNL     1      23.891   6.630  47.828  1.00  0.00    -0.346 OA
ATOM     14  H1  UNL     1      24.161   5.963  47.208  1.00  0.00     0.219 HD
ENDBRANCH   1  13
BRANCH   4  15
HETATM   15  O2  UNL     1      26.651  10.080  49.789  1.00  0.00    -0.345 OA
ATOM     16  H2  UNL     1      27.252   9.621  50.364  1.00  0.00     0.219 HD
ENDBRANCH   4  15
BRANCH   3  17
HETATM   17  C4  UNL     1      25.212  11.390  47.493  1.00  0.00     0.023 C 
HETATM   18  C5  UNL     1      23.945  11.841  46.810  1.00  0.00     0.009 C 
HETATM   19  C6  UNL     1      23.448  12.274  48.173  1.00  0.00     0.001 C 
HETATM   20  C7  UNL     1      24.903  12.433  48.561  1.00  0.00     0.009 C 
ENDBRANCH   3  17
TORSDOF 5
ENDMDL
MODEL 2
REMARK VINA RESULT: -6.577821802      7.180      9.700
REMARK  5 active torsions:
REMARK  status: ('A' for Active; 'I' for Inactive)
REMARK    1  A    between atoms: O1_1  and  C1_3 
REMARK    2  A    between atoms: C3_5  and  C4_6 
REMARK    3  A    between atoms: C8_10  and  O2_11 
REMARK    4  A    between atoms: N1_13  and  C9_14 
REMARK    5  A    between atoms: C9_14  and  N2_15 
ROOT
HETATM    1  C1  UNL     1      19.761   7.092  44.056  1.00  0.00     0.146 A 
HETATM    2  C2  UNL     1      20.247   6.220  44.999  1.00  0.00     0.068 A 
HETATM    3  C3  UNL     1      19.640   6.464  46.209  1.00  0.00     0.001 A 
HETATM    4  C8  UNL     1      18.768   7.517  45.960  1.00  0.00     0.152 A 
HETATM    5  N1  UNL     1      18.846   7.884  44.677  1.00  0.00    -0.280 N 
ENDROOT
BRANCH   5   6
HETATM    6  C9  UNL     1      18.125   8.951  44.021  1.00  0.00     0.406 C 
BRANCH   6   7
HETATM    7  N2  UNL     1      16.877   9.248  44.613  1.00  0.00     0.110 N 
HETATM    8  C10 UNL     1      16.464  10.598  44.691  1.00  0.00     0.300 C 
HETATM    9  C11 UNL     1      15.921  11.128  43.386  1.00  0.00     0.198 C 
HETATM   10  O3  UNL     1      15.074  10.200  42.777  1.00  0.00    -0.388 OA
HETATM   11  C12 UNL     1      14.665   9.210  43.662  1.00  0.00     0.198 C 
HETATM   12  C13 UNL     1      15.830   8.352  44.143  1.00  0.00     0.300 C 
ENDBRANCH   6   7
ENDBRANCH   5   6
BRANCH   1  13
HETATM   13  O1  UNL     1      20.115   7.172  42.725  1.00  0.00    -0.346 OA
ATOM     14  H1  UNL     1      19.982   6.515  42.051  1.00  0.00     0.219 HD
ENDBRANCH   1  13
BRANCH   4  15
HETATM   15  O2  UNL     1      17.983   8.030  46.977  1.00  0.00    -0.345 OA
ATOM     16  H2  UNL     1      17.913   8.970  47.101  1.00  0.00     0.219 HD
ENDBRANCH   4  15
BRANCH   3  17
HETATM   17  C4  UNL     1      19.887   5.751  47.462  1.00  0.00     0.023 C 
HETATM   18  C5  UNL     1      21.114   4.879  47.368  1.00  0.00     0.009 C 
HETATM   19  C6  UNL     1      21.912   6.074  47.846  1.00  0.00     0.001 C 
HETATM   20  C7  UNL     1      20.642   6.548  48.519  1.00  0.00     0.009 C 
ENDBRANCH   3  17
TORSDOF 5
ENDMDL
MODEL 3
REMARK VINA RESULT: -6.554278645      7.144      8.345
REMARK  5 active torsions:
REMARK  status: ('A' for Active; 'I' for Inactive)
REMARK    1  A    between atoms: O1_1  and  C1_3 
REMARK    2  A    between atoms: C3_5  and  C4_6 
REMARK    3  A    between atoms: C8_10  and  O2_11 
REMARK    4  A    between atoms: N1_13  and  C9_14 
REMARK    5  A    between atoms: C9_14  and  N2_15 
ROOT
HETATM    1  C1  UNL     1      18.826   8.446  43.700  1.00  0.00     0.146 A 
HETATM    2  C2  UNL     1      18.100   9.536  43.287  1.00  0.00     0.068 A 
HETATM    3  C3  UNL     1      17.072   9.767  44.171  1.00  0.00     0.001 A 
HETATM    4  C8  UNL     1      17.206   8.774  45.134  1.00  0.00     0.152 A 
HETATM    5  N1  UNL     1      18.252   7.993  44.847  1.00  0.00    -0.280 N 
ENDROOT
BRANCH   5   6
HETATM    6  C9  UNL     1      18.716   6.838  45.580  1.00  0.00     0.406 C 
BRANCH   6   7
HETATM    7  N2  UNL     1      19.459   7.154  46.739  1.00  0.00     0.110 N 
HETATM    8  C10 UNL     1      18.798   7.164  47.990  1.00  0.00     0.300 C 
HETATM    9  C11 UNL     1      18.585   5.782  48.558  1.00  0.00     0.198 C 
HETATM   10  O3  UNL     1      19.726   4.992  48.407  1.00  0.00    -0.388 OA
HETATM   11  C12 UNL     1      20.851   5.753  48.116  1.00  0.00     0.198 C 
HETATM   12  C13 UNL     1      20.737   6.458  46.769  1.00  0.00     0.300 C 
ENDBRANCH   6   7
ENDBRANCH   5   6
BRANCH   1  13
HETATM   13  O1  UNL     1      19.933   7.894  43.088  1.00  0.00    -0.346 OA
ATOM     14  H1  UNL     1      20.017   7.624  42.180  1.00  0.00     0.219 HD
ENDBRANCH   1  13
BRANCH   4  15
HETATM   15  O2  UNL     1      16.319   8.703  46.193  1.00  0.00    -0.345 OA
ATOM     16  H2  UNL     1      15.882   9.487  46.507  1.00  0.00     0.219 HD
ENDBRANCH   4  15
BRANCH   3  17
HETATM   17  C4  UNL     1      16.074  10.833  44.081  1.00  0.00     0.023 C 
HETATM   18  C5  UNL     1      16.448  11.852  43.033  1.00  0.00     0.009 C 
HETATM   19  C6  UNL     1      15.686  11.002  42.038  1.00  0.00     0.001 C 
HETATM   20  C7  UNL     1      14.864  10.512  43.212  1.00  0.00     0.009 C 
ENDBRANCH   3  17
TORSDOF 5
ENDMDL
MODEL 4
REMARK VINA RESULT: -6.473790772      7.019      9.595
REMARK  5 active torsions:
REMARK  status: ('A' for Active; 'I' for Inactive)
REMARK    1  A    between atoms: O1_1  and  C1_3 
REMARK    2  A    between atoms: C3_5  and  C4_6 
REMARK    3  A    between atoms: C8_10  and  O2_11 
REMARK    4  A    between atoms: N1_13  and  C9_14 
REMARK    5  A    between atoms: C9_14  and  N2_15 
ROOT
HETATM    1  C1  UNL     1      18.170   7.732  46.972  1.00  0.00     0.146 A 
HETATM    2  C2  UNL     1      18.963   6.875  47.695  1.00  0.00     0.068 A 
HETATM    3  C3  UNL     1      19.855   6.252  46.853  1.00  0.00     0.001 A 
HETATM    4  C8  UNL     1      19.569   6.766  45.594  1.00  0.00     0.152 A 
HETATM    5  N1  UNL     1      18.565   7.646  45.674  1.00  0.00    -0.280 N 
ENDROOT
BRANCH   5   6
HETATM    6  C9  UNL     1      17.952   8.382  44.592  1.00  0.00     0.406 C 
BRANCH   6   7
HETATM    7  N2  UNL     1      16.703   8.953  44.923  1.00  0.00     0.110 N 
HETATM    8  C10 UNL     1      16.557  10.358  44.854  1.00  0.00     0.300 C 
HETATM    9  C11 UNL     1      16.366  10.866  43.446  1.00  0.00     0.198 C 
HETATM   10  O3  UNL     1      15.472  10.062  42.736  1.00  0.00    -0.388 OA
HETATM   11  C12 UNL     1      14.729   9.243  43.576  1.00  0.00     0.198 C 
HETATM   12  C13 UNL     1      15.599   8.229  44.310  1.00  0.00     0.300 C 
ENDBRANCH   6   7
ENDBRANCH   5   6
BRANCH   1  13
HETATM   13  O1  UNL     1      17.156   8.539  47.447  1.00  0.00    -0.346 OA
ATOM     14  H1  UNL     1      17.233   9.267  48.052  1.00  0.00     0.219 HD
ENDBRANCH   1  13
BRANCH   4  15
HETATM   15  O2  UNL     1      20.287   6.348  44.488  1.00  0.00    -0.345 OA
ATOM     16  H2  UNL     1      20.321   5.426  44.258  1.00  0.00     0.219 HD
ENDBRANCH   4  15
BRANCH   3  17
HETATM   17  C4  UNL     1      20.867   5.268  47.236  1.00  0.00     0.023 C 
HETATM   18  C5  UNL     1      22.222   5.908  47.406  1.00  0.00     0.009 C 
HETATM   19  C6  UNL     1      21.850   6.145  48.854  1.00  0.00     0.001 C 
HETATM   20  C7  UNL     1      20.927   4.952  48.726  1.00  0.00     0.009 C 
ENDBRANCH   3  17
TORSDOF 5
ENDMDL
MODEL 5
REMARK VINA RESULT: -6.462373258      6.120      7.121
REMARK  5 active torsions:
REMARK  status: ('A' for Active; 'I' for Inactive)
REMARK    1  A    between atoms: O1_1  and  C1_3 
REMARK    2  A    between atoms: C3_5  and  C4_6 
REMARK    3  A    between atoms: C8_10  and  O2_11 
REMARK    4  A    between atoms: N1_13  and  C9_14 
REMARK    5  A    between atoms: C9_14  and  N2_15 
ROOT
HETATM    1  C1  UNL     1      19.560   7.169  44.343  1.00  0.00     0.146 A 
HETATM    2  C2  UNL     1      18.480   7.969  44.062  1.00  0.00     0.068 A 
HETATM    3  C3  UNL     1      17.745   8.170  45.206  1.00  0.00     0.001 A 
HETATM    4  C8  UNL     1      18.423   7.460  46.190  1.00  0.00     0.152 A 
HETATM    5  N1  UNL     1      19.503   6.868  45.668  1.00  0.00    -0.280 N 
ENDROOT
BRANCH   5   6
HETATM    6  C9  UNL     1      20.456   6.020  46.346  1.00  0.00     0.406 C 
BRANCH   6   7
HETATM    7  N2  UNL     1      20.509   6.221  47.743  1.00  0.00     0.110 N 
HETATM    8  C10 UNL     1      19.940   5.243  48.593  1.00  0.00     0.300 C 
HETATM    9  C11 UNL     1      20.823   4.033  48.778  1.00  0.00     0.198 C 
HETATM   10  O3  UNL     1      22.154   4.403  48.977  1.00  0.00    -0.388 OA
HETATM   11  C12 UNL     1      22.276   5.746  49.308  1.00  0.00     0.198 C 
HETATM   12  C13 UNL     1      21.827   6.663  48.176  1.00  0.00     0.300 C 
ENDBRANCH   6   7
ENDBRANCH   5   6
BRANCH   1  13
HETATM   13  O1  UNL     1      20.535   6.737  43.467  1.00  0.00    -0.346 OA
ATOM     14  H1  UNL     1      20.422   6.179  42.706  1.00  0.00     0.219 HD
ENDBRANCH   1  13
BRANCH   4  15
HETATM   15  O2  UNL     1      17.950   7.440  47.490  1.00  0.00    -0.345 OA
ATOM     16  H2  UNL     1      18.490   7.765  48.202  1.00  0.00     0.219 HD
ENDBRANCH   4  15
BRANCH   3  17
HETATM   17  C4  UNL     1      16.521   8.963  45.323  1.00  0.00     0.023 C 
HETATM   18  C5  UNL     1      16.800  10.436  45.152  1.00  0.00     0.009 C 
HETATM   19  C6  UNL     1      16.572  10.233  43.668  1.00  0.00     0.001 C 
HETATM   20  C7  UNL     1      15.692   9.061  44.048  1.00  0.00     0.009 C 
ENDBRANCH   3  17
TORSDOF 5
ENDMDL
