MODEL 1
REMARK VINA RESULT: -8.046302299      0.000      0.000
REMARK  5 active torsions:
REMARK  status: ('A' for Active; 'I' for Inactive)
REMARK    1  A    between atoms: C2_2  and  C3_3 
REMARK    2  A    between atoms: C3_3  and  C4_4 
REMARK    3  A    between atoms: C4_4  and  C5_5 
REMARK    4  A    between atoms: C5_5  and  C7_7 
REMARK    5  A    between atoms: C15_15  and  O1_16 
ROOT
HETATM    1  C7  UNL     1      65.592  48.326  29.504  1.00  0.00    -0.002 C 
HETATM    2  C8  UNL     1      64.510  49.253  30.091  1.00  0.00     0.006 C 
HETATM    3  C9  UNL     1      63.899  48.569  31.253  1.00  0.00     0.006 C 
HETATM    4  C10 UNL     1      64.804  47.447  31.600  1.00  0.00     0.003 C 
HETATM    5  C11 UNL     1      65.320  47.618  32.972  1.00  0.00    -0.036 C 
HETATM    6  C12 UNL     1      65.811  48.987  33.312  1.00  0.00     0.016 C 
HETATM    7  C13 UNL     1      64.151  47.329  33.925  1.00  0.00     0.012 C 
HETATM    8  C14 UNL     1      64.509  47.418  35.356  1.00  0.00     0.032 C 
HETATM    9  C15 UNL     1      65.821  46.906  35.772  1.00  0.00     0.118 C 
HETATM   10  C16 UNL     1      66.850  46.699  34.717  1.00  0.00     0.037 C 
HETATM   11  C17 UNL     1      66.326  46.544  33.330  1.00  0.00    -0.004 C 
HETATM   12  C18 UNL     1      67.406  46.563  32.321  1.00  0.00     0.006 C 
HETATM   13  C19 UNL     1      67.192  47.446  31.140  1.00  0.00     0.010 C 
HETATM   14  C20 UNL     1      65.810  47.274  30.497  1.00  0.00    -0.036 C 
HETATM   15  C21 UNL     1      65.858  45.845  30.004  1.00  0.00     0.016 C 
ENDROOT
BRANCH   1  16
HETATM   16  C5  UNL     1      65.148  48.038  28.121  1.00  0.00    -0.014 C 
HETATM   17  C6  UNL     1      65.204  49.248  27.208  1.00  0.00     0.010 C 
BRANCH  16  18
HETATM   18  C4  UNL     1      63.842  47.382  27.887  1.00  0.00     0.005 C 
BRANCH  18  19
HETATM   19  C3  UNL     1      62.764  48.196  27.248  1.00  0.00     0.000 C 
BRANCH  19  20
HETATM   20  C2  UNL     1      61.501  48.250  28.079  1.00  0.00    -0.005 C 
HETATM   21  C1  UNL     1      61.577  47.072  29.045  1.00  0.00     0.005 C 
ENDBRANCH  19  20
ENDBRANCH  18  19
ENDBRANCH  16  18
ENDBRANCH   1  16
BRANCH   9  22
HETATM   22  O1  UNL     1      66.376  47.821  36.703  1.00  0.00    -0.396 OA
ATOM     23  H1  UNL     1      67.319  47.819  36.593  1.00  0.00     0.210 HD
ENDBRANCH   9  22
TORSDOF 5
ENDMDL
MODEL 2
REMARK VINA RESULT: -7.800711296      1.599      3.487
REMARK  5 active torsions:
REMARK  status: ('A' for Active; 'I' for Inactive)
REMARK    1  A    between atoms: C2_2  and  C3_3 
REMARK    2  A    between atoms: C3_3  and  C4_4 
REMARK    3  A    between atoms: C4_4  and  C5_5 
REMARK    4  A    between atoms: C5_5  and  C7_7 
REMARK    5  A    between atoms: C15_15  and  O1_16 
ROOT
HETATM    1  C7  UNL     1      63.182  47.389  29.403  1.00  0.00    -0.002 C 
HETATM    2  C8  UNL     1      64.052  46.452  28.543  1.00  0.00     0.006 C 
HETATM    3  C9  UNL     1      65.473  46.795  28.782  1.00  0.00     0.006 C 
HETATM    4  C10 UNL     1      65.500  47.638  30.001  1.00  0.00     0.003 C 
HETATM    5  C11 UNL     1      66.299  46.983  31.053  1.00  0.00    -0.036 C 
HETATM    6  C12 UNL     1      66.021  45.531  31.266  1.00  0.00     0.016 C 
HETATM    7  C13 UNL     1      67.769  47.083  30.621  1.00  0.00     0.012 C 
HETATM    8  C14 UNL     1      68.720  46.504  31.593  1.00  0.00     0.032 C 
HETATM    9  C15 UNL     1      68.454  46.706  33.023  1.00  0.00     0.118 C 
HETATM   10  C16 UNL     1      67.081  47.120  33.420  1.00  0.00     0.037 C 
HETATM   11  C17 UNL     1      66.270  47.767  32.349  1.00  0.00    -0.004 C 
HETATM   12  C18 UNL     1      64.859  47.948  32.751  1.00  0.00     0.006 C 
HETATM   13  C19 UNL     1      63.829  47.516  31.765  1.00  0.00     0.010 C 
HETATM   14  C20 UNL     1      64.093  48.039  30.346  1.00  0.00    -0.036 C 
HETATM   15  C21 UNL     1      63.966  49.536  30.524  1.00  0.00     0.016 C 
ENDROOT
BRANCH   1  16
HETATM   16  C5  UNL     1      62.360  48.151  28.436  1.00  0.00    -0.014 C 
HETATM   17  C6  UNL     1      60.900  47.740  28.436  1.00  0.00     0.010 C 
BRANCH  16  18
HETATM   18  C4  UNL     1      62.781  48.244  27.021  1.00  0.00     0.005 C 
BRANCH  18  19
HETATM   19  C3  UNL     1      63.290  49.564  26.536  1.00  0.00     0.000 C 
BRANCH  19  20
HETATM   20  C2  UNL     1      64.513  50.034  27.292  1.00  0.00    -0.005 C 
HETATM   21  C1  UNL     1      65.716  49.440  26.565  1.00  0.00     0.005 C 
ENDBRANCH  19  20
ENDBRANCH  18  19
ENDBRANCH  16  18
ENDBRANCH   1  16
BRANCH   9  22
HETATM   22  O1  UNL     1      68.718  45.484  33.696  1.00  0.00    -0.396 OA
ATOM     23  H1  UNL     1      67.887  45.064  33.881  1.00  0.00     0.210 HD
ENDBRANCH   9  22
TORSDOF 5
ENDMDL
MODEL 3
REMARK VINA RESULT: -7.722894938      2.656      6.278
REMARK  5 active torsions:
REMARK  status: ('A' for Active; 'I' for Inactive)
REMARK    1  A    between atoms: C2_2  and  C3_3 
REMARK    2  A    between atoms: C3_3  and  C4_4 
REMARK    3  A    between atoms: C4_4  and  C5_5 
REMARK    4  A    between atoms: C5_5  and  C7_7 
REMARK    5  A    between atoms: C15_15  and  O1_16 
ROOT
HETATM    1  C7  UNL     1      65.514  46.963  32.759  1.00  0.00    -0.002 C 
HETATM    2  C8  UNL     1      64.303  47.879  33.019  1.00  0.00     0.006 C 
HETATM    3  C9  UNL     1      64.234  48.873  31.924  1.00  0.00     0.006 C 
HETATM    4  C10 UNL     1      65.122  48.372  30.848  1.00  0.00     0.003 C 
HETATM    5  C11 UNL     1      64.343  48.132  29.618  1.00  0.00    -0.036 C 
HETATM    6  C12 UNL     1      63.055  47.399  29.801  1.00  0.00     0.016 C 
HETATM    7  C13 UNL     1      63.978  49.511  29.049  1.00  0.00     0.012 C 
HETATM    8  C14 UNL     1      63.222  49.454  27.780  1.00  0.00     0.032 C 
HETATM    9  C15 UNL     1      63.599  48.430  26.797  1.00  0.00     0.118 C 
HETATM   10  C16 UNL     1      64.424  47.286  27.271  1.00  0.00     0.037 C 
HETATM   11  C17 UNL     1      65.196  47.525  28.524  1.00  0.00    -0.004 C 
HETATM   12  C18 UNL     1      65.811  46.287  29.045  1.00  0.00     0.006 C 
HETATM   13  C19 UNL     1      65.625  46.017  30.499  1.00  0.00     0.010 C 
HETATM   14  C20 UNL     1      65.940  47.230  31.385  1.00  0.00    -0.036 C 
HETATM   15  C21 UNL     1      67.417  47.436  31.136  1.00  0.00     0.016 C 
ENDROOT
BRANCH   1  16
HETATM   16  C5  UNL     1      66.408  47.162  33.923  1.00  0.00    -0.014 C 
HETATM   17  C6  UNL     1      67.043  45.876  34.418  1.00  0.00     0.010 C 
BRANCH  16  18
HETATM   18  C4  UNL     1      65.917  47.887  35.115  1.00  0.00     0.005 C 
BRANCH  18  19
HETATM   19  C3  UNL     1      65.599  47.080  36.333  1.00  0.00     0.000 C 
BRANCH  19  20
HETATM   20  C2  UNL     1      64.116  47.022  36.626  1.00  0.00    -0.005 C 
HETATM   21  C1  UNL     1      63.556  48.394  36.259  1.00  0.00     0.005 C 
ENDBRANCH  19  20
ENDBRANCH  18  19
ENDBRANCH  16  18
ENDBRANCH   1  16
BRANCH   9  22
HETATM   22  O1  UNL     1      62.408  47.876  26.261  1.00  0.00    -0.396 OA
ATOM     23  H1  UNL     1      61.908  47.504  26.978  1.00  0.00     0.210 HD
ENDBRANCH   9  22
TORSDOF 5
ENDMDL
MODEL 4
REMARK VINA RESULT: -7.379204304      1.559      2.204
REMARK  5 active torsions:
REMARK  status: ('A' for Active; 'I' for Inactive)
REMARK    1  A    between atoms: C2_2  and  C3_3 
REMARK    2  A    between atoms: C3_3  and  C4_4 
REMARK    3  A    between atoms: C4_4  and  C5_5 
REMARK    4  A    between atoms: C5_5  and  C7_7 
REMARK    5  A    between atoms: C15_15  and  O1_16 
ROOT
HETATM    1  C7  UNL     1      64.402  48.590  28.870  1.00  0.00    -0.002 C 
HETATM    2  C8  UNL     1      63.889  49.294  30.140  1.00  0.00     0.006 C 
HETATM    3  C9  UNL     1      64.010  48.349  31.273  1.00  0.00     0.006 C 
HETATM    4  C10 UNL     1      64.897  47.255  30.810  1.00  0.00     0.003 C 
HETATM    5  C11 UNL     1      66.106  47.191  31.652  1.00  0.00    -0.036 C 
HETATM    6  C12 UNL     1      66.770  48.500  31.931  1.00  0.00     0.016 C 
HETATM    7  C13 UNL     1      65.669  46.629  33.013  1.00  0.00     0.012 C 
HETATM    8  C14 UNL     1      66.779  46.460  33.975  1.00  0.00     0.032 C 
HETATM    9  C15 UNL     1      68.069  45.980  33.464  1.00  0.00     0.118 C 
HETATM   10  C16 UNL     1      68.308  46.067  31.998  1.00  0.00     0.037 C 
HETATM   11  C17 UNL     1      67.084  46.149  31.150  1.00  0.00    -0.004 C 
HETATM   12  C18 UNL     1      67.403  46.451  29.739  1.00  0.00     0.006 C 
HETATM   13  C19 UNL     1      66.602  47.531  29.097  1.00  0.00     0.010 C 
HETATM   14  C20 UNL     1      65.091  47.383  29.325  1.00  0.00    -0.036 C 
HETATM   15  C21 UNL     1      64.783  46.087  28.607  1.00  0.00     0.016 C 
ENDROOT
BRANCH   1  16
HETATM   16  C5  UNL     1      63.239  48.546  27.954  1.00  0.00    -0.014 C 
HETATM   17  C6  UNL     1      63.423  49.398  26.712  1.00  0.00     0.010 C 
BRANCH  16  18
HETATM   18  C4  UNL     1      61.881  48.825  28.471  1.00  0.00     0.005 C 
BRANCH  18  19
HETATM   19  C3  UNL     1      60.887  47.708  28.442  1.00  0.00     0.000 C 
BRANCH  19  20
HETATM   20  C2  UNL     1      61.177  46.641  29.474  1.00  0.00    -0.005 C 
HETATM   21  C1  UNL     1      59.819  46.142  29.962  1.00  0.00     0.005 C 
ENDBRANCH  19  20
ENDBRANCH  18  19
ENDBRANCH  16  18
ENDBRANCH   1  16
BRANCH   9  22
HETATM   22  O1  UNL     1      69.097  46.734  34.087  1.00  0.00    -0.396 OA
ATOM     23  H1  UNL     1      69.933  46.388  33.797  1.00  0.00     0.210 HD
ENDBRANCH   9  22
TORSDOF 5
ENDMDL
MODEL 5
REMARK VINA RESULT: -7.169635929      1.661      3.331
REMARK  5 active torsions:
REMARK  status: ('A' for Active; 'I' for Inactive)
REMARK    1  A    between atoms: C2_2  and  C3_3 
REMARK    2  A    between atoms: C3_3  and  C4_4 
REMARK    3  A    between atoms: C4_4  and  C5_5 
REMARK    4  A    between atoms: C5_5  and  C7_7 
REMARK    5  A    between atoms: C15_15  and  O1_16 
ROOT
HETATM    1  C7  UNL     1      63.247  47.319  28.971  1.00  0.00    -0.002 C 
HETATM    2  C8  UNL     1      64.218  46.396  28.211  1.00  0.00     0.006 C 
HETATM    3  C9  UNL     1      65.601  46.794  28.560  1.00  0.00     0.006 C 
HETATM    4  C10 UNL     1      65.495  47.663  29.757  1.00  0.00     0.003 C 
HETATM    5  C11 UNL     1      66.223  47.058  30.888  1.00  0.00    -0.036 C 
HETATM    6  C12 UNL     1      65.977  45.602  31.111  1.00  0.00     0.016 C 
HETATM    7  C13 UNL     1      67.720  47.201  30.580  1.00  0.00     0.012 C 
HETATM    8  C14 UNL     1      68.604  46.677  31.643  1.00  0.00     0.032 C 
HETATM    9  C15 UNL     1      68.210  46.899  33.040  1.00  0.00     0.118 C 
HETATM   10  C16 UNL     1      66.795  47.272  33.309  1.00  0.00     0.037 C 
HETATM   11  C17 UNL     1      66.057  47.867  32.158  1.00  0.00    -0.004 C 
HETATM   12  C18 UNL     1      64.612  48.008  32.435  1.00  0.00     0.006 C 
HETATM   13  C19 UNL     1      63.685  47.519  31.375  1.00  0.00     0.010 C 
HETATM   14  C20 UNL     1      64.051  48.020  29.972  1.00  0.00    -0.036 C 
HETATM   15  C21 UNL     1      63.859  49.515  30.103  1.00  0.00     0.016 C 
ENDROOT
BRANCH   1  16
HETATM   16  C5  UNL     1      62.485  48.031  27.919  1.00  0.00    -0.014 C 
HETATM   17  C6  UNL     1      63.162  49.304  27.447  1.00  0.00     0.010 C 
BRANCH  16  18
HETATM   18  C4  UNL     1      61.058  48.356  28.134  1.00  0.00     0.005 C 
BRANCH  18  19
HETATM   19  C3  UNL     1      60.189  47.295  28.729  1.00  0.00     0.000 C 
BRANCH  19  20
HETATM   20  C2  UNL     1      58.797  47.277  28.136  1.00  0.00    -0.005 C 
HETATM   21  C1  UNL     1      57.933  46.470  29.101  1.00  0.00     0.005 C 
ENDBRANCH  19  20
ENDBRANCH  18  19
ENDBRANCH  16  18
ENDBRANCH   1  16
BRANCH   9  22
HETATM   22  O1  UNL     1      68.456  45.702  33.762  1.00  0.00    -0.396 OA
ATOM     23  H1  UNL     1      68.952  45.117  33.201  1.00  0.00     0.210 HD
ENDBRANCH   9  22
TORSDOF 5
ENDMDL
