MODEL 1
REMARK VINA RESULT: -7.509153012      0.000      0.000
REMARK  10 active torsions:
REMARK  status: ('A' for Active; 'I' for Inactive)
REMARK    1  A    between atoms: C6_8  and  N2_9 
REMARK    2  A    between atoms: N2_9  and  C7_11 
REMARK    3  A    between atoms: C8_14  and  N4_15 
REMARK    4  A    between atoms: N4_15  and  C9_17 
REMARK    5  A    between atoms: C9_17  and  C10_18 
REMARK    6  A    between atoms: C10_18  and  N5_19 
REMARK    7  A    between atoms: C13_24  and  N7_25 
REMARK    8  A    between atoms: N7_25  and  C14_27 
REMARK    9  A    between atoms: C17_30  and  O1_31 
REMARK   10  A    between atoms: O1_31  and  C18_32 
ROOT
HETATM    1  C7  UNL     1      -3.648   2.570  11.842  1.00  0.00     0.711 A 
HETATM    2  N3  UNL     1      -3.365   1.649  12.801  1.00  0.00    -0.021 N 
ATOM      3  H3  UNL     1      -2.671   0.928  12.597  1.00  0.00     0.203 HD
HETATM    4  C8  UNL     1      -3.959   1.647  14.002  1.00  0.00     0.707 A 
HETATM    5  N6  UNL     1      -4.875   2.596  14.279  1.00  0.00    -0.021 N 
ATOM      6  H6  UNL     1      -5.336   2.610  15.189  1.00  0.00     0.203 HD
HETATM    7  C13 UNL     1      -5.182   3.522  13.358  1.00  0.00     0.711 A 
HETATM    8  N8  UNL     1      -4.573   3.504  12.160  1.00  0.00    -0.021 N 
ATOM      9  H8  UNL     1      -4.816   4.214  11.470  1.00  0.00     0.203 HD
ENDROOT
BRANCH   7  10
HETATM   10  N7  UNL     1      -6.057   4.424  13.630  1.00  0.00    -0.191 N 
ATOM     11  H7  UNL     1      -7.022   4.122  13.764  1.00  0.00     0.184 HD
BRANCH  10  12
HETATM   12  C14 UNL     1      -5.778   5.803  13.757  1.00  0.00     0.049 A 
HETATM   13  C15 UNL     1      -4.898   6.228  14.721  1.00  0.00     0.033 A 
HETATM   14  C16 UNL     1      -4.591   7.577  14.886  1.00  0.00     0.039 A 
HETATM   15  C17 UNL     1      -5.178   8.517  14.068  1.00  0.00     0.078 A 
HETATM   16  C19 UNL     1      -6.070   8.084  13.091  1.00  0.00     0.039 A 
HETATM   17  C20 UNL     1      -6.366   6.733  12.941  1.00  0.00     0.033 A 
BRANCH  15  18
HETATM   18  O1  UNL     1      -4.877   9.862  14.227  1.00  0.00    -0.255 OA
BRANCH  18  19
HETATM   19  C18 UNL     1      -3.768  10.368  13.496  1.00  0.00     0.530 C 
HETATM   20  F1  UNL     1      -3.167   9.378  12.731  1.00  0.00    -0.144 F 
HETATM   21  F2  UNL     1      -4.161  11.384  12.648  1.00  0.00    -0.144 F 
HETATM   22  F3  UNL     1      -2.788  10.853  14.344  1.00  0.00    -0.144 F 
ENDBRANCH  18  19
ENDBRANCH  15  18
ENDBRANCH  10  12
ENDBRANCH   7  10
BRANCH   4  23
HETATM   23  N4  UNL     1      -3.708   0.790  14.923  1.00  0.00    -0.223 N 
ATOM     24  H4  UNL     1      -3.398  -0.133  14.620  1.00  0.00     0.177 HD
BRANCH  23  25
HETATM   25  C9  UNL     1      -3.820   1.003  16.330  1.00  0.00     0.168 C 
BRANCH  25  26
HETATM   26  C10 UNL     1      -4.910   0.172  16.955  1.00  0.00     0.291 C 
BRANCH  26  27
HETATM   27  N5  UNL     1      -5.984   0.921  17.506  1.00  0.00     0.081 N 
HETATM   28  C11 UNL     1      -5.602   2.141  18.144  1.00  0.00     0.309 C 
HETATM   29  C12 UNL     1      -7.084   1.150  16.624  1.00  0.00     0.309 C 
ENDBRANCH  26  27
ENDBRANCH  25  26
ENDBRANCH  23  25
ENDBRANCH   4  23
BRANCH   1  30
HETATM   30  N2  UNL     1      -3.057   2.542  10.695  1.00  0.00    -0.189 N 
ATOM     31  H2  UNL     1      -3.503   1.998   9.957  1.00  0.00     0.184 HD
BRANCH  30  32
HETATM   32  C6  UNL     1      -1.859   3.188  10.372  1.00  0.00     0.071 A 
HETATM   33  C2  UNL     1      -0.709   2.402  10.236  1.00  0.00     0.032 A 
HETATM   34  C1  UNL     1      -0.818   0.917  10.439  1.00  0.00     0.070 C 
HETATM   35  N1  UNL     1       0.457   2.988   9.929  1.00  0.00    -0.368 N 
HETATM   36  C3  UNL     1       0.607   4.310   9.737  1.00  0.00     0.088 A 
ATOM     37  H1  UNL     1       1.281   2.394   9.834  1.00  0.00     0.165 HD
HETATM   38  C4  UNL     1      -0.528   5.096   9.869  1.00  0.00     0.019 A 
HETATM   39  C5  UNL     1      -1.745   4.549  10.181  1.00  0.00     0.033 A 
ENDBRANCH  30  32
ENDBRANCH   1  30
TORSDOF 10
ENDMDL
MODEL 2
REMARK VINA RESULT: -7.318790604      4.392      6.080
REMARK  10 active torsions:
REMARK  status: ('A' for Active; 'I' for Inactive)
REMARK    1  A    between atoms: C6_8  and  N2_9 
REMARK    2  A    between atoms: N2_9  and  C7_11 
REMARK    3  A    between atoms: C8_14  and  N4_15 
REMARK    4  A    between atoms: N4_15  and  C9_17 
REMARK    5  A    between atoms: C9_17  and  C10_18 
REMARK    6  A    between atoms: C10_18  and  N5_19 
REMARK    7  A    between atoms: C13_24  and  N7_25 
REMARK    8  A    between atoms: N7_25  and  C14_27 
REMARK    9  A    between atoms: C17_30  and  O1_31 
REMARK   10  A    between atoms: O1_31  and  C18_32 
ROOT
HETATM    1  C7  UNL     1       0.431   4.510  10.734  1.00  0.00     0.711 A 
HETATM    2  N3  UNL     1       0.361   3.156  10.637  1.00  0.00    -0.021 N 
ATOM      3  H3  UNL     1       1.095   2.664  10.126  1.00  0.00     0.203 HD
HETATM    4  C8  UNL     1      -0.632   2.440  11.183  1.00  0.00     0.707 A 
HETATM    5  N6  UNL     1      -1.604   3.082  11.859  1.00  0.00    -0.021 N 
ATOM      6  H6  UNL     1      -2.367   2.552  12.282  1.00  0.00     0.203 HD
HETATM    7  C13 UNL     1      -1.571   4.419  11.977  1.00  0.00     0.711 A 
HETATM    8  N8  UNL     1      -0.565   5.115  11.420  1.00  0.00    -0.021 N 
ATOM      9  H8  UNL     1      -0.552   6.131  11.518  1.00  0.00     0.203 HD
ENDROOT
BRANCH   7  10
HETATM   10  N7  UNL     1      -2.502   5.024  12.624  1.00  0.00    -0.191 N 
ATOM     11  H7  UNL     1      -2.586   6.033  12.500  1.00  0.00     0.184 HD
BRANCH  10  12
HETATM   12  C14 UNL     1      -3.417   4.392  13.494  1.00  0.00     0.049 A 
HETATM   13  C15 UNL     1      -2.970   3.875  14.684  1.00  0.00     0.033 A 
HETATM   14  C16 UNL     1      -3.834   3.243  15.576  1.00  0.00     0.039 A 
HETATM   15  C17 UNL     1      -5.172   3.126  15.268  1.00  0.00     0.078 A 
HETATM   16  C19 UNL     1      -5.623   3.651  14.061  1.00  0.00     0.039 A 
HETATM   17  C20 UNL     1      -4.746   4.279  13.181  1.00  0.00     0.033 A 
BRANCH  15  18
HETATM   18  O1  UNL     1      -6.037   2.497  16.151  1.00  0.00    -0.255 OA
BRANCH  18  19
HETATM   19  C18 UNL     1      -5.649   1.221  16.640  1.00  0.00     0.530 C 
HETATM   20  F1  UNL     1      -4.884   0.529  15.711  1.00  0.00    -0.144 F 
HETATM   21  F2  UNL     1      -4.908   1.343  17.798  1.00  0.00    -0.144 F 
HETATM   22  F3  UNL     1      -6.752   0.428  16.902  1.00  0.00    -0.144 F 
ENDBRANCH  18  19
ENDBRANCH  15  18
ENDBRANCH  10  12
ENDBRANCH   7  10
BRANCH   4  23
HETATM   23  N4  UNL     1      -0.718   1.163  11.104  1.00  0.00    -0.223 N 
ATOM     24  H4  UNL     1      -0.110   0.621  11.718  1.00  0.00     0.177 HD
BRANCH  23  25
HETATM   25  C9  UNL     1      -1.584   0.426  10.241  1.00  0.00     0.168 C 
BRANCH  25  26
HETATM   26  C10 UNL     1      -2.488  -0.514  10.994  1.00  0.00     0.291 C 
BRANCH  26  27
HETATM   27  N5  UNL     1      -3.738   0.042  11.377  1.00  0.00     0.081 N 
HETATM   28  C11 UNL     1      -3.776   0.585  12.698  1.00  0.00     0.309 C 
HETATM   29  C12 UNL     1      -4.301   0.970  10.449  1.00  0.00     0.309 C 
ENDBRANCH  26  27
ENDBRANCH  25  26
ENDBRANCH  23  25
ENDBRANCH   4  23
BRANCH   1  30
HETATM   30  N2  UNL     1       1.402   5.168  10.196  1.00  0.00    -0.189 N 
ATOM     31  H2  UNL     1       1.222   5.604   9.292  1.00  0.00     0.184 HD
BRANCH  30  32
HETATM   32  C6  UNL     1       2.680   5.338  10.739  1.00  0.00     0.071 A 
HETATM   33  C2  UNL     1       3.770   4.855  10.006  1.00  0.00     0.032 A 
HETATM   34  C1  UNL     1       3.516   4.187   8.684  1.00  0.00     0.070 C 
HETATM   35  N1  UNL     1       5.010   4.999  10.497  1.00  0.00    -0.368 N 
HETATM   36  C3  UNL     1       5.290   5.589  11.672  1.00  0.00     0.088 A 
ATOM     37  H1  UNL     1       5.788   4.640   9.945  1.00  0.00     0.165 HD
HETATM   38  C4  UNL     1       4.215   6.071  12.404  1.00  0.00     0.019 A 
HETATM   39  C5  UNL     1       2.927   5.951  11.949  1.00  0.00     0.033 A 
ENDBRANCH  30  32
ENDBRANCH   1  30
TORSDOF 10
ENDMDL
MODEL 3
REMARK VINA RESULT: -7.315607859      4.403      6.330
REMARK  10 active torsions:
REMARK  status: ('A' for Active; 'I' for Inactive)
REMARK    1  A    between atoms: C6_8  and  N2_9 
REMARK    2  A    between atoms: N2_9  and  C7_11 
REMARK    3  A    between atoms: C8_14  and  N4_15 
REMARK    4  A    between atoms: N4_15  and  C9_17 
REMARK    5  A    between atoms: C9_17  and  C10_18 
REMARK    6  A    between atoms: C10_18  and  N5_19 
REMARK    7  A    between atoms: C13_24  and  N7_25 
REMARK    8  A    between atoms: N7_25  and  C14_27 
REMARK    9  A    between atoms: C17_30  and  O1_31 
REMARK   10  A    between atoms: O1_31  and  C18_32 
ROOT
HETATM    1  C7  UNL     1       0.556   4.653  10.998  1.00  0.00     0.711 A 
HETATM    2  N3  UNL     1       0.509   3.309  10.793  1.00  0.00    -0.021 N 
ATOM      3  H3  UNL     1       1.300   2.857  10.334  1.00  0.00     0.203 HD
HETATM    4  C8  UNL     1      -0.533   2.555  11.169  1.00  0.00     0.707 A 
HETATM    5  N6  UNL     1      -1.581   3.145  11.777  1.00  0.00    -0.021 N 
ATOM      6  H6  UNL     1      -2.382   2.585  12.071  1.00  0.00     0.203 HD
HETATM    7  C13 UNL     1      -1.572   4.469  11.996  1.00  0.00     0.711 A 
HETATM    8  N8  UNL     1      -0.516   5.205  11.610  1.00  0.00    -0.021 N 
ATOM      9  H8  UNL     1      -0.522   6.210  11.784  1.00  0.00     0.203 HD
ENDROOT
BRANCH   7  10
HETATM   10  N7  UNL     1      -2.576   5.024  12.578  1.00  0.00    -0.191 N 
ATOM     11  H7  UNL     1      -2.774   5.998  12.351  1.00  0.00     0.184 HD
BRANCH  10  12
HETATM   12  C14 UNL     1      -3.423   4.382  13.507  1.00  0.00     0.049 A 
HETATM   13  C15 UNL     1      -4.758   4.243  13.221  1.00  0.00     0.033 A 
HETATM   14  C16 UNL     1      -5.633   3.617  14.106  1.00  0.00     0.039 A 
HETATM   15  C17 UNL     1      -5.160   3.121  15.301  1.00  0.00     0.078 A 
HETATM   16  C19 UNL     1      -3.806   3.263  15.589  1.00  0.00     0.039 A 
HETATM   17  C20 UNL     1      -2.946   3.892  14.695  1.00  0.00     0.033 A 
BRANCH  15  18
HETATM   18  O1  UNL     1      -6.027   2.497  16.187  1.00  0.00    -0.255 OA
BRANCH  18  19
HETATM   19  C18 UNL     1      -5.650   1.213  16.665  1.00  0.00     0.530 C 
HETATM   20  F1  UNL     1      -4.889   0.524  15.731  1.00  0.00    -0.144 F 
HETATM   21  F2  UNL     1      -4.909   1.320  17.826  1.00  0.00    -0.144 F 
HETATM   22  F3  UNL     1      -6.760   0.427  16.919  1.00  0.00    -0.144 F 
ENDBRANCH  18  19
ENDBRANCH  15  18
ENDBRANCH  10  12
ENDBRANCH   7  10
BRANCH   4  23
HETATM   23  N4  UNL     1      -0.599   1.287  10.987  1.00  0.00    -0.223 N 
ATOM     24  H4  UNL     1       0.098   0.716  11.465  1.00  0.00     0.177 HD
BRANCH  23  25
HETATM   25  C9  UNL     1      -1.556   0.598  10.181  1.00  0.00     0.168 C 
BRANCH  25  26
HETATM   26  C10 UNL     1      -2.371  -0.391  10.971  1.00  0.00     0.291 C 
BRANCH  26  27
HETATM   27  N5  UNL     1      -3.653   0.077  11.365  1.00  0.00     0.081 N 
HETATM   28  C11 UNL     1      -3.723   0.593  12.696  1.00  0.00     0.309 C 
HETATM   29  C12 UNL     1      -4.278   0.982  10.454  1.00  0.00     0.309 C 
ENDBRANCH  26  27
ENDBRANCH  25  26
ENDBRANCH  23  25
ENDBRANCH   4  23
BRANCH   1  30
HETATM   30  N2  UNL     1       1.576   5.349  10.624  1.00  0.00    -0.189 N 
ATOM     31  H2  UNL     1       1.580   5.683   9.660  1.00  0.00     0.184 HD
BRANCH  30  32
HETATM   32  C6  UNL     1       2.676   5.688  11.417  1.00  0.00     0.071 A 
HETATM   33  C2  UNL     1       2.751   6.998  11.905  1.00  0.00     0.032 A 
HETATM   34  C1  UNL     1       1.654   7.964  11.557  1.00  0.00     0.070 C 
HETATM   35  N1  UNL     1       3.793   7.358  12.668  1.00  0.00    -0.368 N 
HETATM   36  C3  UNL     1       4.799   6.533  13.007  1.00  0.00     0.088 A 
ATOM     37  H1  UNL     1       3.825   8.318  13.012  1.00  0.00     0.165 HD
HETATM   38  C4  UNL     1       4.731   5.233  12.528  1.00  0.00     0.019 A 
HETATM   39  C5  UNL     1       3.688   4.811  11.745  1.00  0.00     0.033 A 
ENDBRANCH  30  32
ENDBRANCH   1  30
TORSDOF 10
ENDMDL
MODEL 4
REMARK VINA RESULT: -7.263356356      4.265      8.200
REMARK  10 active torsions:
REMARK  status: ('A' for Active; 'I' for Inactive)
REMARK    1  A    between atoms: C6_8  and  N2_9 
REMARK    2  A    between atoms: N2_9  and  C7_11 
REMARK    3  A    between atoms: C8_14  and  N4_15 
REMARK    4  A    between atoms: N4_15  and  C9_17 
REMARK    5  A    between atoms: C9_17  and  C10_18 
REMARK    6  A    between atoms: C10_18  and  N5_19 
REMARK    7  A    between atoms: C13_24  and  N7_25 
REMARK    8  A    between atoms: N7_25  and  C14_27 
REMARK    9  A    between atoms: C17_30  and  O1_31 
REMARK   10  A    between atoms: O1_31  and  C18_32 
ROOT
HETATM    1  C7  UNL     1      -3.581   6.322  11.153  1.00  0.00     0.711 A 
HETATM    2  N3  UNL     1      -2.360   6.239  10.561  1.00  0.00    -0.021 N 
ATOM      3  H3  UNL     1      -1.870   7.104  10.328  1.00  0.00     0.203 HD
HETATM    4  C8  UNL     1      -1.773   5.070  10.270  1.00  0.00     0.707 A 
HETATM    5  N6  UNL     1      -2.413   3.924  10.575  1.00  0.00    -0.021 N 
ATOM      6  H6  UNL     1      -1.980   3.025  10.361  1.00  0.00     0.203 HD
HETATM    7  C13 UNL     1      -3.621   3.964  11.159  1.00  0.00     0.711 A 
HETATM    8  N8  UNL     1      -4.190   5.149  11.441  1.00  0.00    -0.021 N 
ATOM      9  H8  UNL     1      -5.107   5.164  11.886  1.00  0.00     0.203 HD
ENDROOT
BRANCH   7  10
HETATM   10  N7  UNL     1      -4.224   2.866  11.447  1.00  0.00    -0.191 N 
ATOM     11  H7  UNL     1      -4.789   2.431  10.717  1.00  0.00     0.184 HD
BRANCH  10  12
HETATM   12  C14 UNL     1      -4.162   2.219  12.700  1.00  0.00     0.049 A 
HETATM   13  C15 UNL     1      -4.394   2.940  13.844  1.00  0.00     0.033 A 
HETATM   14  C16 UNL     1      -4.344   2.347  15.104  1.00  0.00     0.039 A 
HETATM   15  C17 UNL     1      -4.055   1.004  15.218  1.00  0.00     0.078 A 
HETATM   16  C19 UNL     1      -3.821   0.275  14.056  1.00  0.00     0.039 A 
HETATM   17  C20 UNL     1      -3.874   0.884  12.806  1.00  0.00     0.033 A 
BRANCH  15  18
HETATM   18  O1  UNL     1      -4.003   0.407  16.469  1.00  0.00    -0.255 OA
BRANCH  18  19
HETATM   19  C18 UNL     1      -5.197   0.414  17.240  1.00  0.00     0.530 C 
HETATM   20  F1  UNL     1      -5.456  -0.833  17.791  1.00  0.00    -0.144 F 
HETATM   21  F2  UNL     1      -5.110   1.328  18.271  1.00  0.00    -0.144 F 
HETATM   22  F3  UNL     1      -6.296   0.730  16.460  1.00  0.00    -0.144 F 
ENDBRANCH  18  19
ENDBRANCH  15  18
ENDBRANCH  10  12
ENDBRANCH   7  10
BRANCH   4  23
HETATM   23  N4  UNL     1      -0.622   4.967   9.713  1.00  0.00    -0.223 N 
ATOM     24  H4  UNL     1      -0.197   5.829   9.370  1.00  0.00     0.177 HD
BRANCH  23  25
HETATM   25  C9  UNL     1       0.122   3.763   9.527  1.00  0.00     0.168 C 
BRANCH  25  26
HETATM   26  C10 UNL     1       1.316   3.955   8.629  1.00  0.00     0.291 C 
BRANCH  26  27
HETATM   27  N5  UNL     1       2.570   3.697   9.246  1.00  0.00     0.081 N 
HETATM   28  C11 UNL     1       3.691   3.717   8.361  1.00  0.00     0.309 C 
HETATM   29  C12 UNL     1       2.849   4.476  10.410  1.00  0.00     0.309 C 
ENDBRANCH  26  27
ENDBRANCH  25  26
ENDBRANCH  23  25
ENDBRANCH   4  23
BRANCH   1  30
HETATM   30  N2  UNL     1      -4.117   7.465  11.419  1.00  0.00    -0.189 N 
ATOM     31  H2  UNL     1      -4.086   8.173  10.686  1.00  0.00     0.184 HD
BRANCH  30  32
HETATM   32  C6  UNL     1      -4.737   7.822  12.620  1.00  0.00     0.071 A 
HETATM   33  C2  UNL     1      -6.088   8.185  12.575  1.00  0.00     0.032 A 
HETATM   34  C1  UNL     1      -6.799   8.170  11.252  1.00  0.00     0.070 C 
HETATM   35  N1  UNL     1      -6.714   8.536  13.709  1.00  0.00    -0.368 N 
HETATM   36  C3  UNL     1      -6.124   8.565  14.916  1.00  0.00     0.088 A 
ATOM     37  H1  UNL     1      -7.699   8.796  13.651  1.00  0.00     0.165 HD
HETATM   38  C4  UNL     1      -4.786   8.206  14.969  1.00  0.00     0.019 A 
HETATM   39  C5  UNL     1      -4.098   7.839  13.842  1.00  0.00     0.033 A 
ENDBRANCH  30  32
ENDBRANCH   1  30
TORSDOF 10
ENDMDL
MODEL 5
REMARK VINA RESULT: -7.240234582      4.744      7.520
REMARK  10 active torsions:
REMARK  status: ('A' for Active; 'I' for Inactive)
REMARK    1  A    between atoms: C6_8  and  N2_9 
REMARK    2  A    between atoms: N2_9  and  C7_11 
REMARK    3  A    between atoms: C8_14  and  N4_15 
REMARK    4  A    between atoms: N4_15  and  C9_17 
REMARK    5  A    between atoms: C9_17  and  C10_18 
REMARK    6  A    between atoms: C10_18  and  N5_19 
REMARK    7  A    between atoms: C13_24  and  N7_25 
REMARK    8  A    between atoms: N7_25  and  C14_27 
REMARK    9  A    between atoms: C17_30  and  O1_31 
REMARK   10  A    between atoms: O1_31  and  C18_32 
ROOT
HETATM    1  C7  UNL     1      -5.562   6.120  12.740  1.00  0.00     0.711 A 
HETATM    2  N3  UNL     1      -5.691   5.392  13.882  1.00  0.00    -0.021 N 
ATOM      3  H3  UNL     1      -6.325   5.729  14.607  1.00  0.00     0.203 HD
HETATM    4  C8  UNL     1      -5.019   4.252  14.094  1.00  0.00     0.707 A 
HETATM    5  N6  UNL     1      -4.180   3.801  13.141  1.00  0.00    -0.021 N 
ATOM      6  H6  UNL     1      -3.662   2.934  13.286  1.00  0.00     0.203 HD
HETATM    7  C13 UNL     1      -4.026   4.491  12.000  1.00  0.00     0.711 A 
HETATM    8  N8  UNL     1      -4.711   5.632  11.810  1.00  0.00    -0.021 N 
ATOM      9  H8  UNL     1      -4.584   6.146  10.938  1.00  0.00     0.203 HD
ENDROOT
BRANCH   7  10
HETATM   10  N7  UNL     1      -3.224   4.053  11.096  1.00  0.00    -0.191 N 
ATOM     11  H7  UNL     1      -2.709   4.742  10.547  1.00  0.00     0.184 HD
BRANCH  10  12
HETATM   12  C14 UNL     1      -3.005   2.689  10.807  1.00  0.00     0.049 A 
HETATM   13  C15 UNL     1      -4.076   1.879  10.522  1.00  0.00     0.033 A 
HETATM   14  C16 UNL     1      -3.912   0.527  10.231  1.00  0.00     0.039 A 
HETATM   15  C17 UNL     1      -2.649  -0.024  10.227  1.00  0.00     0.078 A 
HETATM   16  C19 UNL     1      -1.565   0.799  10.516  1.00  0.00     0.039 A 
HETATM   17  C20 UNL     1      -1.747   2.147  10.805  1.00  0.00     0.033 A 
BRANCH  15  18
HETATM   18  O1  UNL     1      -2.479  -1.371   9.938  1.00  0.00    -0.255 OA
BRANCH  18  19
HETATM   19  C18 UNL     1      -2.092  -2.219  11.010  1.00  0.00     0.530 C 
HETATM   20  F1  UNL     1      -2.338  -3.554  10.720  1.00  0.00    -0.144 F 
HETATM   21  F2  UNL     1      -0.745  -2.082  11.282  1.00  0.00    -0.144 F 
HETATM   22  F3  UNL     1      -2.806  -1.933  12.160  1.00  0.00    -0.144 F 
ENDBRANCH  18  19
ENDBRANCH  15  18
ENDBRANCH  10  12
ENDBRANCH   7  10
BRANCH   4  23
HETATM   23  N4  UNL     1      -5.124   3.549  15.162  1.00  0.00    -0.223 N 
ATOM     24  H4  UNL     1      -5.314   4.053  16.028  1.00  0.00     0.177 HD
BRANCH  23  25
HETATM   25  C9  UNL     1      -5.001   2.130  15.254  1.00  0.00     0.168 C 
BRANCH  25  26
HETATM   26  C10 UNL     1      -4.394   1.687  16.559  1.00  0.00     0.291 C 
BRANCH  26  27
HETATM   27  N5  UNL     1      -5.331   1.233  17.526  1.00  0.00     0.081 N 
HETATM   28  C11 UNL     1      -5.604   2.158  18.580  1.00  0.00     0.309 C 
HETATM   29  C12 UNL     1      -6.553   0.718  16.996  1.00  0.00     0.309 C 
ENDBRANCH  26  27
ENDBRANCH  25  26
ENDBRANCH  23  25
ENDBRANCH   4  23
BRANCH   1  30
HETATM   30  N2  UNL     1      -6.225   7.213  12.568  1.00  0.00    -0.189 N 
ATOM     31  H2  UNL     1      -7.242   7.150  12.606  1.00  0.00     0.184 HD
BRANCH  30  32
HETATM   32  C6  UNL     1      -5.677   8.478  12.335  1.00  0.00     0.071 A 
HETATM   33  C2  UNL     1      -6.061   9.151  11.169  1.00  0.00     0.032 A 
HETATM   34  C1  UNL     1      -7.036   8.489  10.237  1.00  0.00     0.070 C 
HETATM   35  N1  UNL     1      -5.553  10.366  10.912  1.00  0.00    -0.368 N 
HETATM   36  C3  UNL     1      -4.680  11.001  11.712  1.00  0.00     0.088 A 
ATOM     37  H1  UNL     1      -5.849  10.837  10.056  1.00  0.00     0.165 HD
HETATM   38  C4  UNL     1      -4.295  10.341  12.869  1.00  0.00     0.019 A 
HETATM   39  C5  UNL     1      -4.783   9.099  13.182  1.00  0.00     0.033 A 
ENDBRANCH  30  32
ENDBRANCH   1  30
TORSDOF 10
ENDMDL
