MODEL 1
REMARK VINA RESULT: -10.107605020      0.000      0.000
REMARK  8 active torsions:
REMARK  status: ('A' for Active; 'I' for Inactive)
REMARK    1  A    between atoms: C1_4  and  N2_5 
REMARK    2  A    between atoms: C1_4  and  C8_18 
REMARK    3  A    between atoms: N3_7  and  C2_9 
REMARK    4  A    between atoms: C5_12  and  N4_13 
REMARK    5  A    between atoms: C12_22  and  N5_23 
REMARK    6  A    between atoms: N5_23  and  N6_25 
REMARK    7  A    between atoms: N6_25  and  C13_27 
REMARK    8  A    between atoms: C16_30  and  N7_31 
ROOT
HETATM    1  C8  UNL     1     -28.961  16.504  -5.268  1.00  0.00     0.079 A 
HETATM    2  C9  UNL     1     -29.680  15.931  -6.288  1.00  0.00     0.033 A 
HETATM    3  C10 UNL     1     -30.221  14.645  -6.160  1.00  0.00     0.006 A 
HETATM    4  C11 UNL     1     -29.997  13.991  -4.969  1.00  0.00     0.050 A 
HETATM    5  C12 UNL     1     -29.266  14.583  -3.944  1.00  0.00     0.120 A 
HETATM    6  N8  UNL     1     -28.766  15.810  -4.104  1.00  0.00    -0.338 N 
ATOM      7  H8  UNL     1     -28.232  16.238  -3.347  1.00  0.00     0.167 HD
ENDROOT
BRANCH   1   8
HETATM    8  C1  UNL     1     -28.414  17.833  -5.406  1.00  0.00     0.140 C 
HETATM    9  N1  UNL     1     -29.023  18.630  -6.272  1.00  0.00    -0.383 N 
ATOM     10  H12 UNL     1     -28.637  19.569  -6.369  1.00  0.00     0.157 HD
ATOM     11  H11 UNL     1     -29.804  18.201  -6.769  1.00  0.00     0.157 HD
BRANCH   8  12
HETATM   12  N2  UNL     1     -27.357  18.413  -4.733  1.00  0.00    -0.284 N 
HETATM   13  N3  UNL     1     -27.373  18.940  -3.614  1.00  0.00    -0.299 N 
ATOM     14  H3  UNL     1     -28.245  18.976  -3.087  1.00  0.00     0.187 HD
ATOM     15  H2  UNL     1     -26.458  18.406  -5.215  1.00  0.00     0.188 HD
BRANCH  13  16
HETATM   16  C2  UNL     1     -26.171  19.503  -3.045  1.00  0.00     0.048 A 
HETATM   17  C3  UNL     1     -25.912  19.462  -1.706  1.00  0.00     0.033 A 
HETATM   18  C4  UNL     1     -24.728  19.986  -1.224  1.00  0.00     0.038 A 
HETATM   19  C5  UNL     1     -23.795  20.556  -2.095  1.00  0.00     0.103 A 
HETATM   20  C6  UNL     1     -24.080  20.586  -3.433  1.00  0.00     0.038 A 
HETATM   21  C7  UNL     1     -25.268  20.060  -3.915  1.00  0.00     0.033 A 
BRANCH  19  22
HETATM   22  N4  UNL     1     -22.576  21.098  -1.609  1.00  0.00    -0.116 N 
HETATM   23  O1  UNL     1     -21.496  20.855  -2.143  1.00  0.00    -0.532 OA
HETATM   24  O2  UNL     1     -22.596  21.926  -0.486  1.00  0.00    -0.532 OA
ENDBRANCH  19  22
ENDBRANCH  13  16
ENDBRANCH   8  12
ENDBRANCH   1   8
BRANCH   5  25
HETATM   25  N5  UNL     1     -29.072  13.790  -2.756  1.00  0.00    -0.285 N 
ATOM     26  H5  UNL     1     -29.861  13.338  -2.294  1.00  0.00     0.188 HD
BRANCH  25  27
HETATM   27  N6  UNL     1     -27.755  13.654  -2.248  1.00  0.00    -0.299 N 
ATOM     28  H6  UNL     1     -27.527  14.084  -1.351  1.00  0.00     0.187 HD
BRANCH  27  29
HETATM   29  C13 UNL     1     -26.744  12.942  -2.939  1.00  0.00     0.048 A 
HETATM   30  C14 UNL     1     -27.006  11.695  -3.485  1.00  0.00     0.033 A 
HETATM   31  C15 UNL     1     -26.023  10.984  -4.146  1.00  0.00     0.038 A 
HETATM   32  C16 UNL     1     -24.742  11.466  -4.301  1.00  0.00     0.103 A 
HETATM   33  C17 UNL     1     -24.477  12.713  -3.756  1.00  0.00     0.038 A 
HETATM   34  C18 UNL     1     -25.461  13.422  -3.095  1.00  0.00     0.033 A 
BRANCH  32  35
HETATM   35  N7  UNL     1     -23.735  10.723  -4.979  1.00  0.00    -0.116 N 
HETATM   36  O3  UNL     1     -22.723  11.338  -5.366  1.00  0.00    -0.532 OA
HETATM   37  O4  UNL     1     -23.821   9.377  -5.221  1.00  0.00    -0.532 OA
ENDBRANCH  32  35
ENDBRANCH  27  29
ENDBRANCH  25  27
ENDBRANCH   5  25
TORSDOF 8
ENDMDL
MODEL 2
REMARK VINA RESULT: -9.931070631      6.388      9.341
REMARK  8 active torsions:
REMARK  status: ('A' for Active; 'I' for Inactive)
REMARK    1  A    between atoms: C1_4  and  N2_5 
REMARK    2  A    between atoms: C1_4  and  C8_18 
REMARK    3  A    between atoms: N3_7  and  C2_9 
REMARK    4  A    between atoms: C5_12  and  N4_13 
REMARK    5  A    between atoms: C12_22  and  N5_23 
REMARK    6  A    between atoms: N5_23  and  N6_25 
REMARK    7  A    between atoms: N6_25  and  C13_27 
REMARK    8  A    between atoms: C16_30  and  N7_31 
ROOT
HETATM    1  C8  UNL     1     -32.216  13.929  -4.354  1.00  0.00     0.079 A 
HETATM    2  C9  UNL     1     -32.553  13.134  -5.422  1.00  0.00     0.033 A 
HETATM    3  C10 UNL     1     -33.823  12.551  -5.520  1.00  0.00     0.006 A 
HETATM    4  C11 UNL     1     -34.709  12.814  -4.499  1.00  0.00     0.050 A 
HETATM    5  C12 UNL     1     -34.355  13.621  -3.423  1.00  0.00     0.120 A 
HETATM    6  N8  UNL     1     -33.135  14.159  -3.365  1.00  0.00    -0.338 N 
ATOM      7  H8  UNL     1     -32.883  14.751  -2.573  1.00  0.00     0.167 HD
ENDROOT
BRANCH   1   8
HETATM    8  C1  UNL     1     -30.907  14.532  -4.266  1.00  0.00     0.140 C 
HETATM    9  N1  UNL     1     -30.878  15.843  -4.077  1.00  0.00    -0.383 N 
ATOM     10  H12 UNL     1     -29.953  16.269  -4.015  1.00  0.00     0.157 HD
ATOM     11  H11 UNL     1     -31.795  16.289  -4.042  1.00  0.00     0.157 HD
BRANCH   8  12
HETATM   12  N2  UNL     1     -29.666  13.928  -4.315  1.00  0.00    -0.284 N 
HETATM   13  N3  UNL     1     -28.864  13.777  -3.386  1.00  0.00    -0.299 N 
ATOM     14  H3  UNL     1     -29.099  14.123  -2.456  1.00  0.00     0.187 HD
ATOM     15  H2  UNL     1     -29.378  13.564  -5.224  1.00  0.00     0.188 HD
BRANCH  13  16
HETATM   16  C2  UNL     1     -27.599  13.117  -3.603  1.00  0.00     0.048 A 
HETATM   17  C3  UNL     1     -26.405  13.744  -3.393  1.00  0.00     0.033 A 
HETATM   18  C4  UNL     1     -25.226  13.050  -3.582  1.00  0.00     0.038 A 
HETATM   19  C5  UNL     1     -25.245  11.712  -3.987  1.00  0.00     0.103 A 
HETATM   20  C6  UNL     1     -26.455  11.106  -4.191  1.00  0.00     0.038 A 
HETATM   21  C7  UNL     1     -27.636  11.804  -4.001  1.00  0.00     0.033 A 
BRANCH  19  22
HETATM   22  N4  UNL     1     -24.039  10.990  -4.185  1.00  0.00    -0.116 N 
HETATM   23  O1  UNL     1     -23.056  11.496  -4.721  1.00  0.00    -0.532 OA
HETATM   24  O2  UNL     1     -23.964   9.660  -3.769  1.00  0.00    -0.532 OA
ENDBRANCH  19  22
ENDBRANCH  13  16
ENDBRANCH   8  12
ENDBRANCH   1   8
BRANCH   5  25
HETATM   25  N5  UNL     1     -35.356  13.801  -2.402  1.00  0.00    -0.285 N 
ATOM     26  H5  UNL     1     -35.267  14.540  -1.705  1.00  0.00     0.188 HD
BRANCH  25  27
HETATM   27  N6  UNL     1     -36.470  12.922  -2.393  1.00  0.00    -0.299 N 
ATOM     28  H6  UNL     1     -37.205  13.053  -3.089  1.00  0.00     0.187 HD
BRANCH  27  29
HETATM   29  C13 UNL     1     -36.599  11.869  -1.454  1.00  0.00     0.048 A 
HETATM   30  C14 UNL     1     -35.995  10.643  -1.681  1.00  0.00     0.033 A 
HETATM   31  C15 UNL     1     -36.127   9.603  -0.781  1.00  0.00     0.038 A 
HETATM   32  C16 UNL     1     -36.859   9.722   0.380  1.00  0.00     0.103 A 
HETATM   33  C17 UNL     1     -37.465  10.948   0.610  1.00  0.00     0.038 A 
HETATM   34  C18 UNL     1     -37.331  11.986  -0.291  1.00  0.00     0.033 A 
BRANCH  32  35
HETATM   35  N7  UNL     1     -36.995   8.643   1.299  1.00  0.00    -0.116 N 
HETATM   36  O3  UNL     1     -38.026   7.949   1.228  1.00  0.00    -0.532 OA
HETATM   37  O4  UNL     1     -36.053   8.332   2.244  1.00  0.00    -0.532 OA
ENDBRANCH  32  35
ENDBRANCH  27  29
ENDBRANCH  25  27
ENDBRANCH   5  25
TORSDOF 8
ENDMDL
MODEL 3
REMARK VINA RESULT: -9.802206126      6.288      9.192
REMARK  8 active torsions:
REMARK  status: ('A' for Active; 'I' for Inactive)
REMARK    1  A    between atoms: C1_4  and  N2_5 
REMARK    2  A    between atoms: C1_4  and  C8_18 
REMARK    3  A    between atoms: N3_7  and  C2_9 
REMARK    4  A    between atoms: C5_12  and  N4_13 
REMARK    5  A    between atoms: C12_22  and  N5_23 
REMARK    6  A    between atoms: N5_23  and  N6_25 
REMARK    7  A    between atoms: N6_25  and  C13_27 
REMARK    8  A    between atoms: C16_30  and  N7_31 
ROOT
HETATM    1  C8  UNL     1     -32.032  13.980  -4.437  1.00  0.00     0.079 A 
HETATM    2  C9  UNL     1     -32.343  13.164  -5.497  1.00  0.00     0.033 A 
HETATM    3  C10 UNL     1     -33.605  12.567  -5.606  1.00  0.00     0.006 A 
HETATM    4  C11 UNL     1     -34.510  12.837  -4.604  1.00  0.00     0.050 A 
HETATM    5  C12 UNL     1     -34.182  13.665  -3.535  1.00  0.00     0.120 A 
HETATM    6  N8  UNL     1     -32.969  14.217  -3.467  1.00  0.00    -0.338 N 
ATOM      7  H8  UNL     1     -32.736  14.824  -2.681  1.00  0.00     0.167 HD
ENDROOT
BRANCH   1   8
HETATM    8  C1  UNL     1     -30.731  14.598  -4.338  1.00  0.00     0.140 C 
HETATM    9  N1  UNL     1     -30.717  15.917  -4.204  1.00  0.00    -0.383 N 
ATOM     10  H12 UNL     1     -29.798  16.353  -4.134  1.00  0.00     0.157 HD
ATOM     11  H11 UNL     1     -31.638  16.355  -4.213  1.00  0.00     0.157 HD
BRANCH   8  12
HETATM   12  N2  UNL     1     -29.484  14.004  -4.326  1.00  0.00    -0.284 N 
HETATM   13  N3  UNL     1     -28.913  13.466  -3.370  1.00  0.00    -0.299 N 
ATOM     14  H3  UNL     1     -29.376  13.434  -2.461  1.00  0.00     0.187 HD
ATOM     15  H2  UNL     1     -28.975  14.009  -5.210  1.00  0.00     0.188 HD
BRANCH  13  16
HETATM   16  C2  UNL     1     -27.601  12.885  -3.524  1.00  0.00     0.048 A 
HETATM   17  C3  UNL     1     -27.421  11.588  -3.909  1.00  0.00     0.033 A 
HETATM   18  C4  UNL     1     -26.141  11.097  -4.075  1.00  0.00     0.038 A 
HETATM   19  C5  UNL     1     -25.030  11.916  -3.853  1.00  0.00     0.103 A 
HETATM   20  C6  UNL     1     -25.238  13.213  -3.467  1.00  0.00     0.038 A 
HETATM   21  C7  UNL     1     -26.523  13.703  -3.301  1.00  0.00     0.033 A 
BRANCH  19  22
HETATM   22  N4  UNL     1     -23.710  11.421  -4.020  1.00  0.00    -0.116 N 
HETATM   23  O1  UNL     1     -22.892  11.422  -3.103  1.00  0.00    -0.532 OA
HETATM   24  O2  UNL     1     -23.319  10.924  -5.264  1.00  0.00    -0.532 OA
ENDBRANCH  19  22
ENDBRANCH  13  16
ENDBRANCH   8  12
ENDBRANCH   1   8
BRANCH   5  25
HETATM   25  N5  UNL     1     -35.202  13.851  -2.533  1.00  0.00    -0.285 N 
ATOM     26  H5  UNL     1     -35.119  14.587  -1.832  1.00  0.00     0.188 HD
BRANCH  25  27
HETATM   27  N6  UNL     1     -36.324  12.983  -2.550  1.00  0.00    -0.299 N 
ATOM     28  H6  UNL     1     -37.044  13.124  -3.259  1.00  0.00     0.187 HD
BRANCH  27  29
HETATM   29  C13 UNL     1     -36.482  11.928  -1.618  1.00  0.00     0.048 A 
HETATM   30  C14 UNL     1     -35.902  10.690  -1.848  1.00  0.00     0.033 A 
HETATM   31  C15 UNL     1     -36.063   9.649  -0.955  1.00  0.00     0.038 A 
HETATM   32  C16 UNL     1     -36.799   9.777   0.202  1.00  0.00     0.103 A 
HETATM   33  C17 UNL     1     -37.381  11.014   0.435  1.00  0.00     0.038 A 
HETATM   34  C18 UNL     1     -37.218  12.054  -0.459  1.00  0.00     0.033 A 
BRANCH  32  35
HETATM   35  N7  UNL     1     -36.964   8.696   1.114  1.00  0.00    -0.116 N 
HETATM   36  O3  UNL     1     -37.986   7.993   1.000  1.00  0.00    -0.532 OA
HETATM   37  O4  UNL     1     -36.060   8.392   2.098  1.00  0.00    -0.532 OA
ENDBRANCH  32  35
ENDBRANCH  27  29
ENDBRANCH  25  27
ENDBRANCH   5  25
TORSDOF 8
ENDMDL
MODEL 4
REMARK VINA RESULT: -9.760044737      6.312     10.090
REMARK  8 active torsions:
REMARK  status: ('A' for Active; 'I' for Inactive)
REMARK    1  A    between atoms: C1_4  and  N2_5 
REMARK    2  A    between atoms: C1_4  and  C8_18 
REMARK    3  A    between atoms: N3_7  and  C2_9 
REMARK    4  A    between atoms: C5_12  and  N4_13 
REMARK    5  A    between atoms: C12_22  and  N5_23 
REMARK    6  A    between atoms: N5_23  and  N6_25 
REMARK    7  A    between atoms: N6_25  and  C13_27 
REMARK    8  A    between atoms: C16_30  and  N7_31 
ROOT
HETATM    1  C8  UNL     1     -32.395  12.828  -4.481  1.00  0.00     0.079 A 
HETATM    2  C9  UNL     1     -32.014  13.679  -5.489  1.00  0.00     0.033 A 
HETATM    3  C10 UNL     1     -30.751  14.285  -5.489  1.00  0.00     0.006 A 
HETATM    4  C11 UNL     1     -29.919  13.985  -4.434  1.00  0.00     0.050 A 
HETATM    5  C12 UNL     1     -30.317  13.122  -3.418  1.00  0.00     0.120 A 
HETATM    6  N8  UNL     1     -31.529  12.564  -3.455  1.00  0.00    -0.338 N 
ATOM      7  H8  UNL     1     -31.814  11.931  -2.707  1.00  0.00     0.167 HD
ENDROOT
BRANCH   1   8
HETATM    8  C1  UNL     1     -33.696  12.203  -4.496  1.00  0.00     0.140 C 
HETATM    9  N1  UNL     1     -34.357  12.251  -5.643  1.00  0.00    -0.383 N 
ATOM     10  H12 UNL     1     -35.276  11.809  -5.654  1.00  0.00     0.157 HD
ATOM     11  H11 UNL     1     -33.878  12.754  -6.390  1.00  0.00     0.157 HD
BRANCH   8  12
HETATM   12  N2  UNL     1     -34.346  11.522  -3.485  1.00  0.00    -0.284 N 
HETATM   13  N3  UNL     1     -35.214  11.956  -2.719  1.00  0.00    -0.299 N 
ATOM     14  H3  UNL     1     -35.519  12.926  -2.803  1.00  0.00     0.187 HD
ATOM     15  H2  UNL     1     -34.077  10.546  -3.354  1.00  0.00     0.188 HD
BRANCH  13  16
HETATM   16  C2  UNL     1     -35.800  11.108  -1.709  1.00  0.00     0.048 A 
HETATM   17  C3  UNL     1     -36.673  11.586  -0.775  1.00  0.00     0.033 A 
HETATM   18  C4  UNL     1     -37.230  10.720   0.145  1.00  0.00     0.038 A 
HETATM   19  C5  UNL     1     -36.908   9.360   0.128  1.00  0.00     0.103 A 
HETATM   20  C6  UNL     1     -36.029   8.906  -0.818  1.00  0.00     0.038 A 
HETATM   21  C7  UNL     1     -35.471   9.777  -1.740  1.00  0.00     0.033 A 
BRANCH  19  22
HETATM   22  N4  UNL     1     -37.474   8.461   1.070  1.00  0.00    -0.116 N 
HETATM   23  O1  UNL     1     -38.385   7.692   0.772  1.00  0.00    -0.532 OA
HETATM   24  O2  UNL     1     -36.992   8.450   2.379  1.00  0.00    -0.532 OA
ENDBRANCH  19  22
ENDBRANCH  13  16
ENDBRANCH   8  12
ENDBRANCH   1   8
BRANCH   5  25
HETATM   25  N5  UNL     1     -29.370  12.907  -2.353  1.00  0.00    -0.285 N 
ATOM     26  H5  UNL     1     -29.615  12.341  -1.540  1.00  0.00     0.188 HD
BRANCH  25  27
HETATM   27  N6  UNL     1     -28.088  13.505  -2.465  1.00  0.00    -0.299 N 
ATOM     28  H6  UNL     1     -27.948  14.441  -2.086  1.00  0.00     0.187 HD
BRANCH  27  29
HETATM   29  C13 UNL     1     -26.996  12.848  -3.083  1.00  0.00     0.048 A 
HETATM   30  C14 UNL     1     -27.151  11.585  -3.633  1.00  0.00     0.033 A 
HETATM   31  C15 UNL     1     -26.089  10.927  -4.224  1.00  0.00     0.038 A 
HETATM   32  C16 UNL     1     -24.830  11.480  -4.299  1.00  0.00     0.103 A 
HETATM   33  C17 UNL     1     -24.672  12.743  -3.750  1.00  0.00     0.038 A 
HETATM   34  C18 UNL     1     -25.735  13.399  -3.160  1.00  0.00     0.033 A 
BRANCH  32  35
HETATM   35  N7  UNL     1     -23.741  10.792  -4.905  1.00  0.00    -0.116 N 
HETATM   36  O3  UNL     1     -23.810   9.551  -4.981  1.00  0.00    -0.532 OA
HETATM   37  O4  UNL     1     -22.634  11.424  -5.408  1.00  0.00    -0.532 OA
ENDBRANCH  32  35
ENDBRANCH  27  29
ENDBRANCH  25  27
ENDBRANCH   5  25
TORSDOF 8
ENDMDL
MODEL 5
REMARK VINA RESULT: -9.752441749      6.289     10.115
REMARK  8 active torsions:
REMARK  status: ('A' for Active; 'I' for Inactive)
REMARK    1  A    between atoms: C1_4  and  N2_5 
REMARK    2  A    between atoms: C1_4  and  C8_18 
REMARK    3  A    between atoms: N3_7  and  C2_9 
REMARK    4  A    between atoms: C5_12  and  N4_13 
REMARK    5  A    between atoms: C12_22  and  N5_23 
REMARK    6  A    between atoms: N5_23  and  N6_25 
REMARK    7  A    between atoms: N6_25  and  C13_27 
REMARK    8  A    between atoms: C16_30  and  N7_31 
ROOT
HETATM    1  C8  UNL     1     -32.348  12.834  -4.485  1.00  0.00     0.079 A 
HETATM    2  C9  UNL     1     -31.982  13.694  -5.490  1.00  0.00     0.033 A 
HETATM    3  C10 UNL     1     -30.736  14.334  -5.479  1.00  0.00     0.006 A 
HETATM    4  C11 UNL     1     -29.905  14.058  -4.416  1.00  0.00     0.050 A 
HETATM    5  C12 UNL     1     -30.288  13.185  -3.404  1.00  0.00     0.120 A 
HETATM    6  N8  UNL     1     -31.484  12.594  -3.451  1.00  0.00    -0.338 N 
ATOM      7  H8  UNL     1     -31.758  11.953  -2.705  1.00  0.00     0.167 HD
ENDROOT
BRANCH   1   8
HETATM    8  C1  UNL     1     -33.632  12.173  -4.510  1.00  0.00     0.140 C 
HETATM    9  N1  UNL     1     -34.304  12.242  -5.650  1.00  0.00    -0.383 N 
ATOM     10  H12 UNL     1     -35.211  11.775  -5.668  1.00  0.00     0.157 HD
ATOM     11  H11 UNL     1     -33.845  12.784  -6.383  1.00  0.00     0.157 HD
BRANCH   8  12
HETATM   12  N2  UNL     1     -34.252  11.440  -3.518  1.00  0.00    -0.284 N 
HETATM   13  N3  UNL     1     -35.190  11.793  -2.794  1.00  0.00    -0.299 N 
ATOM     14  H3  UNL     1     -35.585  12.727  -2.901  1.00  0.00     0.187 HD
ATOM     15  H2  UNL     1     -33.896  10.496  -3.366  1.00  0.00     0.188 HD
BRANCH  13  16
HETATM   16  C2  UNL     1     -35.732  10.899  -1.798  1.00  0.00     0.048 A 
HETATM   17  C3  UNL     1     -35.386   9.581  -1.738  1.00  0.00     0.033 A 
HETATM   18  C4  UNL     1     -35.909   8.782  -0.740  1.00  0.00     0.038 A 
HETATM   19  C5  UNL     1     -36.788   9.312   0.208  1.00  0.00     0.103 A 
HETATM   20  C6  UNL     1     -37.120  10.638   0.126  1.00  0.00     0.038 A 
HETATM   21  C7  UNL     1     -36.594  11.437  -0.876  1.00  0.00     0.033 A 
BRANCH  19  22
HETATM   22  N4  UNL     1     -37.332   8.500   1.237  1.00  0.00    -0.116 N 
HETATM   23  O1  UNL     1     -38.358   7.843   1.077  1.00  0.00    -0.532 OA
HETATM   24  O2  UNL     1     -36.693   8.449   2.476  1.00  0.00    -0.532 OA
ENDBRANCH  19  22
ENDBRANCH  13  16
ENDBRANCH   8  12
ENDBRANCH   1   8
BRANCH   5  25
HETATM   25  N5  UNL     1     -29.346  12.997  -2.330  1.00  0.00    -0.285 N 
ATOM     26  H5  UNL     1     -29.604  12.476  -1.492  1.00  0.00     0.188 HD
BRANCH  25  27
HETATM   27  N6  UNL     1     -28.049  13.556  -2.470  1.00  0.00    -0.299 N 
ATOM     28  H6  UNL     1     -27.882  14.502  -2.127  1.00  0.00     0.187 HD
BRANCH  27  29
HETATM   29  C13 UNL     1     -26.978  12.848  -3.069  1.00  0.00     0.048 A 
HETATM   30  C14 UNL     1     -25.710  13.405  -3.130  1.00  0.00     0.033 A 
HETATM   31  C15 UNL     1     -24.662  12.731  -3.727  1.00  0.00     0.038 A 
HETATM   32  C16 UNL     1     -24.812  11.483  -4.289  1.00  0.00     0.103 A 
HETATM   33  C17 UNL     1     -26.080  10.923  -4.230  1.00  0.00     0.038 A 
HETATM   34  C18 UNL     1     -27.126  11.598  -3.633  1.00  0.00     0.033 A 
BRANCH  32  35
HETATM   35  N7  UNL     1     -23.728  10.799  -4.907  1.00  0.00    -0.116 N 
HETATM   36  O3  UNL     1     -23.793   9.558  -4.982  1.00  0.00    -0.532 OA
HETATM   37  O4  UNL     1     -22.629  11.434  -5.423  1.00  0.00    -0.532 OA
ENDBRANCH  32  35
ENDBRANCH  27  29
ENDBRANCH  25  27
ENDBRANCH   5  25
TORSDOF 8
ENDMDL
