MODEL 1
REMARK VINA RESULT: -6.470455696      0.000      0.000
REMARK  6 active torsions:
REMARK  status: ('A' for Active; 'I' for Inactive)
REMARK    1  A    between atoms: C1_4  and  N2_5 
REMARK    2  A    between atoms: N2_5  and  C2_7 
REMARK    3  A    between atoms: C2_7  and  N3_8 
REMARK    4  A    between atoms: C3_10  and  C4_11 
REMARK    5  A    between atoms: C5_12  and  C6_13 
REMARK    6  A    between atoms: C6_13  and  N4_14 
ROOT
HETATM    1  N3  UNL     1     -42.030 -17.184  51.545  1.00  0.00    -0.383 N 
ATOM      2  H3  UNL     1     -42.992 -17.162  51.206  1.00  0.00     0.160 HD
HETATM    3  C3  UNL     1     -41.275 -18.152  51.193  1.00  0.00     0.084 C 
ENDROOT
BRANCH   3   4
HETATM    4  C4  UNL     1     -41.739 -19.226  50.324  1.00  0.00     0.014 C 
HETATM    5  C5  UNL     1     -41.325 -19.332  49.096  1.00  0.00    -0.002 C 
BRANCH   5   6
HETATM    6  C6  UNL     1     -41.791 -20.422  48.203  1.00  0.00     0.200 C 
BRANCH   6   7
HETATM    7  N4  UNL     1     -40.834 -20.570  47.111  1.00  0.00    -0.199 N 
HETATM    8  N5  UNL     1     -40.000 -19.754  46.496  1.00  0.00    -0.209 N 
HETATM    9  N6  UNL     1     -39.607 -20.749  45.716  1.00  0.00    -0.211 N 
ATOM     10  H5  UNL     1     -39.759 -18.767  46.584  1.00  0.00     0.211 HD
HETATM   11  N7  UNL     1     -40.434 -21.559  46.325  1.00  0.00    -0.209 N 
ATOM     12  H6  UNL     1     -38.936 -20.843  44.954  1.00  0.00     0.211 HD
ATOM     13  H7  UNL     1     -40.673 -22.547  46.234  1.00  0.00     0.211 HD
ENDBRANCH   6   7
ENDBRANCH   5   6
ENDBRANCH   3   4
BRANCH   1  14
HETATM   14  C2  UNL     1     -41.569 -16.121  52.406  1.00  0.00     0.243 C 
BRANCH  14  15
HETATM   15  N2  UNL     1     -42.585 -15.813  53.372  1.00  0.00    -0.370 N 
ATOM     16  H2  UNL     1     -42.902 -14.851  53.493  1.00  0.00     0.161 HD
BRANCH  15  17
HETATM   17  C1  UNL     1     -43.144 -16.846  54.152  1.00  0.00     0.170 C 
HETATM   18  N1  UNL     1     -44.409 -17.084  54.210  1.00  0.00    -0.396 N 
ATOM     19  H12 UNL     1     -45.024 -16.485  53.658  1.00  0.00     0.156 HD
ATOM     20  H11 UNL     1     -44.813 -17.831  54.775  1.00  0.00     0.156 HD
ENDBRANCH  15  17
ENDBRANCH  14  15
ENDBRANCH   1  14
TORSDOF 6
ENDMDL
MODEL 2
REMARK VINA RESULT: -6.468839211      1.803      6.888
REMARK  6 active torsions:
REMARK  status: ('A' for Active; 'I' for Inactive)
REMARK    1  A    between atoms: C1_4  and  N2_5 
REMARK    2  A    between atoms: N2_5  and  C2_7 
REMARK    3  A    between atoms: C2_7  and  N3_8 
REMARK    4  A    between atoms: C3_10  and  C4_11 
REMARK    5  A    between atoms: C5_12  and  C6_13 
REMARK    6  A    between atoms: C6_13  and  N4_14 
ROOT
HETATM    1  N3  UNL     1     -41.535 -19.383  48.842  1.00  0.00    -0.383 N 
ATOM      2  H3  UNL     1     -40.656 -19.102  49.277  1.00  0.00     0.160 HD
HETATM    3  C3  UNL     1     -42.623 -18.859  49.255  1.00  0.00     0.084 C 
ENDROOT
BRANCH   3   4
HETATM    4  C4  UNL     1     -42.655 -17.873  50.328  1.00  0.00     0.014 C 
HETATM    5  C5  UNL     1     -42.527 -18.221  51.574  1.00  0.00    -0.002 C 
BRANCH   5   6
HETATM    6  C6  UNL     1     -42.557 -17.225  52.673  1.00  0.00     0.200 C 
BRANCH   6   7
HETATM    7  N4  UNL     1     -41.444 -16.298  52.491  1.00  0.00    -0.199 N 
HETATM    8  N5  UNL     1     -40.131 -16.423  52.473  1.00  0.00    -0.209 N 
HETATM    9  N6  UNL     1     -40.013 -15.122  52.260  1.00  0.00    -0.211 N 
ATOM     10  H5  UNL     1     -39.478 -17.199  52.580  1.00  0.00     0.211 HD
HETATM   11  N7  UNL     1     -41.315 -14.997  52.277  1.00  0.00    -0.209 N 
ATOM     12  H6  UNL     1     -39.229 -14.481  52.134  1.00  0.00     0.211 HD
ATOM     13  H7  UNL     1     -41.965 -14.218  52.170  1.00  0.00     0.211 HD
ENDBRANCH   6   7
ENDBRANCH   5   6
ENDBRANCH   3   4
BRANCH   1  14
HETATM   14  C2  UNL     1     -41.506 -20.360  47.778  1.00  0.00     0.243 C 
BRANCH  14  15
HETATM   15  N2  UNL     1     -40.552 -19.957  46.784  1.00  0.00    -0.370 N 
ATOM     16  H2  UNL     1     -40.355 -18.968  46.635  1.00  0.00     0.161 HD
BRANCH  15  17
HETATM   17  C1  UNL     1     -39.889 -20.934  46.015  1.00  0.00     0.170 C 
HETATM   18  N1  UNL     1     -40.141 -22.195  46.102  1.00  0.00    -0.396 N 
ATOM     19  H12 UNL     1     -40.859 -22.484  46.766  1.00  0.00     0.156 HD
ATOM     20  H11 UNL     1     -39.661 -22.902  45.544  1.00  0.00     0.156 HD
ENDBRANCH  15  17
ENDBRANCH  14  15
ENDBRANCH   1  14
TORSDOF 6
ENDMDL
MODEL 3
REMARK VINA RESULT: -6.355253370      1.399      2.119
REMARK  6 active torsions:
REMARK  status: ('A' for Active; 'I' for Inactive)
REMARK    1  A    between atoms: C1_4  and  N2_5 
REMARK    2  A    between atoms: N2_5  and  C2_7 
REMARK    3  A    between atoms: C2_7  and  N3_8 
REMARK    4  A    between atoms: C3_10  and  C4_11 
REMARK    5  A    between atoms: C5_12  and  C6_13 
REMARK    6  A    between atoms: C6_13  and  N4_14 
ROOT
HETATM    1  N3  UNL     1     -42.924 -18.177  52.411  1.00  0.00    -0.383 N 
ATOM      2  H3  UNL     1     -42.073 -18.736  52.464  1.00  0.00     0.160 HD
HETATM    3  C3  UNL     1     -43.765 -18.422  51.481  1.00  0.00     0.084 C 
ENDROOT
BRANCH   3   4
HETATM    4  C4  UNL     1     -43.551 -19.472  50.493  1.00  0.00     0.014 C 
HETATM    5  C5  UNL     1     -42.365 -19.739  50.033  1.00  0.00    -0.002 C 
BRANCH   5   6
HETATM    6  C6  UNL     1     -42.136 -20.806  49.028  1.00  0.00     0.200 C 
BRANCH   6   7
HETATM    7  N4  UNL     1     -41.276 -20.277  47.975  1.00  0.00    -0.199 N 
HETATM    8  N5  UNL     1     -40.620 -19.146  47.798  1.00  0.00    -0.209 N 
HETATM    9  N6  UNL     1     -40.173 -19.590  46.634  1.00  0.00    -0.211 N 
ATOM     10  H5  UNL     1     -40.506 -18.286  48.334  1.00  0.00     0.211 HD
HETATM   11  N7  UNL     1     -40.822 -20.713  46.808  1.00  0.00    -0.209 N 
ATOM     12  H6  UNL     1     -39.570 -19.213  45.903  1.00  0.00     0.211 HD
ATOM     13  H7  UNL     1     -40.934 -21.571  46.268  1.00  0.00     0.211 HD
ENDBRANCH   6   7
ENDBRANCH   5   6
ENDBRANCH   3   4
BRANCH   1  14
HETATM   14  C2  UNL     1     -43.139 -17.136  53.388  1.00  0.00     0.243 C 
BRANCH  14  15
HETATM   15  N2  UNL     1     -42.338 -15.993  53.052  1.00  0.00    -0.370 N 
ATOM     16  H2  UNL     1     -42.597 -15.068  53.394  1.00  0.00     0.161 HD
BRANCH  15  17
HETATM   17  C1  UNL     1     -41.191 -16.155  52.249  1.00  0.00     0.170 C 
HETATM   18  N1  UNL     1     -40.001 -15.863  52.646  1.00  0.00    -0.396 N 
ATOM     19  H12 UNL     1     -39.900 -15.498  53.594  1.00  0.00     0.156 HD
ATOM     20  H11 UNL     1     -39.172 -15.981  52.064  1.00  0.00     0.156 HD
ENDBRANCH  15  17
ENDBRANCH  14  15
ENDBRANCH   1  14
TORSDOF 6
ENDMDL
MODEL 4
REMARK VINA RESULT: -6.208970517      1.342      2.072
REMARK  6 active torsions:
REMARK  status: ('A' for Active; 'I' for Inactive)
REMARK    1  A    between atoms: C1_4  and  N2_5 
REMARK    2  A    between atoms: N2_5  and  C2_7 
REMARK    3  A    between atoms: C2_7  and  N3_8 
REMARK    4  A    between atoms: C3_10  and  C4_11 
REMARK    5  A    between atoms: C5_12  and  C6_13 
REMARK    6  A    between atoms: C6_13  and  N4_14 
ROOT
HETATM    1  N3  UNL     1     -42.840 -19.030  51.835  1.00  0.00    -0.383 N 
ATOM      2  H3  UNL     1     -42.296 -19.786  52.250  1.00  0.00     0.160 HD
HETATM    3  C3  UNL     1     -43.123 -19.085  50.590  1.00  0.00     0.084 C 
ENDROOT
BRANCH   3   4
HETATM    4  C4  UNL     1     -42.695 -20.191  49.743  1.00  0.00     0.014 C 
HETATM    5  C5  UNL     1     -41.907 -20.002  48.726  1.00  0.00    -0.002 C 
BRANCH   5   6
HETATM    6  C6  UNL     1     -41.466 -21.121  47.858  1.00  0.00     0.200 C 
BRANCH   6   7
HETATM    7  N4  UNL     1     -40.493 -20.610  46.898  1.00  0.00    -0.199 N 
HETATM    8  N5  UNL     1     -39.816 -21.140  45.897  1.00  0.00    -0.209 N 
HETATM    9  N6  UNL     1     -39.248 -19.967  45.664  1.00  0.00    -0.211 N 
ATOM     10  H5  UNL     1     -39.755 -22.067  45.478  1.00  0.00     0.211 HD
HETATM   11  N7  UNL     1     -39.919 -19.440  46.656  1.00  0.00    -0.209 N 
ATOM     12  H6  UNL     1     -38.568 -19.618  44.989  1.00  0.00     0.211 HD
ATOM     13  H7  UNL     1     -39.977 -18.511  47.073  1.00  0.00     0.211 HD
ENDBRANCH   6   7
ENDBRANCH   5   6
ENDBRANCH   3   4
BRANCH   1  14
HETATM   14  C2  UNL     1     -43.265 -17.933  52.673  1.00  0.00     0.243 C 
BRANCH  14  15
HETATM   15  N2  UNL     1     -42.785 -16.697  52.123  1.00  0.00    -0.370 N 
ATOM     16  H2  UNL     1     -43.402 -16.113  51.560  1.00  0.00     0.161 HD
BRANCH  15  17
HETATM   17  C1  UNL     1     -41.455 -16.295  52.364  1.00  0.00     0.170 C 
HETATM   18  N1  UNL     1     -40.998 -15.133  52.044  1.00  0.00    -0.396 N 
ATOM     19  H12 UNL     1     -41.644 -14.483  51.594  1.00  0.00     0.156 HD
ATOM     20  H11 UNL     1     -40.036 -14.842  52.219  1.00  0.00     0.156 HD
ENDBRANCH  15  17
ENDBRANCH  14  15
ENDBRANCH   1  14
TORSDOF 6
ENDMDL
MODEL 5
REMARK VINA RESULT: -6.098942068      2.796      7.104
REMARK  6 active torsions:
REMARK  status: ('A' for Active; 'I' for Inactive)
REMARK    1  A    between atoms: C1_4  and  N2_5 
REMARK    2  A    between atoms: N2_5  and  C2_7 
REMARK    3  A    between atoms: C2_7  and  N3_8 
REMARK    4  A    between atoms: C3_10  and  C4_11 
REMARK    5  A    between atoms: C5_12  and  C6_13 
REMARK    6  A    between atoms: C6_13  and  N4_14 
ROOT
HETATM    1  N3  UNL     1     -40.473 -19.687  47.108  1.00  0.00    -0.383 N 
ATOM      2  H3  UNL     1     -40.155 -18.719  47.160  1.00  0.00     0.160 HD
HETATM    3  C3  UNL     1     -41.411 -20.072  47.884  1.00  0.00     0.084 C 
ENDROOT
BRANCH   3   4
HETATM    4  C4  UNL     1     -42.045 -19.175  48.843  1.00  0.00     0.014 C 
HETATM    5  C5  UNL     1     -42.832 -19.626  49.775  1.00  0.00    -0.002 C 
BRANCH   5   6
HETATM    6  C6  UNL     1     -43.481 -18.721  50.756  1.00  0.00     0.200 C 
BRANCH   6   7
HETATM    7  N4  UNL     1     -44.717 -18.211  50.170  1.00  0.00    -0.199 N 
HETATM    8  N5  UNL     1     -45.983 -18.581  50.216  1.00  0.00    -0.209 N 
HETATM    9  N6  UNL     1     -46.304 -17.567  49.427  1.00  0.00    -0.211 N 
ATOM     10  H5  UNL     1     -46.499 -19.334  50.669  1.00  0.00     0.211 HD
HETATM   11  N7  UNL     1     -45.049 -17.199  49.382  1.00  0.00    -0.209 N 
ATOM     12  H6  UNL     1     -47.172 -17.217  49.022  1.00  0.00     0.211 HD
ATOM     13  H7  UNL     1     -44.536 -16.444  48.926  1.00  0.00     0.211 HD
ENDBRANCH   6   7
ENDBRANCH   5   6
ENDBRANCH   3   4
BRANCH   1  14
HETATM   14  C2  UNL     1     -39.846 -20.577  46.158  1.00  0.00     0.243 C 
BRANCH  14  15
HETATM   15  N2  UNL     1     -40.423 -21.886  46.276  1.00  0.00    -0.370 N 
ATOM     16  H2  UNL     1     -41.404 -22.035  46.043  1.00  0.00     0.161 HD
BRANCH  15  17
HETATM   17  C1  UNL     1     -39.628 -22.963  46.716  1.00  0.00     0.170 C 
HETATM   18  N1  UNL     1     -39.625 -24.120  46.147  1.00  0.00    -0.396 N 
ATOM     19  H12 UNL     1     -40.235 -24.245  45.338  1.00  0.00     0.156 HD
ATOM     20  H11 UNL     1     -39.049 -24.899  46.465  1.00  0.00     0.156 HD
ENDBRANCH  15  17
ENDBRANCH  14  15
ENDBRANCH   1  14
TORSDOF 6
ENDMDL
