MODEL 1
REMARK VINA RESULT: -5.716708492      0.000      0.000
REMARK  5 active torsions:
REMARK  status: ('A' for Active; 'I' for Inactive)
REMARK    1  A    between atoms: C2_2  and  S1_5 
REMARK    2  A    between atoms: S1_5  and  N1_8 
REMARK    3  A    between atoms: N1_8  and  N2_10 
REMARK    4  A    between atoms: C6_15  and  C7_16 
REMARK    5  A    between atoms: C8_19  and  C9_20 
ROOT
HETATM    1  N2  UNL     1     103.005  18.472  15.898  1.00  0.00    -0.215 N 
HETATM    2  C5  UNL     1     102.247  19.654  15.643  1.00  0.00     0.339 C 
HETATM    3  O3  UNL     1     101.798  20.519  16.464  1.00  0.00    -0.245 OA
HETATM    4  N3  UNL     1     102.036  19.758  14.228  1.00  0.00    -0.324 N 
ATOM      5  H3  UNL     1     101.266  20.197  13.723  1.00  0.00     0.165 HD
HETATM    6  C6  UNL     1     103.222  19.063  13.692  1.00  0.00     0.222 C 
HETATM    7  C8  UNL     1     103.214  17.868  14.616  1.00  0.00     0.247 C 
ENDROOT
BRANCH   1   8
HETATM    8  N1  UNL     1     103.398  18.097  17.168  1.00  0.00    -0.219 N 
ATOM      9  H1  UNL     1     104.257  18.446  17.592  1.00  0.00     0.200 HD
BRANCH   8  10
HETATM   10  S1  UNL     1     102.368  17.022  17.981  1.00  0.00     0.251 S 
HETATM   11  O1  UNL     1     102.061  15.871  17.043  1.00  0.00    -0.204 OA
HETATM   12  O2  UNL     1     101.103  17.729  18.381  1.00  0.00    -0.204 OA
BRANCH  10  13
HETATM   13  C2  UNL     1     103.096  16.347  19.443  1.00  0.00     0.073 C 
HETATM   14  C1  UNL     1     102.570  16.986  20.695  1.00  0.00     0.033 C 
HETATM   15  C3  UNL     1     102.933  14.847  19.432  1.00  0.00     0.033 C 
HETATM   16  C4  UNL     1     104.605  16.626  19.411  1.00  0.00     0.033 C 
ENDBRANCH  10  13
ENDBRANCH   8  10
ENDBRANCH   1   8
BRANCH   7  17
HETATM   17  C9  UNL     1     104.392  17.026  14.506  1.00  0.00     0.201 C 
HETATM   18  O6  UNL     1     105.101  16.599  15.449  1.00  0.00    -0.646 OA
HETATM   19  O7  UNL     1     104.814  16.627  13.243  1.00  0.00    -0.646 OA
ENDBRANCH   7  17
BRANCH   6  20
HETATM   20  C7  UNL     1     104.342  19.976  13.907  1.00  0.00     0.199 C 
HETATM   21  O4  UNL     1     105.484  19.706  14.339  1.00  0.00    -0.646 OA
HETATM   22  O5  UNL     1     104.120  21.323  13.594  1.00  0.00    -0.646 OA
ENDBRANCH   6  20
TORSDOF 5
ENDMDL
MODEL 2
REMARK VINA RESULT: -5.715250106      2.233      5.713
REMARK  5 active torsions:
REMARK  status: ('A' for Active; 'I' for Inactive)
REMARK    1  A    between atoms: C2_2  and  S1_5 
REMARK    2  A    between atoms: S1_5  and  N1_8 
REMARK    3  A    between atoms: N1_8  and  N2_10 
REMARK    4  A    between atoms: C6_15  and  C7_16 
REMARK    5  A    between atoms: C8_19  and  C9_20 
ROOT
HETATM    1  N2  UNL     1     104.081  17.253  17.286  1.00  0.00    -0.215 N 
HETATM    2  C5  UNL     1     104.582  16.194  18.099  1.00  0.00     0.339 C 
HETATM    3  O3  UNL     1     105.746  16.037  18.595  1.00  0.00    -0.245 OA
HETATM    4  N3  UNL     1     103.524  15.249  18.310  1.00  0.00    -0.324 N 
ATOM      5  H3  UNL     1     103.584  14.245  18.480  1.00  0.00     0.165 HD
HETATM    6  C6  UNL     1     102.327  16.106  18.217  1.00  0.00     0.222 C 
HETATM    7  C8  UNL     1     102.722  16.904  16.997  1.00  0.00     0.247 C 
ENDROOT
BRANCH   1   8
HETATM    8  N1  UNL     1     104.850  18.341  16.920  1.00  0.00    -0.219 N 
ATOM      9  H1  UNL     1     105.006  19.128  17.550  1.00  0.00     0.200 HD
BRANCH   8  10
HETATM   10  S1  UNL     1     105.519  18.293  15.362  1.00  0.00     0.251 S 
HETATM   11  O1  UNL     1     105.172  16.951  14.747  1.00  0.00    -0.204 OA
HETATM   12  O2  UNL     1     107.010  18.468  15.439  1.00  0.00    -0.204 OA
BRANCH  10  13
HETATM   13  C2  UNL     1     104.881  19.554  14.301  1.00  0.00     0.073 C 
HETATM   14  C1  UNL     1     103.586  19.158  13.652  1.00  0.00     0.033 C 
HETATM   15  C3  UNL     1     104.784  20.848  15.071  1.00  0.00     0.033 C 
HETATM   16  C4  UNL     1     105.885  19.792  13.166  1.00  0.00     0.033 C 
ENDBRANCH  10  13
ENDBRANCH   8  10
ENDBRANCH   1   8
BRANCH   7  17
HETATM   17  C9  UNL     1     101.838  18.020  16.708  1.00  0.00     0.201 C 
HETATM   18  O6  UNL     1     102.114  19.240  16.797  1.00  0.00    -0.646 OA
HETATM   19  O7  UNL     1     100.541  17.752  16.284  1.00  0.00    -0.646 OA
ENDBRANCH   7  17
BRANCH   6  20
HETATM   20  C7  UNL     1     102.302  16.880  19.455  1.00  0.00     0.199 C 
HETATM   21  O4  UNL     1     101.734  17.973  19.670  1.00  0.00    -0.646 OA
HETATM   22  O5  UNL     1     102.999  16.341  20.545  1.00  0.00    -0.646 OA
ENDBRANCH   6  20
TORSDOF 5
ENDMDL
MODEL 3
REMARK VINA RESULT: -5.694008237      2.510      5.813
REMARK  5 active torsions:
REMARK  status: ('A' for Active; 'I' for Inactive)
REMARK    1  A    between atoms: C2_2  and  S1_5 
REMARK    2  A    between atoms: S1_5  and  N1_8 
REMARK    3  A    between atoms: N1_8  and  N2_10 
REMARK    4  A    between atoms: C6_15  and  C7_16 
REMARK    5  A    between atoms: C8_19  and  C9_20 
ROOT
HETATM    1  N2  UNL     1     103.754  16.717  17.397  1.00  0.00    -0.215 N 
HETATM    2  C5  UNL     1     102.440  16.178  17.529  1.00  0.00     0.339 C 
HETATM    3  O3  UNL     1     101.714  15.596  16.658  1.00  0.00    -0.245 OA
HETATM    4  N3  UNL     1     102.000  16.387  18.878  1.00  0.00    -0.324 N 
ATOM      5  H3  UNL     1     101.051  16.503  19.233  1.00  0.00     0.165 HD
HETATM    6  C6  UNL     1     103.276  16.393  19.617  1.00  0.00     0.222 C 
HETATM    7  C8  UNL     1     104.070  17.272  18.680  1.00  0.00     0.247 C 
ENDROOT
BRANCH   1   8
HETATM    8  N1  UNL     1     104.472  16.654  16.219  1.00  0.00    -0.219 N 
ATOM      9  H1  UNL     1     105.058  15.852  15.987  1.00  0.00     0.200 HD
BRANCH   8  10
HETATM   10  S1  UNL     1     104.323  17.986  15.180  1.00  0.00     0.251 S 
HETATM   11  O1  UNL     1     104.229  19.235  16.035  1.00  0.00    -0.204 OA
HETATM   12  O2  UNL     1     103.093  17.836  14.329  1.00  0.00    -0.204 OA
BRANCH  10  13
HETATM   13  C2  UNL     1     105.709  18.173  14.100  1.00  0.00     0.073 C 
HETATM   14  C1  UNL     1     106.939  18.644  14.820  1.00  0.00     0.033 C 
HETATM   15  C3  UNL     1     105.925  16.887  13.342  1.00  0.00     0.033 C 
HETATM   16  C4  UNL     1     105.374  19.248  13.057  1.00  0.00     0.033 C 
ENDBRANCH  10  13
ENDBRANCH   8  10
ENDBRANCH   1   8
BRANCH   7  17
HETATM   17  C9  UNL     1     105.486  17.349  18.996  1.00  0.00     0.201 C 
HETATM   18  O6  UNL     1     106.443  17.144  18.211  1.00  0.00    -0.646 OA
HETATM   19  O7  UNL     1     105.864  17.683  20.292  1.00  0.00    -0.646 OA
ENDBRANCH   7  17
BRANCH   6  20
HETATM   20  C7  UNL     1     103.718  15.001  19.647  1.00  0.00     0.199 C 
HETATM   21  O4  UNL     1     104.838  14.540  19.335  1.00  0.00    -0.646 OA
HETATM   22  O5  UNL     1     102.778  14.055  20.078  1.00  0.00    -0.646 OA
ENDBRANCH   6  20
TORSDOF 5
ENDMDL
MODEL 4
REMARK VINA RESULT: -5.658107627      2.425      5.632
REMARK  5 active torsions:
REMARK  status: ('A' for Active; 'I' for Inactive)
REMARK    1  A    between atoms: C2_2  and  S1_5 
REMARK    2  A    between atoms: S1_5  and  N1_8 
REMARK    3  A    between atoms: N1_8  and  N2_10 
REMARK    4  A    between atoms: C6_15  and  C7_16 
REMARK    5  A    between atoms: C8_19  and  C9_20 
ROOT
HETATM    1  N2  UNL     1     103.959  17.398  17.051  1.00  0.00    -0.215 N 
HETATM    2  C5  UNL     1     104.513  16.383  17.886  1.00  0.00     0.339 C 
HETATM    3  O3  UNL     1     105.688  16.287  18.369  1.00  0.00    -0.245 OA
HETATM    4  N3  UNL     1     103.497  15.401  18.136  1.00  0.00    -0.324 N 
ATOM      5  H3  UNL     1     103.601  14.405  18.332  1.00  0.00     0.165 HD
HETATM    6  C6  UNL     1     102.265  16.206  18.037  1.00  0.00     0.222 C 
HETATM    7  C8  UNL     1     102.611  16.986  16.790  1.00  0.00     0.247 C 
ENDROOT
BRANCH   1   8
HETATM    8  N1  UNL     1     104.677  18.505  16.645  1.00  0.00    -0.219 N 
ATOM      9  H1  UNL     1     104.854  19.293  17.269  1.00  0.00     0.200 HD
BRANCH   8  10
HETATM   10  S1  UNL     1     105.251  18.480  15.049  1.00  0.00     0.251 S 
HETATM   11  O1  UNL     1     104.257  19.233  14.185  1.00  0.00    -0.204 OA
HETATM   12  O2  UNL     1     105.390  17.059  14.577  1.00  0.00    -0.204 OA
BRANCH  10  13
HETATM   13  C2  UNL     1     106.823  19.266  14.872  1.00  0.00     0.073 C 
HETATM   14  C1  UNL     1     107.757  18.944  16.001  1.00  0.00     0.033 C 
HETATM   15  C3  UNL     1     107.397  18.929  13.517  1.00  0.00     0.033 C 
HETATM   16  C4  UNL     1     106.615  20.786  14.895  1.00  0.00     0.033 C 
ENDBRANCH  10  13
ENDBRANCH   8  10
ENDBRANCH   1   8
BRANCH   7  17
HETATM   17  C9  UNL     1     101.678  18.056  16.483  1.00  0.00     0.201 C 
HETATM   18  O6  UNL     1     101.892  19.289  16.578  1.00  0.00    -0.646 OA
HETATM   19  O7  UNL     1     100.405  17.725  16.034  1.00  0.00    -0.646 OA
ENDBRANCH   7  17
BRANCH   6  20
HETATM   20  C7  UNL     1     102.224  17.013  19.254  1.00  0.00     0.199 C 
HETATM   21  O4  UNL     1     101.616  18.089  19.446  1.00  0.00    -0.646 OA
HETATM   22  O5  UNL     1     102.953  16.531  20.349  1.00  0.00    -0.646 OA
ENDBRANCH   6  20
TORSDOF 5
ENDMDL
MODEL 5
REMARK VINA RESULT: -5.480177542      2.102      3.046
REMARK  5 active torsions:
REMARK  status: ('A' for Active; 'I' for Inactive)
REMARK    1  A    between atoms: C2_2  and  S1_5 
REMARK    2  A    between atoms: S1_5  and  N1_8 
REMARK    3  A    between atoms: N1_8  and  N2_10 
REMARK    4  A    between atoms: C6_15  and  C7_16 
REMARK    5  A    between atoms: C8_19  and  C9_20 
ROOT
HETATM    1  N2  UNL     1     104.487  17.332  16.411  1.00  0.00    -0.215 N 
HETATM    2  C5  UNL     1     103.461  16.516  15.851  1.00  0.00     0.339 C 
HETATM    3  O3  UNL     1     102.349  16.153  16.358  1.00  0.00    -0.245 OA
HETATM    4  N3  UNL     1     103.868  16.121  14.533  1.00  0.00    -0.324 N 
ATOM      5  H3  UNL     1     103.622  15.281  14.009  1.00  0.00     0.165 HD
HETATM    6  C6  UNL     1     104.733  17.246  14.132  1.00  0.00     0.222 C 
HETATM    7  C8  UNL     1     105.517  17.390  15.416  1.00  0.00     0.247 C 
ENDROOT
BRANCH   1   8
HETATM    8  N1  UNL     1     104.390  17.895  17.669  1.00  0.00    -0.219 N 
ATOM      9  H1  UNL     1     104.097  18.863  17.805  1.00  0.00     0.200 HD
BRANCH   8  10
HETATM   10  S1  UNL     1     104.785  16.885  18.973  1.00  0.00     0.251 S 
HETATM   11  O1  UNL     1     105.742  17.641  19.874  1.00  0.00    -0.204 OA
HETATM   12  O2  UNL     1     105.424  15.622  18.467  1.00  0.00    -0.204 OA
BRANCH  10  13
HETATM   13  C2  UNL     1     103.378  16.430  19.940  1.00  0.00     0.073 C 
HETATM   14  C1  UNL     1     102.950  15.012  19.700  1.00  0.00     0.033 C 
HETATM   15  C3  UNL     1     103.658  16.725  21.393  1.00  0.00     0.033 C 
HETATM   16  C4  UNL     1     102.196  17.319  19.531  1.00  0.00     0.033 C 
ENDBRANCH  10  13
ENDBRANCH   8  10
ENDBRANCH   1   8
BRANCH   7  17
HETATM   17  C9  UNL     1     106.367  18.567  15.463  1.00  0.00     0.201 C 
HETATM   18  O6  UNL     1     106.264  19.536  16.253  1.00  0.00    -0.646 OA
HETATM   19  O7  UNL     1     107.416  18.671  14.556  1.00  0.00    -0.646 OA
ENDBRANCH   7  17
BRANCH   6  20
HETATM   20  C7  UNL     1     103.828  18.360  13.858  1.00  0.00     0.199 C 
HETATM   21  O4  UNL     1     102.608  18.444  14.120  1.00  0.00    -0.646 OA
HETATM   22  O5  UNL     1     104.385  19.477  13.223  1.00  0.00    -0.646 OA
ENDBRANCH   6  20
TORSDOF 5
ENDMDL
