MODEL 1
REMARK VINA RESULT: -7.076257620      0.000      0.000
REMARK  6 active torsions:
REMARK  status: ('A' for Active; 'I' for Inactive)
REMARK    1  A    between atoms: C4_5  and  O1_6 
REMARK    2  A    between atoms: O1_6  and  C5_7 
REMARK    3  A    between atoms: C5_7  and  C6_8 
REMARK    4  A    between atoms: C6_8  and  O2_9 
REMARK    5  A    between atoms: C6_8  and  C7_11 
REMARK    6  A    between atoms: C7_11  and  N1_12 
ROOT
HETATM    1  N1  UNL     1      -3.392   4.453  13.295  1.00  0.00     0.091 N 
HETATM    2  C8  UNL     1      -3.728   4.691  14.702  1.00  0.00     0.273 C 
HETATM    3  C9  UNL     1      -3.683   3.396  15.422  1.00  0.00     0.040 C 
HETATM    4  C10 UNL     1      -4.921   2.577  15.071  1.00  0.00    -0.034 C 
HETATM    5  C11 UNL     1      -4.660   1.185  15.566  1.00  0.00     0.037 C 
HETATM    6  C12 UNL     1      -5.476   0.709  16.701  1.00  0.00     0.233 C 
HETATM    7  N2  UNL     1      -6.023   1.766  17.538  1.00  0.00    -0.075 N 
ATOM      8  H21 UNL     1      -5.319   2.343  17.999  1.00  0.00     0.277 HD
ATOM      9  H22 UNL     1      -6.471   1.435  18.392  1.00  0.00     0.277 HD
HETATM   10  C13 UNL     1      -6.911   2.503  16.636  1.00  0.00     0.233 C 
HETATM   11  C14 UNL     1      -6.103   3.267  15.623  1.00  0.00     0.037 C 
HETATM   12  C15 UNL     1      -4.996   2.591  13.556  1.00  0.00     0.040 C 
HETATM   13  C16 UNL     1      -3.760   3.104  12.899  1.00  0.00     0.273 C 
ENDROOT
BRANCH   1  14
HETATM   14  C7  UNL     1      -1.942   4.537  13.227  1.00  0.00     0.306 C 
BRANCH  14  15
HETATM   15  C6  UNL     1      -1.417   3.674  12.091  1.00  0.00     0.170 C 
BRANCH  15  16
HETATM   16  C5  UNL     1      -0.899   4.604  10.987  1.00  0.00     0.211 C 
BRANCH  16  17
HETATM   17  O1  UNL     1       0.225   4.080  10.375  1.00  0.00    -0.328 OA
BRANCH  17  18
HETATM   18  C4  UNL     1       1.554   4.496  10.609  1.00  0.00     0.186 A 
HETATM   19  S1  UNL     1       2.816   4.751   9.476  1.00  0.00    -0.057 SA
HETATM   20  C3  UNL     1       4.046   5.227  10.564  1.00  0.00     0.078 A 
HETATM   21  C2  UNL     1       3.389   5.159  11.769  1.00  0.00     0.014 A 
HETATM   22  C1  UNL     1       4.138   5.519  13.044  1.00  0.00     0.068 C 
HETATM   23  N3  UNL     1       2.144   4.789  11.750  1.00  0.00    -0.335 N 
ATOM     24  H3  UNL     1       1.619   4.725  12.623  1.00  0.00     0.168 HD
ENDBRANCH  17  18
ENDBRANCH  16  17
ENDBRANCH  15  16
BRANCH  15  25
HETATM   25  O2  UNL     1      -0.364   2.887  12.540  1.00  0.00    -0.392 OA
ATOM     26  H2  UNL     1      -0.506   2.683  13.456  1.00  0.00     0.210 HD
ENDBRANCH  15  25
ENDBRANCH  14  15
ENDBRANCH   1  14
TORSDOF 6
ENDMDL
MODEL 2
REMARK VINA RESULT: -6.745344937      1.244      1.295
REMARK  6 active torsions:
REMARK  status: ('A' for Active; 'I' for Inactive)
REMARK    1  A    between atoms: C4_5  and  O1_6 
REMARK    2  A    between atoms: O1_6  and  C5_7 
REMARK    3  A    between atoms: C5_7  and  C6_8 
REMARK    4  A    between atoms: C6_8  and  O2_9 
REMARK    5  A    between atoms: C6_8  and  C7_11 
REMARK    6  A    between atoms: C7_11  and  N1_12 
ROOT
HETATM    1  N1  UNL     1      -3.417   4.394  13.252  1.00  0.00     0.091 N 
HETATM    2  C8  UNL     1      -3.798   4.669  14.640  1.00  0.00     0.273 C 
HETATM    3  C9  UNL     1      -3.731   3.403  15.408  1.00  0.00     0.040 C 
HETATM    4  C10 UNL     1      -4.933   2.532  15.055  1.00  0.00    -0.034 C 
HETATM    5  C11 UNL     1      -4.641   1.168  15.606  1.00  0.00     0.037 C 
HETATM    6  C12 UNL     1      -5.472   0.706  16.735  1.00  0.00     0.233 C 
HETATM    7  N2  UNL     1      -6.074   1.772  17.520  1.00  0.00    -0.075 N 
ATOM      8  H21 UNL     1      -5.402   2.387  17.978  1.00  0.00     0.277 HD
ATOM      9  H22 UNL     1      -6.534   1.457  18.373  1.00  0.00     0.277 HD
HETATM   10  C13 UNL     1      -6.961   2.448  16.570  1.00  0.00     0.233 C 
HETATM   11  C14 UNL     1      -6.151   3.202  15.551  1.00  0.00     0.037 C 
HETATM   12  C15 UNL     1      -4.967   2.491  13.538  1.00  0.00     0.040 C 
HETATM   13  C16 UNL     1      -3.731   3.020  12.895  1.00  0.00     0.273 C 
ENDROOT
BRANCH   1  14
HETATM   14  C7  UNL     1      -1.969   4.522  13.218  1.00  0.00     0.306 C 
BRANCH  14  15
HETATM   15  C6  UNL     1      -1.401   3.772  12.025  1.00  0.00     0.170 C 
BRANCH  15  16
HETATM   16  C5  UNL     1      -0.965   4.804  10.978  1.00  0.00     0.211 C 
BRANCH  16  17
HETATM   17  O1  UNL     1      -0.508   5.964  11.576  1.00  0.00    -0.328 OA
BRANCH  17  18
HETATM   18  C4  UNL     1       0.847   6.283  11.816  1.00  0.00     0.186 A 
HETATM   19  S1  UNL     1       1.611   7.818  11.794  1.00  0.00    -0.057 SA
HETATM   20  C3  UNL     1       3.200   7.319  12.180  1.00  0.00     0.078 A 
HETATM   21  C2  UNL     1       3.040   5.961  12.307  1.00  0.00     0.014 A 
HETATM   22  C1  UNL     1       4.245   5.102  12.663  1.00  0.00     0.068 C 
HETATM   23  N3  UNL     1       1.848   5.480  12.117  1.00  0.00    -0.335 N 
ATOM     24  H3  UNL     1       1.686   4.476  12.202  1.00  0.00     0.168 HD
ENDBRANCH  17  18
ENDBRANCH  16  17
ENDBRANCH  15  16
BRANCH  15  25
HETATM   25  O2  UNL     1      -0.289   3.035  12.412  1.00  0.00    -0.392 OA
ATOM     26  H2  UNL     1      -0.349   2.863  13.345  1.00  0.00     0.210 HD
ENDBRANCH  15  25
ENDBRANCH  14  15
ENDBRANCH   1  14
TORSDOF 6
ENDMDL
MODEL 3
REMARK VINA RESULT: -6.617938210      3.065      4.531
REMARK  6 active torsions:
REMARK  status: ('A' for Active; 'I' for Inactive)
REMARK    1  A    between atoms: C4_5  and  O1_6 
REMARK    2  A    between atoms: O1_6  and  C5_7 
REMARK    3  A    between atoms: C5_7  and  C6_8 
REMARK    4  A    between atoms: C6_8  and  O2_9 
REMARK    5  A    between atoms: C6_8  and  C7_11 
REMARK    6  A    between atoms: C7_11  and  N1_12 
ROOT
HETATM    1  N1  UNL     1      -3.677   4.310  13.446  1.00  0.00     0.091 N 
HETATM    2  C8  UNL     1      -3.981   4.545  14.860  1.00  0.00     0.273 C 
HETATM    3  C9  UNL     1      -3.883   3.256  15.585  1.00  0.00     0.040 C 
HETATM    4  C10 UNL     1      -5.108   2.403  15.271  1.00  0.00    -0.034 C 
HETATM    5  C11 UNL     1      -4.797   1.021  15.765  1.00  0.00     0.037 C 
HETATM    6  C12 UNL     1      -5.570   0.530  16.923  1.00  0.00     0.233 C 
HETATM    7  N2  UNL     1      -6.121   1.576  17.770  1.00  0.00    -0.075 N 
ATOM      8  H21 UNL     1      -5.421   2.173  18.210  1.00  0.00     0.277 HD
ATOM      9  H22 UNL     1      -6.538   1.238  18.637  1.00  0.00     0.277 HD
HETATM   10  C13 UNL     1      -7.053   2.285  16.890  1.00  0.00     0.233 C 
HETATM   11  C14 UNL     1      -6.292   3.065  15.852  1.00  0.00     0.037 C 
HETATM   12  C15 UNL     1      -5.223   2.408  13.758  1.00  0.00     0.040 C 
HETATM   13  C16 UNL     1      -4.019   2.949  13.066  1.00  0.00     0.273 C 
ENDROOT
BRANCH   1  14
HETATM   14  C7  UNL     1      -2.231   4.431  13.339  1.00  0.00     0.306 C 
BRANCH  14  15
HETATM   15  C6  UNL     1      -1.734   3.717  12.092  1.00  0.00     0.170 C 
BRANCH  15  16
HETATM   16  C5  UNL     1      -1.697   4.733  10.945  1.00  0.00     0.211 C 
BRANCH  16  17
HETATM   17  O1  UNL     1      -2.760   4.553  10.080  1.00  0.00    -0.328 OA
BRANCH  17  18
HETATM   18  C4  UNL     1      -3.803   5.479   9.858  1.00  0.00     0.186 A 
HETATM   19  S1  UNL     1      -4.224   6.298   8.411  1.00  0.00    -0.057 SA
HETATM   20  C3  UNL     1      -5.556   7.192   9.001  1.00  0.00     0.078 A 
HETATM   21  C2  UNL     1      -5.597   6.792  10.315  1.00  0.00     0.014 A 
HETATM   22  C1  UNL     1      -6.672   7.360  11.231  1.00  0.00     0.068 C 
HETATM   23  N3  UNL     1      -4.703   5.934  10.705  1.00  0.00    -0.335 N 
ATOM     24  H3  UNL     1      -4.698   5.611  11.673  1.00  0.00     0.168 HD
ENDBRANCH  17  18
ENDBRANCH  16  17
ENDBRANCH  15  16
BRANCH  15  25
HETATM   25  O2  UNL     1      -0.447   3.237  12.302  1.00  0.00    -0.392 OA
ATOM     26  H2  UNL     1      -0.170   3.484  13.176  1.00  0.00     0.210 HD
ENDBRANCH  15  25
ENDBRANCH  14  15
ENDBRANCH   1  14
TORSDOF 6
ENDMDL
MODEL 4
REMARK VINA RESULT: -6.555875468      1.230      1.599
REMARK  6 active torsions:
REMARK  status: ('A' for Active; 'I' for Inactive)
REMARK    1  A    between atoms: C4_5  and  O1_6 
REMARK    2  A    between atoms: O1_6  and  C5_7 
REMARK    3  A    between atoms: C5_7  and  C6_8 
REMARK    4  A    between atoms: C6_8  and  O2_9 
REMARK    5  A    between atoms: C6_8  and  C7_11 
REMARK    6  A    between atoms: C7_11  and  N1_12 
ROOT
HETATM    1  N1  UNL     1      -3.379   4.392  13.355  1.00  0.00     0.091 N 
HETATM    2  C8  UNL     1      -3.727   4.635  14.758  1.00  0.00     0.273 C 
HETATM    3  C9  UNL     1      -3.702   3.342  15.482  1.00  0.00     0.040 C 
HETATM    4  C10 UNL     1      -4.946   2.535  15.120  1.00  0.00    -0.034 C 
HETATM    5  C11 UNL     1      -4.704   1.142  15.620  1.00  0.00     0.037 C 
HETATM    6  C12 UNL     1      -5.536   0.677  16.748  1.00  0.00     0.233 C 
HETATM    7  N2  UNL     1      -6.080   1.740  17.577  1.00  0.00    -0.075 N 
ATOM      8  H21 UNL     1      -5.375   2.311  18.044  1.00  0.00     0.277 HD
ATOM      9  H22 UNL     1      -6.540   1.416  18.427  1.00  0.00     0.277 HD
HETATM   10  C13 UNL     1      -6.952   2.485  16.666  1.00  0.00     0.233 C 
HETATM   11  C14 UNL     1      -6.126   3.239  15.659  1.00  0.00     0.037 C 
HETATM   12  C15 UNL     1      -5.005   2.547  13.604  1.00  0.00     0.040 C 
HETATM   13  C16 UNL     1      -3.757   3.045  12.958  1.00  0.00     0.273 C 
ENDROOT
BRANCH   1  14
HETATM   14  C7  UNL     1      -1.927   4.459  13.301  1.00  0.00     0.306 C 
BRANCH  14  15
HETATM   15  C6  UNL     1      -1.414   3.777  12.043  1.00  0.00     0.170 C 
BRANCH  15  16
HETATM   16  C5  UNL     1      -0.963   4.867  11.063  1.00  0.00     0.211 C 
BRANCH  16  17
HETATM   17  O1  UNL     1       0.363   5.203  11.262  1.00  0.00    -0.328 OA
BRANCH  17  18
HETATM   18  C4  UNL     1       1.426   4.903  10.380  1.00  0.00     0.186 A 
HETATM   19  S1  UNL     1       2.673   5.933   9.810  1.00  0.00    -0.057 SA
HETATM   20  C3  UNL     1       3.503   4.809   8.825  1.00  0.00     0.078 A 
HETATM   21  C2  UNL     1       2.747   3.675   9.002  1.00  0.00     0.014 A 
HETATM   22  C1  UNL     1       3.151   2.394   8.287  1.00  0.00     0.068 C 
HETATM   23  N3  UNL     1       1.716   3.763   9.788  1.00  0.00    -0.335 N 
ATOM     24  H3  UNL     1       1.127   2.945   9.947  1.00  0.00     0.168 HD
ENDBRANCH  17  18
ENDBRANCH  16  17
ENDBRANCH  15  16
BRANCH  15  25
HETATM   25  O2  UNL     1      -0.322   2.975  12.350  1.00  0.00    -0.392 OA
ATOM     26  H2  UNL     1      -0.592   2.065  12.303  1.00  0.00     0.210 HD
ENDBRANCH  15  25
ENDBRANCH  14  15
ENDBRANCH   1  14
TORSDOF 6
ENDMDL
MODEL 5
REMARK VINA RESULT: -6.452383750      4.700      8.326
REMARK  6 active torsions:
REMARK  status: ('A' for Active; 'I' for Inactive)
REMARK    1  A    between atoms: C4_5  and  O1_6 
REMARK    2  A    between atoms: O1_6  and  C5_7 
REMARK    3  A    between atoms: C5_7  and  C6_8 
REMARK    4  A    between atoms: C6_8  and  O2_9 
REMARK    5  A    between atoms: C6_8  and  C7_11 
REMARK    6  A    between atoms: C7_11  and  N1_12 
ROOT
HETATM    1  N1  UNL     1      -2.524   7.130  13.564  1.00  0.00     0.091 N 
HETATM    2  C8  UNL     1      -1.995   8.187  12.698  1.00  0.00     0.273 C 
HETATM    3  C9  UNL     1      -0.782   8.755  13.333  1.00  0.00     0.040 C 
HETATM    4  C10 UNL     1      -1.192   9.655  14.494  1.00  0.00    -0.034 C 
HETATM    5  C11 UNL     1       0.058   9.932  15.275  1.00  0.00     0.037 C 
HETATM    6  C12 UNL     1       0.576  11.315  15.249  1.00  0.00     0.233 C 
HETATM    7  N2  UNL     1       0.170  12.091  14.089  1.00  0.00    -0.075 N 
ATOM      8  H21 UNL     1       0.496  11.717  13.198  1.00  0.00     0.277 HD
ATOM      9  H22 UNL     1       0.634  12.995  14.005  1.00  0.00     0.277 HD
HETATM   10  C13 UNL     1      -1.288  12.170  14.213  1.00  0.00     0.233 C 
HETATM   11  C14 UNL     1      -1.904  10.824  13.943  1.00  0.00     0.037 C 
HETATM   12  C15 UNL     1      -2.157   8.827  15.323  1.00  0.00     0.040 C 
HETATM   13  C16 UNL     1      -2.179   7.383  14.954  1.00  0.00     0.273 C 
ENDROOT
BRANCH   1  14
HETATM   14  C7  UNL     1      -1.824   5.919  13.165  1.00  0.00     0.306 C 
BRANCH  14  15
HETATM   15  C6  UNL     1      -2.341   4.727  13.954  1.00  0.00     0.170 C 
BRANCH  15  16
HETATM   16  C5  UNL     1      -3.233   3.895  13.025  1.00  0.00     0.211 C 
BRANCH  16  17
HETATM   17  O1  UNL     1      -3.602   2.701  13.618  1.00  0.00    -0.328 OA
BRANCH  17  18
HETATM   18  C4  UNL     1      -4.583   2.554  14.623  1.00  0.00     0.186 A 
HETATM   19  S1  UNL     1      -5.863   3.617  15.040  1.00  0.00    -0.057 SA
HETATM   20  C3  UNL     1      -6.548   2.706  16.314  1.00  0.00     0.078 A 
HETATM   21  C2  UNL     1      -5.725   1.606  16.341  1.00  0.00     0.014 A 
HETATM   22  C1  UNL     1      -5.991   0.504  17.357  1.00  0.00     0.068 C 
HETATM   23  N3  UNL     1      -4.754   1.567  15.479  1.00  0.00    -0.335 N 
ATOM     24  H3  UNL     1      -4.119   0.768  15.465  1.00  0.00     0.168 HD
ENDBRANCH  17  18
ENDBRANCH  16  17
ENDBRANCH  15  16
BRANCH  15  25
HETATM   25  O2  UNL     1      -1.278   3.937  14.373  1.00  0.00    -0.392 OA
ATOM     26  H2  UNL     1      -0.851   4.367  15.105  1.00  0.00     0.210 HD
ENDBRANCH  15  25
ENDBRANCH  14  15
ENDBRANCH   1  14
TORSDOF 6
ENDMDL
