MODEL 1
REMARK VINA RESULT: -5.319774688      0.000      0.000
REMARK  0 active torsions:
REMARK  status: ('A' for Active; 'I' for Inactive)
ROOT
HETATM    1  N1  UNL     1      17.086   0.889  12.960  1.00  0.00    -0.365 N 
ATOM      2  H11 UNL     1      17.442  -0.050  13.133  1.00  0.00     0.159 HD
ATOM      3  H12 UNL     1      17.260   1.332  12.058  1.00  0.00     0.159 HD
HETATM    4  C1  UNL     1      16.413   1.525  13.880  1.00  0.00     0.224 A 
HETATM    5  N2  UNL     1      15.943   2.762  13.653  1.00  0.00    -0.311 N 
ATOM      6  H2  UNL     1      16.113   3.211  12.753  1.00  0.00     0.170 HD
HETATM    7  C2  UNL     1      15.247   3.416  14.608  1.00  0.00     0.132 A 
HETATM    8 CL1  UNL     1      14.649   5.025  14.281  1.00  0.00    -0.062 Cl
HETATM    9  C3  UNL     1      15.007   2.823  15.830  1.00  0.00     0.118 A 
HETATM   10 CL2  UNL     1      14.113   3.624  17.097  1.00  0.00    -0.077 Cl
HETATM   11  C4  UNL     1      15.516   1.545  16.007  1.00  0.00     0.173 A 
HETATM   12 CL3  UNL     1      15.236   0.747  17.549  1.00  0.00    -0.054 Cl
HETATM   13  O1  UNL     1      16.188   0.955  15.042  1.00  0.00    -0.265 OA
ENDROOT
TORSDOF 0
ENDMDL
MODEL 2
REMARK VINA RESULT: -5.220489357      1.046      2.837
REMARK  0 active torsions:
REMARK  status: ('A' for Active; 'I' for Inactive)
ROOT
HETATM    1  N1  UNL     1      17.212   1.161  12.775  1.00  0.00    -0.365 N 
ATOM      2  H11 UNL     1      17.327   1.644  11.885  1.00  0.00     0.159 HD
ATOM      3  H12 UNL     1      17.639   0.244  12.905  1.00  0.00     0.159 HD
HETATM    4  C1  UNL     1      16.527   1.705  13.743  1.00  0.00     0.224 A 
HETATM    5  N2  UNL     1      16.376   1.069  14.917  1.00  0.00    -0.311 N 
ATOM      6  H2  UNL     1      16.800   0.152  15.054  1.00  0.00     0.170 HD
HETATM    7  C2  UNL     1      15.665   1.636  15.916  1.00  0.00     0.132 A 
HETATM    8 CL1  UNL     1      15.487   0.783  17.430  1.00  0.00    -0.062 Cl
HETATM    9  C3  UNL     1      15.086   2.877  15.747  1.00  0.00     0.118 A 
HETATM   10 CL2  UNL     1      14.160   3.653  17.007  1.00  0.00    -0.077 Cl
HETATM   11  C4  UNL     1      15.277   3.485  14.516  1.00  0.00     0.173 A 
HETATM   12 CL3  UNL     1      14.557   5.068  14.253  1.00  0.00    -0.054 Cl
HETATM   13  O1  UNL     1      15.978   2.886  13.577  1.00  0.00    -0.265 OA
ENDROOT
TORSDOF 0
ENDMDL
MODEL 3
REMARK VINA RESULT: -5.101016808      1.631      2.298
REMARK  0 active torsions:
REMARK  status: ('A' for Active; 'I' for Inactive)
ROOT
HETATM    1  N1  UNL     1      16.894  -0.076  15.741  1.00  0.00    -0.365 N 
ATOM      2  H11 UNL     1      16.670  -0.480  16.650  1.00  0.00     0.159 HD
ATOM      3  H12 UNL     1      17.506  -0.586  15.105  1.00  0.00     0.159 HD
HETATM    4  C1  UNL     1      16.405   1.081  15.389  1.00  0.00     0.224 A 
HETATM    5  N2  UNL     1      16.700   1.614  14.192  1.00  0.00    -0.311 N 
ATOM      6  H2  UNL     1      17.311   1.109  13.550  1.00  0.00     0.170 HD
HETATM    7  C2  UNL     1      16.192   2.813  13.832  1.00  0.00     0.132 A 
HETATM    8 CL1  UNL     1      16.594   3.478  12.267  1.00  0.00    -0.062 Cl
HETATM    9  C3  UNL     1      15.362   3.508  14.688  1.00  0.00     0.118 A 
HETATM   10 CL2  UNL     1      14.680   5.059  14.271  1.00  0.00    -0.077 Cl
HETATM   11  C4  UNL     1      15.093   2.909  15.910  1.00  0.00     0.173 A 
HETATM   12 CL3  UNL     1      14.041   3.757  17.035  1.00  0.00    -0.054 Cl
HETATM   13  O1  UNL     1      15.617   1.739  16.209  1.00  0.00    -0.265 OA
ENDROOT
TORSDOF 0
ENDMDL
MODEL 4
REMARK VINA RESULT: -5.066310505      1.769      2.962
REMARK  0 active torsions:
REMARK  status: ('A' for Active; 'I' for Inactive)
ROOT
HETATM    1  N1  UNL     1      16.921  -0.109  15.658  1.00  0.00    -0.365 N 
ATOM      2  H11 UNL     1      17.540  -0.573  14.993  1.00  0.00     0.159 HD
ATOM      3  H12 UNL     1      16.695  -0.572  16.538  1.00  0.00     0.159 HD
HETATM    4  C1  UNL     1      16.420   1.066  15.392  1.00  0.00     0.224 A 
HETATM    5  N2  UNL     1      15.605   1.677  16.267  1.00  0.00    -0.311 N 
ATOM      6  H2  UNL     1      15.375   1.220  17.150  1.00  0.00     0.170 HD
HETATM    7  C2  UNL     1      15.088   2.894  15.987  1.00  0.00     0.132 A 
HETATM    8 CL1  UNL     1      14.031   3.662  17.147  1.00  0.00    -0.062 Cl
HETATM    9  C3  UNL     1      15.390   3.526  14.799  1.00  0.00     0.118 A 
HETATM   10 CL2  UNL     1      14.749   5.097  14.390  1.00  0.00    -0.077 Cl
HETATM   11  C4  UNL     1      16.236   2.848  13.936  1.00  0.00     0.173 A 
HETATM   12 CL3  UNL     1      16.650   3.614  12.408  1.00  0.00    -0.054 Cl
HETATM   13  O1  UNL     1      16.710   1.663  14.259  1.00  0.00    -0.265 OA
ENDROOT
TORSDOF 0
ENDMDL
MODEL 5
REMARK VINA RESULT: -5.011232407      3.018      3.734
REMARK  0 active torsions:
REMARK  status: ('A' for Active; 'I' for Inactive)
ROOT
HETATM    1  N1  UNL     1      16.474   0.315  16.280  1.00  0.00    -0.365 N 
ATOM      2  H11 UNL     1      16.465  -0.700  16.384  1.00  0.00     0.159 HD
ATOM      3  H12 UNL     1      16.423   0.903  17.112  1.00  0.00     0.159 HD
HETATM    4  C1  UNL     1      16.549   0.862  15.099  1.00  0.00     0.224 A 
HETATM    5  N2  UNL     1      16.561   2.198  14.962  1.00  0.00    -0.311 N 
ATOM      6  H2  UNL     1      16.512   2.792  15.789  1.00  0.00     0.170 HD
HETATM    7  C2  UNL     1      16.639   2.760  13.736  1.00  0.00     0.132 A 
HETATM    8 CL1  UNL     1      16.653   4.501  13.592  1.00  0.00    -0.062 Cl
HETATM    9  C3  UNL     1      16.709   1.971  12.607  1.00  0.00     0.118 A 
HETATM   10 CL2  UNL     1      16.811   2.648  11.001  1.00  0.00    -0.077 Cl
HETATM   11  C4  UNL     1      16.693   0.599  12.810  1.00  0.00     0.173 A 
HETATM   12 CL3  UNL     1      16.778  -0.448  11.400  1.00  0.00    -0.054 Cl
HETATM   13  O1  UNL     1      16.614   0.105  14.027  1.00  0.00    -0.265 OA
ENDROOT
TORSDOF 0
ENDMDL
