MODEL 1
REMARK VINA RESULT: -6.662067711      0.000      0.000
REMARK  9 active torsions:
REMARK  status: ('A' for Active; 'I' for Inactive)
REMARK    1  A    between atoms: O1_2  and  N1_3 
REMARK    2  A    between atoms: C2_5  and  C4_7 
REMARK       I    between atoms: C4_7  and  N2_9 
REMARK    3  A    between atoms: N2_9  and  C5_11 
REMARK    4  A    between atoms: C8_15  and  C9_16 
REMARK    5  A    between atoms: C10_19  and  S1_20 
REMARK    6  A    between atoms: S1_20  and  C11_21 
REMARK    7  A    between atoms: C13_23  and  N4_24 
REMARK    8  A    between atoms: C13_23  and  C14_28 
REMARK    9  A    between atoms: C14_28  and  O6_30 
ROOT
HETATM    1  C5  UNL     1      -9.846  13.884   8.071  1.00  0.00     0.078 C 
HETATM    2  C6  UNL     1      -9.138  14.782   7.397  1.00  0.00     0.037 C 
HETATM    3  C7  UNL     1      -9.489  15.859   6.393  1.00  0.00     0.070 C 
HETATM    4  N3  UNL     1      -7.894  14.352   7.845  1.00  0.00    -0.313 N 
HETATM    5  C8  UNL     1      -6.525  14.025   8.179  1.00  0.00     0.148 C 
HETATM    6  C10 UNL     1      -6.464  12.765   8.587  1.00  0.00     0.103 C 
HETATM    7  N6  UNL     1      -7.902  12.309   8.460  1.00  0.00    -0.356 N 
ATOM      8  H6  UNL     1      -8.245  11.382   8.211  1.00  0.00     0.162 HD
HETATM    9  C17 UNL     1      -8.667  13.465   8.768  1.00  0.00     0.243 C 
ENDROOT
BRANCH   6  10
HETATM   10  S1  UNL     1      -5.228  11.746   9.120  1.00  0.00    -0.077 SA
BRANCH  10  11
HETATM   11  C11 UNL     1      -4.001  11.742  10.230  1.00  0.00     0.256 C 
HETATM   12  C12 UNL     1      -3.941  10.575  11.208  1.00  0.00     0.095 C 
HETATM   13  C13 UNL     1      -3.119  11.071  12.357  1.00  0.00     0.236 C 
HETATM   14  C16 UNL     1      -2.978  12.564  12.173  1.00  0.00     0.283 C 
HETATM   15  N5  UNL     1      -3.563  12.933  10.937  1.00  0.00    -0.059 N 
ATOM     16  H52 UNL     1      -2.938  13.508  10.371  1.00  0.00     0.278 HD
ATOM     17  H51 UNL     1      -4.318  13.609  11.055  1.00  0.00     0.278 HD
BRANCH  13  18
HETATM   18  N4  UNL     1      -3.812  10.831  13.634  1.00  0.00    -0.059 N 
ATOM     19  H43 UNL     1      -4.265  11.676  13.982  1.00  0.00     0.275 HD
ATOM     20  H42 UNL     1      -4.641  10.251  13.510  1.00  0.00     0.275 HD
ATOM     21  H41 UNL     1      -3.172  10.435  14.323  1.00  0.00     0.275 HD
ENDBRANCH  13  18
BRANCH  13  22
HETATM   22  C14 UNL     1      -1.811  10.402  12.442  1.00  0.00     0.296 C 
HETATM   23  O5  UNL     1      -0.963  10.773  13.269  1.00  0.00    -0.262 OA
BRANCH  22  24
HETATM   24  O6  UNL     1      -1.524   9.355  11.595  1.00  0.00    -0.324 OA
HETATM   25  C15 UNL     1      -1.137   8.110  12.178  1.00  0.00     0.213 C 
ENDBRANCH  22  24
ENDBRANCH  13  22
ENDBRANCH  10  11
ENDBRANCH   6  10
BRANCH   5  26
HETATM   26  C9  UNL     1      -5.507  15.022   8.002  1.00  0.00     0.230 C 
HETATM   27  O3  UNL     1      -4.691  15.236   8.999  1.00  0.00    -0.643 OA
HETATM   28  O4  UNL     1      -5.335  15.753   6.877  1.00  0.00    -0.643 OA
ENDBRANCH   5  26
BRANCH   1  29
HETATM   29  N2  UNL     1     -11.218  13.591   8.091  1.00  0.00    -0.320 N 
HETATM   30  C4  UNL     1     -11.728  12.581   7.226  1.00  0.00     0.270 C 
HETATM   31  O2  UNL     1     -10.944  11.949   6.441  1.00  0.00    -0.266 OA
ATOM     32  H2  UNL     1     -11.843  14.096   8.720  1.00  0.00     0.169 HD
BRANCH  30  33
HETATM   33  C2  UNL     1     -13.130  12.222   7.190  1.00  0.00     0.096 C 
HETATM   34  N1  UNL     1     -14.015  13.057   6.823  1.00  0.00    -0.266 N 
ATOM     35  H1  UNL     1     -14.996  12.778   6.805  1.00  0.00     0.194 HD
HETATM   36  C3  UNL     1     -13.527  10.848   7.590  1.00  0.00     0.076 C 
BRANCH  34  37
HETATM   37  O1  UNL     1     -13.666  14.322   6.453  1.00  0.00    -0.285 OA
HETATM   38  C1  UNL     1     -14.288  15.477   6.984  1.00  0.00     0.237 C 
ENDBRANCH  34  37
ENDBRANCH  30  33
ENDBRANCH   1  29
TORSDOF 9
ENDMDL
MODEL 2
REMARK VINA RESULT: -6.474394929      3.163      5.086
REMARK  9 active torsions:
REMARK  status: ('A' for Active; 'I' for Inactive)
REMARK    1  A    between atoms: O1_2  and  N1_3 
REMARK    2  A    between atoms: C2_5  and  C4_7 
REMARK       I    between atoms: C4_7  and  N2_9 
REMARK    3  A    between atoms: N2_9  and  C5_11 
REMARK    4  A    between atoms: C8_15  and  C9_16 
REMARK    5  A    between atoms: C10_19  and  S1_20 
REMARK    6  A    between atoms: S1_20  and  C11_21 
REMARK    7  A    between atoms: C13_23  and  N4_24 
REMARK    8  A    between atoms: C13_23  and  C14_28 
REMARK    9  A    between atoms: C14_28  and  O6_30 
ROOT
HETATM    1  C5  UNL     1      -6.717  12.409   7.732  1.00  0.00     0.078 C 
HETATM    2  C6  UNL     1      -7.550  11.848   8.601  1.00  0.00     0.037 C 
HETATM    3  C7  UNL     1      -8.991  12.102   8.989  1.00  0.00     0.070 C 
HETATM    4  N3  UNL     1      -6.622  10.967   9.144  1.00  0.00    -0.313 N 
HETATM    5  C8  UNL     1      -5.790  10.012   9.843  1.00  0.00     0.148 C 
HETATM    6  C10 UNL     1      -4.519  10.368   9.722  1.00  0.00     0.103 C 
HETATM    7  N6  UNL     1      -4.611  11.643   8.911  1.00  0.00    -0.356 N 
ATOM      8  H6  UNL     1      -4.014  12.467   8.971  1.00  0.00     0.162 HD
HETATM    9  C17 UNL     1      -5.718  11.431   8.047  1.00  0.00     0.243 C 
ENDROOT
BRANCH   6  10
HETATM   10  S1  UNL     1      -3.050   9.736  10.264  1.00  0.00    -0.077 SA
BRANCH  10  11
HETATM   11  C11 UNL     1      -2.266   9.440  11.691  1.00  0.00     0.256 C 
HETATM   12  C12 UNL     1      -3.063   8.778  12.808  1.00  0.00     0.095 C 
HETATM   13  C13 UNL     1      -2.318   9.102  14.065  1.00  0.00     0.236 C 
HETATM   14  C16 UNL     1      -1.307  10.166  13.704  1.00  0.00     0.283 C 
HETATM   15  N5  UNL     1      -1.347  10.383  12.304  1.00  0.00    -0.059 N 
ATOM     16  H52 UNL     1      -0.419  10.346  11.883  1.00  0.00     0.278 HD
ATOM     17  H51 UNL     1      -1.575  11.349  12.071  1.00  0.00     0.278 HD
BRANCH  13  18
HETATM   18  N4  UNL     1      -3.227   9.661  15.078  1.00  0.00    -0.059 N 
ATOM     19  H43 UNL     1      -4.204   9.464  14.860  1.00  0.00     0.275 HD
ATOM     20  H42 UNL     1      -3.162   9.158  15.963  1.00  0.00     0.275 HD
ATOM     21  H41 UNL     1      -3.062  10.661  15.200  1.00  0.00     0.275 HD
ENDBRANCH  13  18
BRANCH  13  22
HETATM   22  C14 UNL     1      -1.680   7.918  14.661  1.00  0.00     0.296 C 
HETATM   23  O5  UNL     1      -1.693   7.744  15.890  1.00  0.00    -0.262 OA
BRANCH  22  24
HETATM   24  O6  UNL     1      -1.063   6.993  13.849  1.00  0.00    -0.324 OA
HETATM   25  C15 UNL     1      -0.994   5.642  14.306  1.00  0.00     0.213 C 
ENDBRANCH  22  24
ENDBRANCH  13  22
ENDBRANCH  10  11
ENDBRANCH   6  10
BRANCH   5  26
HETATM   26  C9  UNL     1      -6.415   8.922  10.540  1.00  0.00     0.230 C 
HETATM   27  O3  UNL     1      -6.708   9.100  11.800  1.00  0.00    -0.643 OA
HETATM   28  O4  UNL     1      -6.720   7.728   9.983  1.00  0.00    -0.643 OA
ENDBRANCH   5  26
BRANCH   1  29
HETATM   29  N2  UNL     1      -6.870  13.478   6.838  1.00  0.00    -0.320 N 
HETATM   30  C4  UNL     1      -6.087  14.655   7.017  1.00  0.00     0.270 C 
HETATM   31  O2  UNL     1      -5.254  14.733   7.981  1.00  0.00    -0.266 OA
ATOM     32  H2  UNL     1      -7.536  13.415   6.067  1.00  0.00     0.169 HD
BRANCH  30  33
HETATM   33  C2  UNL     1      -6.188  15.800   6.137  1.00  0.00     0.096 C 
HETATM   34  N1  UNL     1      -7.296  16.395   5.955  1.00  0.00    -0.266 N 
ATOM     35  H1  UNL     1      -7.340  17.200   5.330  1.00  0.00     0.194 HD
HETATM   36  C3  UNL     1      -4.966  16.276   5.440  1.00  0.00     0.076 C 
BRANCH  34  37
HETATM   37  O1  UNL     1      -8.427  15.969   6.587  1.00  0.00    -0.285 OA
HETATM   38  C1  UNL     1      -9.665  16.646   6.486  1.00  0.00     0.237 C 
ENDBRANCH  34  37
ENDBRANCH  30  33
ENDBRANCH   1  29
TORSDOF 9
ENDMDL
MODEL 3
REMARK VINA RESULT: -6.440821538      2.159      3.142
REMARK  9 active torsions:
REMARK  status: ('A' for Active; 'I' for Inactive)
REMARK    1  A    between atoms: O1_2  and  N1_3 
REMARK    2  A    between atoms: C2_5  and  C4_7 
REMARK       I    between atoms: C4_7  and  N2_9 
REMARK    3  A    between atoms: N2_9  and  C5_11 
REMARK    4  A    between atoms: C8_15  and  C9_16 
REMARK    5  A    between atoms: C10_19  and  S1_20 
REMARK    6  A    between atoms: S1_20  and  C11_21 
REMARK    7  A    between atoms: C13_23  and  N4_24 
REMARK    8  A    between atoms: C13_23  and  C14_28 
REMARK    9  A    between atoms: C14_28  and  O6_30 
ROOT
HETATM    1  C5  UNL     1      -8.023  12.638   7.777  1.00  0.00     0.078 C 
HETATM    2  C6  UNL     1      -6.876  13.289   7.624  1.00  0.00     0.037 C 
HETATM    3  C7  UNL     1      -6.382  14.331   6.643  1.00  0.00     0.070 C 
HETATM    4  N3  UNL     1      -6.193  12.622   8.635  1.00  0.00    -0.313 N 
HETATM    5  C8  UNL     1      -5.325  12.017   9.620  1.00  0.00     0.148 C 
HETATM    6  C10 UNL     1      -5.790  10.815   9.933  1.00  0.00     0.103 C 
HETATM    7  N6  UNL     1      -7.011  10.695   9.047  1.00  0.00    -0.356 N 
ATOM      8  H6  UNL     1      -7.384   9.854   8.606  1.00  0.00     0.162 HD
HETATM    9  C17 UNL     1      -7.520  12.018   8.967  1.00  0.00     0.243 C 
ENDROOT
BRANCH   6  10
HETATM   10  S1  UNL     1      -5.299   9.586  10.981  1.00  0.00    -0.077 SA
BRANCH  10  11
HETATM   11  C11 UNL     1      -3.916   9.041  11.709  1.00  0.00     0.256 C 
HETATM   12  C12 UNL     1      -3.588   9.588  13.093  1.00  0.00     0.095 C 
HETATM   13  C13 UNL     1      -2.119   9.358  13.266  1.00  0.00     0.236 C 
HETATM   14  C16 UNL     1      -1.581   8.973  11.908  1.00  0.00     0.283 C 
HETATM   15  N5  UNL     1      -2.663   8.855  11.000  1.00  0.00    -0.059 N 
ATOM     16  H52 UNL     1      -2.639   7.974  10.485  1.00  0.00     0.278 HD
ATOM     17  H51 UNL     1      -2.571   9.490  10.208  1.00  0.00     0.278 HD
BRANCH  13  18
HETATM   18  N4  UNL     1      -1.444  10.595  13.691  1.00  0.00    -0.059 N 
ATOM     19  H43 UNL     1      -0.438  10.550  13.533  1.00  0.00     0.275 HD
ATOM     20  H42 UNL     1      -1.663  11.376  13.072  1.00  0.00     0.275 HD
ATOM     21  H41 UNL     1      -1.665  10.811  14.663  1.00  0.00     0.275 HD
ENDBRANCH  13  18
BRANCH  13  22
HETATM   22  C14 UNL     1      -1.827   8.335  14.282  1.00  0.00     0.296 C 
HETATM   23  O5  UNL     1      -2.127   8.522  15.473  1.00  0.00    -0.262 OA
BRANCH  22  24
HETATM   24  O6  UNL     1      -1.216   7.158  13.911  1.00  0.00    -0.324 OA
HETATM   25  C15 UNL     1      -1.230   6.074  14.841  1.00  0.00     0.213 C 
ENDBRANCH  22  24
ENDBRANCH  13  22
ENDBRANCH  10  11
ENDBRANCH   6  10
BRANCH   5  26
HETATM   26  C9  UNL     1      -4.159  12.733  10.056  1.00  0.00     0.230 C 
HETATM   27  O3  UNL     1      -4.206  14.039  10.028  1.00  0.00    -0.643 OA
HETATM   28  O4  UNL     1      -3.018  12.152  10.493  1.00  0.00    -0.643 OA
ENDBRANCH   5  26
BRANCH   1  29
HETATM   29  N2  UNL     1      -9.227  12.673   7.060  1.00  0.00    -0.320 N 
HETATM   30  C4  UNL     1     -10.172  13.702   7.334  1.00  0.00     0.270 C 
HETATM   31  O2  UNL     1      -9.924  14.585   8.222  1.00  0.00    -0.266 OA
ATOM     32  H2  UNL     1      -9.425  11.967   6.350  1.00  0.00     0.169 HD
BRANCH  30  33
HETATM   33  C2  UNL     1     -11.436  13.806   6.636  1.00  0.00     0.096 C 
HETATM   34  N1  UNL     1     -12.234  12.819   6.567  1.00  0.00    -0.266 N 
ATOM     35  H1  UNL     1     -13.119  12.918   6.071  1.00  0.00     0.194 HD
HETATM   36  C3  UNL     1     -11.795  15.096   5.993  1.00  0.00     0.076 C 
BRANCH  34  37
HETATM   37  O1  UNL     1     -11.918  11.628   7.152  1.00  0.00    -0.285 OA
HETATM   38  C1  UNL     1     -12.427  10.388   6.695  1.00  0.00     0.237 C 
ENDBRANCH  34  37
ENDBRANCH  30  33
ENDBRANCH   1  29
TORSDOF 9
ENDMDL
MODEL 4
REMARK VINA RESULT: -6.314418279      3.470      5.851
REMARK  9 active torsions:
REMARK  status: ('A' for Active; 'I' for Inactive)
REMARK    1  A    between atoms: O1_2  and  N1_3 
REMARK    2  A    between atoms: C2_5  and  C4_7 
REMARK       I    between atoms: C4_7  and  N2_9 
REMARK    3  A    between atoms: N2_9  and  C5_11 
REMARK    4  A    between atoms: C8_15  and  C9_16 
REMARK    5  A    between atoms: C10_19  and  S1_20 
REMARK    6  A    between atoms: S1_20  and  C11_21 
REMARK    7  A    between atoms: C13_23  and  N4_24 
REMARK    8  A    between atoms: C13_23  and  C14_28 
REMARK    9  A    between atoms: C14_28  and  O6_30 
ROOT
HETATM    1  C5  UNL     1      -7.437  17.054   5.806  1.00  0.00     0.078 C 
HETATM    2  C6  UNL     1      -8.573  16.483   6.190  1.00  0.00     0.037 C 
HETATM    3  C7  UNL     1     -10.022  16.920   6.187  1.00  0.00     0.070 C 
HETATM    4  N3  UNL     1      -7.989  15.333   6.710  1.00  0.00    -0.313 N 
HETATM    5  C8  UNL     1      -7.557  14.095   7.321  1.00  0.00     0.148 C 
HETATM    6  C10 UNL     1      -6.288  14.210   7.691  1.00  0.00     0.103 C 
HETATM    7  N6  UNL     1      -5.957  15.631   7.288  1.00  0.00    -0.356 N 
ATOM      8  H6  UNL     1      -5.327  16.283   7.755  1.00  0.00     0.162 HD
HETATM    9  C17 UNL     1      -6.720  15.851   6.111  1.00  0.00     0.243 C 
ENDROOT
BRANCH   6  10
HETATM   10  S1  UNL     1      -5.171  13.190   8.441  1.00  0.00    -0.077 SA
BRANCH  10  11
HETATM   11  C11 UNL     1      -5.027  12.296   9.826  1.00  0.00     0.256 C 
HETATM   12  C12 UNL     1      -3.647  12.208  10.466  1.00  0.00     0.095 C 
HETATM   13  C13 UNL     1      -3.694  10.987  11.330  1.00  0.00     0.236 C 
HETATM   14  C16 UNL     1      -4.954  10.242  10.955  1.00  0.00     0.283 C 
HETATM   15  N5  UNL     1      -5.686  11.016  10.020  1.00  0.00    -0.059 N 
ATOM     16  H52 UNL     1      -6.663  11.124  10.290  1.00  0.00     0.278 HD
ATOM     17  H51 UNL     1      -5.830  10.521   9.140  1.00  0.00     0.278 HD
BRANCH  13  18
HETATM   18  N4  UNL     1      -2.546  10.109  11.054  1.00  0.00    -0.059 N 
ATOM     19  H43 UNL     1      -2.602   9.695  10.124  1.00  0.00     0.275 HD
ATOM     20  H42 UNL     1      -1.684  10.641  10.935  1.00  0.00     0.275 HD
ATOM     21  H41 UNL     1      -2.453   9.397  11.779  1.00  0.00     0.275 HD
ENDBRANCH  13  18
BRANCH  13  22
HETATM   22  C14 UNL     1      -3.656  11.313  12.764  1.00  0.00     0.296 C 
HETATM   23  O5  UNL     1      -2.733  10.897  13.483  1.00  0.00    -0.262 OA
BRANCH  22  24
HETATM   24  O6  UNL     1      -4.653  12.086  13.316  1.00  0.00    -0.324 OA
HETATM   25  C15 UNL     1      -5.373  11.555  14.429  1.00  0.00     0.213 C 
ENDBRANCH  22  24
ENDBRANCH  13  22
ENDBRANCH  10  11
ENDBRANCH   6  10
BRANCH   5  26
HETATM   26  C9  UNL     1      -8.498  13.020   7.459  1.00  0.00     0.230 C 
HETATM   27  O3  UNL     1      -8.283  12.146   8.406  1.00  0.00    -0.643 OA
HETATM   28  O4  UNL     1      -9.590  12.849   6.678  1.00  0.00    -0.643 OA
ENDBRANCH   5  26
BRANCH   1  29
HETATM   29  N2  UNL     1      -7.157  18.311   5.251  1.00  0.00    -0.320 N 
HETATM   30  C4  UNL     1      -5.839  18.591   4.790  1.00  0.00     0.270 C 
HETATM   31  O2  UNL     1      -4.922  17.707   4.880  1.00  0.00    -0.266 OA
ATOM     32  H2  UNL     1      -7.890  19.017   5.178  1.00  0.00     0.169 HD
BRANCH  30  33
HETATM   33  C2  UNL     1      -5.472  19.864   4.205  1.00  0.00     0.096 C 
HETATM   34  N1  UNL     1      -6.252  20.471   3.406  1.00  0.00    -0.266 N 
ATOM     35  H1  UNL     1      -5.970  21.367   3.008  1.00  0.00     0.194 HD
HETATM   36  C3  UNL     1      -4.157  20.459   4.554  1.00  0.00     0.076 C 
BRANCH  34  37
HETATM   37  O1  UNL     1      -7.462  19.936   3.076  1.00  0.00    -0.285 OA
HETATM   38  C1  UNL     1      -8.578  20.727   2.711  1.00  0.00     0.237 C 
ENDBRANCH  34  37
ENDBRANCH  30  33
ENDBRANCH   1  29
TORSDOF 9
ENDMDL
MODEL 5
REMARK VINA RESULT: -6.307554612      1.969      2.410
REMARK  9 active torsions:
REMARK  status: ('A' for Active; 'I' for Inactive)
REMARK    1  A    between atoms: O1_2  and  N1_3 
REMARK    2  A    between atoms: C2_5  and  C4_7 
REMARK       I    between atoms: C4_7  and  N2_9 
REMARK    3  A    between atoms: N2_9  and  C5_11 
REMARK    4  A    between atoms: C8_15  and  C9_16 
REMARK    5  A    between atoms: C10_19  and  S1_20 
REMARK    6  A    between atoms: S1_20  and  C11_21 
REMARK    7  A    between atoms: C13_23  and  N4_24 
REMARK    8  A    between atoms: C13_23  and  C14_28 
REMARK    9  A    between atoms: C14_28  and  O6_30 
ROOT
HETATM    1  C5  UNL     1      -8.516  12.854   7.776  1.00  0.00     0.078 C 
HETATM    2  C6  UNL     1      -7.516  13.719   7.652  1.00  0.00     0.037 C 
HETATM    3  C7  UNL     1      -7.278  14.932   6.780  1.00  0.00     0.070 C 
HETATM    4  N3  UNL     1      -6.664  13.085   8.550  1.00  0.00    -0.313 N 
HETATM    5  C8  UNL     1      -5.641  12.548   9.421  1.00  0.00     0.148 C 
HETATM    6  C10 UNL     1      -5.864  11.255   9.611  1.00  0.00     0.103 C 
HETATM    7  N6  UNL     1      -7.097  11.007   8.768  1.00  0.00    -0.356 N 
ATOM      8  H6  UNL     1      -7.341  10.164   8.248  1.00  0.00     0.162 HD
HETATM    9  C17 UNL     1      -7.838  12.214   8.864  1.00  0.00     0.243 C 
ENDROOT
BRANCH   6  10
HETATM   10  S1  UNL     1      -5.097  10.032  10.487  1.00  0.00    -0.077 SA
BRANCH  10  11
HETATM   11  C11 UNL     1      -3.592   9.666  11.069  1.00  0.00     0.256 C 
HETATM   12  C12 UNL     1      -3.511   8.976  12.425  1.00  0.00     0.095 C 
HETATM   13  C13 UNL     1      -2.120   9.237  12.913  1.00  0.00     0.236 C 
HETATM   14  C16 UNL     1      -1.536  10.293  12.005  1.00  0.00     0.283 C 
HETATM   15  N5  UNL     1      -2.457  10.566  10.963  1.00  0.00    -0.059 N 
ATOM     16  H52 UNL     1      -2.020  10.526  10.042  1.00  0.00     0.278 HD
ATOM     17  H51 UNL     1      -2.742  11.544  10.948  1.00  0.00     0.278 HD
BRANCH  13  18
HETATM   18  N4  UNL     1      -2.141   9.774  14.283  1.00  0.00    -0.059 N 
ATOM     19  H43 UNL     1      -1.386  10.440  14.439  1.00  0.00     0.275 HD
ATOM     20  H42 UNL     1      -2.933  10.400  14.431  1.00  0.00     0.275 HD
ATOM     21  H41 UNL     1      -2.125   9.017  14.968  1.00  0.00     0.275 HD
ENDBRANCH  13  18
BRANCH  13  22
HETATM   22  C14 UNL     1      -1.296   8.018  12.938  1.00  0.00     0.296 C 
HETATM   23  O5  UNL     1      -0.722   7.621  11.911  1.00  0.00    -0.262 OA
BRANCH  22  24
HETATM   24  O6  UNL     1      -1.161   7.308  14.111  1.00  0.00    -0.324 OA
HETATM   25  C15 UNL     1      -1.153   5.882  14.033  1.00  0.00     0.213 C 
ENDBRANCH  22  24
ENDBRANCH  13  22
ENDBRANCH  10  11
ENDBRANCH   6  10
BRANCH   5  26
HETATM   26  C9  UNL     1      -4.598  13.416   9.889  1.00  0.00     0.230 C 
HETATM   27  O3  UNL     1      -4.539  14.618   9.381  1.00  0.00    -0.643 OA
HETATM   28  O4  UNL     1      -3.673  13.076  10.816  1.00  0.00    -0.643 OA
ENDBRANCH   5  26
BRANCH   1  29
HETATM   29  N2  UNL     1      -9.750  12.743   7.119  1.00  0.00    -0.320 N 
HETATM   30  C4  UNL     1     -10.904  13.344   7.696  1.00  0.00     0.270 C 
HETATM   31  O2  UNL     1     -10.816  13.979   8.800  1.00  0.00    -0.266 OA
ATOM     32  H2  UNL     1      -9.819  12.236   6.236  1.00  0.00     0.169 HD
BRANCH  30  33
HETATM   33  C2  UNL     1     -12.212  13.274   7.078  1.00  0.00     0.096 C 
HETATM   34  N1  UNL     1     -12.531  14.049   6.123  1.00  0.00    -0.266 N 
ATOM     35  H1  UNL     1     -13.458  13.978   5.704  1.00  0.00     0.194 HD
HETATM   36  C3  UNL     1     -13.187  12.272   7.579  1.00  0.00     0.076 C 
BRANCH  34  37
HETATM   37  O1  UNL     1     -11.647  14.974   5.652  1.00  0.00    -0.285 OA
HETATM   38  C1  UNL     1     -12.043  16.094   4.883  1.00  0.00     0.237 C 
ENDBRANCH  34  37
ENDBRANCH  30  33
ENDBRANCH   1  29
TORSDOF 9
ENDMDL
