MODEL 1
REMARK VINA RESULT: -4.574960635      0.000      0.000
REMARK  11 active torsions:
REMARK  status: ('A' for Active; 'I' for Inactive)
REMARK       I    between atoms: N1_2  and  C2_4 
REMARK    1  A    between atoms: C2_4  and  C3_6 
REMARK    2  A    between atoms: C4_7  and  O2_8 
REMARK    3  A    between atoms: C5_10  and  N2_11 
REMARK    4  A    between atoms: N3_16  and  C9_17 
REMARK    5  A    between atoms: C9_17  and  O3_18 
REMARK    6  A    between atoms: C10_20  and  N4_21 
REMARK    7  A    between atoms: N4_21  and  C11_23 
REMARK    8  A    between atoms: C11_23  and  C12_24 
REMARK    9  A    between atoms: C12_24  and  N5_25 
REMARK   10  A    between atoms: N5_25  and  S2_27 
REMARK   11  A    between atoms: S2_27  and  N6_28 
ROOT
HETATM    1  C3  UNL     1      15.635  11.389  15.299  1.00  0.00     0.111 A 
HETATM    2  C4  UNL     1      14.760  11.834  16.254  1.00  0.00     0.115 A 
HETATM    3  C5  UNL     1      14.744  11.254  17.516  1.00  0.00     0.103 A 
HETATM    4  C8  UNL     1      15.615  10.247  17.766  1.00  0.00     0.139 A 
HETATM    5  S1  UNL     1      15.565   9.585  19.288  1.00  0.00    -0.057 SA
HETATM    6  N3  UNL     1      16.507   9.771  16.836  1.00  0.00    -0.276 N 
HETATM    7  C10 UNL     1      16.534  10.320  15.605  1.00  0.00     0.129 A 
ENDROOT
BRANCH   7   8
HETATM    8  N4  UNL     1      17.340   9.804  14.583  1.00  0.00    -0.373 N 
ATOM      9  H4  UNL     1      16.816   9.336  13.843  1.00  0.00     0.161 HD
BRANCH   8  10
HETATM   10  C11 UNL     1      18.753   9.806  14.375  1.00  0.00     0.141 C 
BRANCH  10  11
HETATM   11  C12 UNL     1      19.281   8.341  14.261  1.00  0.00     0.153 C 
BRANCH  11  12
HETATM   12  N5  UNL     1      20.671   8.375  13.850  1.00  0.00    -0.301 N 
ATOM     13  H5  UNL     1      21.246   9.216  13.810  1.00  0.00     0.173 HD
BRANCH  12  14
HETATM   14  S2  UNL     1      21.203   6.809  13.446  1.00  0.00     0.312 S 
HETATM   15  O4  UNL     1      21.547   6.084  14.734  1.00  0.00    -0.183 OA
HETATM   16  O5  UNL     1      22.461   6.806  12.620  1.00  0.00    -0.183 OA
BRANCH  14  17
HETATM   17  N6  UNL     1      19.977   5.878  12.663  1.00  0.00    -0.312 N 
ATOM     18  H62 UNL     1      19.057   6.253  12.431  1.00  0.00     0.170 HD
ATOM     19  H61 UNL     1      20.280   4.924  12.464  1.00  0.00     0.170 HD
ENDBRANCH  14  17
ENDBRANCH  12  14
ENDBRANCH  11  12
ENDBRANCH  10  11
ENDBRANCH   8  10
ENDBRANCH   7   8
BRANCH   1  20
HETATM   20  C2  UNL     1      15.657  12.068  14.013  1.00  0.00     0.257 C 
HETATM   21  N1  UNL     1      14.525  12.108  13.159  1.00  0.00    -0.361 N 
HETATM   22  C1  UNL     1      14.699  12.851  11.856  1.00  0.00     0.149 C 
ATOM     23  H1  UNL     1      13.643  11.662  13.411  1.00  0.00     0.162 HD
HETATM   24  O1  UNL     1      16.697  12.680  13.558  1.00  0.00    -0.267 OA
ENDBRANCH   1  20
BRANCH   6  25
HETATM   25  C9  UNL     1      17.326   8.723  17.283  1.00  0.00     0.233 C 
BRANCH  25  26
HETATM   26  O3  UNL     1      18.553   9.030  17.613  1.00  0.00    -0.356 OA
ATOM     27  H3  UNL     1      18.801   8.895  18.519  1.00  0.00     0.218 HD
ENDBRANCH  25  26
ENDBRANCH   6  25
BRANCH   2  28
HETATM   28  O2  UNL     1      13.845  12.857  16.063  1.00  0.00    -0.357 OA
ATOM     29  H2  UNL     1      12.992  12.900  16.477  1.00  0.00     0.217 HD
ENDBRANCH   2  28
BRANCH   3  30
HETATM   30  N2  UNL     1      13.836  11.709  18.525  1.00  0.00    -0.385 N 
HETATM   31  C6  UNL     1      12.589  10.991  18.676  1.00  0.00     0.149 C 
HETATM   32  C7  UNL     1      14.092  12.836  19.393  1.00  0.00     0.149 C 
ENDBRANCH   3  30
TORSDOF 11
ENDMDL
MODEL 2
REMARK VINA RESULT: -2.960462140      5.362      8.569
REMARK  11 active torsions:
REMARK  status: ('A' for Active; 'I' for Inactive)
REMARK       I    between atoms: N1_2  and  C2_4 
REMARK    1  A    between atoms: C2_4  and  C3_6 
REMARK    2  A    between atoms: C4_7  and  O2_8 
REMARK    3  A    between atoms: C5_10  and  N2_11 
REMARK    4  A    between atoms: N3_16  and  C9_17 
REMARK    5  A    between atoms: C9_17  and  O3_18 
REMARK    6  A    between atoms: C10_20  and  N4_21 
REMARK    7  A    between atoms: N4_21  and  C11_23 
REMARK    8  A    between atoms: C11_23  and  C12_24 
REMARK    9  A    between atoms: C12_24  and  N5_25 
REMARK   10  A    between atoms: N5_25  and  S2_27 
REMARK   11  A    between atoms: S2_27  and  N6_28 
ROOT
HETATM    1  C3  UNL     1      20.332   6.510  12.389  1.00  0.00     0.111 A 
HETATM    2  C4  UNL     1      19.410   5.954  11.544  1.00  0.00     0.115 A 
HETATM    3  C5  UNL     1      19.781   5.551  10.267  1.00  0.00     0.103 A 
HETATM    4  C8  UNL     1      21.071   5.726   9.894  1.00  0.00     0.139 A 
HETATM    5  S1  UNL     1      21.473   5.229   8.361  1.00  0.00    -0.057 SA
HETATM    6  N3  UNL     1      22.026   6.282  10.711  1.00  0.00    -0.276 N 
HETATM    7  C10 UNL     1      21.682   6.680  11.952  1.00  0.00     0.129 A 
ENDROOT
BRANCH   7   8
HETATM    8  N4  UNL     1      22.582   7.353  12.787  1.00  0.00    -0.373 N 
ATOM      9  H4  UNL     1      22.551   8.368  12.691  1.00  0.00     0.161 HD
BRANCH   8  10
HETATM   10  C11 UNL     1      23.533   6.895  13.749  1.00  0.00     0.141 C 
BRANCH  10  11
HETATM   11  C12 UNL     1      23.239   5.410  14.129  1.00  0.00     0.153 C 
BRANCH  11  12
HETATM   12  N5  UNL     1      23.895   5.110  15.386  1.00  0.00    -0.301 N 
ATOM     13  H5  UNL     1      24.868   5.326  15.603  1.00  0.00     0.173 HD
BRANCH  12  14
HETATM   14  S2  UNL     1      22.807   4.345  16.450  1.00  0.00     0.312 S 
HETATM   15  O4  UNL     1      21.911   5.412  17.051  1.00  0.00    -0.183 OA
HETATM   16  O5  UNL     1      23.488   3.673  17.611  1.00  0.00    -0.183 OA
BRANCH  14  17
HETATM   17  N6  UNL     1      21.771   3.224  15.640  1.00  0.00    -0.312 N 
ATOM     18  H62 UNL     1      21.693   3.175  14.624  1.00  0.00     0.170 HD
ATOM     19  H61 UNL     1      21.258   2.629  16.290  1.00  0.00     0.170 HD
ENDBRANCH  14  17
ENDBRANCH  12  14
ENDBRANCH  11  12
ENDBRANCH  10  11
ENDBRANCH   8  10
ENDBRANCH   7   8
BRANCH   1  20
HETATM   20  C2  UNL     1      19.910   6.858  13.737  1.00  0.00     0.257 C 
HETATM   21  N1  UNL     1      19.139   8.016  14.014  1.00  0.00    -0.361 N 
HETATM   22  C1  UNL     1      18.777   8.245  15.461  1.00  0.00     0.149 C 
ATOM     23  H1  UNL     1      18.845   8.656  13.276  1.00  0.00     0.162 HD
HETATM   24  O1  UNL     1      20.202   6.146  14.772  1.00  0.00    -0.267 OA
ENDBRANCH   1  20
BRANCH   6  25
HETATM   25  C9  UNL     1      23.306   6.379  10.144  1.00  0.00     0.233 C 
BRANCH  25  26
HETATM   26  O3  UNL     1      24.282   5.786  10.780  1.00  0.00    -0.356 OA
ATOM     27  H3  UNL     1      24.339   4.841  10.695  1.00  0.00     0.218 HD
ENDBRANCH  25  26
ENDBRANCH   6  25
BRANCH   2  28
HETATM   28  O2  UNL     1      18.076   5.748  11.863  1.00  0.00    -0.357 OA
ATOM     29  H2  UNL     1      17.590   4.958  11.659  1.00  0.00     0.217 HD
ENDBRANCH   2  28
BRANCH   3  30
HETATM   30  N2  UNL     1      18.828   4.968   9.371  1.00  0.00    -0.385 N 
HETATM   31  C6  UNL     1      18.959   3.557   9.081  1.00  0.00     0.149 C 
HETATM   32  C7  UNL     1      17.753   5.704   8.746  1.00  0.00     0.149 C 
ENDBRANCH   3  30
TORSDOF 11
ENDMDL
MODEL 3
REMARK VINA RESULT: -2.304550504      6.685      9.333
REMARK  11 active torsions:
REMARK  status: ('A' for Active; 'I' for Inactive)
REMARK       I    between atoms: N1_2  and  C2_4 
REMARK    1  A    between atoms: C2_4  and  C3_6 
REMARK    2  A    between atoms: C4_7  and  O2_8 
REMARK    3  A    between atoms: C5_10  and  N2_11 
REMARK    4  A    between atoms: N3_16  and  C9_17 
REMARK    5  A    between atoms: C9_17  and  O3_18 
REMARK    6  A    between atoms: C10_20  and  N4_21 
REMARK    7  A    between atoms: N4_21  and  C11_23 
REMARK    8  A    between atoms: C11_23  and  C12_24 
REMARK    9  A    between atoms: C12_24  and  N5_25 
REMARK   10  A    between atoms: N5_25  and  S2_27 
REMARK   11  A    between atoms: S2_27  and  N6_28 
ROOT
HETATM    1  C3  UNL     1      22.318   6.430  11.588  1.00  0.00     0.111 A 
HETATM    2  C4  UNL     1      22.176   6.035  10.285  1.00  0.00     0.115 A 
HETATM    3  C5  UNL     1      20.924   5.701   9.784  1.00  0.00     0.103 A 
HETATM    4  C8  UNL     1      19.862   5.779  10.621  1.00  0.00     0.139 A 
HETATM    5  S1  UNL     1      18.384   5.374   9.982  1.00  0.00    -0.057 SA
HETATM    6  N3  UNL     1      19.962   6.168  11.935  1.00  0.00    -0.276 N 
HETATM    7  C10 UNL     1      21.169   6.494  12.437  1.00  0.00     0.129 A 
ENDROOT
BRANCH   7   8
HETATM    8  N4  UNL     1      21.350   6.789  13.794  1.00  0.00    -0.373 N 
ATOM      9  H4  UNL     1      21.512   7.778  13.982  1.00  0.00     0.161 HD
BRANCH   8  10
HETATM   10  C11 UNL     1      21.352   5.973  14.966  1.00  0.00     0.141 C 
BRANCH  10  11
HETATM   11  C12 UNL     1      22.485   4.903  14.874  1.00  0.00     0.153 C 
BRANCH  11  12
HETATM   12  N5  UNL     1      22.019   3.673  15.484  1.00  0.00    -0.301 N 
ATOM     13  H5  UNL     1      21.263   3.093  15.122  1.00  0.00     0.173 HD
BRANCH  12  14
HETATM   14  S2  UNL     1      22.916   3.338  16.892  1.00  0.00     0.312 S 
HETATM   15  O4  UNL     1      21.958   3.334  18.068  1.00  0.00    -0.183 OA
HETATM   16  O5  UNL     1      23.948   4.389  17.201  1.00  0.00    -0.183 OA
BRANCH  14  17
HETATM   17  N6  UNL     1      23.655   1.777  16.847  1.00  0.00    -0.312 N 
ATOM     18  H62 UNL     1      24.090   1.345  17.663  1.00  0.00     0.170 HD
ATOM     19  H61 UNL     1      23.603   1.349  15.922  1.00  0.00     0.170 HD
ENDBRANCH  14  17
ENDBRANCH  12  14
ENDBRANCH  11  12
ENDBRANCH  10  11
ENDBRANCH   8  10
ENDBRANCH   7   8
BRANCH   1  20
HETATM   20  C2  UNL     1      23.638   6.829  12.049  1.00  0.00     0.257 C 
HETATM   21  N1  UNL     1      23.846   7.987  12.841  1.00  0.00    -0.361 N 
HETATM   22  C1  UNL     1      25.272   8.273  13.244  1.00  0.00     0.149 C 
ATOM     23  H1  UNL     1      23.074   8.592  13.124  1.00  0.00     0.162 HD
HETATM   24  O1  UNL     1      24.710   6.165  11.775  1.00  0.00    -0.267 OA
ENDBRANCH   1  20
BRANCH   6  25
HETATM   25  C9  UNL     1      18.749   6.186  12.640  1.00  0.00     0.233 C 
BRANCH  25  26
HETATM   26  O3  UNL     1      18.553   7.189  13.455  1.00  0.00    -0.356 OA
ATOM     27  H3  UNL     1      17.873   7.084  14.111  1.00  0.00     0.218 HD
ENDBRANCH  25  26
ENDBRANCH   6  25
BRANCH   2  28
HETATM   28  O2  UNL     1      23.220   5.933   9.378  1.00  0.00    -0.357 OA
ATOM     29  H2  UNL     1      23.269   5.286   8.685  1.00  0.00     0.217 HD
ENDBRANCH   2  28
BRANCH   3  30
HETATM   30  N2  UNL     1      20.760   5.287   8.424  1.00  0.00    -0.385 N 
HETATM   31  C6  UNL     1      20.615   3.871   8.167  1.00  0.00     0.149 C 
HETATM   32  C7  UNL     1      20.733   6.198   7.301  1.00  0.00     0.149 C 
ENDBRANCH   3  30
TORSDOF 11
ENDMDL
MODEL 4
REMARK VINA RESULT: -2.131200333      1.848      3.864
REMARK  11 active torsions:
REMARK  status: ('A' for Active; 'I' for Inactive)
REMARK       I    between atoms: N1_2  and  C2_4 
REMARK    1  A    between atoms: C2_4  and  C3_6 
REMARK    2  A    between atoms: C4_7  and  O2_8 
REMARK    3  A    between atoms: C5_10  and  N2_11 
REMARK    4  A    between atoms: N3_16  and  C9_17 
REMARK    5  A    between atoms: C9_17  and  O3_18 
REMARK    6  A    between atoms: C10_20  and  N4_21 
REMARK    7  A    between atoms: N4_21  and  C11_23 
REMARK    8  A    between atoms: C11_23  and  C12_24 
REMARK    9  A    between atoms: C12_24  and  N5_25 
REMARK   10  A    between atoms: N5_25  and  S2_27 
REMARK   11  A    between atoms: S2_27  and  N6_28 
ROOT
HETATM    1  C3  UNL     1      17.144  10.021  16.607  1.00  0.00     0.111 A 
HETATM    2  C4  UNL     1      16.364  10.590  17.579  1.00  0.00     0.115 A 
HETATM    3  C5  UNL     1      15.362  11.490  17.237  1.00  0.00     0.103 A 
HETATM    4  C8  UNL     1      15.186  11.780  15.926  1.00  0.00     0.139 A 
HETATM    5  S1  UNL     1      13.976  12.856  15.562  1.00  0.00    -0.057 SA
HETATM    6  N3  UNL     1      15.947  11.232  14.922  1.00  0.00    -0.276 N 
HETATM    7  C10 UNL     1      16.925  10.360  15.235  1.00  0.00     0.129 A 
ENDROOT
BRANCH   7   8
HETATM    8  N4  UNL     1      17.805   9.857  14.269  1.00  0.00    -0.373 N 
ATOM      9  H4  UNL     1      17.467   9.014  13.805  1.00  0.00     0.161 HD
BRANCH   8  10
HETATM   10  C11 UNL     1      19.083  10.294  13.808  1.00  0.00     0.141 C 
BRANCH  10  11
HETATM   11  C12 UNL     1      20.129   9.145  13.954  1.00  0.00     0.153 C 
BRANCH  11  12
HETATM   12  N5  UNL     1      19.469   7.877  13.714  1.00  0.00    -0.301 N 
ATOM     13  H5  UNL     1      18.476   7.766  13.510  1.00  0.00     0.173 HD
BRANCH  12  14
HETATM   14  S2  UNL     1      20.590   6.600  13.821  1.00  0.00     0.312 S 
HETATM   15  O4  UNL     1      21.984   7.192  13.745  1.00  0.00    -0.183 OA
HETATM   16  O5  UNL     1      20.490   5.627  12.677  1.00  0.00    -0.183 OA
BRANCH  14  17
HETATM   17  N6  UNL     1      20.488   5.758  15.326  1.00  0.00    -0.312 N 
ATOM     18  H62 UNL     1      20.901   6.112  16.189  1.00  0.00     0.170 HD
ATOM     19  H61 UNL     1      19.974   4.880  15.247  1.00  0.00     0.170 HD
ENDBRANCH  14  17
ENDBRANCH  12  14
ENDBRANCH  11  12
ENDBRANCH  10  11
ENDBRANCH   8  10
ENDBRANCH   7   8
BRANCH   1  20
HETATM   20  C2  UNL     1      18.138   9.039  17.008  1.00  0.00     0.257 C 
HETATM   21  N1  UNL     1      18.920   9.189  18.182  1.00  0.00    -0.361 N 
HETATM   22  C1  UNL     1      19.912   8.087  18.468  1.00  0.00     0.149 C 
ATOM     23  H1  UNL     1      18.818   9.996  18.799  1.00  0.00     0.162 HD
HETATM   24  O1  UNL     1      18.380   7.967  16.334  1.00  0.00    -0.267 OA
ENDBRANCH   1  20
BRANCH   6  25
HETATM   25  C9  UNL     1      15.612  11.657  13.627  1.00  0.00     0.233 C 
BRANCH  25  26
HETATM   26  O3  UNL     1      16.444  12.476  13.039  1.00  0.00    -0.356 OA
ATOM     27  H3  UNL     1      17.233  12.703  13.516  1.00  0.00     0.218 HD
ENDBRANCH  25  26
ENDBRANCH   6  25
BRANCH   2  28
HETATM   28  O2  UNL     1      16.493  10.338  18.936  1.00  0.00    -0.357 OA
ATOM     29  H2  UNL     1      17.313  10.134  19.369  1.00  0.00     0.217 HD
ENDBRANCH   2  28
BRANCH   3  30
HETATM   30  N2  UNL     1      14.539  12.093  18.241  1.00  0.00    -0.385 N 
HETATM   31  C6  UNL     1      15.197  12.857  19.278  1.00  0.00     0.149 C 
HETATM   32  C7  UNL     1      13.098  11.981  18.277  1.00  0.00     0.149 C 
ENDBRANCH   3  30
TORSDOF 11
ENDMDL
MODEL 5
REMARK VINA RESULT: -2.064890162      7.689      9.474
REMARK  11 active torsions:
REMARK  status: ('A' for Active; 'I' for Inactive)
REMARK       I    between atoms: N1_2  and  C2_4 
REMARK    1  A    between atoms: C2_4  and  C3_6 
REMARK    2  A    between atoms: C4_7  and  O2_8 
REMARK    3  A    between atoms: C5_10  and  N2_11 
REMARK    4  A    between atoms: N3_16  and  C9_17 
REMARK    5  A    between atoms: C9_17  and  O3_18 
REMARK    6  A    between atoms: C10_20  and  N4_21 
REMARK    7  A    between atoms: N4_21  and  C11_23 
REMARK    8  A    between atoms: C11_23  and  C12_24 
REMARK    9  A    between atoms: C12_24  and  N5_25 
REMARK   10  A    between atoms: N5_25  and  S2_27 
REMARK   11  A    between atoms: S2_27  and  N6_28 
ROOT
HETATM    1  C3  UNL     1      21.576   4.912  14.262  1.00  0.00     0.111 A 
HETATM    2  C4  UNL     1      20.737   4.631  13.218  1.00  0.00     0.115 A 
HETATM    3  C5  UNL     1      21.011   5.116  11.945  1.00  0.00     0.103 A 
HETATM    4  C8  UNL     1      22.126   5.867  11.777  1.00  0.00     0.139 A 
HETATM    5  S1  UNL     1      22.419   6.423  10.240  1.00  0.00    -0.057 SA
HETATM    6  N3  UNL     1      22.992   6.173  12.798  1.00  0.00    -0.276 N 
HETATM    7  C10 UNL     1      22.740   5.713  14.039  1.00  0.00     0.129 A 
ENDROOT
BRANCH   7   8
HETATM    8  N4  UNL     1      23.522   6.085  15.139  1.00  0.00    -0.373 N 
ATOM      9  H4  UNL     1      23.139   6.866  15.671  1.00  0.00     0.161 HD
BRANCH   8  10
HETATM   10  C11 UNL     1      24.753   5.582  15.660  1.00  0.00     0.141 C 
BRANCH  10  11
HETATM   11  C12 UNL     1      24.475   4.589  16.831  1.00  0.00     0.153 C 
BRANCH  11  12
HETATM   12  N5  UNL     1      23.902   3.373  16.288  1.00  0.00    -0.301 N 
ATOM     13  H5  UNL     1      23.459   3.295  15.373  1.00  0.00     0.173 HD
BRANCH  12  14
HETATM   14  S2  UNL     1      24.074   2.094  17.399  1.00  0.00     0.312 S 
HETATM   15  O4  UNL     1      24.017   2.678  18.798  1.00  0.00    -0.183 OA
HETATM   16  O5  UNL     1      25.401   1.394  17.295  1.00  0.00    -0.183 OA
BRANCH  14  17
HETATM   17  N6  UNL     1      22.787   0.946  17.287  1.00  0.00    -0.312 N 
ATOM     18  H62 UNL     1      22.453   0.407  18.086  1.00  0.00     0.170 HD
ATOM     19  H61 UNL     1      22.410   0.875  16.341  1.00  0.00     0.170 HD
ENDBRANCH  14  17
ENDBRANCH  12  14
ENDBRANCH  11  12
ENDBRANCH  10  11
ENDBRANCH   8  10
ENDBRANCH   7   8
BRANCH   1  20
HETATM   20  C2  UNL     1      21.280   4.331  15.561  1.00  0.00     0.257 C 
HETATM   21  N1  UNL     1      21.029   5.128  16.708  1.00  0.00    -0.361 N 
HETATM   22  C1  UNL     1      20.736   4.382  17.987  1.00  0.00     0.149 C 
ATOM     23  H1  UNL     1      21.046   6.148  16.670  1.00  0.00     0.162 HD
HETATM   24  O1  UNL     1      21.221   3.059  15.767  1.00  0.00    -0.267 OA
ENDBRANCH   1  20
BRANCH   6  25
HETATM   25  C9  UNL     1      24.091   6.964  12.425  1.00  0.00     0.233 C 
BRANCH  25  26
HETATM   26  O3  UNL     1      24.124   8.186  12.886  1.00  0.00    -0.356 OA
ATOM     27  H3  UNL     1      23.854   8.877  12.293  1.00  0.00     0.218 HD
ENDBRANCH  25  26
ENDBRANCH   6  25
BRANCH   2  28
HETATM   28  O2  UNL     1      19.582   3.871  13.323  1.00  0.00    -0.357 OA
ATOM     29  H2  UNL     1      18.953   3.749  12.622  1.00  0.00     0.217 HD
ENDBRANCH   2  28
BRANCH   3  30
HETATM   30  N2  UNL     1      20.143   4.829  10.843  1.00  0.00    -0.385 N 
HETATM   31  C6  UNL     1      19.019   5.713  10.629  1.00  0.00     0.149 C 
HETATM   32  C7  UNL     1      20.326   3.715   9.941  1.00  0.00     0.149 C 
ENDBRANCH   3  30
TORSDOF 11
ENDMDL
