MODEL 1
REMARK VINA RESULT: -5.261716543      0.000      0.000
REMARK  4 active torsions:
REMARK  status: ('A' for Active; 'I' for Inactive)
REMARK    1  A    between atoms: C4_4  and  C6_6 
REMARK    2  A    between atoms: C6_6  and  C7_7 
REMARK    3  A    between atoms: C7_7  and  N1_8 
REMARK    4  A    between atoms: C10_14  and  N2_15 
ROOT
HETATM    1  C1  UNL     1       2.858 -18.532  -5.283  1.00  0.00     0.012 C 
HETATM    2  C2  UNL     1       2.371 -19.932  -5.396  1.00  0.00     0.013 C 
HETATM    3  C3  UNL     1       3.425 -20.970  -5.664  1.00  0.00     0.015 C 
HETATM    4  C4  UNL     1       4.298 -21.320  -4.554  1.00  0.00    -0.042 C 
HETATM    5  C5  UNL     1       4.792 -22.767  -4.828  1.00  0.00     0.015 C 
HETATM    6  C8  UNL     1       3.612 -21.442  -3.206  1.00  0.00     0.011 C 
HETATM    7  C9  UNL     1       2.460 -20.494  -3.046  1.00  0.00     0.034 C 
HETATM    8  C10 UNL     1       1.554 -20.403  -4.224  1.00  0.00     0.187 C 
ENDROOT
BRANCH   4   9
HETATM    9  C6  UNL     1       5.552 -20.547  -4.341  1.00  0.00     0.036 C 
BRANCH   9  10
HETATM   10  C7  UNL     1       6.252 -19.945  -5.481  1.00  0.00     0.230 C 
BRANCH  10  11
HETATM   11  N1  UNL     1       7.444 -20.582  -5.945  1.00  0.00    -0.079 N 
ATOM     12  H13 UNL     1       8.050 -20.781  -5.149  1.00  0.00     0.274 HD
ATOM     13  H12 UNL     1       7.220 -21.526  -6.259  1.00  0.00     0.274 HD
ATOM     14  H11 UNL     1       7.987 -20.109  -6.668  1.00  0.00     0.274 HD
ENDBRANCH  10  11
ENDBRANCH   9  10
ENDBRANCH   4   9
BRANCH   8  15
HETATM   15  N2  UNL     1       0.543 -19.403  -3.943  1.00  0.00    -0.075 N 
ATOM     16  H23 UNL     1       0.750 -18.502  -4.375  1.00  0.00     0.274 HD
ATOM     17  H22 UNL     1      -0.338 -19.588  -4.423  1.00  0.00     0.274 HD
ATOM     18  H21 UNL     1       0.431 -19.336  -2.931  1.00  0.00     0.274 HD
ENDBRANCH   8  15
TORSDOF 4
ENDMDL
MODEL 2
REMARK VINA RESULT: -5.212859574      2.100      4.407
REMARK  4 active torsions:
REMARK  status: ('A' for Active; 'I' for Inactive)
REMARK    1  A    between atoms: C4_4  and  C6_6 
REMARK    2  A    between atoms: C6_6  and  C7_7 
REMARK    3  A    between atoms: C7_7  and  N1_8 
REMARK    4  A    between atoms: C10_14  and  N2_15 
ROOT
HETATM    1  C1  UNL     1       3.679 -21.552  -6.517  1.00  0.00     0.012 C 
HETATM    2  C2  UNL     1       4.258 -20.594  -5.539  1.00  0.00     0.013 C 
HETATM    3  C3  UNL     1       4.181 -19.142  -5.923  1.00  0.00     0.015 C 
HETATM    4  C4  UNL     1       2.875 -18.508  -5.833  1.00  0.00    -0.042 C 
HETATM    5  C5  UNL     1       3.140 -16.993  -5.617  1.00  0.00     0.015 C 
HETATM    6  C8  UNL     1       2.054 -18.889  -4.615  1.00  0.00     0.011 C 
HETATM    7  C9  UNL     1       2.286 -20.303  -4.169  1.00  0.00     0.034 C 
HETATM    8  C10 UNL     1       3.714 -20.726  -4.143  1.00  0.00     0.187 C 
ENDROOT
BRANCH   4   9
HETATM    9  C6  UNL     1       1.963 -18.549  -7.008  1.00  0.00     0.036 C 
BRANCH   9  10
HETATM   10  C7  UNL     1       1.032 -17.443  -7.262  1.00  0.00     0.230 C 
BRANCH  10  11
HETATM   11  N1  UNL     1      -0.319 -17.594  -6.821  1.00  0.00    -0.079 N 
ATOM     12  H13 UNL     1      -0.590 -18.574  -6.900  1.00  0.00     0.274 HD
ATOM     13  H12 UNL     1      -0.358 -17.462  -5.811  1.00  0.00     0.274 HD
ATOM     14  H11 UNL     1      -1.032 -17.012  -7.263  1.00  0.00     0.274 HD
ENDBRANCH  10  11
ENDBRANCH   9  10
ENDBRANCH   4   9
BRANCH   8  15
HETATM   15  N2  UNL     1       3.765 -22.124  -3.764  1.00  0.00    -0.075 N 
ATOM     16  H23 UNL     1       4.218 -22.706  -4.470  1.00  0.00     0.274 HD
ATOM     17  H22 UNL     1       4.418 -22.301  -3.000  1.00  0.00     0.274 HD
ATOM     18  H21 UNL     1       2.817 -22.434  -3.549  1.00  0.00     0.274 HD
ENDBRANCH   8  15
TORSDOF 4
ENDMDL
MODEL 3
REMARK VINA RESULT: -5.069147248      1.367      4.641
REMARK  4 active torsions:
REMARK  status: ('A' for Active; 'I' for Inactive)
REMARK    1  A    between atoms: C4_4  and  C6_6 
REMARK    2  A    between atoms: C6_6  and  C7_7 
REMARK    3  A    between atoms: C7_7  and  N1_8 
REMARK    4  A    between atoms: C10_14  and  N2_15 
ROOT
HETATM    1  C1  UNL     1       3.548 -21.252  -3.544  1.00  0.00     0.012 C 
HETATM    2  C2  UNL     1       3.689 -21.267  -5.024  1.00  0.00     0.013 C 
HETATM    3  C3  UNL     1       2.585 -20.594  -5.792  1.00  0.00     0.015 C 
HETATM    4  C4  UNL     1       2.561 -19.139  -5.768  1.00  0.00    -0.042 C 
HETATM    5  C5  UNL     1       1.839 -18.694  -7.068  1.00  0.00     0.015 C 
HETATM    6  C8  UNL     1       3.918 -18.469  -5.883  1.00  0.00     0.011 C 
HETATM    7  C9  UNL     1       5.020 -19.260  -5.240  1.00  0.00     0.034 C 
HETATM    8  C10 UNL     1       4.995 -20.720  -5.530  1.00  0.00     0.187 C 
ENDROOT
BRANCH   4   9
HETATM    9  C6  UNL     1       1.816 -18.441  -4.685  1.00  0.00     0.036 C 
BRANCH   9  10
HETATM   10  C7  UNL     1       0.587 -19.025  -4.137  1.00  0.00     0.230 C 
BRANCH  10  11
HETATM   11  N1  UNL     1      -0.655 -18.404  -4.472  1.00  0.00    -0.079 N 
ATOM     12  H13 UNL     1      -0.951 -17.808  -3.699  1.00  0.00     0.274 HD
ATOM     13  H12 UNL     1      -0.497 -17.711  -5.203  1.00  0.00     0.274 HD
ATOM     14  H11 UNL     1      -1.432 -19.007  -4.745  1.00  0.00     0.274 HD
ENDBRANCH  10  11
ENDBRANCH   9  10
ENDBRANCH   4   9
BRANCH   8  15
HETATM   15  N2  UNL     1       6.070 -21.348  -4.786  1.00  0.00    -0.075 N 
ATOM     16  H23 UNL     1       6.271 -20.870  -3.908  1.00  0.00     0.274 HD
ATOM     17  H22 UNL     1       5.802 -22.251  -4.395  1.00  0.00     0.274 HD
ATOM     18  H21 UNL     1       6.887 -21.411  -5.395  1.00  0.00     0.274 HD
ENDBRANCH   8  15
TORSDOF 4
ENDMDL
MODEL 4
REMARK VINA RESULT: -5.021503768      1.294      4.455
REMARK  4 active torsions:
REMARK  status: ('A' for Active; 'I' for Inactive)
REMARK    1  A    between atoms: C4_4  and  C6_6 
REMARK    2  A    between atoms: C6_6  and  C7_7 
REMARK    3  A    between atoms: C7_7  and  N1_8 
REMARK    4  A    between atoms: C10_14  and  N2_15 
ROOT
HETATM    1  C1  UNL     1       4.480 -22.424  -3.968  1.00  0.00     0.012 C 
HETATM    2  C2  UNL     1       4.570 -22.126  -5.422  1.00  0.00     0.013 C 
HETATM    3  C3  UNL     1       3.413 -21.362  -6.004  1.00  0.00     0.015 C 
HETATM    4  C4  UNL     1       3.330 -19.946  -5.677  1.00  0.00    -0.042 C 
HETATM    5  C5  UNL     1       2.545 -19.277  -6.837  1.00  0.00     0.015 C 
HETATM    6  C8  UNL     1       4.653 -19.203  -5.685  1.00  0.00     0.011 C 
HETATM    7  C9  UNL     1       5.808 -20.056  -5.249  1.00  0.00     0.034 C 
HETATM    8  C10 UNL     1       5.834 -21.425  -5.835  1.00  0.00     0.187 C 
ENDROOT
BRANCH   4   9
HETATM    9  C6  UNL     1       2.594 -19.523  -4.454  1.00  0.00     0.036 C 
BRANCH   9  10
HETATM   10  C7  UNL     1       1.361 -20.211  -4.058  1.00  0.00     0.230 C 
BRANCH  10  11
HETATM   11  N1  UNL     1       1.370 -20.945  -2.832  1.00  0.00    -0.079 N 
ATOM     12  H13 UNL     1       0.535 -20.710  -2.294  1.00  0.00     0.274 HD
ATOM     13  H12 UNL     1       1.202 -21.931  -3.030  1.00  0.00     0.274 HD
ATOM     14  H11 UNL     1       2.190 -20.859  -2.231  1.00  0.00     0.274 HD
ENDBRANCH  10  11
ENDBRANCH   9  10
ENDBRANCH   4   9
BRANCH   8  15
HETATM   15  N2  UNL     1       6.959 -22.140  -5.267  1.00  0.00    -0.075 N 
ATOM     16  H23 UNL     1       7.842 -21.910  -5.723  1.00  0.00     0.274 HD
ATOM     17  H22 UNL     1       7.199 -21.815  -4.330  1.00  0.00     0.274 HD
ATOM     18  H21 UNL     1       6.751 -23.139  -5.294  1.00  0.00     0.274 HD
ENDBRANCH   8  15
TORSDOF 4
ENDMDL
MODEL 5
REMARK VINA RESULT: -4.999776966      2.284      3.184
REMARK  4 active torsions:
REMARK  status: ('A' for Active; 'I' for Inactive)
REMARK    1  A    between atoms: C4_4  and  C6_6 
REMARK    2  A    between atoms: C6_6  and  C7_7 
REMARK    3  A    between atoms: C7_7  and  N1_8 
REMARK    4  A    between atoms: C10_14  and  N2_15 
ROOT
HETATM    1  C1  UNL     1       3.837 -21.533  -6.318  1.00  0.00     0.012 C 
HETATM    2  C2  UNL     1       4.551 -22.400  -5.343  1.00  0.00     0.013 C 
HETATM    3  C3  UNL     1       5.988 -22.702  -5.669  1.00  0.00     0.015 C 
HETATM    4  C4  UNL     1       6.946 -21.625  -5.474  1.00  0.00    -0.042 C 
HETATM    5  C5  UNL     1       8.319 -22.303  -5.221  1.00  0.00     0.015 C 
HETATM    6  C8  UNL     1       6.738 -20.794  -4.222  1.00  0.00     0.011 C 
HETATM    7  C9  UNL     1       5.292 -20.653  -3.843  1.00  0.00     0.034 C 
HETATM    8  C10 UNL     1       4.499 -21.911  -3.922  1.00  0.00     0.187 C 
ENDROOT
BRANCH   4   9
HETATM    9  C6  UNL     1       7.214 -20.678  -6.592  1.00  0.00     0.036 C 
BRANCH   9  10
HETATM   10  C7  UNL     1       7.416 -21.181  -7.955  1.00  0.00     0.230 C 
BRANCH  10  11
HETATM   11  N1  UNL     1       6.379 -20.951  -8.912  1.00  0.00    -0.079 N 
ATOM     12  H13 UNL     1       6.785 -20.540  -9.753  1.00  0.00     0.274 HD
ATOM     13  H12 UNL     1       6.052 -21.847  -9.272  1.00  0.00     0.274 HD
ATOM     14  H11 UNL     1       5.576 -20.393  -8.620  1.00  0.00     0.274 HD
ENDBRANCH  10  11
ENDBRANCH   9  10
ENDBRANCH   4   9
BRANCH   8  15
HETATM   15  N2  UNL     1       3.121 -21.598  -3.598  1.00  0.00    -0.075 N 
ATOM     16  H23 UNL     1       2.467 -22.303  -3.941  1.00  0.00     0.274 HD
ATOM     17  H22 UNL     1       2.919 -21.695  -2.603  1.00  0.00     0.274 HD
ATOM     18  H21 UNL     1       2.912 -20.664  -3.951  1.00  0.00     0.274 HD
ENDBRANCH   8  15
TORSDOF 4
ENDMDL
