MODEL 1
REMARK VINA RESULT: -7.693866760      0.000      0.000
REMARK  4 active torsions:
REMARK  status: ('A' for Active; 'I' for Inactive)
REMARK    1  A    between atoms: S1_2  and  C1_4 
REMARK    2  A    between atoms: S1_2  and  N2_16 
REMARK    3  A    between atoms: C2_6  and  C3_7 
REMARK    4  A    between atoms: C11_20  and  C12_21 
ROOT
HETATM    1  O1  UNL     1      67.838  -6.494  72.108  1.00  0.00    -0.205 OA
HETATM    2  S1  UNL     1      68.647  -7.045  70.966  1.00  0.00     0.253 S 
HETATM    3  O2  UNL     1      67.811  -7.988  70.188  1.00  0.00    -0.205 OA
ENDROOT
BRANCH   2   4
HETATM    4  C1  UNL     1      70.002  -7.905  71.683  1.00  0.00     0.155 A 
HETATM    5  S2  UNL     1      70.560  -7.874  73.321  1.00  0.00    -0.055 SA
HETATM    6  C2  UNL     1      71.886  -8.924  73.157  1.00  0.00     0.093 A 
HETATM    7  N1  UNL     1      71.842  -9.245  71.875  1.00  0.00    -0.338 N 
HETATM    8  C7  UNL     1      70.917  -8.752  71.118  1.00  0.00     0.134 A 
ATOM      9  H1  UNL     1      72.537  -9.881  71.484  1.00  0.00     0.167 HD
HETATM   10 CL1  UNL     1      70.822  -9.130  69.373  1.00  0.00    -0.062 Cl
BRANCH   6  11
HETATM   11  C3  UNL     1      72.870  -9.400  74.137  1.00  0.00     0.038 A 
HETATM   12  C4  UNL     1      73.910  -8.689  74.665  1.00  0.00     0.022 A 
HETATM   13  C5  UNL     1      74.697  -9.313  75.550  1.00  0.00     0.008 A 
HETATM   14  C6  UNL     1      74.392 -10.616  75.853  1.00  0.00     0.050 A 
HETATM   15  S3  UNL     1      73.017 -10.916  74.887  1.00  0.00    -0.099 SA
ENDBRANCH   6  11
ENDBRANCH   2   4
BRANCH   2  16
HETATM   16  N2  UNL     1      69.168  -5.742  70.008  1.00  0.00    -0.201 NA
HETATM   17  C8  UNL     1      70.381  -5.110  70.416  1.00  0.00     0.108 C 
HETATM   18  C9  UNL     1      69.993  -3.973  71.338  1.00  0.00     0.017 C 
HETATM   19  C10 UNL     1      68.677  -3.521  70.740  1.00  0.00     0.022 C 
HETATM   20  C11 UNL     1      68.142  -4.713  70.023  1.00  0.00     0.078 C 
BRANCH  20  21
HETATM   21  C12 UNL     1      67.612  -4.354  68.677  1.00  0.00     0.008 C 
HETATM   22  C13 UNL     1      66.260  -4.944  68.353  1.00  0.00     0.032 C 
HETATM   23  C14 UNL     1      65.781  -4.425  67.014  1.00  0.00     0.168 C 
HETATM   24  O3  UNL     1      66.824  -3.800  66.317  1.00  0.00    -0.391 OA
HETATM   25  C15 UNL     1      67.235  -2.637  66.968  1.00  0.00     0.168 C 
HETATM   26  C16 UNL     1      67.604  -2.866  68.395  1.00  0.00     0.032 C 
ENDBRANCH  20  21
ENDBRANCH   2  16
TORSDOF 4
ENDMDL
MODEL 2
REMARK VINA RESULT: -7.451102585      0.414      1.041
REMARK  4 active torsions:
REMARK  status: ('A' for Active; 'I' for Inactive)
REMARK    1  A    between atoms: S1_2  and  C1_4 
REMARK    2  A    between atoms: S1_2  and  N2_16 
REMARK    3  A    between atoms: C2_6  and  C3_7 
REMARK    4  A    between atoms: C11_20  and  C12_21 
ROOT
HETATM    1  O1  UNL     1      67.681  -6.508  72.151  1.00  0.00    -0.205 OA
HETATM    2  S1  UNL     1      68.498  -7.019  70.997  1.00  0.00     0.253 S 
HETATM    3  O2  UNL     1      67.694  -7.994  70.224  1.00  0.00    -0.205 OA
ENDROOT
BRANCH   2   4
HETATM    4  C1  UNL     1      69.897  -7.824  71.693  1.00  0.00     0.155 A 
HETATM    5  S2  UNL     1      70.482  -7.763  73.321  1.00  0.00    -0.055 SA
HETATM    6  C2  UNL     1      71.844  -8.764  73.138  1.00  0.00     0.093 A 
HETATM    7  N1  UNL     1      71.789  -9.093  71.859  1.00  0.00    -0.338 N 
HETATM    8  C7  UNL     1      70.833  -8.640  71.116  1.00  0.00     0.134 A 
ATOM      9  H1  UNL     1      72.501  -9.704  71.458  1.00  0.00     0.167 HD
HETATM   10 CL1  UNL     1      70.722  -9.030  69.375  1.00  0.00    -0.062 Cl
BRANCH   6  11
HETATM   11  C3  UNL     1      72.863  -9.197  74.102  1.00  0.00     0.038 A 
HETATM   12  C4  UNL     1      73.889  -8.447  74.602  1.00  0.00     0.022 A 
HETATM   13  C5  UNL     1      74.713  -9.036  75.477  1.00  0.00     0.008 A 
HETATM   14  C6  UNL     1      74.458 -10.345  75.800  1.00  0.00     0.050 A 
HETATM   15  S3  UNL     1      73.073 -10.700  74.865  1.00  0.00    -0.099 SA
ENDBRANCH   6  11
ENDBRANCH   2   4
BRANCH   2  16
HETATM   16  N2  UNL     1      68.952  -5.692  70.038  1.00  0.00    -0.201 NA
HETATM   17  C8  UNL     1      70.289  -5.222  70.210  1.00  0.00     0.108 C 
HETATM   18  C9  UNL     1      70.241  -4.142  71.270  1.00  0.00     0.017 C 
HETATM   19  C10 UNL     1      68.890  -3.509  71.010  1.00  0.00     0.022 C 
HETATM   20  C11 UNL     1      68.079  -4.572  70.349  1.00  0.00     0.078 C 
BRANCH  20  21
HETATM   21  C12 UNL     1      67.321  -4.040  69.181  1.00  0.00     0.008 C 
HETATM   22  C13 UNL     1      68.052  -2.988  68.382  1.00  0.00     0.032 C 
HETATM   23  C14 UNL     1      67.232  -2.606  67.167  1.00  0.00     0.168 C 
HETATM   24  O3  UNL     1      65.921  -3.090  67.275  1.00  0.00    -0.391 OA
HETATM   25  C15 UNL     1      65.898  -4.484  67.234  1.00  0.00     0.168 C 
HETATM   26  C16 UNL     1      66.788  -5.112  68.253  1.00  0.00     0.032 C 
ENDBRANCH  20  21
ENDBRANCH   2  16
TORSDOF 4
ENDMDL
MODEL 3
REMARK VINA RESULT: -6.974347944      2.748      7.311
REMARK  4 active torsions:
REMARK  status: ('A' for Active; 'I' for Inactive)
REMARK    1  A    between atoms: S1_2  and  C1_4 
REMARK    2  A    between atoms: S1_2  and  N2_16 
REMARK    3  A    between atoms: C2_6  and  C3_7 
REMARK    4  A    between atoms: C11_20  and  C12_21 
ROOT
HETATM    1  O1  UNL     1      70.233  -9.230  72.914  1.00  0.00    -0.205 OA
HETATM    2  S1  UNL     1      70.165  -7.735  73.064  1.00  0.00     0.253 S 
HETATM    3  O2  UNL     1      69.297  -7.400  74.216  1.00  0.00    -0.205 OA
ENDROOT
BRANCH   2   4
HETATM    4  C1  UNL     1      69.451  -7.115  71.583  1.00  0.00     0.155 A 
HETATM    5  S2  UNL     1      68.280  -5.855  71.390  1.00  0.00    -0.055 SA
HETATM    6  C2  UNL     1      68.122  -5.912  69.699  1.00  0.00     0.093 A 
HETATM    7  N1  UNL     1      68.959  -6.879  69.364  1.00  0.00    -0.338 N 
HETATM    8  C7  UNL     1      69.633  -7.495  70.280  1.00  0.00     0.134 A 
ATOM      9  H1  UNL     1      69.075  -7.138  68.385  1.00  0.00     0.167 HD
HETATM   10 CL1  UNL     1      70.762  -8.826  69.890  1.00  0.00    -0.062 Cl
BRANCH   6  11
HETATM   11  C3  UNL     1      67.293  -5.126  68.778  1.00  0.00     0.038 A 
HETATM   12  C4  UNL     1      66.262  -5.585  68.007  1.00  0.00     0.022 A 
HETATM   13  C5  UNL     1      65.631  -4.697  67.230  1.00  0.00     0.008 A 
HETATM   14  C6  UNL     1      66.071  -3.398  67.273  1.00  0.00     0.050 A 
HETATM   15  S3  UNL     1      67.352  -3.471  68.399  1.00  0.00    -0.099 SA
ENDBRANCH   6  11
ENDBRANCH   2   4
BRANCH   2  16
HETATM   16  N2  UNL     1      71.746  -7.153  73.289  1.00  0.00    -0.201 NA
HETATM   17  C8  UNL     1      72.621  -7.990  74.043  1.00  0.00     0.108 C 
HETATM   18  C9  UNL     1      72.506  -7.555  75.489  1.00  0.00     0.017 C 
HETATM   19  C10 UNL     1      72.277  -6.064  75.349  1.00  0.00     0.022 C 
HETATM   20  C11 UNL     1      71.679  -5.885  73.995  1.00  0.00     0.078 C 
BRANCH  20  21
HETATM   21  C12 UNL     1      72.299  -4.741  73.266  1.00  0.00     0.008 C 
HETATM   22  C13 UNL     1      71.314  -3.805  72.609  1.00  0.00     0.032 C 
HETATM   23  C14 UNL     1      72.052  -2.632  71.997  1.00  0.00     0.168 C 
HETATM   24  O3  UNL     1      73.429  -2.882  71.939  1.00  0.00    -0.391 OA
HETATM   25  C15 UNL     1      73.979  -2.956  73.218  1.00  0.00     0.168 C 
HETATM   26  C16 UNL     1      73.289  -3.948  74.093  1.00  0.00     0.032 C 
ENDBRANCH  20  21
ENDBRANCH   2  16
TORSDOF 4
ENDMDL
MODEL 4
REMARK VINA RESULT: -6.939607343      3.850      8.328
REMARK  4 active torsions:
REMARK  status: ('A' for Active; 'I' for Inactive)
REMARK    1  A    between atoms: S1_2  and  C1_4 
REMARK    2  A    between atoms: S1_2  and  N2_16 
REMARK    3  A    between atoms: C2_6  and  C3_7 
REMARK    4  A    between atoms: C11_20  and  C12_21 
ROOT
HETATM    1  O1  UNL     1      71.497  -3.140  73.184  1.00  0.00    -0.205 OA
HETATM    2  S1  UNL     1      70.853  -4.493  73.299  1.00  0.00     0.253 S 
HETATM    3  O2  UNL     1      71.894  -5.540  73.186  1.00  0.00    -0.205 OA
ENDROOT
BRANCH   2   4
HETATM    4  C1  UNL     1      69.728  -4.627  71.955  1.00  0.00     0.155 A 
HETATM    5  S2  UNL     1      69.379  -3.469  70.716  1.00  0.00    -0.055 SA
HETATM    6  C2  UNL     1      68.200  -4.353  69.869  1.00  0.00     0.093 A 
HETATM    7  N1  UNL     1      68.129  -5.476  70.562  1.00  0.00    -0.338 N 
HETATM    8  C7  UNL     1      68.876  -5.640  71.605  1.00  0.00     0.134 A 
ATOM      9  H1  UNL     1      67.485  -6.213  70.275  1.00  0.00     0.167 HD
HETATM   10 CL1  UNL     1      68.806  -7.126  72.595  1.00  0.00    -0.062 Cl
BRANCH   6  11
HETATM   11  C3  UNL     1      67.420  -4.023  68.670  1.00  0.00     0.038 A 
HETATM   12  C4  UNL     1      67.506  -2.881  67.925  1.00  0.00     0.022 A 
HETATM   13  C5  UNL     1      66.699  -2.776  66.862  1.00  0.00     0.008 A 
HETATM   14  C6  UNL     1      65.853  -3.826  66.609  1.00  0.00     0.050 A 
HETATM   15  S3  UNL     1      66.220  -4.918  67.869  1.00  0.00    -0.099 SA
ENDBRANCH   6  11
ENDBRANCH   2   4
BRANCH   2  16
HETATM   16  N2  UNL     1      70.052  -4.575  74.795  1.00  0.00    -0.201 NA
HETATM   17  C8  UNL     1      70.162  -3.421  75.629  1.00  0.00     0.108 C 
HETATM   18  C9  UNL     1      71.363  -3.640  76.524  1.00  0.00     0.017 C 
HETATM   19  C10 UNL     1      71.324  -5.138  76.739  1.00  0.00     0.022 C 
HETATM   20  C11 UNL     1      70.599  -5.685  75.557  1.00  0.00     0.078 C 
BRANCH  20  21
HETATM   21  C12 UNL     1      69.594  -6.713  75.953  1.00  0.00     0.008 C 
HETATM   22  C13 UNL     1      70.097  -8.136  75.908  1.00  0.00     0.032 C 
HETATM   23  C14 UNL     1      69.029  -9.073  76.433  1.00  0.00     0.168 C 
HETATM   24  O3  UNL     1      67.792  -8.422  76.525  1.00  0.00    -0.391 OA
HETATM   25  C15 UNL     1      67.825  -7.421  77.495  1.00  0.00     0.168 C 
HETATM   26  C16 UNL     1      68.933  -6.443  77.289  1.00  0.00     0.032 C 
ENDBRANCH  20  21
ENDBRANCH   2  16
TORSDOF 4
ENDMDL
MODEL 5
REMARK VINA RESULT: -6.814445786      4.157      8.550
REMARK  4 active torsions:
REMARK  status: ('A' for Active; 'I' for Inactive)
REMARK    1  A    between atoms: S1_2  and  C1_4 
REMARK    2  A    between atoms: S1_2  and  N2_16 
REMARK    3  A    between atoms: C2_6  and  C3_7 
REMARK    4  A    between atoms: C11_20  and  C12_21 
ROOT
HETATM    1  O1  UNL     1      72.140  -5.479  73.052  1.00  0.00    -0.205 OA
HETATM    2  S1  UNL     1      70.648  -5.540  73.228  1.00  0.00     0.253 S 
HETATM    3  O2  UNL     1      70.214  -6.956  73.219  1.00  0.00    -0.205 OA
ENDROOT
BRANCH   2   4
HETATM    4  C1  UNL     1      69.947  -4.696  71.855  1.00  0.00     0.155 A 
HETATM    5  S2  UNL     1      68.562  -5.127  70.911  1.00  0.00    -0.055 SA
HETATM    6  C2  UNL     1      68.597  -3.836  69.806  1.00  0.00     0.093 A 
HETATM    7  N1  UNL     1      69.651  -3.145  70.204  1.00  0.00    -0.338 N 
HETATM    8  C7  UNL     1      70.342  -3.549  71.219  1.00  0.00     0.134 A 
ATOM      9  H1  UNL     1      69.919  -2.294  69.711  1.00  0.00     0.167 HD
HETATM   10 CL1  UNL     1      71.791  -2.670  71.787  1.00  0.00    -0.062 Cl
BRANCH   6  11
HETATM   11  C3  UNL     1      67.719  -3.506  68.677  1.00  0.00     0.038 A 
HETATM   12  C4  UNL     1      67.853  -2.454  67.815  1.00  0.00     0.022 A 
HETATM   13  C5  UNL     1      66.937  -2.332  66.846  1.00  0.00     0.008 A 
HETATM   14  C6  UNL     1      65.940  -3.273  66.799  1.00  0.00     0.050 A 
HETATM   15  S3  UNL     1      66.323  -4.293  68.114  1.00  0.00    -0.099 SA
ENDBRANCH   6  11
ENDBRANCH   2   4
BRANCH   2  16
HETATM   16  N2  UNL     1      70.256  -4.780  74.697  1.00  0.00    -0.201 NA
HETATM   17  C8  UNL     1      70.907  -3.536  74.953  1.00  0.00     0.108 C 
HETATM   18  C9  UNL     1      72.170  -3.854  75.724  1.00  0.00     0.017 C 
HETATM   19  C10 UNL     1      71.740  -5.048  76.551  1.00  0.00     0.022 C 
HETATM   20  C11 UNL     1      70.616  -5.667  75.791  1.00  0.00     0.078 C 
BRANCH  20  21
HETATM   21  C12 UNL     1      69.481  -6.032  76.686  1.00  0.00     0.008 C 
HETATM   22  C13 UNL     1      68.841  -7.365  76.380  1.00  0.00     0.032 C 
HETATM   23  C14 UNL     1      67.780  -7.673  77.416  1.00  0.00     0.168 C 
HETATM   24  O3  UNL     1      67.474  -6.536  78.173  1.00  0.00    -0.391 OA
HETATM   25  C15 UNL     1      68.561  -6.147  78.955  1.00  0.00     0.168 C 
HETATM   26  C16 UNL     1      69.808  -5.944  78.162  1.00  0.00     0.032 C 
ENDBRANCH  20  21
ENDBRANCH   2  16
TORSDOF 4
ENDMDL
