MODEL 1
REMARK VINA RESULT: -8.165023632      0.000      0.000
REMARK  6 active torsions:
REMARK  status: ('A' for Active; 'I' for Inactive)
REMARK    1  A    between atoms: C4_4  and  C5_5 
REMARK    2  A    between atoms: C6_6  and  C7_7 
REMARK    3  A    between atoms: C9_10  and  C10_11 
REMARK    4  A    between atoms: N2_14  and  C13_15 
REMARK    5  A    between atoms: C13_15  and  S1_16 
REMARK    6  A    between atoms: S1_16  and  C14_17 
ROOT
HETATM    1  C7  UNL     1      69.075  -6.655  72.041  1.00  0.00     0.100 C 
HETATM    2  C8  UNL     1      69.461  -6.219  73.340  1.00  0.00     0.108 C 
HETATM    3  N1  UNL     1      69.766  -5.830  74.418  1.00  0.00    -0.191 NA
HETATM    4  C9  UNL     1      69.371  -7.845  71.601  1.00  0.00     0.061 C 
ENDROOT
BRANCH   1   5
HETATM    5  C6  UNL     1      68.325  -5.725  71.205  1.00  0.00    -0.055 C 
HETATM    6  C5  UNL     1      67.714  -4.972  70.493  1.00  0.00    -0.090 C 
BRANCH   6   7
HETATM    7  C4  UNL     1      66.960  -4.061  69.589  1.00  0.00     0.106 C 
HETATM    8  C3  UNL     1      67.906  -3.263  68.764  1.00  0.00    -0.006 C 
HETATM    9  C2  UNL     1      67.490  -2.693  67.664  1.00  0.00    -0.086 C 
HETATM   10  C1  UNL     1      68.430  -1.901  66.845  1.00  0.00     0.043 C 
HETATM   11  C21 UNL     1      66.050  -2.896  67.301  1.00  0.00     0.035 C 
HETATM   12  C20 UNL     1      65.817  -4.383  67.357  1.00  0.00     0.026 C 
HETATM   13  C19 UNL     1      66.146  -4.969  68.691  1.00  0.00     0.102 C 
HETATM   14 CL1  UNL     1      67.023  -6.515  68.422  1.00  0.00    -0.123 Cl
ENDBRANCH   6   7
ENDBRANCH   1   5
BRANCH   4  15
HETATM   15  C10 UNL     1      70.106  -8.854  72.326  1.00  0.00     0.039 A 
HETATM   16  C11 UNL     1      71.459  -8.977  72.102  1.00  0.00     0.047 A 
HETATM   17  C12 UNL     1      72.177  -9.927  72.776  1.00  0.00     0.099 A 
HETATM   18  N2  UNL     1      71.498 -10.725  73.660  1.00  0.00    -0.300 N 
HETATM   19  C18 UNL     1      70.200 -10.589  73.859  1.00  0.00     0.327 A 
HETATM   20  O3  UNL     1      69.633 -11.372  74.700  1.00  0.00    -0.246 OA
HETATM   21  N3  UNL     1      69.508  -9.667  73.201  1.00  0.00    -0.308 N 
ATOM     22  H3  UNL     1      68.505  -9.578  73.367  1.00  0.00     0.170 HD
BRANCH  18  23
HETATM   23  C13 UNL     1      72.315 -11.702  74.339  1.00  0.00     0.207 C 
BRANCH  23  24
HETATM   24  S1  UNL     1      72.601 -13.142  73.355  1.00  0.00    -0.134 SA
BRANCH  24  25
HETATM   25  C14 UNL     1      71.851 -14.617  74.047  1.00  0.00     0.150 C 
HETATM   26  C15 UNL     1      72.671 -15.802  73.495  1.00  0.00     0.052 C 
HETATM   27  C16 UNL     1      72.335 -15.622  72.004  1.00  0.00     0.180 C 
HETATM   28  O1  UNL     1      70.917 -15.429  72.081  1.00  0.00    -0.321 OA
HETATM   29  C17 UNL     1      70.569 -14.898  73.316  1.00  0.00     0.272 C 
HETATM   30  O2  UNL     1      69.423 -14.696  73.734  1.00  0.00    -0.264 OA
ENDBRANCH  24  25
ENDBRANCH  23  24
ENDBRANCH  18  23
ENDBRANCH   4  15
TORSDOF 6
ENDMDL
MODEL 2
REMARK VINA RESULT: -8.056147766      1.364      1.452
REMARK  6 active torsions:
REMARK  status: ('A' for Active; 'I' for Inactive)
REMARK    1  A    between atoms: C4_4  and  C5_5 
REMARK    2  A    between atoms: C6_6  and  C7_7 
REMARK    3  A    between atoms: C9_10  and  C10_11 
REMARK    4  A    between atoms: N2_14  and  C13_15 
REMARK    5  A    between atoms: C13_15  and  S1_16 
REMARK    6  A    between atoms: S1_16  and  C14_17 
ROOT
HETATM    1  C7  UNL     1      69.240  -6.015  72.464  1.00  0.00     0.100 C 
HETATM    2  C8  UNL     1      70.013  -5.271  73.399  1.00  0.00     0.108 C 
HETATM    3  N1  UNL     1      70.646  -4.624  74.166  1.00  0.00    -0.191 NA
HETATM    4  C9  UNL     1      69.193  -7.317  72.496  1.00  0.00     0.061 C 
ENDROOT
BRANCH   1   5
HETATM    5  C6  UNL     1      68.486  -5.274  71.459  1.00  0.00    -0.055 C 
HETATM    6  C5  UNL     1      67.844  -4.681  70.634  1.00  0.00    -0.090 C 
BRANCH   6   7
HETATM    7  C4  UNL     1      67.023  -3.961  69.622  1.00  0.00     0.106 C 
HETATM    8  C3  UNL     1      67.896  -3.122  68.759  1.00  0.00    -0.006 C 
HETATM    9  C2  UNL     1      67.463  -2.712  67.596  1.00  0.00    -0.086 C 
HETATM   10  C1  UNL     1      68.331  -1.880  66.739  1.00  0.00     0.043 C 
HETATM   11  C21 UNL     1      66.078  -3.134  67.204  1.00  0.00     0.035 C 
HETATM   12  C20 UNL     1      66.035  -4.628  67.393  1.00  0.00     0.026 C 
HETATM   13  C19 UNL     1      66.373  -5.044  68.787  1.00  0.00     0.102 C 
HETATM   14 CL1  UNL     1      67.452  -6.479  68.695  1.00  0.00    -0.123 Cl
ENDBRANCH   6   7
ENDBRANCH   1   5
BRANCH   4  15
HETATM   15  C10 UNL     1      69.889  -8.164  73.434  1.00  0.00     0.039 A 
HETATM   16  C11 UNL     1      71.207  -8.479  73.191  1.00  0.00     0.047 A 
HETATM   17  C12 UNL     1      71.889  -9.281  74.066  1.00  0.00     0.099 A 
HETATM   18  N2  UNL     1      71.210  -9.740  75.164  1.00  0.00    -0.300 N 
HETATM   19  C18 UNL     1      69.945  -9.425  75.378  1.00  0.00     0.327 A 
HETATM   20  O3  UNL     1      69.375  -9.892  76.427  1.00  0.00    -0.246 OA
HETATM   21  N3  UNL     1      69.289  -8.647  74.526  1.00  0.00    -0.308 N 
ATOM     22  H3  UNL     1      68.312  -8.416  74.706  1.00  0.00     0.170 HD
BRANCH  18  23
HETATM   23  C13 UNL     1      71.987 -10.577  76.047  1.00  0.00     0.207 C 
BRANCH  23  24
HETATM   24  S1  UNL     1      72.659 -11.987  75.220  1.00  0.00    -0.134 SA
BRANCH  24  25
HETATM   25  C14 UNL     1      71.438 -13.266  74.925  1.00  0.00     0.150 C 
HETATM   26  C15 UNL     1      72.206 -14.435  74.273  1.00  0.00     0.052 C 
HETATM   27  C16 UNL     1      72.628 -13.721  72.976  1.00  0.00     0.180 C 
HETATM   28  O1  UNL     1      71.388 -13.104  72.608  1.00  0.00    -0.321 OA
HETATM   29  C17 UNL     1      70.608 -12.879  73.734  1.00  0.00     0.272 C 
HETATM   30  O2  UNL     1      69.450 -12.444  73.753  1.00  0.00    -0.264 OA
ENDBRANCH  24  25
ENDBRANCH  23  24
ENDBRANCH  18  23
ENDBRANCH   4  15
TORSDOF 6
ENDMDL
MODEL 3
REMARK VINA RESULT: -7.980582366      0.875      1.211
REMARK  6 active torsions:
REMARK  status: ('A' for Active; 'I' for Inactive)
REMARK    1  A    between atoms: C4_4  and  C5_5 
REMARK    2  A    between atoms: C6_6  and  C7_7 
REMARK    3  A    between atoms: C9_10  and  C10_11 
REMARK    4  A    between atoms: N2_14  and  C13_15 
REMARK    5  A    between atoms: C13_15  and  S1_16 
REMARK    6  A    between atoms: S1_16  and  C14_17 
ROOT
HETATM    1  C7  UNL     1      69.100  -6.345  71.929  1.00  0.00     0.100 C 
HETATM    2  C8  UNL     1      69.640  -5.816  73.135  1.00  0.00     0.108 C 
HETATM    3  N1  UNL     1      70.076  -5.349  74.135  1.00  0.00    -0.191 NA
HETATM    4  C9  UNL     1      69.253  -7.597  71.601  1.00  0.00     0.061 C 
ENDROOT
BRANCH   1   5
HETATM    5  C6  UNL     1      68.357  -5.439  71.060  1.00  0.00    -0.055 C 
HETATM    6  C5  UNL     1      67.746  -4.712  70.324  1.00  0.00    -0.090 C 
BRANCH   6   7
HETATM    7  C4  UNL     1      66.983  -3.835  69.393  1.00  0.00     0.106 C 
HETATM    8  C3  UNL     1      67.920  -3.078  68.522  1.00  0.00    -0.006 C 
HETATM    9  C2  UNL     1      67.492  -2.552  67.405  1.00  0.00    -0.086 C 
HETATM   10  C1  UNL     1      68.424  -1.800  66.540  1.00  0.00     0.043 C 
HETATM   11  C21 UNL     1      66.045  -2.761  67.071  1.00  0.00     0.035 C 
HETATM   12  C20 UNL     1      65.806  -4.244  67.193  1.00  0.00     0.026 C 
HETATM   13  C19 UNL     1      66.151  -4.775  68.546  1.00  0.00     0.102 C 
HETATM   14 CL1  UNL     1      67.016  -6.336  68.330  1.00  0.00    -0.123 Cl
ENDBRANCH   6   7
ENDBRANCH   1   5
BRANCH   4  15
HETATM   15  C10 UNL     1      69.963  -8.591  72.369  1.00  0.00     0.039 A 
HETATM   16  C11 UNL     1      71.198  -9.010  71.929  1.00  0.00     0.047 A 
HETATM   17  C12 UNL     1      71.891  -9.952  72.639  1.00  0.00     0.099 A 
HETATM   18  N2  UNL     1      71.308 -10.440  73.779  1.00  0.00    -0.300 N 
HETATM   19  C18 UNL     1      70.122 -10.023  74.184  1.00  0.00     0.327 A 
HETATM   20  O3  UNL     1      69.639 -10.526  75.259  1.00  0.00    -0.246 OA
HETATM   21  N3  UNL     1      69.454  -9.110  73.489  1.00  0.00    -0.308 N 
ATOM     22  H3  UNL     1      68.538  -8.801  73.816  1.00  0.00     0.170 HD
BRANCH  18  23
HETATM   23  C13 UNL     1      72.092 -11.427  74.482  1.00  0.00     0.207 C 
BRANCH  23  24
HETATM   24  S1  UNL     1      72.033 -13.014  73.705  1.00  0.00    -0.134 SA
BRANCH  24  25
HETATM   25  C14 UNL     1      70.390 -13.733  73.720  1.00  0.00     0.150 C 
HETATM   26  C15 UNL     1      70.083 -14.044  75.200  1.00  0.00     0.052 C 
HETATM   27  C16 UNL     1      71.182 -15.096  75.433  1.00  0.00     0.180 C 
HETATM   28  O1  UNL     1      71.019 -15.903  74.261  1.00  0.00    -0.321 OA
HETATM   29  C17 UNL     1      70.477 -15.150  73.228  1.00  0.00     0.272 C 
HETATM   30  O2  UNL     1      70.130 -15.566  72.116  1.00  0.00    -0.264 OA
ENDBRANCH  24  25
ENDBRANCH  23  24
ENDBRANCH  18  23
ENDBRANCH   4  15
TORSDOF 6
ENDMDL
MODEL 4
REMARK VINA RESULT: -7.755390163      1.475      1.702
REMARK  6 active torsions:
REMARK  status: ('A' for Active; 'I' for Inactive)
REMARK    1  A    between atoms: C4_4  and  C5_5 
REMARK    2  A    between atoms: C6_6  and  C7_7 
REMARK    3  A    between atoms: C9_10  and  C10_11 
REMARK    4  A    between atoms: N2_14  and  C13_15 
REMARK    5  A    between atoms: C13_15  and  S1_16 
REMARK    6  A    between atoms: S1_16  and  C14_17 
ROOT
HETATM    1  C7  UNL     1      69.147  -6.237  72.132  1.00  0.00     0.100 C 
HETATM    2  C8  UNL     1      69.745  -5.630  73.271  1.00  0.00     0.108 C 
HETATM    3  N1  UNL     1      70.231  -5.096  74.213  1.00  0.00    -0.191 NA
HETATM    4  C9  UNL     1      69.255  -7.515  71.900  1.00  0.00     0.061 C 
ENDROOT
BRANCH   1   5
HETATM    5  C6  UNL     1      68.395  -5.383  71.220  1.00  0.00    -0.055 C 
HETATM    6  C5  UNL     1      67.768  -4.701  70.453  1.00  0.00    -0.090 C 
BRANCH   6   7
HETATM    7  C4  UNL     1      66.979  -3.882  69.492  1.00  0.00     0.106 C 
HETATM    8  C3  UNL     1      67.891  -3.095  68.621  1.00  0.00    -0.006 C 
HETATM    9  C2  UNL     1      67.457  -2.614  67.487  1.00  0.00    -0.086 C 
HETATM   10  C1  UNL     1      68.364  -1.832  66.623  1.00  0.00     0.043 C 
HETATM   11  C21 UNL     1      66.029  -2.903  67.134  1.00  0.00     0.035 C 
HETATM   12  C20 UNL     1      65.862  -4.393  67.282  1.00  0.00     0.026 C 
HETATM   13  C19 UNL     1      66.210  -4.880  68.651  1.00  0.00     0.102 C 
HETATM   14 CL1  UNL     1      67.157  -6.398  68.480  1.00  0.00    -0.123 Cl
ENDBRANCH   6   7
ENDBRANCH   1   5
BRANCH   4  15
HETATM   15  C10 UNL     1      69.968  -8.464  72.721  1.00  0.00     0.039 A 
HETATM   16  C11 UNL     1      71.194  -8.920  72.292  1.00  0.00     0.047 A 
HETATM   17  C12 UNL     1      71.890  -9.821  73.051  1.00  0.00     0.099 A 
HETATM   18  N2  UNL     1      71.318 -10.232  74.227  1.00  0.00    -0.300 N 
HETATM   19  C18 UNL     1      70.141  -9.781  74.620  1.00  0.00     0.327 A 
HETATM   20  O3  UNL     1      69.668 -10.212  75.730  1.00  0.00    -0.246 OA
HETATM   21  N3  UNL     1      69.470  -8.908  73.878  1.00  0.00    -0.308 N 
ATOM     22  H3  UNL     1      68.561  -8.572  74.196  1.00  0.00     0.170 HD
BRANCH  18  23
HETATM   23  C13 UNL     1      72.105 -11.180  74.981  1.00  0.00     0.207 C 
BRANCH  23  24
HETATM   24  S1  UNL     1      71.825 -12.848  74.467  1.00  0.00    -0.134 SA
BRANCH  24  25
HETATM   25  C14 UNL     1      73.103 -13.459  73.368  1.00  0.00     0.150 C 
HETATM   26  C15 UNL     1      72.523 -14.732  72.718  1.00  0.00     0.052 C 
HETATM   27  C16 UNL     1      72.391 -15.585  73.992  1.00  0.00     0.180 C 
HETATM   28  O1  UNL     1      73.671 -15.350  74.592  1.00  0.00    -0.321 OA
HETATM   29  C17 UNL     1      74.174 -14.119  74.189  1.00  0.00     0.272 C 
HETATM   30  O2  UNL     1      75.290 -13.657  74.455  1.00  0.00    -0.264 OA
ENDBRANCH  24  25
ENDBRANCH  23  24
ENDBRANCH  18  23
ENDBRANCH   4  15
TORSDOF 6
ENDMDL
MODEL 5
REMARK VINA RESULT: -7.750667372      1.718      2.066
REMARK  6 active torsions:
REMARK  status: ('A' for Active; 'I' for Inactive)
REMARK    1  A    between atoms: C4_4  and  C5_5 
REMARK    2  A    between atoms: C6_6  and  C7_7 
REMARK    3  A    between atoms: C9_10  and  C10_11 
REMARK    4  A    between atoms: N2_14  and  C13_15 
REMARK    5  A    between atoms: C13_15  and  S1_16 
REMARK    6  A    between atoms: S1_16  and  C14_17 
ROOT
HETATM    1  C7  UNL     1      68.963  -6.674  71.667  1.00  0.00     0.100 C 
HETATM    2  C8  UNL     1      69.572  -7.750  70.962  1.00  0.00     0.108 C 
HETATM    3  N1  UNL     1      70.072  -8.633  70.347  1.00  0.00    -0.191 NA
HETATM    4  C9  UNL     1      69.016  -6.589  72.966  1.00  0.00     0.061 C 
ENDROOT
BRANCH   1   5
HETATM    5  C6  UNL     1      68.274  -5.652  70.887  1.00  0.00    -0.055 C 
HETATM    6  C5  UNL     1      67.717  -4.819  70.222  1.00  0.00    -0.090 C 
BRANCH   6   7
HETATM    7  C4  UNL     1      67.034  -3.805  69.372  1.00  0.00     0.106 C 
HETATM    8  C3  UNL     1      68.025  -3.117  68.503  1.00  0.00    -0.006 C 
HETATM    9  C2  UNL     1      67.624  -2.480  67.435  1.00  0.00    -0.086 C 
HETATM   10  C1  UNL     1      68.608  -1.796  66.572  1.00  0.00     0.043 C 
HETATM   11  C21 UNL     1      66.151  -2.495  67.153  1.00  0.00     0.035 C 
HETATM   12  C20 UNL     1      65.737  -3.942  67.206  1.00  0.00     0.026 C 
HETATM   13  C19 UNL     1      66.064  -4.588  68.513  1.00  0.00     0.102 C 
HETATM   14 CL1  UNL     1      66.724  -6.226  68.177  1.00  0.00    -0.123 Cl
ENDBRANCH   6   7
ENDBRANCH   1   5
BRANCH   4  15
HETATM   15  C10 UNL     1      69.663  -7.530  73.848  1.00  0.00     0.039 A 
HETATM   16  C11 UNL     1      71.037  -7.509  73.945  1.00  0.00     0.047 A 
HETATM   17  C12 UNL     1      71.675  -8.392  74.774  1.00  0.00     0.099 A 
HETATM   18  N2  UNL     1      70.897  -9.270  75.481  1.00  0.00    -0.300 N 
HETATM   19  C18 UNL     1      69.581  -9.272  75.374  1.00  0.00     0.327 A 
HETATM   20  O3  UNL     1      68.919 -10.124  76.066  1.00  0.00    -0.246 OA
HETATM   21  N3  UNL     1      68.967  -8.414  74.567  1.00  0.00    -0.308 N 
ATOM     22  H3  UNL     1      67.950  -8.431  74.496  1.00  0.00     0.170 HD
BRANCH  18  23
HETATM   23  C13 UNL     1      71.631 -10.171  76.338  1.00  0.00     0.207 C 
BRANCH  23  24
HETATM   24  S1  UNL     1      72.566 -11.359  75.423  1.00  0.00    -0.134 SA
BRANCH  24  25
HETATM   25  C14 UNL     1      71.626 -12.839  75.044  1.00  0.00     0.150 C 
HETATM   26  C15 UNL     1      72.633 -13.826  74.419  1.00  0.00     0.052 C 
HETATM   27  C16 UNL     1      72.977 -13.015  73.157  1.00  0.00     0.180 C 
HETATM   28  O1  UNL     1      71.663 -12.633  72.730  1.00  0.00    -0.321 OA
HETATM   29  C17 UNL     1      70.798 -12.586  73.816  1.00  0.00     0.272 C 
HETATM   30  O2  UNL     1      69.580 -12.378  73.779  1.00  0.00    -0.264 OA
ENDBRANCH  24  25
ENDBRANCH  23  24
ENDBRANCH  18  23
ENDBRANCH   4  15
TORSDOF 6
ENDMDL
