MODEL 1
REMARK VINA RESULT: -8.412638306      0.000      0.000
REMARK  5 active torsions:
REMARK  status: ('A' for Active; 'I' for Inactive)
REMARK    1  A    between atoms: C6_6  and  O1_7 
REMARK    2  A    between atoms: O1_7  and  C7_8 
REMARK    3  A    between atoms: N1_18  and  C16_19 
REMARK    4  A    between atoms: C16_19  and  C17_20 
REMARK    5  A    between atoms: C17_20  and  C18_21 
ROOT
HETATM    1  C7  UNL     1      67.168  -5.617  70.519  1.00  0.00     0.139 C 
HETATM    2  C8  UNL     1      68.099  -5.838  71.716  1.00  0.00     0.104 C 
HETATM    3  C9  UNL     1      69.249  -5.730  70.757  1.00  0.00     0.202 C 
HETATM    4  C10 UNL     1      68.288  -6.266  69.675  1.00  0.00     0.104 C 
HETATM    5  O2  UNL     1      70.276  -6.593  70.875  1.00  0.00    -0.352 OA
HETATM    6  C11 UNL     1      71.317  -6.351  71.681  1.00  0.00     0.177 C 
HETATM    7  C12 UNL     1      71.326  -5.149  72.545  1.00  0.00     0.101 C 
HETATM    8  C13 UNL     1      71.009  -3.863  71.886  1.00  0.00     0.238 C 
HETATM    9  C14 UNL     1      71.788  -3.605  70.625  1.00  0.00     0.121 C 
HETATM   10  C15 UNL     1      73.205  -3.240  70.927  1.00  0.00     0.098 C 
HETATM   11  N1  UNL     1      73.454  -2.752  72.226  1.00  0.00    -0.242 N 
HETATM   12  O3  UNL     1      72.516  -2.914  73.137  1.00  0.00    -0.108 OA
HETATM   13  O4  UNL     1      71.286  -2.816  72.756  1.00  0.00    -0.173 OA
HETATM   14  O5  UNL     1      69.643  -3.748  71.554  1.00  0.00    -0.194 OA
HETATM   15  O6  UNL     1      69.537  -4.429  70.431  1.00  0.00    -0.197 OA
ENDROOT
BRANCH  11  16
HETATM   16  C16 UNL     1      74.134  -1.473  72.270  1.00  0.00     0.158 C 
BRANCH  16  17
HETATM   17  C17 UNL     1      74.862  -1.312  70.975  1.00  0.00     0.029 C 
BRANCH  17  18
HETATM   18  C18 UNL     1      74.911   0.070  70.424  1.00  0.00     0.021 C 
HETATM   19  C19 UNL     1      73.475   0.612  70.544  1.00  0.00     0.007 C 
HETATM   20  C20 UNL     1      72.771   0.164  69.285  1.00  0.00     0.003 C 
HETATM   21  C21 UNL     1      73.830  -0.440  68.375  1.00  0.00     0.037 C 
HETATM   22  C22 UNL     1      75.088   0.163  68.935  1.00  0.00     0.174 C 
HETATM   23  F1  UNL     1      76.243  -0.353  68.449  1.00  0.00    -0.249 F 
ENDBRANCH  17  18
ENDBRANCH  16  17
ENDBRANCH  11  16
BRANCH   1  24
HETATM   24  O1  UNL     1      67.050  -4.293  70.119  1.00  0.00    -0.345 OA
BRANCH  24  25
HETATM   25  C6  UNL     1      66.824  -3.912  68.819  1.00  0.00     0.069 A 
HETATM   26  C5  UNL     1      65.902  -4.608  68.023  1.00  0.00     0.037 A 
HETATM   27  C4  UNL     1      65.636  -4.272  66.722  1.00  0.00     0.003 A 
HETATM   28  C3  UNL     1      66.274  -3.220  66.134  1.00  0.00     0.007 A 
HETATM   29  C2  UNL     1      67.184  -2.508  66.873  1.00  0.00    -0.059 A 
HETATM   30  C1  UNL     1      67.875  -1.362  66.236  1.00  0.00     0.048 C 
HETATM   31  C23 UNL     1      67.451  -2.857  68.204  1.00  0.00     0.043 A 
ENDBRANCH  24  25
ENDBRANCH   1  24
TORSDOF 5
ENDMDL
MODEL 2
REMARK VINA RESULT: -8.106629561      2.271      3.255
REMARK  5 active torsions:
REMARK  status: ('A' for Active; 'I' for Inactive)
REMARK    1  A    between atoms: C6_6  and  O1_7 
REMARK    2  A    between atoms: O1_7  and  C7_8 
REMARK    3  A    between atoms: N1_18  and  C16_19 
REMARK    4  A    between atoms: C16_19  and  C17_20 
REMARK    5  A    between atoms: C17_20  and  C18_21 
ROOT
HETATM    1  C7  UNL     1      69.360  -4.150  71.685  1.00  0.00     0.139 C 
HETATM    2  C8  UNL     1      70.277  -3.306  72.577  1.00  0.00     0.104 C 
HETATM    3  C9  UNL     1      71.436  -3.883  71.818  1.00  0.00     0.202 C 
HETATM    4  C10 UNL     1      70.553  -5.126  71.579  1.00  0.00     0.104 C 
HETATM    5  O2  UNL     1      72.532  -4.268  72.500  1.00  0.00    -0.352 OA
HETATM    6  C11 UNL     1      73.527  -3.419  72.780  1.00  0.00     0.177 C 
HETATM    7  C12 UNL     1      73.409  -1.988  72.419  1.00  0.00     0.101 C 
HETATM    8  C13 UNL     1      72.997  -1.693  71.029  1.00  0.00     0.238 C 
HETATM    9  C14 UNL     1      73.781  -2.434  69.980  1.00  0.00     0.121 C 
HETATM   10  C15 UNL     1      75.153  -1.862  69.823  1.00  0.00     0.098 C 
HETATM   11  N1  UNL     1      75.326  -0.538  70.274  1.00  0.00    -0.242 N 
HETATM   12  O3  UNL     1      74.384  -0.015  71.033  1.00  0.00    -0.108 OA
HETATM   13  O4  UNL     1      73.160  -0.337  70.776  1.00  0.00    -0.173 OA
HETATM   14  O5  UNL     1      71.635  -1.976  70.797  1.00  0.00    -0.194 OA
HETATM   15  O6  UNL     1      71.617  -3.278  70.600  1.00  0.00    -0.197 OA
ENDROOT
BRANCH  11  16
HETATM   16  C16 UNL     1      75.890   0.365  69.291  1.00  0.00     0.158 C 
BRANCH  16  17
HETATM   17  C17 UNL     1      75.973   1.716  69.924  1.00  0.00     0.029 C 
BRANCH  17  18
HETATM   18  C18 UNL     1      75.456   2.849  69.109  1.00  0.00     0.021 C 
HETATM   19  C19 UNL     1      76.070   4.117  69.732  1.00  0.00     0.007 C 
HETATM   20  C20 UNL     1      75.124   4.516  70.840  1.00  0.00     0.003 C 
HETATM   21  C21 UNL     1      73.898   3.625  70.720  1.00  0.00     0.037 C 
HETATM   22  C22 UNL     1      73.999   3.163  69.293  1.00  0.00     0.174 C 
HETATM   23  F1  UNL     1      73.139   2.177  68.941  1.00  0.00    -0.249 F 
ENDBRANCH  17  18
ENDBRANCH  16  17
ENDBRANCH  11  16
BRANCH   1  24
HETATM   24  O1  UNL     1      69.136  -3.617  70.423  1.00  0.00    -0.345 OA
BRANCH  24  25
HETATM   25  C6  UNL     1      68.134  -4.045  69.587  1.00  0.00     0.069 A 
HETATM   26  C5  UNL     1      67.594  -5.333  69.722  1.00  0.00     0.037 A 
HETATM   27  C4  UNL     1      66.594  -5.812  68.918  1.00  0.00     0.003 A 
HETATM   28  C3  UNL     1      66.070  -5.034  67.928  1.00  0.00     0.007 A 
HETATM   29  C2  UNL     1      66.565  -3.767  67.757  1.00  0.00    -0.059 A 
HETATM   30  C1  UNL     1      65.993  -2.920  66.684  1.00  0.00     0.048 C 
HETATM   31  C23 UNL     1      67.588  -3.283  68.583  1.00  0.00     0.043 A 
ENDBRANCH  24  25
ENDBRANCH   1  24
TORSDOF 5
ENDMDL
MODEL 3
REMARK VINA RESULT: -8.076758520      5.369      8.446
REMARK  5 active torsions:
REMARK  status: ('A' for Active; 'I' for Inactive)
REMARK    1  A    between atoms: C6_6  and  O1_7 
REMARK    2  A    between atoms: O1_7  and  C7_8 
REMARK    3  A    between atoms: N1_18  and  C16_19 
REMARK    4  A    between atoms: C16_19  and  C17_20 
REMARK    5  A    between atoms: C17_20  and  C18_21 
ROOT
HETATM    1  C7  UNL     1      69.861  -3.732  70.869  1.00  0.00     0.139 C 
HETATM    2  C8  UNL     1      70.793  -4.948  70.872  1.00  0.00     0.104 C 
HETATM    3  C9  UNL     1      70.591  -5.017  72.358  1.00  0.00     0.202 C 
HETATM    4  C10 UNL     1      70.358  -3.492  72.312  1.00  0.00     0.104 C 
HETATM    5  O2  UNL     1      71.654  -5.259  73.148  1.00  0.00    -0.352 OA
HETATM    6  C11 UNL     1      72.047  -6.503  73.447  1.00  0.00     0.177 C 
HETATM    7  C12 UNL     1      71.365  -7.666  72.837  1.00  0.00     0.101 C 
HETATM    8  C13 UNL     1      69.887  -7.674  72.909  1.00  0.00     0.238 C 
HETATM    9  C14 UNL     1      69.332  -7.404  74.281  1.00  0.00     0.121 C 
HETATM   10  C15 UNL     1      69.503  -8.587  75.178  1.00  0.00     0.098 C 
HETATM   11  N1  UNL     1      69.687  -9.828  74.536  1.00  0.00    -0.242 N 
HETATM   12  O3  UNL     1      69.970  -9.822  73.249  1.00  0.00    -0.108 OA
HETATM   13  O4  UNL     1      69.411  -8.918  72.515  1.00  0.00    -0.173 OA
HETATM   14  O5  UNL     1      69.298  -6.734  72.037  1.00  0.00    -0.194 OA
HETATM   15  O6  UNL     1      69.394  -5.597  72.696  1.00  0.00    -0.197 OA
ENDROOT
BRANCH  11  16
HETATM   16  C16 UNL     1      68.765 -10.865  74.953  1.00  0.00     0.158 C 
BRANCH  16  17
HETATM   17  C17 UNL     1      68.949 -12.023  74.028  1.00  0.00     0.029 C 
BRANCH  17  18
HETATM   18  C18 UNL     1      68.341 -13.310  74.465  1.00  0.00     0.021 C 
HETATM   19  C19 UNL     1      69.341 -13.918  75.466  1.00  0.00     0.007 C 
HETATM   20  C20 UNL     1      70.323 -14.699  74.625  1.00  0.00     0.003 C 
HETATM   21  C21 UNL     1      69.782 -14.709  73.204  1.00  0.00     0.037 C 
HETATM   22  C22 UNL     1      68.329 -14.400  73.433  1.00  0.00     0.174 C 
HETATM   23  F1  UNL     1      67.609 -14.139  72.315  1.00  0.00    -0.249 F 
ENDBRANCH  17  18
ENDBRANCH  16  17
ENDBRANCH  11  16
BRANCH   1  24
HETATM   24  O1  UNL     1      68.509  -4.043  70.934  1.00  0.00    -0.345 OA
BRANCH  24  25
HETATM   25  C6  UNL     1      67.729  -4.263  69.826  1.00  0.00     0.069 A 
HETATM   26  C5  UNL     1      67.107  -5.505  69.627  1.00  0.00     0.037 A 
HETATM   27  C4  UNL     1      66.318  -5.781  68.542  1.00  0.00     0.003 A 
HETATM   28  C3  UNL     1      66.099  -4.832  67.586  1.00  0.00     0.007 A 
HETATM   29  C2  UNL     1      66.686  -3.601  67.737  1.00  0.00    -0.059 A 
HETATM   30  C1  UNL     1      66.446  -2.568  66.701  1.00  0.00     0.048 C 
HETATM   31  C23 UNL     1      67.492  -3.326  68.850  1.00  0.00     0.043 A 
ENDBRANCH  24  25
ENDBRANCH   1  24
TORSDOF 5
ENDMDL
MODEL 4
REMARK VINA RESULT: -8.023824258      3.767      5.206
REMARK  5 active torsions:
REMARK  status: ('A' for Active; 'I' for Inactive)
REMARK    1  A    between atoms: C6_6  and  O1_7 
REMARK    2  A    between atoms: O1_7  and  C7_8 
REMARK    3  A    between atoms: N1_18  and  C16_19 
REMARK    4  A    between atoms: C16_19  and  C17_20 
REMARK    5  A    between atoms: C17_20  and  C18_21 
ROOT
HETATM    1  C7  UNL     1      68.016  -6.694  69.556  1.00  0.00     0.139 C 
HETATM    2  C8  UNL     1      68.273  -7.381  70.901  1.00  0.00     0.104 C 
HETATM    3  C9  UNL     1      69.692  -6.900  70.801  1.00  0.00     0.202 C 
HETATM    4  C10 UNL     1      69.513  -6.952  69.269  1.00  0.00     0.104 C 
HETATM    5  O2  UNL     1      70.688  -7.742  71.138  1.00  0.00    -0.352 OA
HETATM    6  C11 UNL     1      71.131  -7.847  72.396  1.00  0.00     0.177 C 
HETATM    7  C12 UNL     1      70.468  -7.095  73.485  1.00  0.00     0.101 C 
HETATM    8  C13 UNL     1      70.249  -5.651  73.247  1.00  0.00     0.238 C 
HETATM    9  C14 UNL     1      71.468  -4.910  72.767  1.00  0.00     0.121 C 
HETATM   10  C15 UNL     1      72.448  -4.703  73.875  1.00  0.00     0.098 C 
HETATM   11  N1  UNL     1      71.928  -4.779  75.183  1.00  0.00    -0.242 N 
HETATM   12  O3  UNL     1      70.724  -5.290  75.340  1.00  0.00    -0.108 OA
HETATM   13  O4  UNL     1      69.843  -5.043  74.428  1.00  0.00    -0.173 OA
HETATM   14  O5  UNL     1      69.225  -5.407  72.307  1.00  0.00    -0.194 OA
HETATM   15  O6  UNL     1      69.822  -5.579  71.146  1.00  0.00    -0.197 OA
ENDROOT
BRANCH  11  16
HETATM   16  C16 UNL     1      72.217  -3.628  76.015  1.00  0.00     0.158 C 
BRANCH  16  17
HETATM   17  C17 UNL     1      71.661  -3.910  77.372  1.00  0.00     0.029 C 
BRANCH  17  18
HETATM   18  C18 UNL     1      70.845  -2.823  77.980  1.00  0.00     0.021 C 
HETATM   19  C19 UNL     1      70.554  -3.284  79.420  1.00  0.00     0.007 C 
HETATM   20  C20 UNL     1      69.306  -4.130  79.325  1.00  0.00     0.003 C 
HETATM   21  C21 UNL     1      68.781  -3.988  77.905  1.00  0.00     0.037 C 
HETATM   22  C22 UNL     1      69.439  -2.709  77.467  1.00  0.00     0.174 C 
HETATM   23  F1  UNL     1      69.319  -2.418  76.149  1.00  0.00    -0.249 F 
ENDBRANCH  17  18
ENDBRANCH  16  17
ENDBRANCH  11  16
BRANCH   1  24
HETATM   24  O1  UNL     1      67.833  -5.320  69.636  1.00  0.00    -0.345 OA
BRANCH  24  25
HETATM   25  C6  UNL     1      67.261  -4.572  68.637  1.00  0.00     0.069 A 
HETATM   26  C5  UNL     1      66.086  -5.007  68.006  1.00  0.00     0.037 A 
HETATM   27  C4  UNL     1      65.471  -4.302  67.005  1.00  0.00     0.003 A 
HETATM   28  C3  UNL     1      65.992  -3.118  66.572  1.00  0.00     0.007 A 
HETATM   29  C2  UNL     1      67.140  -2.651  67.159  1.00  0.00    -0.059 A 
HETATM   30  C1  UNL     1      67.704  -1.363  66.691  1.00  0.00     0.048 C 
HETATM   31  C23 UNL     1      67.763  -3.378  68.183  1.00  0.00     0.043 A 
ENDBRANCH  24  25
ENDBRANCH   1  24
TORSDOF 5
ENDMDL
MODEL 5
REMARK VINA RESULT: -7.994820896      0.943      1.193
REMARK  5 active torsions:
REMARK  status: ('A' for Active; 'I' for Inactive)
REMARK    1  A    between atoms: C6_6  and  O1_7 
REMARK    2  A    between atoms: O1_7  and  C7_8 
REMARK    3  A    between atoms: N1_18  and  C16_19 
REMARK    4  A    between atoms: C16_19  and  C17_20 
REMARK    5  A    between atoms: C17_20  and  C18_21 
ROOT
HETATM    1  C7  UNL     1      66.992  -5.625  70.420  1.00  0.00     0.139 C 
HETATM    2  C8  UNL     1      67.963  -5.848  71.584  1.00  0.00     0.104 C 
HETATM    3  C9  UNL     1      69.081  -5.736  70.588  1.00  0.00     0.202 C 
HETATM    4  C10 UNL     1      68.085  -6.269  69.537  1.00  0.00     0.104 C 
HETATM    5  O2  UNL     1      70.112  -6.598  70.668  1.00  0.00    -0.352 OA
HETATM    6  C11 UNL     1      71.179  -6.357  71.439  1.00  0.00     0.177 C 
HETATM    7  C12 UNL     1      71.215  -5.158  72.307  1.00  0.00     0.101 C 
HETATM    8  C13 UNL     1      70.875  -3.870  71.663  1.00  0.00     0.238 C 
HETATM    9  C14 UNL     1      71.611  -3.607  70.377  1.00  0.00     0.121 C 
HETATM   10  C15 UNL     1      73.037  -3.241  70.633  1.00  0.00     0.098 C 
HETATM   11  N1  UNL     1      73.329  -2.757  71.924  1.00  0.00    -0.242 N 
HETATM   12  O3  UNL     1      72.422  -2.923  72.866  1.00  0.00    -0.108 OA
HETATM   13  O4  UNL     1      71.180  -2.826  72.526  1.00  0.00    -0.173 OA
HETATM   14  O5  UNL     1      69.498  -3.755  71.377  1.00  0.00    -0.194 OA
HETATM   15  O6  UNL     1      69.356  -4.434  70.257  1.00  0.00    -0.197 OA
ENDROOT
BRANCH  11  16
HETATM   16  C16 UNL     1      74.009  -1.478  71.949  1.00  0.00     0.158 C 
BRANCH  16  17
HETATM   17  C17 UNL     1      74.261  -1.081  70.532  1.00  0.00     0.029 C 
BRANCH  17  18
HETATM   18  C18 UNL     1      75.689  -0.899  70.151  1.00  0.00     0.021 C 
HETATM   19  C19 UNL     1      75.686   0.171  69.044  1.00  0.00     0.007 C 
HETATM   20  C20 UNL     1      75.466  -0.587  67.756  1.00  0.00     0.003 C 
HETATM   21  C21 UNL     1      75.548  -2.067  68.092  1.00  0.00     0.037 C 
HETATM   22  C22 UNL     1      76.303  -2.040  69.392  1.00  0.00     0.174 C 
HETATM   23  F1  UNL     1      76.359  -3.221  70.054  1.00  0.00    -0.249 F 
ENDBRANCH  17  18
ENDBRANCH  16  17
ENDBRANCH  11  16
BRANCH   1  24
HETATM   24  O1  UNL     1      66.860  -4.300  70.028  1.00  0.00    -0.345 OA
BRANCH  24  25
HETATM   25  C6  UNL     1      66.715  -3.907  68.720  1.00  0.00     0.069 A 
HETATM   26  C5  UNL     1      65.848  -4.599  67.860  1.00  0.00     0.037 A 
HETATM   27  C4  UNL     1      65.664  -4.253  66.548  1.00  0.00     0.003 A 
HETATM   28  C3  UNL     1      66.334  -3.193  66.012  1.00  0.00     0.007 A 
HETATM   29  C2  UNL     1      67.192  -2.484  66.813  1.00  0.00    -0.059 A 
HETATM   30  C1  UNL     1      67.917  -1.330  66.232  1.00  0.00     0.048 C 
HETATM   31  C23 UNL     1      67.376  -2.844  68.155  1.00  0.00     0.043 A 
ENDBRANCH  24  25
ENDBRANCH   1  24
TORSDOF 5
ENDMDL
