MODEL 1
REMARK VINA RESULT: -7.303780839      0.000      0.000
REMARK  3 active torsions:
REMARK  status: ('A' for Active; 'I' for Inactive)
REMARK    1  A    between atoms: C3_4  and  C4_5 
REMARK       I    between atoms: C4_5  and  N2_7 
REMARK    2  A    between atoms: N2_7  and  C5_9 
REMARK    3  A    between atoms: N3_10  and  N4_12 
REMARK       I    between atoms: N4_12  and  C6_14 
REMARK       I    between atoms: N7_21  and  C9_22 
ROOT
HETATM    1  C1  UNL     1      63.488 -30.038 -30.521  1.00  0.00     0.224 C 
HETATM    2  N1  UNL     1      64.087 -29.088 -30.871  1.00  0.00    -0.445 NA
HETATM    3  C2  UNL     1      64.818 -27.964 -31.259  1.00  0.00     0.277 C 
HETATM    4  C3  UNL     1      65.231 -27.954 -32.713  1.00  0.00     0.135 C 
HETATM    5  C7  UNL     1      65.274 -26.422 -32.998  1.00  0.00     0.039 C 
HETATM    6  C8  UNL     1      63.968 -26.057 -32.306  1.00  0.00     0.130 C 
HETATM    7  N7  UNL     1      64.080 -26.748 -31.057  1.00  0.00    -0.319 N 
HETATM    8  C9  UNL     1      63.547 -26.297 -29.826  1.00  0.00     0.218 C 
HETATM    9  C10 UNL     1      63.719 -27.084 -28.599  1.00  0.00     0.117 C 
HETATM   10  O2  UNL     1      62.902 -25.203 -29.728  1.00  0.00    -0.274 OA
ENDROOT
BRANCH   4  11
HETATM   11  C4  UNL     1      64.233 -28.518 -33.636  1.00  0.00     0.231 C 
HETATM   12  O1  UNL     1      63.446 -27.828 -34.310  1.00  0.00    -0.273 OA
HETATM   13  N2  UNL     1      64.164 -29.928 -33.768  1.00  0.00    -0.322 N 
ATOM     14  H2  UNL     1      64.798 -30.516 -33.227  1.00  0.00     0.169 HD
BRANCH  13  15
HETATM   15  C5  UNL     1      63.216 -30.541 -34.651  1.00  0.00     0.200 C 
HETATM   16  N3  UNL     1      61.974 -30.652 -34.332  1.00  0.00    -0.294 N 
ATOM     17  H3  UNL     1      61.660 -30.295 -33.429  1.00  0.00     0.187 HD
BRANCH  16  18
HETATM   18  N4  UNL     1      61.053 -31.243 -35.180  1.00  0.00    -0.273 N 
HETATM   19  C6  UNL     1      59.860 -31.824 -34.683  1.00  0.00     0.200 C 
HETATM   20  N5  UNL     1      58.722 -31.232 -34.859  1.00  0.00    -0.372 N 
HETATM   21  N6  UNL     1      59.888 -33.054 -33.989  1.00  0.00    -0.062 NA
ATOM     22  H52 UNL     1      58.702 -30.345 -35.362  1.00  0.00     0.158 HD
ATOM     23  H51 UNL     1      57.864 -31.651 -34.502  1.00  0.00     0.158 HD
ATOM     24  H4  UNL     1      61.236 -31.260 -36.184  1.00  0.00     0.189 HD
ENDBRANCH  16  18
ENDBRANCH  13  15
ENDBRANCH   4  11
TORSDOF 3
ENDMDL
MODEL 2
REMARK VINA RESULT: -7.096056910      1.531      1.736
REMARK  3 active torsions:
REMARK  status: ('A' for Active; 'I' for Inactive)
REMARK    1  A    between atoms: C3_4  and  C4_5 
REMARK       I    between atoms: C4_5  and  N2_7 
REMARK    2  A    between atoms: N2_7  and  C5_9 
REMARK    3  A    between atoms: N3_10  and  N4_12 
REMARK       I    between atoms: N4_12  and  C6_14 
REMARK       I    between atoms: N7_21  and  C9_22 
ROOT
HETATM    1  C1  UNL     1      63.777 -29.551 -31.077  1.00  0.00     0.224 C 
HETATM    2  N1  UNL     1      63.821 -28.528 -31.656  1.00  0.00    -0.445 NA
HETATM    3  C2  UNL     1      63.902 -27.307 -32.327  1.00  0.00     0.277 C 
HETATM    4  C3  UNL     1      63.669 -27.393 -33.819  1.00  0.00     0.135 C 
HETATM    5  C7  UNL     1      63.067 -25.984 -34.106  1.00  0.00     0.039 C 
HETATM    6  C8  UNL     1      62.107 -25.936 -32.925  1.00  0.00     0.130 C 
HETATM    7  N7  UNL     1      62.939 -26.360 -31.838  1.00  0.00    -0.319 N 
HETATM    8  C9  UNL     1      62.823 -25.912 -30.501  1.00  0.00     0.218 C 
HETATM    9  C10 UNL     1      63.729 -26.411 -29.460  1.00  0.00     0.117 C 
HETATM   10  O2  UNL     1      61.939 -25.068 -30.144  1.00  0.00    -0.274 OA
ENDROOT
BRANCH   4  11
HETATM   11  C4  UNL     1      62.645 -28.371 -34.222  1.00  0.00     0.231 C 
HETATM   12  O1  UNL     1      61.429 -28.110 -34.291  1.00  0.00    -0.273 OA
HETATM   13  N2  UNL     1      63.065 -29.683 -34.553  1.00  0.00    -0.322 N 
ATOM     14  H2  UNL     1      64.056 -29.921 -34.505  1.00  0.00     0.169 HD
BRANCH  13  15
HETATM   15  C5  UNL     1      62.119 -30.681 -34.956  1.00  0.00     0.200 C 
HETATM   16  N3  UNL     1      62.499 -31.837 -35.376  1.00  0.00    -0.294 N 
ATOM     17  H3  UNL     1      63.497 -32.045 -35.422  1.00  0.00     0.187 HD
BRANCH  16  18
HETATM   18  N4  UNL     1      61.590 -32.807 -35.766  1.00  0.00    -0.273 N 
HETATM   19  C6  UNL     1      60.994 -33.680 -34.825  1.00  0.00     0.200 C 
HETATM   20  N5  UNL     1      59.753 -33.529 -34.488  1.00  0.00    -0.372 N 
HETATM   21  N6  UNL     1      61.736 -34.727 -34.235  1.00  0.00    -0.062 NA
ATOM     22  H52 UNL     1      59.217 -32.772 -34.914  1.00  0.00     0.158 HD
ATOM     23  H51 UNL     1      59.323 -34.157 -33.810  1.00  0.00     0.158 HD
ATOM     24  H4  UNL     1      61.346 -32.894 -36.753  1.00  0.00     0.189 HD
ENDBRANCH  16  18
ENDBRANCH  13  15
ENDBRANCH   4  11
TORSDOF 3
ENDMDL
MODEL 3
REMARK VINA RESULT: -6.811812459      3.891      4.888
REMARK  3 active torsions:
REMARK  status: ('A' for Active; 'I' for Inactive)
REMARK    1  A    between atoms: C3_4  and  C4_5 
REMARK       I    between atoms: C4_5  and  N2_7 
REMARK    2  A    between atoms: N2_7  and  C5_9 
REMARK    3  A    between atoms: N3_10  and  N4_12 
REMARK       I    between atoms: N4_12  and  C6_14 
REMARK       I    between atoms: N7_21  and  C9_22 
ROOT
HETATM    1  C1  UNL     1      63.388 -27.164 -36.276  1.00  0.00     0.224 C 
HETATM    2  N1  UNL     1      62.690 -26.218 -36.233  1.00  0.00    -0.445 NA
HETATM    3  C2  UNL     1      61.887 -25.077 -36.193  1.00  0.00     0.277 C 
HETATM    4  C3  UNL     1      60.503 -25.261 -36.775  1.00  0.00     0.135 C 
HETATM    5  C7  UNL     1      59.690 -24.228 -35.936  1.00  0.00     0.039 C 
HETATM    6  C8  UNL     1      60.278 -24.574 -34.576  1.00  0.00     0.130 C 
HETATM    7  N7  UNL     1      61.683 -24.609 -34.850  1.00  0.00    -0.319 N 
HETATM    8  C9  UNL     1      62.701 -24.240 -33.938  1.00  0.00     0.218 C 
HETATM    9  C10 UNL     1      64.116 -24.313 -34.322  1.00  0.00     0.117 C 
HETATM   10  O2  UNL     1      62.440 -23.834 -32.760  1.00  0.00    -0.274 OA
ENDROOT
BRANCH   4  11
HETATM   11  C4  UNL     1      59.899 -26.577 -36.509  1.00  0.00     0.231 C 
HETATM   12  O1  UNL     1      58.964 -26.760 -35.707  1.00  0.00    -0.273 OA
HETATM   13  N2  UNL     1      60.408 -27.701 -37.207  1.00  0.00    -0.322 N 
ATOM     14  H2  UNL     1      61.173 -27.577 -37.870  1.00  0.00     0.169 HD
BRANCH  13  15
HETATM   15  C5  UNL     1      59.862 -29.009 -36.996  1.00  0.00     0.200 C 
HETATM   16  N3  UNL     1      59.873 -29.562 -35.834  1.00  0.00    -0.294 N 
ATOM     17  H3  UNL     1      60.279 -29.056 -35.047  1.00  0.00     0.187 HD
BRANCH  16  18
HETATM   18  N4  UNL     1      59.348 -30.826 -35.622  1.00  0.00    -0.273 N 
HETATM   19  C6  UNL     1      60.048 -31.798 -34.867  1.00  0.00     0.200 C 
HETATM   20  N5  UNL     1      59.654 -32.106 -33.673  1.00  0.00    -0.372 N 
HETATM   21  N6  UNL     1      61.185 -32.448 -35.397  1.00  0.00    -0.062 NA
ATOM     22  H52 UNL     1      58.832 -31.637 -33.290  1.00  0.00     0.158 HD
ATOM     23  H51 UNL     1      60.158 -32.806 -33.129  1.00  0.00     0.158 HD
ATOM     24  H4  UNL     1      58.438 -31.062 -36.019  1.00  0.00     0.189 HD
ENDBRANCH  16  18
ENDBRANCH  13  15
ENDBRANCH   4  11
TORSDOF 3
ENDMDL
MODEL 4
REMARK VINA RESULT: -6.770660214      3.640      4.537
REMARK  3 active torsions:
REMARK  status: ('A' for Active; 'I' for Inactive)
REMARK    1  A    between atoms: C3_4  and  C4_5 
REMARK       I    between atoms: C4_5  and  N2_7 
REMARK    2  A    between atoms: N2_7  and  C5_9 
REMARK    3  A    between atoms: N3_10  and  N4_12 
REMARK       I    between atoms: N4_12  and  C6_14 
REMARK       I    between atoms: N7_21  and  C9_22 
ROOT
HETATM    1  C1  UNL     1      63.469 -26.630 -33.857  1.00  0.00     0.224 C 
HETATM    2  N1  UNL     1      62.690 -26.387 -34.705  1.00  0.00    -0.445 NA
HETATM    3  C2  UNL     1      61.786 -26.073 -35.720  1.00  0.00     0.277 C 
HETATM    4  C3  UNL     1      61.354 -27.251 -36.564  1.00  0.00     0.135 C 
HETATM    5  C7  UNL     1      59.921 -26.803 -36.985  1.00  0.00     0.039 C 
HETATM    6  C8  UNL     1      59.463 -26.303 -35.622  1.00  0.00     0.130 C 
HETATM    7  N7  UNL     1      60.573 -25.502 -35.202  1.00  0.00    -0.319 N 
HETATM    8  C9  UNL     1      60.481 -24.336 -34.405  1.00  0.00     0.218 C 
HETATM    9  C10 UNL     1      61.685 -23.586 -34.029  1.00  0.00     0.117 C 
HETATM   10  O2  UNL     1      59.365 -23.892 -33.982  1.00  0.00    -0.274 OA
ENDROOT
BRANCH   4  11
HETATM   11  C4  UNL     1      61.192 -28.510 -35.819  1.00  0.00     0.231 C 
HETATM   12  O1  UNL     1      60.092 -28.954 -35.443  1.00  0.00    -0.273 OA
HETATM   13  N2  UNL     1      62.354 -29.262 -35.514  1.00  0.00    -0.322 N 
ATOM     14  H2  UNL     1      63.268 -28.919 -35.812  1.00  0.00     0.169 HD
BRANCH  13  15
HETATM   15  C5  UNL     1      62.265 -30.497 -34.793  1.00  0.00     0.200 C 
HETATM   16  N3  UNL     1      62.058 -31.614 -35.398  1.00  0.00    -0.294 N 
ATOM     17  H3  UNL     1      61.956 -31.617 -36.413  1.00  0.00     0.187 HD
BRANCH  16  18
HETATM   18  N4  UNL     1      61.971 -32.812 -34.708  1.00  0.00    -0.273 N 
HETATM   19  C6  UNL     1      60.797 -33.603 -34.750  1.00  0.00     0.200 C 
HETATM   20  N5  UNL     1      60.774 -34.703 -35.433  1.00  0.00    -0.372 N 
HETATM   21  N6  UNL     1      59.633 -33.210 -34.053  1.00  0.00    -0.062 NA
ATOM     22  H52 UNL     1      61.615 -34.987 -35.936  1.00  0.00     0.158 HD
ATOM     23  H51 UNL     1      59.929 -35.272 -35.463  1.00  0.00     0.158 HD
ATOM     24  H4  UNL     1      62.769 -33.132 -34.159  1.00  0.00     0.189 HD
ENDBRANCH  16  18
ENDBRANCH  13  15
ENDBRANCH   4  11
TORSDOF 3
ENDMDL
MODEL 5
REMARK VINA RESULT: -6.758721405      3.406      5.318
REMARK  3 active torsions:
REMARK  status: ('A' for Active; 'I' for Inactive)
REMARK    1  A    between atoms: C3_4  and  C4_5 
REMARK       I    between atoms: C4_5  and  N2_7 
REMARK    2  A    between atoms: N2_7  and  C5_9 
REMARK    3  A    between atoms: N3_10  and  N4_12 
REMARK       I    between atoms: N4_12  and  C6_14 
REMARK       I    between atoms: N7_21  and  C9_22 
ROOT
HETATM    1  C1  UNL     1      59.909 -30.150 -36.665  1.00  0.00     0.224 C 
HETATM    2  N1  UNL     1      60.278 -29.500 -35.756  1.00  0.00    -0.445 NA
HETATM    3  C2  UNL     1      60.683 -28.718 -34.674  1.00  0.00     0.277 C 
HETATM    4  C3  UNL     1      61.492 -29.457 -33.632  1.00  0.00     0.135 C 
HETATM    5  C7  UNL     1      62.383 -28.303 -33.076  1.00  0.00     0.039 C 
HETATM    6  C8  UNL     1      62.764 -27.688 -34.416  1.00  0.00     0.130 C 
HETATM    7  N7  UNL     1      61.502 -27.611 -35.088  1.00  0.00    -0.319 N 
HETATM    8  C9  UNL     1      61.129 -26.604 -36.009  1.00  0.00     0.218 C 
HETATM    9  C10 UNL     1      59.805 -26.619 -36.644  1.00  0.00     0.117 C 
HETATM   10  O2  UNL     1      61.913 -25.653 -36.326  1.00  0.00    -0.274 OA
ENDROOT
BRANCH   4  11
HETATM   11  C4  UNL     1      62.414 -30.466 -34.177  1.00  0.00     0.231 C 
HETATM   12  O1  UNL     1      63.635 -30.276 -34.331  1.00  0.00    -0.273 OA
HETATM   13  N2  UNL     1      61.885 -31.728 -34.545  1.00  0.00    -0.322 N 
ATOM     14  H2  UNL     1      60.887 -31.909 -34.428  1.00  0.00     0.169 HD
BRANCH  13  15
HETATM   15  C5  UNL     1      62.729 -32.755 -35.079  1.00  0.00     0.200 C 
HETATM   16  N3  UNL     1      63.591 -32.504 -36.001  1.00  0.00    -0.294 N 
ATOM     17  H3  UNL     1      63.673 -31.551 -36.358  1.00  0.00     0.187 HD
BRANCH  16  18
HETATM   18  N4  UNL     1      64.411 -33.491 -36.523  1.00  0.00    -0.273 N 
HETATM   19  C6  UNL     1      65.133 -34.371 -35.680  1.00  0.00     0.200 C 
HETATM   20  N5  UNL     1      64.764 -35.605 -35.553  1.00  0.00    -0.372 N 
HETATM   21  N6  UNL     1      66.265 -33.922 -34.963  1.00  0.00    -0.062 NA
ATOM     22  H52 UNL     1      63.947 -35.929 -36.071  1.00  0.00     0.158 HD
ATOM     23  H51 UNL     1      65.283 -36.238 -34.946  1.00  0.00     0.158 HD
ATOM     24  H4  UNL     1      64.497 -33.587 -37.535  1.00  0.00     0.189 HD
ENDBRANCH  16  18
ENDBRANCH  13  15
ENDBRANCH   4  11
TORSDOF 3
ENDMDL
