MODEL 1
REMARK VINA RESULT: -5.088096278      0.000      0.000
REMARK  6 active torsions:
REMARK  status: ('A' for Active; 'I' for Inactive)
REMARK    1  A    between atoms: C3_3  and  N1_4 
REMARK       I    between atoms: N1_4  and  C4_6 
REMARK       I    between atoms: C4_6  and  N3_12 
REMARK    2  A    between atoms: N2_7  and  C5_9 
REMARK    3  A    between atoms: C5_9  and  C6_10 
REMARK    4  A    between atoms: N3_12  and  C8_14 
REMARK    5  A    between atoms: C8_14  and  N4_16 
REMARK    6  A    between atoms: N4_16  and  C9_18 
ROOT
HETATM    1  C1  UNL     1     -21.318   9.414   6.759  1.00  0.00     0.014 C 
HETATM    2  C2  UNL     1     -21.336   8.492   5.984  1.00  0.00    -0.097 C 
HETATM    3  C3  UNL     1     -21.363   7.389   5.025  1.00  0.00     0.231 C 
ENDROOT
BRANCH   3   4
HETATM    4  N1  UNL     1     -21.859   6.163   5.607  1.00  0.00    -0.216 N 
HETATM    5  C4  UNL     1     -21.057   4.998   5.682  1.00  0.00     0.677 C 
HETATM    6  N2  UNL     1     -21.011   4.296   6.747  1.00  0.00    -0.223 N 
HETATM    7  N3  UNL     1     -20.300   4.620   4.546  1.00  0.00    -0.167 N 
ATOM      8  H2  UNL     1     -20.418   3.467   6.747  1.00  0.00     0.178 HD
ATOM      9  H3  UNL     1     -19.928   5.353   3.943  1.00  0.00     0.186 HD
ATOM     10  H1  UNL     1     -22.811   6.136   5.972  1.00  0.00     0.178 HD
BRANCH   6  11
HETATM   11  C5  UNL     1     -21.744   4.601   7.946  1.00  0.00     0.164 C 
BRANCH  11  12
HETATM   12  C6  UNL     1     -20.974   5.477   8.886  1.00  0.00    -0.017 C 
HETATM   13  C7  UNL     1     -21.418   6.654   9.278  1.00  0.00     0.008 C 
ENDBRANCH  11  12
ENDBRANCH   6  11
BRANCH   7  14
HETATM   14  C8  UNL     1     -20.039   3.269   4.208  1.00  0.00     0.186 C 
HETATM   15  S1  UNL     1     -20.931   2.585   3.035  1.00  0.00    -0.040 SA
BRANCH  14  16
HETATM   16  N4  UNL     1     -19.045   2.513   4.848  1.00  0.00    -0.362 N 
ATOM     17  H4  UNL     1     -19.188   1.518   5.022  1.00  0.00     0.162 HD
BRANCH  16  18
HETATM   18  C9  UNL     1     -17.827   3.152   5.254  1.00  0.00     0.084 A 
HETATM   19  C10 UNL     1     -17.453   3.003   6.724  1.00  0.00     0.027 A 
HETATM   20  C11 UNL     1     -16.624   2.396   5.639  1.00  0.00     0.027 A 
ENDBRANCH  16  18
ENDBRANCH  14  16
ENDBRANCH   7  14
ENDBRANCH   3   4
TORSDOF 6
ENDMDL
MODEL 2
REMARK VINA RESULT: -5.072593104      2.140      5.797
REMARK  6 active torsions:
REMARK  status: ('A' for Active; 'I' for Inactive)
REMARK    1  A    between atoms: C3_3  and  N1_4 
REMARK       I    between atoms: N1_4  and  C4_6 
REMARK       I    between atoms: C4_6  and  N3_12 
REMARK    2  A    between atoms: N2_7  and  C5_9 
REMARK    3  A    between atoms: C5_9  and  C6_10 
REMARK    4  A    between atoms: N3_12  and  C8_14 
REMARK    5  A    between atoms: C8_14  and  N4_16 
REMARK    6  A    between atoms: N4_16  and  C9_18 
ROOT
HETATM    1  C1  UNL     1     -18.664   0.571   2.223  1.00  0.00     0.014 C 
HETATM    2  C2  UNL     1     -19.311   1.303   2.927  1.00  0.00    -0.097 C 
HETATM    3  C3  UNL     1     -20.114   2.193   3.766  1.00  0.00     0.231 C 
ENDROOT
BRANCH   3   4
HETATM    4  N1  UNL     1     -19.302   3.105   4.538  1.00  0.00    -0.216 N 
HETATM    5  C4  UNL     1     -19.623   3.431   5.879  1.00  0.00     0.677 C 
HETATM    6  N2  UNL     1     -18.722   3.462   6.783  1.00  0.00    -0.223 N 
HETATM    7  N3  UNL     1     -20.969   3.726   6.203  1.00  0.00    -0.167 N 
ATOM      8  H2  UNL     1     -19.007   3.704   7.732  1.00  0.00     0.178 HD
ATOM      9  H3  UNL     1     -21.710   3.241   5.696  1.00  0.00     0.186 HD
ATOM     10  H1  UNL     1     -18.478   3.525   4.107  1.00  0.00     0.178 HD
BRANCH   6  11
HETATM   11  C5  UNL     1     -17.332   3.180   6.548  1.00  0.00     0.164 C 
BRANCH  11  12
HETATM   12  C6  UNL     1     -17.005   1.726   6.699  1.00  0.00    -0.017 C 
HETATM   13  C7  UNL     1     -16.722   0.954   5.669  1.00  0.00     0.008 C 
ENDBRANCH  11  12
ENDBRANCH   6  11
BRANCH   7  14
HETATM   14  C8  UNL     1     -21.335   4.666   7.199  1.00  0.00     0.186 C 
HETATM   15  S1  UNL     1     -21.760   4.104   8.663  1.00  0.00    -0.040 SA
BRANCH  14  16
HETATM   16  N4  UNL     1     -21.340   6.048   6.963  1.00  0.00    -0.362 N 
ATOM     17  H4  UNL     1     -21.052   6.696   7.695  1.00  0.00     0.162 HD
BRANCH  16  18
HETATM   18  C9  UNL     1     -21.755   6.541   5.681  1.00  0.00     0.084 A 
HETATM   19  C10 UNL     1     -21.530   8.028   5.433  1.00  0.00     0.027 A 
HETATM   20  C11 UNL     1     -20.797   6.984   4.653  1.00  0.00     0.027 A 
ENDBRANCH  16  18
ENDBRANCH  14  16
ENDBRANCH   7  14
ENDBRANCH   3   4
TORSDOF 6
ENDMDL
MODEL 3
REMARK VINA RESULT: -5.067052373      4.539      7.588
REMARK  6 active torsions:
REMARK  status: ('A' for Active; 'I' for Inactive)
REMARK    1  A    between atoms: C3_3  and  N1_4 
REMARK       I    between atoms: N1_4  and  C4_6 
REMARK       I    between atoms: C4_6  and  N3_12 
REMARK    2  A    between atoms: N2_7  and  C5_9 
REMARK    3  A    between atoms: C5_9  and  C6_10 
REMARK    4  A    between atoms: N3_12  and  C8_14 
REMARK    5  A    between atoms: C8_14  and  N4_16 
REMARK    6  A    between atoms: N4_16  and  C9_18 
ROOT
HETATM    1  C1  UNL     1     -21.609   5.634   6.850  1.00  0.00     0.014 C 
HETATM    2  C2  UNL     1     -21.418   6.352   5.903  1.00  0.00    -0.097 C 
HETATM    3  C3  UNL     1     -21.175   7.206   4.741  1.00  0.00     0.231 C 
ENDROOT
BRANCH   3   4
HETATM    4  N1  UNL     1     -20.954   8.587   5.107  1.00  0.00    -0.216 N 
HETATM    5  C4  UNL     1     -22.032   9.459   5.399  1.00  0.00     0.677 C 
HETATM    6  N2  UNL     1     -21.993  10.242   6.407  1.00  0.00    -0.223 N 
HETATM    7  N3  UNL     1     -23.163   9.451   4.546  1.00  0.00    -0.167 N 
ATOM      8  H2  UNL     1     -22.795  10.850   6.570  1.00  0.00     0.178 HD
ATOM      9  H3  UNL     1     -23.436   8.571   4.109  1.00  0.00     0.186 HD
ATOM     10  H1  UNL     1     -20.000   8.942   5.157  1.00  0.00     0.178 HD
BRANCH   6  11
HETATM   11  C5  UNL     1     -20.889  10.321   7.324  1.00  0.00     0.164 C 
BRANCH  11  12
HETATM   12  C6  UNL     1     -21.256   9.881   8.708  1.00  0.00    -0.017 C 
HETATM   13  C7  UNL     1     -21.235   8.616   9.076  1.00  0.00     0.008 C 
ENDBRANCH  11  12
ENDBRANCH   6  11
BRANCH   7  14
HETATM   14  C8  UNL     1     -23.931  10.609   4.272  1.00  0.00     0.186 C 
HETATM   15  S1  UNL     1     -25.211  10.923   5.223  1.00  0.00    -0.040 SA
BRANCH  14  16
HETATM   16  N4  UNL     1     -23.624  11.483   3.219  1.00  0.00    -0.362 N 
ATOM     17  H4  UNL     1     -22.653  11.684   2.983  1.00  0.00     0.162 HD
BRANCH  16  18
HETATM   18  C9  UNL     1     -24.690  12.092   2.477  1.00  0.00     0.084 A 
HETATM   19  C10 UNL     1     -24.307  12.694   1.131  1.00  0.00     0.027 A 
HETATM   20  C11 UNL     1     -25.220  11.515   1.230  1.00  0.00     0.027 A 
ENDBRANCH  16  18
ENDBRANCH  14  16
ENDBRANCH   7  14
ENDBRANCH   3   4
TORSDOF 6
ENDMDL
MODEL 4
REMARK VINA RESULT: -5.033116386      2.886      5.592
REMARK  6 active torsions:
REMARK  status: ('A' for Active; 'I' for Inactive)
REMARK    1  A    between atoms: C3_3  and  N1_4 
REMARK       I    between atoms: N1_4  and  C4_6 
REMARK       I    between atoms: C4_6  and  N3_12 
REMARK    2  A    between atoms: N2_7  and  C5_9 
REMARK    3  A    between atoms: C5_9  and  C6_10 
REMARK    4  A    between atoms: N3_12  and  C8_14 
REMARK    5  A    between atoms: C8_14  and  N4_16 
REMARK    6  A    between atoms: N4_16  and  C9_18 
ROOT
HETATM    1  C1  UNL     1     -20.811   1.716   2.553  1.00  0.00     0.014 C 
HETATM    2  C2  UNL     1     -20.872   2.829   3.010  1.00  0.00    -0.097 C 
HETATM    3  C3  UNL     1     -20.952   4.188   3.543  1.00  0.00     0.231 C 
ENDROOT
BRANCH   3   4
HETATM    4  N1  UNL     1     -19.954   4.444   4.556  1.00  0.00    -0.216 N 
HETATM    5  C4  UNL     1     -20.053   3.886   5.854  1.00  0.00     0.677 C 
HETATM    6  N2  UNL     1     -19.039   3.362   6.426  1.00  0.00    -0.223 N 
HETATM    7  N3  UNL     1     -21.306   3.919   6.514  1.00  0.00    -0.167 N 
ATOM      8  H2  UNL     1     -19.166   2.975   7.361  1.00  0.00     0.178 HD
ATOM      9  H3  UNL     1     -22.154   3.841   5.953  1.00  0.00     0.186 HD
ATOM     10  H1  UNL     1     -19.158   5.041   4.331  1.00  0.00     0.178 HD
BRANCH   6  11
HETATM   11  C5  UNL     1     -17.731   3.285   5.836  1.00  0.00     0.164 C 
BRANCH  11  12
HETATM   12  C6  UNL     1     -17.286   1.873   5.602  1.00  0.00    -0.017 C 
HETATM   13  C7  UNL     1     -17.781   1.127   4.635  1.00  0.00     0.008 C 
ENDBRANCH  11  12
ENDBRANCH   6  11
BRANCH   7  14
HETATM   14  C8  UNL     1     -21.434   4.057   7.918  1.00  0.00     0.186 C 
HETATM   15  S1  UNL     1     -21.166   5.520   8.573  1.00  0.00    -0.040 SA
BRANCH  14  16
HETATM   16  N4  UNL     1     -21.783   2.983   8.751  1.00  0.00    -0.362 N 
ATOM     17  H4  UNL     1     -21.692   2.024   8.418  1.00  0.00     0.162 HD
BRANCH  16  18
HETATM   18  C9  UNL     1     -22.267   3.248  10.075  1.00  0.00     0.084 A 
HETATM   19  C10 UNL     1     -22.764   2.038  10.858  1.00  0.00     0.027 A 
HETATM   20  C11 UNL     1     -21.553   2.805  11.285  1.00  0.00     0.027 A 
ENDBRANCH  16  18
ENDBRANCH  14  16
ENDBRANCH   7  14
ENDBRANCH   3   4
TORSDOF 6
ENDMDL
MODEL 5
REMARK VINA RESULT: -5.028887688      2.348      3.762
REMARK  6 active torsions:
REMARK  status: ('A' for Active; 'I' for Inactive)
REMARK    1  A    between atoms: C3_3  and  N1_4 
REMARK       I    between atoms: N1_4  and  C4_6 
REMARK       I    between atoms: C4_6  and  N3_12 
REMARK    2  A    between atoms: N2_7  and  C5_9 
REMARK    3  A    between atoms: C5_9  and  C6_10 
REMARK    4  A    between atoms: N3_12  and  C8_14 
REMARK    5  A    between atoms: C8_14  and  N4_16 
REMARK    6  A    between atoms: N4_16  and  C9_18 
ROOT
HETATM    1  C1  UNL     1     -21.616   8.725   5.435  1.00  0.00     0.014 C 
HETATM    2  C2  UNL     1     -21.602   7.621   5.916  1.00  0.00    -0.097 C 
HETATM    3  C3  UNL     1     -21.584   6.290   6.523  1.00  0.00     0.231 C 
ENDROOT
BRANCH   3   4
HETATM    4  N1  UNL     1     -20.922   5.313   5.690  1.00  0.00    -0.216 N 
HETATM    5  C4  UNL     1     -20.332   4.148   6.238  1.00  0.00     0.677 C 
HETATM    6  N2  UNL     1     -20.501   3.005   5.695  1.00  0.00    -0.223 N 
HETATM    7  N3  UNL     1     -19.544   4.272   7.408  1.00  0.00    -0.167 N 
ATOM      8  H2  UNL     1     -20.053   2.199   6.130  1.00  0.00     0.178 HD
ATOM      9  H3  UNL     1     -19.800   4.981   8.095  1.00  0.00     0.186 HD
ATOM     10  H1  UNL     1     -20.878   5.465   4.682  1.00  0.00     0.178 HD
BRANCH   6  11
HETATM   11  C5  UNL     1     -21.281   2.783   4.508  1.00  0.00     0.164 C 
BRANCH  11  12
HETATM   12  C6  UNL     1     -20.436   2.654   3.277  1.00  0.00    -0.017 C 
HETATM   13  C7  UNL     1     -20.185   1.491   2.712  1.00  0.00     0.008 C 
ENDBRANCH  11  12
ENDBRANCH   6  11
BRANCH   7  14
HETATM   14  C8  UNL     1     -18.414   3.456   7.667  1.00  0.00     0.186 C 
HETATM   15  S1  UNL     1     -18.165   2.953   9.192  1.00  0.00    -0.040 SA
BRANCH  14  16
HETATM   16  N4  UNL     1     -17.516   3.074   6.660  1.00  0.00    -0.362 N 
ATOM     17  H4  UNL     1     -17.122   3.773   6.030  1.00  0.00     0.162 HD
BRANCH  16  18
HETATM   18  C9  UNL     1     -17.156   1.692   6.525  1.00  0.00     0.084 A 
HETATM   19  C10 UNL     1     -17.371   1.078   5.147  1.00  0.00     0.027 A 
HETATM   20  C11 UNL     1     -16.003   1.247   5.725  1.00  0.00     0.027 A 
ENDBRANCH  16  18
ENDBRANCH  14  16
ENDBRANCH   7  14
ENDBRANCH   3   4
TORSDOF 6
ENDMDL
