MODEL 1
REMARK VINA RESULT: -8.891803117      0.000      0.000
REMARK  8 active torsions:
REMARK  status: ('A' for Active; 'I' for Inactive)
REMARK    1  A    between atoms: C2_2  and  C3_3 
REMARK    2  A    between atoms: C3_3  and  C4_4 
REMARK    3  A    between atoms: N3_10  and  S1_12 
REMARK    4  A    between atoms: S1_12  and  C6_15 
REMARK    5  A    between atoms: C7_16  and  C8_17 
REMARK    6  A    between atoms: C9_18  and  C10_19 
REMARK    7  A    between atoms: C10_19  and  O3_20 
REMARK    8  A    between atoms: N4_22  and  O4_24 
ROOT
HETATM    1  C6  UNL     1      81.427  50.229  35.613  1.00  0.00     0.103 A 
HETATM    2  C7  UNL     1      81.605  51.472  36.204  1.00  0.00     0.029 A 
HETATM    3  S2  UNL     1      80.012  52.087  36.268  1.00  0.00    -0.093 SA
HETATM    4  C11 UNL     1      79.166  50.809  35.569  1.00  0.00    -0.013 A 
HETATM    5  C12 UNL     1      77.679  50.652  35.294  1.00  0.00     0.057 C 
HETATM    6  C13 UNL     1      80.151  49.909  35.291  1.00  0.00    -0.025 A 
HETATM    7  C14 UNL     1      79.821  48.572  34.618  1.00  0.00     0.051 C 
ENDROOT
BRANCH   1   8
HETATM    8  S1  UNL     1      82.835  49.138  35.362  1.00  0.00     0.266 S 
HETATM    9  O1  UNL     1      84.053  49.727  36.074  1.00  0.00    -0.200 OA
HETATM   10  O2  UNL     1      83.189  49.080  33.934  1.00  0.00    -0.200 OA
BRANCH   8  11
HETATM   11  N3  UNL     1      82.568  47.617  36.103  1.00  0.00    -0.259 N 
HETATM   12  C5  UNL     1      82.286  47.635  37.387  1.00  0.00     0.174 A 
HETATM   13  N2  UNL     1      82.043  46.576  38.166  1.00  0.00    -0.278 N 
HETATM   14  S3  UNL     1      82.130  48.924  38.497  1.00  0.00    -0.037 SA
HETATM   15  N1  UNL     1      81.785  46.769  39.394  1.00  0.00    -0.296 N 
ATOM     16  H2  UNL     1      82.063  45.632  37.781  1.00  0.00     0.189 HD
HETATM   17  C4  UNL     1      81.761  48.000  39.884  1.00  0.00     0.069 A 
ATOM     18  H1  UNL     1      81.596  45.975  40.006  1.00  0.00     0.187 HD
ATOM     19  H3  UNL     1      82.625  46.745  35.576  1.00  0.00     0.181 HD
BRANCH  17  20
HETATM   20  C3  UNL     1      81.473  48.397  41.311  1.00  0.00     0.066 C 
BRANCH  20  21
HETATM   21  C2  UNL     1      81.171  49.886  41.263  1.00  0.00     0.002 C 
HETATM   22  C1  UNL     1      80.006  50.137  42.214  1.00  0.00     0.005 C 
ENDBRANCH  20  21
ENDBRANCH  17  20
ENDBRANCH   8  11
ENDBRANCH   1   8
BRANCH   2  23
HETATM   23  C8  UNL     1      82.869  52.086  36.604  1.00  0.00     0.025 C 
HETATM   24  C9  UNL     1      83.295  53.277  36.512  1.00  0.00     0.059 C 
BRANCH  24  25
HETATM   25  C10 UNL     1      82.786  54.518  36.008  1.00  0.00     0.159 C 
HETATM   26  N4  UNL     1      83.365  55.651  36.361  1.00  0.00    -0.248 N 
ATOM     27  H4  UNL     1      84.170  55.649  36.987  1.00  0.00     0.196 HD
BRANCH  25  28
HETATM   28  O3  UNL     1      81.719  54.613  35.169  1.00  0.00    -0.345 OA
ATOM     29  H3  UNL     1      81.172  55.386  35.097  1.00  0.00     0.219 HD
ENDBRANCH  25  28
BRANCH  26  30
HETATM   30  O4  UNL     1      82.870  56.819  35.873  1.00  0.00    -0.288 OA
ATOM     31  H4  UNL     1      82.798  56.929  34.932  1.00  0.00     0.244 HD
ENDBRANCH  26  30
ENDBRANCH  24  25
ENDBRANCH   2  23
TORSDOF 8
ENDMDL
MODEL 2
REMARK VINA RESULT: -8.609193260      3.014      4.896
REMARK  8 active torsions:
REMARK  status: ('A' for Active; 'I' for Inactive)
REMARK    1  A    between atoms: C2_2  and  C3_3 
REMARK    2  A    between atoms: C3_3  and  C4_4 
REMARK    3  A    between atoms: N3_10  and  S1_12 
REMARK    4  A    between atoms: S1_12  and  C6_15 
REMARK    5  A    between atoms: C7_16  and  C8_17 
REMARK    6  A    between atoms: C9_18  and  C10_19 
REMARK    7  A    between atoms: C10_19  and  O3_20 
REMARK    8  A    between atoms: N4_22  and  O4_24 
ROOT
HETATM    1  C6  UNL     1      79.851  50.147  37.053  1.00  0.00     0.103 A 
HETATM    2  C7  UNL     1      80.896  50.180  36.141  1.00  0.00     0.029 A 
HETATM    3  S2  UNL     1      80.143  49.678  34.691  1.00  0.00    -0.093 SA
HETATM    4  C11 UNL     1      78.567  49.437  35.237  1.00  0.00    -0.013 A 
HETATM    5  C12 UNL     1      77.329  48.979  34.484  1.00  0.00     0.057 C 
HETATM    6  C13 UNL     1      78.653  49.756  36.559  1.00  0.00    -0.025 A 
HETATM    7  C14 UNL     1      77.421  49.660  37.467  1.00  0.00     0.051 C 
ENDROOT
BRANCH   1   8
HETATM    8  S1  UNL     1      80.126  50.649  38.758  1.00  0.00     0.266 S 
HETATM    9  O1  UNL     1      78.773  50.811  39.452  1.00  0.00    -0.200 OA
HETATM   10  O2  UNL     1      80.767  51.973  38.805  1.00  0.00    -0.200 OA
BRANCH   8  11
HETATM   11  N3  UNL     1      80.939  49.420  39.632  1.00  0.00    -0.259 N 
HETATM   12  C5  UNL     1      80.758  49.413  40.934  1.00  0.00     0.174 A 
HETATM   13  N2  UNL     1      81.289  48.554  41.810  1.00  0.00    -0.278 N 
HETATM   14  S3  UNL     1      79.838  50.425  41.959  1.00  0.00    -0.037 SA
HETATM   15  N1  UNL     1      81.011  48.687  43.041  1.00  0.00    -0.296 N 
ATOM     16  H2  UNL     1      81.906  47.805  41.494  1.00  0.00     0.189 HD
HETATM   17  C4  UNL     1      80.209  49.663  43.441  1.00  0.00     0.069 A 
ATOM     18  H1  UNL     1      81.405  48.042  43.725  1.00  0.00     0.187 HD
ATOM     19  H3  UNL     1      81.532  48.732  39.167  1.00  0.00     0.181 HD
BRANCH  17  20
HETATM   20  C3  UNL     1      79.781  49.956  44.858  1.00  0.00     0.066 C 
BRANCH  20  21
HETATM   21  C2  UNL     1      78.268  50.097  44.803  1.00  0.00     0.002 C 
HETATM   22  C1  UNL     1      77.803  50.480  46.203  1.00  0.00     0.005 C 
ENDBRANCH  20  21
ENDBRANCH  17  20
ENDBRANCH   8  11
ENDBRANCH   1   8
BRANCH   2  23
HETATM   23  C8  UNL     1      82.293  50.514  36.410  1.00  0.00     0.025 C 
HETATM   24  C9  UNL     1      83.233  49.848  36.941  1.00  0.00     0.059 C 
BRANCH  24  25
HETATM   25  C10 UNL     1      83.379  48.537  37.500  1.00  0.00     0.159 C 
HETATM   26  N4  UNL     1      83.290  47.481  36.713  1.00  0.00    -0.248 N 
ATOM     27  H4  UNL     1      83.118  47.591  35.714  1.00  0.00     0.196 HD
BRANCH  25  28
HETATM   28  O3  UNL     1      83.611  48.298  38.819  1.00  0.00    -0.345 OA
ATOM     29  H3  UNL     1      82.932  48.054  39.438  1.00  0.00     0.219 HD
ENDBRANCH  25  28
BRANCH  26  30
HETATM   30  O4  UNL     1      83.432  46.244  37.259  1.00  0.00    -0.288 OA
ATOM     31  H4  UNL     1      84.184  45.718  37.012  1.00  0.00     0.244 HD
ENDBRANCH  26  30
ENDBRANCH  24  25
ENDBRANCH   2  23
TORSDOF 8
ENDMDL
MODEL 3
REMARK VINA RESULT: -8.553711116      4.242      6.472
REMARK  8 active torsions:
REMARK  status: ('A' for Active; 'I' for Inactive)
REMARK    1  A    between atoms: C2_2  and  C3_3 
REMARK    2  A    between atoms: C3_3  and  C4_4 
REMARK    3  A    between atoms: N3_10  and  S1_12 
REMARK    4  A    between atoms: S1_12  and  C6_15 
REMARK    5  A    between atoms: C7_16  and  C8_17 
REMARK    6  A    between atoms: C9_18  and  C10_19 
REMARK    7  A    between atoms: C10_19  and  O3_20 
REMARK    8  A    between atoms: N4_22  and  O4_24 
ROOT
HETATM    1  C6  UNL     1      79.234  49.704  38.306  1.00  0.00     0.103 A 
HETATM    2  C7  UNL     1      80.579  49.606  38.634  1.00  0.00     0.029 A 
HETATM    3  S2  UNL     1      81.338  49.593  37.103  1.00  0.00    -0.093 SA
HETATM    4  C11 UNL     1      79.991  49.705  36.097  1.00  0.00    -0.013 A 
HETATM    5  C12 UNL     1      79.902  49.746  34.580  1.00  0.00     0.057 C 
HETATM    6  C13 UNL     1      78.955  49.752  36.982  1.00  0.00    -0.025 A 
HETATM    7  C14 UNL     1      77.508  49.843  36.485  1.00  0.00     0.051 C 
ENDROOT
BRANCH   1   8
HETATM    8  S1  UNL     1      77.993  49.804  39.603  1.00  0.00     0.266 S 
HETATM    9  O1  UNL     1      76.856  48.834  39.279  1.00  0.00    -0.200 OA
HETATM   10  O2  UNL     1      77.386  51.145  39.629  1.00  0.00    -0.200 OA
BRANCH   8  11
HETATM   11  N3  UNL     1      78.631  49.270  41.101  1.00  0.00    -0.259 N 
HETATM   12  C5  UNL     1      78.302  49.975  42.161  1.00  0.00     0.174 A 
HETATM   13  N2  UNL     1      78.680  49.746  43.422  1.00  0.00    -0.278 N 
HETATM   14  S3  UNL     1      77.327  51.367  42.340  1.00  0.00    -0.037 SA
HETATM   15  N1  UNL     1      78.270  50.529  44.334  1.00  0.00    -0.296 N 
ATOM     16  H2  UNL     1      79.288  48.959  43.647  1.00  0.00     0.189 HD
HETATM   17  C4  UNL     1      77.482  51.550  44.030  1.00  0.00     0.069 A 
ATOM     18  H1  UNL     1      78.547  50.372  45.302  1.00  0.00     0.187 HD
ATOM     19  H3  UNL     1      79.235  48.450  41.166  1.00  0.00     0.181 HD
BRANCH  17  20
HETATM   20  C3  UNL     1      76.910  52.565  44.989  1.00  0.00     0.066 C 
BRANCH  20  21
HETATM   21  C2  UNL     1      77.956  52.724  46.081  1.00  0.00     0.002 C 
HETATM   22  C1  UNL     1      78.312  54.205  46.147  1.00  0.00     0.005 C 
ENDBRANCH  20  21
ENDBRANCH  17  20
ENDBRANCH   8  11
ENDBRANCH   1   8
BRANCH   2  23
HETATM   23  C8  UNL     1      81.154  49.489  39.972  1.00  0.00     0.025 C 
HETATM   24  C9  UNL     1      82.103  48.777  40.424  1.00  0.00     0.059 C 
BRANCH  24  25
HETATM   25  C10 UNL     1      83.011  47.809  39.886  1.00  0.00     0.159 C 
HETATM   26  N4  UNL     1      82.538  46.773  39.218  1.00  0.00    -0.248 N 
ATOM     27  H4  UNL     1      81.534  46.657  39.082  1.00  0.00     0.196 HD
BRANCH  25  28
HETATM   28  O3  UNL     1      84.363  47.884  40.019  1.00  0.00    -0.345 OA
ATOM     29  H3  UNL     1      84.968  47.269  39.621  1.00  0.00     0.219 HD
ENDBRANCH  25  28
BRANCH  26  30
HETATM   30  O4  UNL     1      83.414  45.864  38.714  1.00  0.00    -0.288 OA
ATOM     31  H4  UNL     1      83.295  44.946  38.928  1.00  0.00     0.244 HD
ENDBRANCH  26  30
ENDBRANCH  24  25
ENDBRANCH   2  23
TORSDOF 8
ENDMDL
MODEL 4
REMARK VINA RESULT: -8.531977920      4.402      6.459
REMARK  8 active torsions:
REMARK  status: ('A' for Active; 'I' for Inactive)
REMARK    1  A    between atoms: C2_2  and  C3_3 
REMARK    2  A    between atoms: C3_3  and  C4_4 
REMARK    3  A    between atoms: N3_10  and  S1_12 
REMARK    4  A    between atoms: S1_12  and  C6_15 
REMARK    5  A    between atoms: C7_16  and  C8_17 
REMARK    6  A    between atoms: C9_18  and  C10_19 
REMARK    7  A    between atoms: C10_19  and  O3_20 
REMARK    8  A    between atoms: N4_22  and  O4_24 
ROOT
HETATM    1  C6  UNL     1      79.373  49.742  37.903  1.00  0.00     0.103 A 
HETATM    2  C7  UNL     1      80.638  49.529  37.373  1.00  0.00     0.029 A 
HETATM    3  S2  UNL     1      80.308  49.254  35.718  1.00  0.00    -0.093 SA
HETATM    4  C11 UNL     1      78.630  49.405  35.715  1.00  0.00    -0.013 A 
HETATM    5  C12 UNL     1      77.638  49.283  34.569  1.00  0.00     0.057 C 
HETATM    6  C13 UNL     1      78.347  49.671  37.021  1.00  0.00    -0.025 A 
HETATM    7  C14 UNL     1      76.899  49.870  37.481  1.00  0.00     0.051 C 
ENDROOT
BRANCH   1   8
HETATM    8  S1  UNL     1      79.179  50.131  39.648  1.00  0.00     0.266 S 
HETATM    9  O1  UNL     1      80.258  51.135  40.056  1.00  0.00    -0.200 OA
HETATM   10  O2  UNL     1      79.410  48.932  40.469  1.00  0.00    -0.200 OA
BRANCH   8  11
HETATM   11  N3  UNL     1      77.689  50.926  39.933  1.00  0.00    -0.259 N 
HETATM   12  C5  UNL     1      77.411  51.215  41.185  1.00  0.00     0.174 A 
HETATM   13  N2  UNL     1      76.315  51.829  41.640  1.00  0.00    -0.278 N 
HETATM   14  S3  UNL     1      78.278  50.941  42.632  1.00  0.00    -0.037 SA
HETATM   15  N1  UNL     1      76.202  52.032  42.888  1.00  0.00    -0.296 N 
ATOM     16  H2  UNL     1      75.582  52.128  40.996  1.00  0.00     0.189 HD
HETATM   17  C4  UNL     1      77.159  51.640  43.715  1.00  0.00     0.069 A 
ATOM     18  H1  UNL     1      75.373  52.499  43.255  1.00  0.00     0.187 HD
ATOM     19  H3  UNL     1      77.052  51.163  39.172  1.00  0.00     0.181 HD
BRANCH  17  20
HETATM   20  C3  UNL     1      77.179  51.806  45.215  1.00  0.00     0.066 C 
BRANCH  20  21
HETATM   21  C2  UNL     1      78.434  52.609  45.517  1.00  0.00     0.002 C 
HETATM   22  C1  UNL     1      77.982  53.954  46.073  1.00  0.00     0.005 C 
ENDBRANCH  20  21
ENDBRANCH  17  20
ENDBRANCH   8  11
ENDBRANCH   1   8
BRANCH   2  23
HETATM   23  C8  UNL     1      81.905  49.499  38.099  1.00  0.00     0.025 C 
HETATM   24  C9  UNL     1      82.501  48.566  38.719  1.00  0.00     0.059 C 
BRANCH  24  25
HETATM   25  C10 UNL     1      82.246  47.184  38.994  1.00  0.00     0.159 C 
HETATM   26  N4  UNL     1      81.080  46.824  39.498  1.00  0.00    -0.248 N 
ATOM     27  H4  UNL     1      80.362  47.522  39.693  1.00  0.00     0.196 HD
BRANCH  25  28
HETATM   28  O3  UNL     1      83.145  46.188  38.765  1.00  0.00    -0.345 OA
ATOM     29  H3  UNL     1      82.902  45.283  38.608  1.00  0.00     0.219 HD
ENDBRANCH  25  28
BRANCH  26  30
HETATM   30  O4  UNL     1      80.854  45.508  39.753  1.00  0.00    -0.288 OA
ATOM     31  H4  UNL     1      80.321  45.010  39.144  1.00  0.00     0.244 HD
ENDBRANCH  26  30
ENDBRANCH  24  25
ENDBRANCH   2  23
TORSDOF 8
ENDMDL
MODEL 5
REMARK VINA RESULT: -8.522790241      3.868      5.720
REMARK  8 active torsions:
REMARK  status: ('A' for Active; 'I' for Inactive)
REMARK    1  A    between atoms: C2_2  and  C3_3 
REMARK    2  A    between atoms: C3_3  and  C4_4 
REMARK    3  A    between atoms: N3_10  and  S1_12 
REMARK    4  A    between atoms: S1_12  and  C6_15 
REMARK    5  A    between atoms: C7_16  and  C8_17 
REMARK    6  A    between atoms: C9_18  and  C10_19 
REMARK    7  A    between atoms: C10_19  and  O3_20 
REMARK    8  A    between atoms: N4_22  and  O4_24 
ROOT
HETATM    1  C6  UNL     1      79.511  50.075  37.392  1.00  0.00     0.103 A 
HETATM    2  C7  UNL     1      80.628  50.168  36.573  1.00  0.00     0.029 A 
HETATM    3  S2  UNL     1      79.998  49.771  35.034  1.00  0.00    -0.093 SA
HETATM    4  C11 UNL     1      78.383  49.500  35.430  1.00  0.00    -0.013 A 
HETATM    5  C12 UNL     1      77.212  49.101  34.547  1.00  0.00     0.057 C 
HETATM    6  C13 UNL     1      78.358  49.726  36.774  1.00  0.00    -0.025 A 
HETATM    7  C14 UNL     1      77.055  49.572  37.568  1.00  0.00     0.051 C 
ENDROOT
BRANCH   1   8
HETATM    8  S1  UNL     1      79.642  50.456  39.144  1.00  0.00     0.266 S 
HETATM    9  O1  UNL     1      80.498  51.711  39.318  1.00  0.00    -0.200 OA
HETATM   10  O2  UNL     1      80.355  49.378  39.850  1.00  0.00    -0.200 OA
BRANCH   8  11
HETATM   11  N3  UNL     1      78.110  50.857  39.798  1.00  0.00    -0.259 N 
HETATM   12  C5  UNL     1      78.071  51.095  41.090  1.00  0.00     0.174 A 
HETATM   13  N2  UNL     1      76.993  51.423  41.809  1.00  0.00    -0.278 N 
HETATM   14  S3  UNL     1      79.292  51.079  42.285  1.00  0.00    -0.037 SA
HETATM   15  N1  UNL     1      77.129  51.620  43.057  1.00  0.00    -0.296 N 
ATOM     16  H2  UNL     1      76.080  51.514  41.365  1.00  0.00     0.189 HD
HETATM   17  C4  UNL     1      78.320  51.498  43.624  1.00  0.00     0.069 A 
ATOM     18  H1  UNL     1      76.319  51.872  43.623  1.00  0.00     0.187 HD
ATOM     19  H3  UNL     1      77.275  50.909  39.215  1.00  0.00     0.181 HD
BRANCH  17  20
HETATM   20  C3  UNL     1      78.649  51.697  45.083  1.00  0.00     0.066 C 
BRANCH  20  21
HETATM   21  C2  UNL     1      77.582  52.642  45.613  1.00  0.00     0.002 C 
HETATM   22  C1  UNL     1      78.280  53.950  45.968  1.00  0.00     0.005 C 
ENDBRANCH  20  21
ENDBRANCH  17  20
ENDBRANCH   8  11
ENDBRANCH   1   8
BRANCH   2  23
HETATM   23  C8  UNL     1      81.997  50.475  36.980  1.00  0.00     0.025 C 
HETATM   24  C9  UNL     1      82.950  49.732  37.366  1.00  0.00     0.059 C 
BRANCH  24  25
HETATM   25  C10 UNL     1      83.142  48.329  37.578  1.00  0.00     0.159 C 
HETATM   26  N4  UNL     1      82.764  47.785  38.720  1.00  0.00    -0.248 N 
ATOM     27  H4  UNL     1      82.337  48.355  39.450  1.00  0.00     0.196 HD
BRANCH  25  28
HETATM   28  O3  UNL     1      83.702  47.494  36.661  1.00  0.00    -0.345 OA
ATOM     29  H3  UNL     1      83.954  46.597  36.847  1.00  0.00     0.219 HD
ENDBRANCH  25  28
BRANCH  26  30
HETATM   30  O4  UNL     1      82.953  46.452  38.905  1.00  0.00    -0.288 OA
ATOM     31  H4  UNL     1      83.746  46.158  39.337  1.00  0.00     0.244 HD
ENDBRANCH  26  30
ENDBRANCH  24  25
ENDBRANCH   2  23
TORSDOF 8
ENDMDL
