MODEL 1
REMARK VINA RESULT: -6.229345858      0.000      0.000
REMARK  15 active torsions:
REMARK  status: ('A' for Active; 'I' for Inactive)
REMARK    1  A    between atoms: C2_2  and  C3_3 
REMARK    2  A    between atoms: C3_3  and  C4_4 
REMARK    3  A    between atoms: C4_4  and  C5_5 
REMARK    4  A    between atoms: C5_5  and  C6_6 
REMARK    5  A    between atoms: C6_6  and  C7_7 
REMARK    6  A    between atoms: C7_7  and  C8_8 
REMARK    7  A    between atoms: C8_8  and  C9_9 
REMARK    8  A    between atoms: C9_9  and  C10_10 
REMARK    9  A    between atoms: C11_11  and  O1_12 
REMARK   10  A    between atoms: C12_14  and  O2_15 
REMARK   11  A    between atoms: C13_17  and  O3_18 
REMARK   12  A    between atoms: N1_22  and  C16_23 
REMARK   13  A    between atoms: C16_23  and  N2_25 
REMARK   14  A    between atoms: N2_25  and  C17_27 
REMARK   15  A    between atoms: C17_27  and  C18_28 
ROOT
HETATM    1  C10 UNL     1      10.787  41.432  -3.442  1.00  0.00     0.118 C 
HETATM    2  C11 UNL     1      11.119  42.960  -3.552  1.00  0.00     0.172 C 
HETATM    3  C12 UNL     1      10.019  43.498  -4.413  1.00  0.00     0.179 C 
HETATM    4  C13 UNL     1       8.657  43.200  -3.915  1.00  0.00     0.172 C 
HETATM    5  C14 UNL     1       8.420  41.861  -3.316  1.00  0.00     0.114 C 
HETATM    6  C15 UNL     1       8.210  40.840  -4.393  1.00  0.00     0.035 C 
HETATM    7  N1  UNL     1       9.676  41.437  -2.552  1.00  0.00    -0.344 N 
ENDROOT
BRANCH   1   8
HETATM    8  C9  UNL     1      12.046  40.753  -3.143  1.00  0.00     0.028 C 
BRANCH   8   9
HETATM    9  C8  UNL     1      12.991  40.445  -4.238  1.00  0.00     0.002 C 
BRANCH   9  10
HETATM   10  C7  UNL     1      14.117  39.549  -3.981  1.00  0.00     0.000 C 
BRANCH  10  11
HETATM   11  C6  UNL     1      15.520  39.902  -4.207  1.00  0.00     0.000 C 
BRANCH  11  12
HETATM   12  C5  UNL     1      16.350  40.417  -3.113  1.00  0.00     0.000 C 
BRANCH  12  13
HETATM   13  C4  UNL     1      15.850  40.627  -1.755  1.00  0.00     0.000 C 
BRANCH  13  14
HETATM   14  C3  UNL     1      15.832  42.058  -1.266  1.00  0.00    -0.000 C 
BRANCH  14  15
HETATM   15  C2  UNL     1      14.536  42.745  -1.525  1.00  0.00    -0.005 C 
HETATM   16  C1  UNL     1      14.658  43.752  -2.645  1.00  0.00     0.005 C 
ENDBRANCH  14  15
ENDBRANCH  13  14
ENDBRANCH  12  13
ENDBRANCH  11  12
ENDBRANCH  10  11
ENDBRANCH   9  10
ENDBRANCH   8   9
ENDBRANCH   1   8
BRANCH   2  17
HETATM   17  O1  UNL     1      11.073  43.504  -2.294  1.00  0.00    -0.391 OA
ATOM     18  H1  UNL     1      10.163  43.660  -2.068  1.00  0.00     0.210 HD
ENDBRANCH   2  17
BRANCH   7  19
HETATM   19  C16 UNL     1       9.523  41.223  -1.192  1.00  0.00     0.170 C 
HETATM   20  S1  UNL     1       8.100  40.498  -0.693  1.00  0.00    -0.041 SA
BRANCH  19  21
HETATM   21  N2  UNL     1      10.404  41.527  -0.156  1.00  0.00    -0.367 N 
ATOM     22  H2  UNL     1      10.596  42.502   0.076  1.00  0.00     0.161 HD
BRANCH  21  23
HETATM   23  C17 UNL     1      11.067  40.437   0.617  1.00  0.00     0.126 C 
BRANCH  23  24
HETATM   24  C18 UNL     1      12.525  40.333   0.272  1.00  0.00     0.003 A 
HETATM   25  C19 UNL     1      13.469  39.664   1.177  1.00  0.00     0.007 A 
HETATM   26  C20 UNL     1      13.008  38.935  -0.053  1.00  0.00     0.007 A 
ENDBRANCH  23  24
ENDBRANCH  21  23
ENDBRANCH  19  21
ENDBRANCH   7  19
BRANCH   3  27
HETATM   27  O2  UNL     1      10.194  44.876  -4.509  1.00  0.00    -0.390 OA
ATOM     28  H2  UNL     1       9.342  45.264  -4.668  1.00  0.00     0.210 HD
ENDBRANCH   3  27
BRANCH   4  29
HETATM   29  O3  UNL     1       8.271  44.220  -3.030  1.00  0.00    -0.391 OA
ATOM     30  H3  UNL     1       7.342  44.134  -2.855  1.00  0.00     0.210 HD
ENDBRANCH   4  29
TORSDOF 15
ENDMDL
MODEL 2
REMARK VINA RESULT: -5.989124479      1.023      1.407
REMARK  15 active torsions:
REMARK  status: ('A' for Active; 'I' for Inactive)
REMARK    1  A    between atoms: C2_2  and  C3_3 
REMARK    2  A    between atoms: C3_3  and  C4_4 
REMARK    3  A    between atoms: C4_4  and  C5_5 
REMARK    4  A    between atoms: C5_5  and  C6_6 
REMARK    5  A    between atoms: C6_6  and  C7_7 
REMARK    6  A    between atoms: C7_7  and  C8_8 
REMARK    7  A    between atoms: C8_8  and  C9_9 
REMARK    8  A    between atoms: C9_9  and  C10_10 
REMARK    9  A    between atoms: C11_11  and  O1_12 
REMARK   10  A    between atoms: C12_14  and  O2_15 
REMARK   11  A    between atoms: C13_17  and  O3_18 
REMARK   12  A    between atoms: N1_22  and  C16_23 
REMARK   13  A    between atoms: C16_23  and  N2_25 
REMARK   14  A    between atoms: N2_25  and  C17_27 
REMARK   15  A    between atoms: C17_27  and  C18_28 
ROOT
HETATM    1  C10 UNL     1      11.152  41.441  -3.394  1.00  0.00     0.118 C 
HETATM    2  C11 UNL     1      11.639  42.931  -3.419  1.00  0.00     0.172 C 
HETATM    3  C12 UNL     1      10.665  43.606  -4.333  1.00  0.00     0.179 C 
HETATM    4  C13 UNL     1       9.246  43.430  -3.945  1.00  0.00     0.172 C 
HETATM    5  C14 UNL     1       8.836  42.103  -3.419  1.00  0.00     0.114 C 
HETATM    6  C15 UNL     1       8.607  41.144  -4.548  1.00  0.00     0.035 C 
HETATM    7  N1  UNL     1       9.984  41.529  -2.585  1.00  0.00    -0.344 N 
ENDROOT
BRANCH   1   8
HETATM    8  C9  UNL     1      12.312  40.630  -3.034  1.00  0.00     0.028 C 
BRANCH   8   9
HETATM    9  C8  UNL     1      13.157  40.045  -4.098  1.00  0.00     0.002 C 
BRANCH   9  10
HETATM   10  C7  UNL     1      14.480  40.611  -4.355  1.00  0.00     0.000 C 
BRANCH  10  11
HETATM   11  C6  UNL     1      15.689  40.250  -3.613  1.00  0.00     0.000 C 
BRANCH  11  12
HETATM   12  C5  UNL     1      16.198  41.112  -2.542  1.00  0.00     0.000 C 
BRANCH  12  13
HETATM   13  C4  UNL     1      15.564  42.371  -2.154  1.00  0.00     0.000 C 
BRANCH  13  14
HETATM   14  C3  UNL     1      15.136  42.484  -0.706  1.00  0.00    -0.000 C 
BRANCH  14  15
HETATM   15  C2  UNL     1      14.582  41.212  -0.163  1.00  0.00    -0.005 C 
HETATM   16  C1  UNL     1      15.135  40.910   1.210  1.00  0.00     0.005 C 
ENDBRANCH  14  15
ENDBRANCH  13  14
ENDBRANCH  12  13
ENDBRANCH  11  12
ENDBRANCH  10  11
ENDBRANCH   9  10
ENDBRANCH   8   9
ENDBRANCH   1   8
BRANCH   2  17
HETATM   17  O1  UNL     1      11.553  43.436  -2.147  1.00  0.00    -0.391 OA
ATOM     18  H1  UNL     1      10.643  43.414  -1.876  1.00  0.00     0.210 HD
ENDBRANCH   2  17
BRANCH   7  19
HETATM   19  C16 UNL     1       9.709  41.287  -1.249  1.00  0.00     0.170 C 
HETATM   20  S1  UNL     1       8.209  40.643  -0.887  1.00  0.00    -0.041 SA
BRANCH  19  21
HETATM   21  N2  UNL     1      10.522  41.504  -0.138  1.00  0.00    -0.367 N 
ATOM     22  H2  UNL     1      11.185  42.280  -0.139  1.00  0.00     0.161 HD
BRANCH  21  23
HETATM   23  C17 UNL     1      10.429  40.610   1.052  1.00  0.00     0.126 C 
BRANCH  23  24
HETATM   24  C18 UNL     1      11.457  39.516   0.994  1.00  0.00     0.003 A 
HETATM   25  C19 UNL     1      12.123  39.041   2.215  1.00  0.00     0.007 A 
HETATM   26  C20 UNL     1      11.031  38.203   1.614  1.00  0.00     0.007 A 
ENDBRANCH  23  24
ENDBRANCH  21  23
ENDBRANCH  19  21
ENDBRANCH   7  19
BRANCH   3  27
HETATM   27  O2  UNL     1      10.981  44.962  -4.361  1.00  0.00    -0.390 OA
ATOM     28  H2  UNL     1      10.183  45.446  -4.186  1.00  0.00     0.210 HD
ENDBRANCH   3  27
BRANCH   4  29
HETATM   29  O3  UNL     1       8.898  44.454  -3.049  1.00  0.00    -0.391 OA
ATOM     30  H3  UNL     1       8.638  44.060  -2.225  1.00  0.00     0.210 HD
ENDBRANCH   4  29
TORSDOF 15
ENDMDL
MODEL 3
REMARK VINA RESULT: -5.904329831      3.159      5.797
REMARK  15 active torsions:
REMARK  status: ('A' for Active; 'I' for Inactive)
REMARK    1  A    between atoms: C2_2  and  C3_3 
REMARK    2  A    between atoms: C3_3  and  C4_4 
REMARK    3  A    between atoms: C4_4  and  C5_5 
REMARK    4  A    between atoms: C5_5  and  C6_6 
REMARK    5  A    between atoms: C6_6  and  C7_7 
REMARK    6  A    between atoms: C7_7  and  C8_8 
REMARK    7  A    between atoms: C8_8  and  C9_9 
REMARK    8  A    between atoms: C9_9  and  C10_10 
REMARK    9  A    between atoms: C11_11  and  O1_12 
REMARK   10  A    between atoms: C12_14  and  O2_15 
REMARK   11  A    between atoms: C13_17  and  O3_18 
REMARK   12  A    between atoms: N1_22  and  C16_23 
REMARK   13  A    between atoms: C16_23  and  N2_25 
REMARK   14  A    between atoms: N2_25  and  C17_27 
REMARK   15  A    between atoms: C17_27  and  C18_28 
ROOT
HETATM    1  C10 UNL     1      13.525  42.336  -2.316  1.00  0.00     0.118 C 
HETATM    2  C11 UNL     1      13.876  41.169  -3.302  1.00  0.00     0.172 C 
HETATM    3  C12 UNL     1      12.886  40.102  -2.951  1.00  0.00     0.179 C 
HETATM    4  C13 UNL     1      11.474  40.544  -3.001  1.00  0.00     0.172 C 
HETATM    5  C14 UNL     1      11.163  41.911  -2.507  1.00  0.00     0.114 C 
HETATM    6  C15 UNL     1      11.073  41.916  -1.011  1.00  0.00     0.035 C 
HETATM    7  N1  UNL     1      12.319  42.842  -2.878  1.00  0.00    -0.344 N 
ENDROOT
BRANCH   1   8
HETATM    8  C9  UNL     1      14.738  43.140  -2.175  1.00  0.00     0.028 C 
BRANCH   8   9
HETATM    9  C8  UNL     1      15.583  42.987  -0.970  1.00  0.00     0.002 C 
BRANCH   9  10
HETATM   10  C7  UNL     1      15.732  41.666  -0.364  1.00  0.00     0.000 C 
BRANCH  10  11
HETATM   11  C6  UNL     1      14.963  41.195   0.789  1.00  0.00     0.000 C 
BRANCH  11  12
HETATM   12  C5  UNL     1      14.025  40.076   0.659  1.00  0.00     0.000 C 
BRANCH  12  13
HETATM   13  C4  UNL     1      14.438  38.718   0.309  1.00  0.00     0.000 C 
BRANCH  13  14
HETATM   14  C3  UNL     1      15.070  37.906   1.418  1.00  0.00    -0.000 C 
BRANCH  14  15
HETATM   15  C2  UNL     1      14.679  36.469   1.383  1.00  0.00    -0.005 C 
HETATM   16  C1  UNL     1      15.824  35.595   0.930  1.00  0.00     0.005 C 
ENDBRANCH  14  15
ENDBRANCH  13  14
ENDBRANCH  12  13
ENDBRANCH  11  12
ENDBRANCH  10  11
ENDBRANCH   9  10
ENDBRANCH   8   9
ENDBRANCH   1   8
BRANCH   2  17
HETATM   17  O1  UNL     1      13.688  41.615  -4.585  1.00  0.00    -0.391 OA
ATOM     18  H1  UNL     1      14.461  42.099  -4.851  1.00  0.00     0.210 HD
ENDBRANCH   2  17
BRANCH   7  19
HETATM   19  C16 UNL     1      12.008  43.903  -3.712  1.00  0.00     0.170 C 
HETATM   20  S1  UNL     1      10.394  44.321  -3.839  1.00  0.00    -0.041 SA
BRANCH  19  21
HETATM   21  N2  UNL     1      12.866  44.694  -4.474  1.00  0.00    -0.367 N 
ATOM     22  H2  UNL     1      13.461  45.384  -4.015  1.00  0.00     0.161 HD
BRANCH  21  23
HETATM   23  C17 UNL     1      12.919  44.539  -5.957  1.00  0.00     0.126 C 
BRANCH  23  24
HETATM   24  C18 UNL     1      14.322  44.689  -6.471  1.00  0.00     0.003 A 
HETATM   25  C19 UNL     1      14.615  44.576  -7.907  1.00  0.00     0.007 A 
HETATM   26  C20 UNL     1      14.575  45.942  -7.283  1.00  0.00     0.007 A 
ENDBRANCH  23  24
ENDBRANCH  21  23
ENDBRANCH  19  21
ENDBRANCH   7  19
BRANCH   3  27
HETATM   27  O2  UNL     1      13.079  39.041  -3.832  1.00  0.00    -0.390 OA
ATOM     28  H2  UNL     1      13.622  38.398  -3.393  1.00  0.00     0.210 HD
ENDBRANCH   3  27
BRANCH   4  29
HETATM   29  O3  UNL     1      10.994  40.361  -4.308  1.00  0.00    -0.391 OA
ATOM     30  H3  UNL     1      10.539  39.528  -4.349  1.00  0.00     0.210 HD
ENDBRANCH   4  29
TORSDOF 15
ENDMDL
MODEL 4
REMARK VINA RESULT: -5.896042134      3.023      5.345
REMARK  15 active torsions:
REMARK  status: ('A' for Active; 'I' for Inactive)
REMARK    1  A    between atoms: C2_2  and  C3_3 
REMARK    2  A    between atoms: C3_3  and  C4_4 
REMARK    3  A    between atoms: C4_4  and  C5_5 
REMARK    4  A    between atoms: C5_5  and  C6_6 
REMARK    5  A    between atoms: C6_6  and  C7_7 
REMARK    6  A    between atoms: C7_7  and  C8_8 
REMARK    7  A    between atoms: C8_8  and  C9_9 
REMARK    8  A    between atoms: C9_9  and  C10_10 
REMARK    9  A    between atoms: C11_11  and  O1_12 
REMARK   10  A    between atoms: C12_14  and  O2_15 
REMARK   11  A    between atoms: C13_17  and  O3_18 
REMARK   12  A    between atoms: N1_22  and  C16_23 
REMARK   13  A    between atoms: C16_23  and  N2_25 
REMARK   14  A    between atoms: N2_25  and  C17_27 
REMARK   15  A    between atoms: C17_27  and  C18_28 
ROOT
HETATM    1  C10 UNL     1      13.884  40.006  -1.463  1.00  0.00     0.118 C 
HETATM    2  C11 UNL     1      15.055  40.744  -0.729  1.00  0.00     0.172 C 
HETATM    3  C12 UNL     1      16.018  41.061  -1.831  1.00  0.00     0.179 C 
HETATM    4  C13 UNL     1      15.425  41.818  -2.957  1.00  0.00     0.172 C 
HETATM    5  C14 UNL     1      14.047  41.458  -3.378  1.00  0.00     0.114 C 
HETATM    6  C15 UNL     1      14.072  40.243  -4.257  1.00  0.00     0.035 C 
HETATM    7  N1  UNL     1      13.237  41.081  -2.136  1.00  0.00    -0.344 N 
ENDROOT
BRANCH   1   8
HETATM    8  C9  UNL     1      13.219  39.178  -0.459  1.00  0.00     0.028 C 
BRANCH   8   9
HETATM    9  C8  UNL     1      12.204  38.188  -0.880  1.00  0.00     0.002 C 
BRANCH   9  10
HETATM   10  C7  UNL     1      11.776  37.157   0.063  1.00  0.00     0.000 C 
BRANCH  10  11
HETATM   11  C6  UNL     1      12.434  36.883   1.341  1.00  0.00     0.000 C 
BRANCH  11  12
HETATM   12  C5  UNL     1      13.695  36.136   1.392  1.00  0.00     0.000 C 
BRANCH  12  13
HETATM   13  C4  UNL     1      15.009  36.776   1.400  1.00  0.00     0.000 C 
BRANCH  13  14
HETATM   14  C3  UNL     1      15.376  37.529   2.660  1.00  0.00    -0.000 C 
BRANCH  14  15
HETATM   15  C2  UNL     1      15.240  39.006   2.517  1.00  0.00    -0.005 C 
HETATM   16  C1  UNL     1      13.987  39.514   3.189  1.00  0.00     0.005 C 
ENDBRANCH  14  15
ENDBRANCH  13  14
ENDBRANCH  12  13
ENDBRANCH  11  12
ENDBRANCH  10  11
ENDBRANCH   9  10
ENDBRANCH   8   9
ENDBRANCH   1   8
BRANCH   2  17
HETATM   17  O1  UNL     1      14.558  41.891  -0.164  1.00  0.00    -0.391 OA
ATOM     18  H1  UNL     1      15.029  42.056   0.644  1.00  0.00     0.210 HD
ENDBRANCH   2  17
BRANCH   7  19
HETATM   19  C16 UNL     1      12.126  41.863  -1.868  1.00  0.00     0.170 C 
HETATM   20  S1  UNL     1      11.543  42.809  -3.120  1.00  0.00    -0.041 SA
BRANCH  19  21
HETATM   21  N2  UNL     1      11.404  41.977  -0.681  1.00  0.00    -0.367 N 
ATOM     22  H2  UNL     1      11.731  42.607   0.052  1.00  0.00     0.161 HD
BRANCH  21  23
HETATM   23  C17 UNL     1      10.156  41.185  -0.477  1.00  0.00     0.126 C 
BRANCH  23  24
HETATM   24  C18 UNL     1       9.819  41.066   0.982  1.00  0.00     0.003 A 
HETATM   25  C19 UNL     1       8.430  40.876   1.422  1.00  0.00     0.007 A 
HETATM   26  C20 UNL     1       9.357  39.693   1.422  1.00  0.00     0.007 A 
ENDBRANCH  23  24
ENDBRANCH  21  23
ENDBRANCH  19  21
ENDBRANCH   7  19
BRANCH   3  27
HETATM   27  O2  UNL     1      17.070  41.787  -1.277  1.00  0.00    -0.390 OA
ATOM     28  H2  UNL     1      17.815  41.704  -1.860  1.00  0.00     0.210 HD
ENDBRANCH   3  27
BRANCH   4  29
HETATM   29  O3  UNL     1      15.520  43.190  -2.672  1.00  0.00    -0.391 OA
ATOM     30  H3  UNL     1      16.011  43.610  -3.368  1.00  0.00     0.210 HD
ENDBRANCH   4  29
TORSDOF 15
ENDMDL
MODEL 5
REMARK VINA RESULT: -5.827988880      7.164      9.593
REMARK  15 active torsions:
REMARK  status: ('A' for Active; 'I' for Inactive)
REMARK    1  A    between atoms: C2_2  and  C3_3 
REMARK    2  A    between atoms: C3_3  and  C4_4 
REMARK    3  A    between atoms: C4_4  and  C5_5 
REMARK    4  A    between atoms: C5_5  and  C6_6 
REMARK    5  A    between atoms: C6_6  and  C7_7 
REMARK    6  A    between atoms: C7_7  and  C8_8 
REMARK    7  A    between atoms: C8_8  and  C9_9 
REMARK    8  A    between atoms: C9_9  and  C10_10 
REMARK    9  A    between atoms: C11_11  and  O1_12 
REMARK   10  A    between atoms: C12_14  and  O2_15 
REMARK   11  A    between atoms: C13_17  and  O3_18 
REMARK   12  A    between atoms: N1_22  and  C16_23 
REMARK   13  A    between atoms: C16_23  and  N2_25 
REMARK   14  A    between atoms: N2_25  and  C17_27 
REMARK   15  A    between atoms: C17_27  and  C18_28 
ROOT
HETATM    1  C10 UNL     1       1.443  40.953  -1.995  1.00  0.00     0.118 C 
HETATM    2  C11 UNL     1       0.062  41.420  -1.420  1.00  0.00     0.172 C 
HETATM    3  C12 UNL     1      -0.937  40.707  -2.278  1.00  0.00     0.179 C 
HETATM    4  C13 UNL     1      -0.756  39.237  -2.326  1.00  0.00     0.172 C 
HETATM    5  C14 UNL     1       0.634  38.716  -2.372  1.00  0.00     0.114 C 
HETATM    6  C15 UNL     1       1.171  38.790  -3.769  1.00  0.00     0.035 C 
HETATM    7  N1  UNL     1       1.525  39.616  -1.513  1.00  0.00    -0.344 N 
ENDROOT
BRANCH   1   8
HETATM    8  C9  UNL     1       2.412  41.988  -1.644  1.00  0.00     0.028 C 
BRANCH   8   9
HETATM    9  C8  UNL     1       3.613  42.185  -2.485  1.00  0.00     0.002 C 
BRANCH   9  10
HETATM   10  C7  UNL     1       3.677  41.551  -3.800  1.00  0.00     0.000 C 
BRANCH  10  11
HETATM   11  C6  UNL     1       4.863  41.552  -4.659  1.00  0.00     0.000 C 
BRANCH  11  12
HETATM   12  C5  UNL     1       6.209  41.493  -4.082  1.00  0.00     0.000 C 
BRANCH  12  13
HETATM   13  C4  UNL     1       7.134  40.383  -4.309  1.00  0.00     0.000 C 
BRANCH  13  14
HETATM   14  C3  UNL     1       6.504  39.024  -4.520  1.00  0.00    -0.000 C 
BRANCH  14  15
HETATM   15  C2  UNL     1       6.236  38.302  -3.244  1.00  0.00    -0.005 C 
HETATM   16  C1  UNL     1       4.758  38.070  -3.039  1.00  0.00     0.005 C 
ENDBRANCH  14  15
ENDBRANCH  13  14
ENDBRANCH  12  13
ENDBRANCH  11  12
ENDBRANCH  10  11
ENDBRANCH   9  10
ENDBRANCH   8   9
ENDBRANCH   1   8
BRANCH   2  17
HETATM   17  O1  UNL     1      -0.024  41.008  -0.115  1.00  0.00    -0.391 OA
ATOM     18  H1  UNL     1      -0.075  41.777   0.440  1.00  0.00     0.210 HD
ENDBRANCH   2  17
BRANCH   7  19
HETATM   19  C16 UNL     1       2.151  39.011  -0.436  1.00  0.00     0.170 C 
HETATM   20  S1  UNL     1       1.932  37.362  -0.259  1.00  0.00    -0.041 SA
BRANCH  19  21
HETATM   21  N2  UNL     1       2.958  39.589   0.542  1.00  0.00    -0.367 N 
ATOM     22  H2  UNL     1       2.541  40.188   1.254  1.00  0.00     0.161 HD
BRANCH  21  23
HETATM   23  C17 UNL     1       4.428  39.337   0.554  1.00  0.00     0.126 C 
BRANCH  23  24
HETATM   24  C18 UNL     1       5.202  40.624   0.566  1.00  0.00     0.003 A 
HETATM   25  C19 UNL     1       6.589  40.666   1.050  1.00  0.00     0.007 A 
HETATM   26  C20 UNL     1       6.339  40.696  -0.431  1.00  0.00     0.007 A 
ENDBRANCH  23  24
ENDBRANCH  21  23
ENDBRANCH  19  21
ENDBRANCH   7  19
BRANCH   3  27
HETATM   27  O2  UNL     1      -2.205  41.009  -1.789  1.00  0.00    -0.390 OA
ATOM     28  H2  UNL     1      -2.566  41.699  -2.333  1.00  0.00     0.210 HD
ENDBRANCH   3  27
BRANCH   4  29
HETATM   29  O3  UNL     1      -1.472  38.664  -1.262  1.00  0.00    -0.391 OA
ATOM     30  H3  UNL     1      -2.353  39.020  -1.264  1.00  0.00     0.210 HD
ENDBRANCH   4  29
TORSDOF 15
ENDMDL
