MODEL 1
REMARK VINA RESULT: -6.774173486      0.000      0.000
REMARK  9 active torsions:
REMARK  status: ('A' for Active; 'I' for Inactive)
REMARK    1  A    between atoms: N1_1  and  C1_4 
REMARK    2  A    between atoms: C2_5  and  C3_6 
REMARK    3  A    between atoms: C3_6  and  C4_8 
REMARK    4  A    between atoms: C3_6  and  C14_28 
REMARK    5  A    between atoms: N2_9  and  C5_11 
REMARK    6  A    between atoms: C5_11  and  C6_12 
REMARK    7  A    between atoms: C6_12  and  C7_13 
REMARK    8  A    between atoms: C7_13  and  N3_14 
REMARK       I    between atoms: C8_16  and  N5_18 
REMARK    9  A    between atoms: N5_18  and  C9_20 
ROOT
HETATM    1  C7  UNL     1     -10.762 -24.162   4.008  1.00  0.00     0.123 C 
ENDROOT
BRANCH   1   2
HETATM    2  C6  UNL     1      -9.761 -24.921   4.874  1.00  0.00     0.039 C 
BRANCH   2   3
HETATM    3  C5  UNL     1      -9.343 -26.140   4.043  1.00  0.00     0.120 C 
BRANCH   3   4
HETATM    4  N2  UNL     1      -9.117 -25.662   2.712  1.00  0.00    -0.400 N 
HETATM    5  C4  UNL     1      -8.953 -26.510   1.775  1.00  0.00     0.090 C 
ATOM      6  H2  UNL     1      -9.086 -24.660   2.518  1.00  0.00     0.158 HD
BRANCH   5   7
HETATM    7  C3  UNL     1      -8.722 -25.967   0.413  1.00  0.00     0.123 C 
HETATM    8 BR1  UNL     1      -9.698 -24.328   0.140  1.00  0.00    -0.064 Br
BRANCH   7   9
HETATM    9  C2  UNL     1      -7.300 -25.669   0.262  1.00  0.00    -0.056 C 
HETATM   10  C1  UNL     1      -6.126 -25.440   0.124  1.00  0.00     0.005 C 
BRANCH  10  11
HETATM   11  N1  UNL     1      -4.770 -25.185  -0.058  1.00  0.00    -0.359 N 
ATOM     12  H12 UNL     1      -5.570 -25.482  -0.616  1.00  0.00     0.166 HD
ATOM     13  H11 UNL     1      -3.775 -24.994  -0.174  1.00  0.00     0.166 HD
ENDBRANCH  10  11
ENDBRANCH   7   9
BRANCH   7  14
HETATM   14  C14 UNL     1      -9.159 -27.028  -0.579  1.00  0.00     0.125 C 
HETATM   15 BR3  UNL     1      -9.821 -28.534   0.466  1.00  0.00    -0.093 Br
ENDBRANCH   7  14
ENDBRANCH   5   7
ENDBRANCH   3   4
ENDBRANCH   2   3
ENDBRANCH   1   2
BRANCH   1  16
HETATM   16  N3  UNL     1     -11.889 -23.709   4.787  1.00  0.00    -0.364 N 
HETATM   17  C8  UNL     1     -12.955 -24.436   4.789  1.00  0.00     0.189 C 
HETATM   18  N4  UNL     1     -14.044 -23.959   5.568  1.00  0.00    -0.063 NA
HETATM   19  N5  UNL     1     -13.026 -25.651   4.048  1.00  0.00    -0.317 N 
ATOM     20  H5  UNL     1     -12.771 -26.523   4.511  1.00  0.00     0.170 HD
ATOM     21  H3  UNL     1     -11.844 -22.841   5.320  1.00  0.00     0.162 HD
BRANCH  19  22
HETATM   22  C9  UNL     1     -13.400 -25.691   2.816  1.00  0.00     0.107 A 
HETATM   23  C10 UNL     1     -12.575 -26.191   1.848  1.00  0.00     0.050 A 
HETATM   24  C11 UNL     1     -13.005 -26.218   0.550  1.00  0.00     0.024 A 
HETATM   25  C12 UNL     1     -14.264 -25.746   0.214  1.00  0.00     0.026 A 
HETATM   26 BR2  UNL     1     -14.795 -25.813  -1.601  1.00  0.00    -0.050 Br
HETATM   27  C13 UNL     1     -15.059 -25.251   1.229  1.00  0.00     0.108 A 
HETATM   28  N6  UNL     1     -14.638 -25.226   2.492  1.00  0.00    -0.351 N 
ATOM     29  H6  UNL     1     -15.247 -24.855   3.222  1.00  0.00     0.166 HD
ENDBRANCH  19  22
ENDBRANCH   1  16
TORSDOF 9
ENDMDL
MODEL 2
REMARK VINA RESULT: -6.671944212      2.880      6.934
REMARK  9 active torsions:
REMARK  status: ('A' for Active; 'I' for Inactive)
REMARK    1  A    between atoms: N1_1  and  C1_4 
REMARK    2  A    between atoms: C2_5  and  C3_6 
REMARK    3  A    between atoms: C3_6  and  C4_8 
REMARK    4  A    between atoms: C3_6  and  C14_28 
REMARK    5  A    between atoms: N2_9  and  C5_11 
REMARK    6  A    between atoms: C5_11  and  C6_12 
REMARK    7  A    between atoms: C6_12  and  C7_13 
REMARK    8  A    between atoms: C7_13  and  N3_14 
REMARK       I    between atoms: C8_16  and  N5_18 
REMARK    9  A    between atoms: N5_18  and  C9_20 
ROOT
HETATM    1  C7  UNL     1      -9.831 -29.122   1.866  1.00  0.00     0.123 C 
ENDROOT
BRANCH   1   2
HETATM    2  C6  UNL     1      -9.945 -29.247   0.350  1.00  0.00     0.039 C 
BRANCH   2   3
HETATM    3  C5  UNL     1      -9.346 -27.953  -0.214  1.00  0.00     0.120 C 
BRANCH   3   4
HETATM    4  N2  UNL     1     -10.278 -26.910   0.097  1.00  0.00    -0.400 N 
HETATM    5  C4  UNL     1     -11.309 -26.770  -0.639  1.00  0.00     0.090 C 
ATOM      6  H2  UNL     1     -10.118 -26.290   0.892  1.00  0.00     0.158 HD
BRANCH   5   7
HETATM    7  C3  UNL     1     -12.246 -25.676  -0.278  1.00  0.00     0.123 C 
HETATM    8 BR1  UNL     1     -13.855 -25.758  -1.334  1.00  0.00    -0.064 Br
BRANCH   7   9
HETATM    9  C2  UNL     1     -12.624 -25.826   1.124  1.00  0.00    -0.056 C 
HETATM   10  C1  UNL     1     -12.934 -25.928   2.284  1.00  0.00     0.005 C 
BRANCH  10  11
HETATM   11  N1  UNL     1     -13.299 -26.024   3.623  1.00  0.00    -0.359 N 
ATOM     12  H12 UNL     1     -13.473 -26.520   2.750  1.00  0.00     0.166 HD
ATOM     13  H11 UNL     1     -13.556 -26.079   4.609  1.00  0.00     0.166 HD
ENDBRANCH  10  11
ENDBRANCH   7   9
BRANCH   7  14
HETATM   14  C14 UNL     1     -11.518 -24.363  -0.503  1.00  0.00     0.125 C 
HETATM   15 BR3  UNL     1     -11.182 -24.230  -2.418  1.00  0.00    -0.093 Br
ENDBRANCH   7  14
ENDBRANCH   5   7
ENDBRANCH   3   4
ENDBRANCH   2   3
ENDBRANCH   1   2
BRANCH   1  16
HETATM   16  N3  UNL     1      -8.997 -30.163   2.415  1.00  0.00    -0.364 N 
HETATM   17  C8  UNL     1      -7.972 -29.811   3.115  1.00  0.00     0.189 C 
HETATM   18  N4  UNL     1      -7.174 -30.863   3.640  1.00  0.00    -0.063 NA
HETATM   19  N5  UNL     1      -7.665 -28.439   3.344  1.00  0.00    -0.317 N 
ATOM     20  H5  UNL     1      -8.037 -27.987   4.180  1.00  0.00     0.170 HD
ATOM     21  H3  UNL     1      -9.211 -31.147   2.254  1.00  0.00     0.162 HD
BRANCH  19  22
HETATM   22  C9  UNL     1      -6.938 -27.746   2.539  1.00  0.00     0.107 A 
HETATM   23  C10 UNL     1      -7.158 -26.408   2.369  1.00  0.00     0.050 A 
HETATM   24  C11 UNL     1      -6.366 -25.703   1.505  1.00  0.00     0.024 A 
HETATM   25  C12 UNL     1      -5.349 -26.334   0.806  1.00  0.00     0.026 A 
HETATM   26 BR2  UNL     1      -4.292 -25.299  -0.373  1.00  0.00    -0.050 Br
HETATM   27  C13 UNL     1      -5.168 -27.688   1.013  1.00  0.00     0.108 A 
HETATM   28  N6  UNL     1      -5.940 -28.371   1.855  1.00  0.00    -0.351 N 
ATOM     29  H6  UNL     1      -5.783 -29.370   1.989  1.00  0.00     0.166 HD
ENDBRANCH  19  22
ENDBRANCH   1  16
TORSDOF 9
ENDMDL
MODEL 3
REMARK VINA RESULT: -6.664517342      3.336      6.361
REMARK  9 active torsions:
REMARK  status: ('A' for Active; 'I' for Inactive)
REMARK    1  A    between atoms: N1_1  and  C1_4 
REMARK    2  A    between atoms: C2_5  and  C3_6 
REMARK    3  A    between atoms: C3_6  and  C4_8 
REMARK    4  A    between atoms: C3_6  and  C14_28 
REMARK    5  A    between atoms: N2_9  and  C5_11 
REMARK    6  A    between atoms: C5_11  and  C6_12 
REMARK    7  A    between atoms: C6_12  and  C7_13 
REMARK    8  A    between atoms: C7_13  and  N3_14 
REMARK       I    between atoms: C8_16  and  N5_18 
REMARK    9  A    between atoms: N5_18  and  C9_20 
ROOT
HETATM    1  C7  UNL     1      -8.815 -26.031   3.293  1.00  0.00     0.123 C 
ENDROOT
BRANCH   1   2
HETATM    2  C6  UNL     1      -9.547 -25.312   4.423  1.00  0.00     0.039 C 
BRANCH   2   3
HETATM    3  C5  UNL     1     -10.657 -24.503   3.743  1.00  0.00     0.120 C 
BRANCH   3   4
HETATM    4  N2  UNL     1     -11.408 -23.886   4.795  1.00  0.00    -0.400 N 
HETATM    5  C4  UNL     1     -12.348 -24.547   5.346  1.00  0.00     0.090 C 
ATOM      6  H2  UNL     1     -11.195 -22.935   5.098  1.00  0.00     0.158 HD
BRANCH   5   7
HETATM    7  C3  UNL     1     -13.098 -23.867   6.431  1.00  0.00     0.123 C 
HETATM    8 BR1  UNL     1     -11.973 -23.544   7.961  1.00  0.00    -0.064 Br
BRANCH   7   9
HETATM    9  C2  UNL     1     -13.565 -22.574   5.940  1.00  0.00    -0.056 C 
HETATM   10  C1  UNL     1     -13.937 -21.509   5.518  1.00  0.00     0.005 C 
BRANCH  10  11
HETATM   11  N1  UNL     1     -14.362 -20.286   5.007  1.00  0.00    -0.359 N 
ATOM     12  H12 UNL     1     -14.334 -21.263   4.718  1.00  0.00     0.166 HD
ATOM     13  H11 UNL     1     -14.669 -19.382   4.648  1.00  0.00     0.166 HD
ENDBRANCH  10  11
ENDBRANCH   7   9
BRANCH   7  14
HETATM   14  C14 UNL     1     -14.270 -24.758   6.801  1.00  0.00     0.125 C 
HETATM   15 BR3  UNL     1     -15.578 -23.623   7.694  1.00  0.00    -0.093 Br
ENDBRANCH   7  14
ENDBRANCH   5   7
ENDBRANCH   3   4
ENDBRANCH   2   3
ENDBRANCH   1   2
BRANCH   1  16
HETATM   16  N3  UNL     1      -8.907 -27.463   3.439  1.00  0.00    -0.364 N 
HETATM   17  C8  UNL     1      -9.078 -28.170   2.373  1.00  0.00     0.189 C 
HETATM   18  N4  UNL     1      -9.163 -29.577   2.556  1.00  0.00    -0.063 NA
HETATM   19  N5  UNL     1      -9.175 -27.564   1.088  1.00  0.00    -0.317 N 
ATOM     20  H5  UNL     1      -8.325 -27.450   0.535  1.00  0.00     0.170 HD
ATOM     21  H3  UNL     1      -8.839 -27.903   4.357  1.00  0.00     0.162 HD
BRANCH  19  22
HETATM   22  C9  UNL     1     -10.292 -27.154   0.596  1.00  0.00     0.107 A 
HETATM   23  C10 UNL     1     -11.349 -26.854   1.408  1.00  0.00     0.050 A 
HETATM   24  C11 UNL     1     -12.520 -26.423   0.850  1.00  0.00     0.024 A 
HETATM   25  C12 UNL     1     -12.641 -26.288  -0.524  1.00  0.00     0.026 A 
HETATM   26 BR2  UNL     1     -14.290 -25.686  -1.228  1.00  0.00    -0.050 Br
HETATM   27  C13 UNL     1     -11.543 -26.605  -1.301  1.00  0.00     0.108 A 
HETATM   28  N6  UNL     1     -10.404 -27.025  -0.756  1.00  0.00    -0.351 N 
ATOM     29  H6  UNL     1      -9.609 -27.251  -1.354  1.00  0.00     0.166 HD
ENDBRANCH  19  22
ENDBRANCH   1  16
TORSDOF 9
ENDMDL
MODEL 4
REMARK VINA RESULT: -6.662292966      3.921      7.415
REMARK  9 active torsions:
REMARK  status: ('A' for Active; 'I' for Inactive)
REMARK    1  A    between atoms: N1_1  and  C1_4 
REMARK    2  A    between atoms: C2_5  and  C3_6 
REMARK    3  A    between atoms: C3_6  and  C4_8 
REMARK    4  A    between atoms: C3_6  and  C14_28 
REMARK    5  A    between atoms: N2_9  and  C5_11 
REMARK    6  A    between atoms: C5_11  and  C6_12 
REMARK    7  A    between atoms: C6_12  and  C7_13 
REMARK    8  A    between atoms: C7_13  and  N3_14 
REMARK       I    between atoms: C8_16  and  N5_18 
REMARK    9  A    between atoms: N5_18  and  C9_20 
ROOT
HETATM    1  C7  UNL     1     -13.569 -25.717   1.084  1.00  0.00     0.123 C 
ENDROOT
BRANCH   1   2
HETATM    2  C6  UNL     1     -14.422 -25.107   2.192  1.00  0.00     0.039 C 
BRANCH   2   3
HETATM    3  C5  UNL     1     -13.776 -25.566   3.505  1.00  0.00     0.120 C 
BRANCH   3   4
HETATM    4  N2  UNL     1     -13.840 -24.447   4.397  1.00  0.00    -0.400 N 
HETATM    5  C4  UNL     1     -13.899 -24.666   5.651  1.00  0.00     0.090 C 
ATOM      6  H2  UNL     1     -13.838 -23.493   4.035  1.00  0.00     0.158 HD
BRANCH   5   7
HETATM    7  C3  UNL     1     -13.963 -23.476   6.536  1.00  0.00     0.123 C 
HETATM    8 BR1  UNL     1     -14.063 -21.848   5.510  1.00  0.00    -0.064 Br
BRANCH   7   9
HETATM    9  C2  UNL     1     -15.171 -23.563   7.352  1.00  0.00    -0.056 C 
HETATM   10  C1  UNL     1     -16.155 -23.630   8.043  1.00  0.00     0.005 C 
BRANCH  10  11
HETATM   11  N1  UNL     1     -17.283 -23.691   8.856  1.00  0.00    -0.359 N 
ATOM     12  H12 UNL     1     -16.340 -24.078   8.832  1.00  0.00     0.166 HD
ATOM     13  H11 UNL     1     -18.118 -23.725   9.441  1.00  0.00     0.166 HD
ENDBRANCH  10  11
ENDBRANCH   7   9
BRANCH   7  14
HETATM   14  C14 UNL     1     -12.721 -23.490   7.407  1.00  0.00     0.125 C 
HETATM   15 BR3  UNL     1     -11.497 -22.170   6.661  1.00  0.00    -0.093 Br
ENDBRANCH   7  14
ENDBRANCH   5   7
ENDBRANCH   3   4
ENDBRANCH   2   3
ENDBRANCH   1   2
BRANCH   1  16
HETATM   16  N3  UNL     1     -12.359 -24.959   0.879  1.00  0.00    -0.364 N 
HETATM   17  C8  UNL     1     -12.081 -24.575  -0.321  1.00  0.00     0.189 C 
HETATM   18  N4  UNL     1     -10.882 -23.830  -0.485  1.00  0.00    -0.063 NA
HETATM   19  N5  UNL     1     -12.937 -24.884  -1.417  1.00  0.00    -0.317 N 
ATOM     20  H5  UNL     1     -13.664 -24.216  -1.673  1.00  0.00     0.170 HD
ATOM     21  H3  UNL     1     -11.741 -24.735   1.659  1.00  0.00     0.162 HD
BRANCH  19  22
HETATM   22  C9  UNL     1     -12.830 -25.973  -2.096  1.00  0.00     0.107 A 
HETATM   23  C10 UNL     1     -13.887 -26.460  -2.812  1.00  0.00     0.050 A 
HETATM   24  C11 UNL     1     -13.737 -27.619  -3.521  1.00  0.00     0.024 A 
HETATM   25  C12 UNL     1     -12.529 -28.298  -3.518  1.00  0.00     0.026 A 
HETATM   26 BR2  UNL     1     -12.392 -29.896  -4.521  1.00  0.00    -0.050 Br
HETATM   27  C13 UNL     1     -11.492 -27.764  -2.778  1.00  0.00     0.108 A 
HETATM   28  N6  UNL     1     -11.640 -26.635  -2.088  1.00  0.00    -0.351 N 
ATOM     29  H6  UNL     1     -10.857 -26.263  -1.551  1.00  0.00     0.166 HD
ENDBRANCH  19  22
ENDBRANCH   1  16
TORSDOF 9
ENDMDL
MODEL 5
REMARK VINA RESULT: -6.660093083      1.623      2.188
REMARK  9 active torsions:
REMARK  status: ('A' for Active; 'I' for Inactive)
REMARK    1  A    between atoms: N1_1  and  C1_4 
REMARK    2  A    between atoms: C2_5  and  C3_6 
REMARK    3  A    between atoms: C3_6  and  C4_8 
REMARK    4  A    between atoms: C3_6  and  C14_28 
REMARK    5  A    between atoms: N2_9  and  C5_11 
REMARK    6  A    between atoms: C5_11  and  C6_12 
REMARK    7  A    between atoms: C6_12  and  C7_13 
REMARK    8  A    between atoms: C7_13  and  N3_14 
REMARK       I    between atoms: C8_16  and  N5_18 
REMARK    9  A    between atoms: N5_18  and  C9_20 
ROOT
HETATM    1  C7  UNL     1     -10.731 -24.147   4.001  1.00  0.00     0.123 C 
ENDROOT
BRANCH   1   2
HETATM    2  C6  UNL     1      -9.752 -24.928   4.871  1.00  0.00     0.039 C 
BRANCH   2   3
HETATM    3  C5  UNL     1      -9.394 -26.180   4.062  1.00  0.00     0.120 C 
BRANCH   3   4
HETATM    4  N2  UNL     1      -8.849 -25.716   2.822  1.00  0.00    -0.400 N 
HETATM    5  C4  UNL     1      -8.549 -26.570   1.925  1.00  0.00     0.090 C 
ATOM      6  H2  UNL     1      -8.702 -24.719   2.659  1.00  0.00     0.158 HD
BRANCH   5   7
HETATM    7  C3  UNL     1      -7.987 -26.041   0.657  1.00  0.00     0.123 C 
HETATM    8 BR1  UNL     1      -7.562 -27.467  -0.566  1.00  0.00    -0.064 Br
BRANCH   7   9
HETATM    9  C2  UNL     1      -8.988 -25.190   0.019  1.00  0.00    -0.056 C 
HETATM   10  C1  UNL     1      -9.824 -24.506  -0.514  1.00  0.00     0.005 C 
BRANCH  10  11
HETATM   11  N1  UNL     1     -10.805 -23.734  -1.128  1.00  0.00    -0.359 N 
ATOM     12  H12 UNL     1     -10.174 -23.669  -0.330  1.00  0.00     0.166 HD
ATOM     13  H11 UNL     1     -11.527 -23.180  -1.590  1.00  0.00     0.166 HD
ENDBRANCH  10  11
ENDBRANCH   7   9
BRANCH   7  14
HETATM   14  C14 UNL     1      -6.746 -25.243   1.009  1.00  0.00     0.125 C 
HETATM   15 BR3  UNL     1      -5.364 -26.533   1.483  1.00  0.00    -0.093 Br
ENDBRANCH   7  14
ENDBRANCH   5   7
ENDBRANCH   3   4
ENDBRANCH   2   3
ENDBRANCH   1   2
BRANCH   1  16
HETATM   16  N3  UNL     1     -11.866 -23.695   4.768  1.00  0.00    -0.364 N 
HETATM   17  C8  UNL     1     -12.932 -24.422   4.758  1.00  0.00     0.189 C 
HETATM   18  N4  UNL     1     -14.029 -23.946   5.525  1.00  0.00    -0.063 NA
HETATM   19  N5  UNL     1     -12.995 -25.636   4.016  1.00  0.00    -0.317 N 
ATOM     20  H5  UNL     1     -12.745 -26.508   4.482  1.00  0.00     0.170 HD
ATOM     21  H3  UNL     1     -11.827 -22.826   5.301  1.00  0.00     0.162 HD
BRANCH  19  22
HETATM   22  C9  UNL     1     -13.356 -25.677   2.781  1.00  0.00     0.107 A 
HETATM   23  C10 UNL     1     -12.510 -26.150   1.818  1.00  0.00     0.050 A 
HETATM   24  C11 UNL     1     -12.927 -26.178   0.516  1.00  0.00     0.024 A 
HETATM   25  C12 UNL     1     -14.193 -25.734   0.170  1.00  0.00     0.026 A 
HETATM   26 BR2  UNL     1     -14.705 -25.801  -1.650  1.00  0.00    -0.050 Br
HETATM   27  C13 UNL     1     -15.010 -25.265   1.181  1.00  0.00     0.108 A 
HETATM   28  N6  UNL     1     -14.602 -25.239   2.448  1.00  0.00    -0.351 N 
ATOM     29  H6  UNL     1     -15.227 -24.888   3.174  1.00  0.00     0.166 HD
ENDBRANCH  19  22
ENDBRANCH   1  16
TORSDOF 9
ENDMDL
