MODEL 1
REMARK VINA RESULT: -8.363044472      0.000      0.000
REMARK  12 active torsions:
REMARK  status: ('A' for Active; 'I' for Inactive)
REMARK    1  A    between atoms: C1_2  and  O2_3 
REMARK    2  A    between atoms: C1_2  and  C19_32 
REMARK    3  A    between atoms: O2_3  and  C2_4 
REMARK    4  A    between atoms: C3_6  and  C4_7 
REMARK    5  A    between atoms: C5_10  and  C6_11 
REMARK    6  A    between atoms: C10_16  and  C11_17 
REMARK    7  A    between atoms: C11_17  and  N1_18 
REMARK    8  A    between atoms: N1_18  and  S2_19 
REMARK    9  A    between atoms: S2_19  and  C12_22 
REMARK   10  A    between atoms: C17_27  and  O6_28 
REMARK   11  A    between atoms: O6_28  and  C18_29 
REMARK   12  A    between atoms: C18_29  and  O7_30 
ROOT
HETATM    1  C2  UNL     1      -0.764  -1.474  16.895  1.00  0.00     0.134 A 
HETATM    2  S1  UNL     1      -1.357  -2.408  15.613  1.00  0.00    -0.062 SA
HETATM    3  C3  UNL     1      -2.391  -1.222  14.884  1.00  0.00     0.063 A 
HETATM    4  C5  UNL     1      -2.234  -0.131  15.670  1.00  0.00     0.032 A 
HETATM    5  C10 UNL     1      -1.364  -0.272  16.744  1.00  0.00     0.049 A 
ENDROOT
BRANCH   5   6
HETATM    6  C11 UNL     1      -1.045   0.825  17.733  1.00  0.00     0.213 C 
BRANCH   6   7
HETATM    7  N1  UNL     1      -0.577   1.878  17.571  1.00  0.00    -0.331 NA
BRANCH   7   8
HETATM    8  S2  UNL     1       0.064   3.331  17.240  1.00  0.00     0.327 S 
HETATM    9  O4  UNL     1       0.983   3.363  16.014  1.00  0.00    -0.186 OA
HETATM   10  O5  UNL     1      -0.985   4.426  17.107  1.00  0.00    -0.186 OA
BRANCH   8  11
HETATM   11  C12 UNL     1       1.107   3.899  18.549  1.00  0.00     0.126 A 
HETATM   12  C13 UNL     1       2.366   4.369  18.280  1.00  0.00     0.029 A 
HETATM   13  C14 UNL     1       3.180   4.824  19.331  1.00  0.00     0.002 A 
HETATM   14  C15 UNL     1       2.723   4.801  20.634  1.00  0.00     0.003 A 
HETATM   15  C16 UNL     1       1.465   4.328  20.889  1.00  0.00     0.038 A 
HETATM   16  C17 UNL     1       0.650   3.874  19.843  1.00  0.00     0.096 A 
BRANCH  16  17
HETATM   17  O6  UNL     1      -0.606   3.405  20.125  1.00  0.00    -0.325 OA
BRANCH  17  18
HETATM   18  C18 UNL     1      -1.726   4.167  20.483  1.00  0.00     0.341 C 
BRANCH  18  19
HETATM   19  O7  UNL     1      -1.395   5.459  20.910  1.00  0.00    -0.377 OA
ATOM     20  H7  UNL     1      -1.764   6.138  20.358  1.00  0.00     0.212 HD
ENDBRANCH  18  19
ENDBRANCH  17  18
ENDBRANCH  16  17
ENDBRANCH   8  11
ENDBRANCH   7   8
ENDBRANCH   6   7
ENDBRANCH   5   6
BRANCH   1  21
HETATM   21  O2  UNL     1       0.170  -1.936  17.884  1.00  0.00    -0.266 OA
BRANCH  21  22
HETATM   22  C1  UNL     1       1.491  -1.453  17.772  1.00  0.00     0.299 C 
HETATM   23  O1  UNL     1       2.013  -1.587  16.609  1.00  0.00    -0.259 OA
BRANCH  22  24
HETATM   24  C19 UNL     1       2.256  -0.846  18.824  1.00  0.00     0.040 A 
HETATM   25  C20 UNL     1       2.738  -1.595  19.864  1.00  0.00     0.017 A 
HETATM   26  C21 UNL     1       3.485  -0.995  20.886  1.00  0.00     0.001 A 
HETATM   27  C22 UNL     1       3.749   0.356  20.865  1.00  0.00     0.000 A 
HETATM   28  C23 UNL     1       3.270   1.103  19.832  1.00  0.00     0.001 A 
HETATM   29  C24 UNL     1       2.534   0.502  18.828  1.00  0.00     0.017 A 
ENDBRANCH  22  24
ENDBRANCH  21  22
ENDBRANCH   1  21
BRANCH   4  30
HETATM   30  C6  UNL     1      -2.982   1.136  15.404  1.00  0.00     0.087 A 
HETATM   31  C7  UNL     1      -4.244   1.522  15.660  1.00  0.00     0.040 A 
HETATM   32  C8  UNL     1      -4.425   2.837  15.199  1.00  0.00     0.027 A 
HETATM   33  C9  UNL     1      -3.214   3.182  14.672  1.00  0.00     0.142 A 
HETATM   34  O3  UNL     1      -2.409   2.183  14.806  1.00  0.00    -0.322 OA
ENDBRANCH   4  30
BRANCH   3  35
HETATM   35  C4  UNL     1      -3.221  -1.528  13.662  1.00  0.00     0.394 C 
HETATM   36  F1  UNL     1      -4.535  -1.552  14.044  1.00  0.00    -0.208 F 
HETATM   37  F2  UNL     1      -2.914  -0.666  12.680  1.00  0.00    -0.208 F 
ENDBRANCH   3  35
TORSDOF 12
ENDMDL
MODEL 2
REMARK VINA RESULT: -8.039921954      4.040      6.005
REMARK  12 active torsions:
REMARK  status: ('A' for Active; 'I' for Inactive)
REMARK    1  A    between atoms: C1_2  and  O2_3 
REMARK    2  A    between atoms: C1_2  and  C19_32 
REMARK    3  A    between atoms: O2_3  and  C2_4 
REMARK    4  A    between atoms: C3_6  and  C4_7 
REMARK    5  A    between atoms: C5_10  and  C6_11 
REMARK    6  A    between atoms: C10_16  and  C11_17 
REMARK    7  A    between atoms: C11_17  and  N1_18 
REMARK    8  A    between atoms: N1_18  and  S2_19 
REMARK    9  A    between atoms: S2_19  and  C12_22 
REMARK   10  A    between atoms: C17_27  and  O6_28 
REMARK   11  A    between atoms: O6_28  and  C18_29 
REMARK   12  A    between atoms: C18_29  and  O7_30 
ROOT
HETATM    1  C2  UNL     1       3.935  -0.653  21.334  1.00  0.00     0.134 A 
HETATM    2  S1  UNL     1       3.610  -2.305  21.148  1.00  0.00    -0.062 SA
HETATM    3  C3  UNL     1       2.658  -2.220  19.701  1.00  0.00     0.063 A 
HETATM    4  C5  UNL     1       2.629  -0.898  19.411  1.00  0.00     0.032 A 
HETATM    5  C10 UNL     1       3.313  -0.065  20.288  1.00  0.00     0.049 A 
ENDROOT
BRANCH   5   6
HETATM    6  C11 UNL     1       3.409   1.436  20.139  1.00  0.00     0.213 C 
BRANCH   6   7
HETATM    7  N1  UNL     1       2.583   2.255  20.175  1.00  0.00    -0.331 NA
BRANCH   7   8
HETATM    8  S2  UNL     1       1.424   3.389  20.119  1.00  0.00     0.327 S 
HETATM    9  O4  UNL     1       0.130   3.021  20.854  1.00  0.00    -0.186 OA
HETATM   10  O5  UNL     1       1.902   4.751  20.601  1.00  0.00    -0.186 OA
BRANCH   8  11
HETATM   11  C12 UNL     1       0.883   3.689  18.464  1.00  0.00     0.126 A 
HETATM   12  C13 UNL     1      -0.453   3.796  18.178  1.00  0.00     0.029 A 
HETATM   13  C14 UNL     1      -0.866   4.043  16.857  1.00  0.00     0.002 A 
HETATM   14  C15 UNL     1       0.063   4.178  15.844  1.00  0.00     0.003 A 
HETATM   15  C16 UNL     1       1.393   4.067  16.143  1.00  0.00     0.038 A 
HETATM   16  C17 UNL     1       1.808   3.822  17.459  1.00  0.00     0.096 A 
BRANCH  16  17
HETATM   17  O6  UNL     1       3.146   3.716  17.732  1.00  0.00    -0.325 OA
BRANCH  17  18
HETATM   18  C18 UNL     1       4.057   4.768  17.891  1.00  0.00     0.341 C 
BRANCH  18  19
HETATM   19  O7  UNL     1       5.188   4.406  18.633  1.00  0.00    -0.377 OA
ATOM     20  H7  UNL     1       5.958   4.916  18.410  1.00  0.00     0.212 HD
ENDBRANCH  18  19
ENDBRANCH  17  18
ENDBRANCH  16  17
ENDBRANCH   8  11
ENDBRANCH   7   8
ENDBRANCH   6   7
ENDBRANCH   5   6
BRANCH   1  21
HETATM   21  O2  UNL     1       4.710  -0.084  22.402  1.00  0.00    -0.266 OA
BRANCH  21  22
HETATM   22  C1  UNL     1       5.893  -0.771  22.750  1.00  0.00     0.299 C 
HETATM   23  O1  UNL     1       6.713  -0.950  21.783  1.00  0.00    -0.259 OA
BRANCH  22  24
HETATM   24  C19 UNL     1       6.226  -1.259  24.059  1.00  0.00     0.040 A 
HETATM   25  C20 UNL     1       6.143  -0.442  25.155  1.00  0.00     0.017 A 
HETATM   26  C21 UNL     1       6.468  -0.927  26.428  1.00  0.00     0.001 A 
HETATM   27  C22 UNL     1       6.875  -2.231  26.603  1.00  0.00     0.000 A 
HETATM   28  C23 UNL     1       6.957  -3.044  25.514  1.00  0.00     0.001 A 
HETATM   29  C24 UNL     1       6.634  -2.557  24.261  1.00  0.00     0.017 A 
ENDBRANCH  22  24
ENDBRANCH  21  22
ENDBRANCH   1  21
BRANCH   4  30
HETATM   30  C6  UNL     1       1.877  -0.375  18.228  1.00  0.00     0.087 A 
HETATM   31  C7  UNL     1       0.590  -0.033  18.043  1.00  0.00     0.040 A 
HETATM   32  C8  UNL     1       0.419   0.412  16.721  1.00  0.00     0.027 A 
HETATM   33  C9  UNL     1       1.660   0.309  16.164  1.00  0.00     0.142 A 
HETATM   34  O3  UNL     1       2.474  -0.146  17.056  1.00  0.00    -0.322 OA
ENDBRANCH   4  30
BRANCH   3  35
HETATM   35  C4  UNL     1       2.059  -3.450  19.065  1.00  0.00     0.394 C 
HETATM   36  F1  UNL     1       0.699  -3.360  19.178  1.00  0.00    -0.208 F 
HETATM   37  F2  UNL     1       2.534  -3.590  17.817  1.00  0.00    -0.208 F 
ENDBRANCH   3  35
TORSDOF 12
ENDMDL
MODEL 3
REMARK VINA RESULT: -7.971449489      1.852      5.000
REMARK  12 active torsions:
REMARK  status: ('A' for Active; 'I' for Inactive)
REMARK    1  A    between atoms: C1_2  and  O2_3 
REMARK    2  A    between atoms: C1_2  and  C19_32 
REMARK    3  A    between atoms: O2_3  and  C2_4 
REMARK    4  A    between atoms: C3_6  and  C4_7 
REMARK    5  A    between atoms: C5_10  and  C6_11 
REMARK    6  A    between atoms: C10_16  and  C11_17 
REMARK    7  A    between atoms: C11_17  and  N1_18 
REMARK    8  A    between atoms: N1_18  and  S2_19 
REMARK    9  A    between atoms: S2_19  and  C12_22 
REMARK   10  A    between atoms: C17_27  and  O6_28 
REMARK   11  A    between atoms: O6_28  and  C18_29 
REMARK   12  A    between atoms: C18_29  and  O7_30 
ROOT
HETATM    1  C2  UNL     1      -1.567   1.507  17.839  1.00  0.00     0.134 A 
HETATM    2  S1  UNL     1      -1.948   2.708  16.706  1.00  0.00    -0.062 SA
HETATM    3  C3  UNL     1      -2.928   1.755  15.639  1.00  0.00     0.063 A 
HETATM    4  C5  UNL     1      -2.925   0.527  16.208  1.00  0.00     0.032 A 
HETATM    5  C10 UNL     1      -2.195   0.401  17.384  1.00  0.00     0.049 A 
ENDROOT
BRANCH   5   6
HETATM    6  C11 UNL     1      -2.072  -0.879  18.178  1.00  0.00     0.213 C 
BRANCH   6   7
HETATM    7  N1  UNL     1      -1.130  -1.470  18.520  1.00  0.00    -0.331 NA
BRANCH   7   8
HETATM    8  S2  UNL     1       0.235  -2.201  19.008  1.00  0.00     0.327 S 
HETATM    9  O4  UNL     1       0.090  -3.048  20.277  1.00  0.00    -0.186 OA
HETATM   10  O5  UNL     1       0.880  -3.043  17.917  1.00  0.00    -0.186 OA
BRANCH   8  11
HETATM   11  C12 UNL     1       1.486  -1.030  19.439  1.00  0.00     0.126 A 
HETATM   12  C13 UNL     1       2.005  -1.002  20.706  1.00  0.00     0.029 A 
HETATM   13  C14 UNL     1       3.006  -0.070  21.030  1.00  0.00     0.002 A 
HETATM   14  C15 UNL     1       3.470   0.820  20.081  1.00  0.00     0.003 A 
HETATM   15  C16 UNL     1       2.943   0.781  18.820  1.00  0.00     0.038 A 
HETATM   16  C17 UNL     1       1.946  -0.147  18.493  1.00  0.00     0.096 A 
BRANCH  16  17
HETATM   17  O6  UNL     1       1.434  -0.165  17.223  1.00  0.00    -0.325 OA
BRANCH  17  18
HETATM   18  C18 UNL     1       2.135  -0.431  16.039  1.00  0.00     0.341 C 
BRANCH  18  19
HETATM   19  O7  UNL     1       2.803  -1.661  16.063  1.00  0.00    -0.377 OA
ATOM     20  H7  UNL     1       2.799  -2.102  15.222  1.00  0.00     0.212 HD
ENDBRANCH  18  19
ENDBRANCH  17  18
ENDBRANCH  16  17
ENDBRANCH   8  11
ENDBRANCH   7   8
ENDBRANCH   6   7
ENDBRANCH   5   6
BRANCH   1  21
HETATM   21  O2  UNL     1      -0.747   1.707  19.001  1.00  0.00    -0.266 OA
BRANCH  21  22
HETATM   22  C1  UNL     1      -0.440   3.045  19.328  1.00  0.00     0.299 C 
HETATM   23  O1  UNL     1      -1.413   3.711  19.826  1.00  0.00    -0.259 OA
BRANCH  22  24
HETATM   24  C19 UNL     1       0.835   3.681  19.150  1.00  0.00     0.040 A 
HETATM   25  C20 UNL     1       1.589   4.059  20.230  1.00  0.00     0.017 A 
HETATM   26  C21 UNL     1       2.832   4.677  20.047  1.00  0.00     0.001 A 
HETATM   27  C22 UNL     1       3.320   4.917  18.783  1.00  0.00     0.000 A 
HETATM   28  C23 UNL     1       2.572   4.543  17.708  1.00  0.00     0.001 A 
HETATM   29  C24 UNL     1       1.346   3.933  17.898  1.00  0.00     0.017 A 
ENDBRANCH  22  24
ENDBRANCH  21  22
ENDBRANCH   1  21
BRANCH   4  30
HETATM   30  C6  UNL     1      -3.646  -0.625  15.583  1.00  0.00     0.087 A 
HETATM   31  C7  UNL     1      -4.891  -1.112  15.731  1.00  0.00     0.040 A 
HETATM   32  C8  UNL     1      -5.053  -2.221  14.884  1.00  0.00     0.027 A 
HETATM   33  C9  UNL     1      -3.852  -2.343  14.249  1.00  0.00     0.142 A 
HETATM   34  O3  UNL     1      -3.067  -1.411  14.673  1.00  0.00    -0.322 OA
ENDBRANCH   4  30
BRANCH   3  35
HETATM   35  C4  UNL     1      -3.544   2.333  14.389  1.00  0.00     0.394 C 
HETATM   36  F1  UNL     1      -3.012   1.672  13.316  1.00  0.00    -0.208 F 
HETATM   37  F2  UNL     1      -4.882   2.303  14.489  1.00  0.00    -0.208 F 
ENDBRANCH   3  35
TORSDOF 12
ENDMDL
MODEL 4
REMARK VINA RESULT: -7.870963193      2.875      6.461
REMARK  12 active torsions:
REMARK  status: ('A' for Active; 'I' for Inactive)
REMARK    1  A    between atoms: C1_2  and  O2_3 
REMARK    2  A    between atoms: C1_2  and  C19_32 
REMARK    3  A    between atoms: O2_3  and  C2_4 
REMARK    4  A    between atoms: C3_6  and  C4_7 
REMARK    5  A    between atoms: C5_10  and  C6_11 
REMARK    6  A    between atoms: C10_16  and  C11_17 
REMARK    7  A    between atoms: C11_17  and  N1_18 
REMARK    8  A    between atoms: N1_18  and  S2_19 
REMARK    9  A    between atoms: S2_19  and  C12_22 
REMARK   10  A    between atoms: C17_27  and  O6_28 
REMARK   11  A    between atoms: O6_28  and  C18_29 
REMARK   12  A    between atoms: C18_29  and  O7_30 
ROOT
HETATM    1  C2  UNL     1      -2.864  -0.485  17.650  1.00  0.00     0.134 A 
HETATM    2  S1  UNL     1      -3.226  -1.997  18.322  1.00  0.00    -0.062 SA
HETATM    3  C3  UNL     1      -1.711  -2.300  19.110  1.00  0.00     0.063 A 
HETATM    4  C5  UNL     1      -0.972  -1.203  18.821  1.00  0.00     0.032 A 
HETATM    5  C10 UNL     1      -1.594  -0.237  18.039  1.00  0.00     0.049 A 
ENDROOT
BRANCH   5   6
HETATM    6  C11 UNL     1      -0.948   1.061  17.613  1.00  0.00     0.213 C 
BRANCH   6   7
HETATM    7  N1  UNL     1      -0.640   1.994  18.236  1.00  0.00    -0.331 NA
BRANCH   7   8
HETATM    8  S2  UNL     1      -0.203   3.232  19.190  1.00  0.00     0.327 S 
HETATM    9  O4  UNL     1      -1.134   4.448  19.132  1.00  0.00    -0.186 OA
HETATM   10  O5  UNL     1      -0.009   2.822  20.643  1.00  0.00    -0.186 OA
BRANCH   8  11
HETATM   11  C12 UNL     1       1.366   3.896  18.722  1.00  0.00     0.126 A 
HETATM   12  C13 UNL     1       2.301   4.208  19.674  1.00  0.00     0.029 A 
HETATM   13  C14 UNL     1       3.547   4.727  19.283  1.00  0.00     0.002 A 
HETATM   14  C15 UNL     1       3.838   4.927  17.948  1.00  0.00     0.003 A 
HETATM   15  C16 UNL     1       2.896   4.612  17.008  1.00  0.00     0.038 A 
HETATM   16  C17 UNL     1       1.653   4.093  17.394  1.00  0.00     0.096 A 
BRANCH  16  17
HETATM   17  O6  UNL     1       0.726   3.786  16.433  1.00  0.00    -0.325 OA
BRANCH  17  18
HETATM   18  C18 UNL     1      -0.136   4.679  15.782  1.00  0.00     0.341 C 
BRANCH  18  19
HETATM   19  O7  UNL     1      -1.481   4.487  16.123  1.00  0.00    -0.377 OA
ATOM     20  H7  UNL     1      -1.972   4.027  15.452  1.00  0.00     0.212 HD
ENDBRANCH  18  19
ENDBRANCH  17  18
ENDBRANCH  16  17
ENDBRANCH   8  11
ENDBRANCH   7   8
ENDBRANCH   6   7
ENDBRANCH   5   6
BRANCH   1  21
HETATM   21  O2  UNL     1      -3.767   0.295  16.851  1.00  0.00    -0.266 OA
BRANCH  21  22
HETATM   22  C1  UNL     1      -4.082  -0.223  15.577  1.00  0.00     0.299 C 
HETATM   23  O1  UNL     1      -3.104  -0.245  14.751  1.00  0.00    -0.259 OA
BRANCH  22  24
HETATM   24  C19 UNL     1      -5.368  -0.709  15.162  1.00  0.00     0.040 A 
HETATM   25  C20 UNL     1      -6.064  -0.087  14.159  1.00  0.00     0.017 A 
HETATM   26  C21 UNL     1      -7.317  -0.570  13.760  1.00  0.00     0.001 A 
HETATM   27  C22 UNL     1      -7.872  -1.674  14.364  1.00  0.00     0.000 A 
HETATM   28  C23 UNL     1      -7.182  -2.293  15.362  1.00  0.00     0.001 A 
HETATM   29  C24 UNL     1      -5.946  -1.811  15.749  1.00  0.00     0.017 A 
ENDBRANCH  22  24
ENDBRANCH  21  22
ENDBRANCH   1  21
BRANCH   4  30
HETATM   30  C6  UNL     1       0.439  -1.065  19.298  1.00  0.00     0.087 A 
HETATM   31  C7  UNL     1       0.978  -0.556  20.419  1.00  0.00     0.040 A 
HETATM   32  C8  UNL     1       2.376  -0.689  20.357  1.00  0.00     0.027 A 
HETATM   33  C9  UNL     1       2.608  -1.294  19.157  1.00  0.00     0.142 A 
HETATM   34  O3  UNL     1       1.474  -1.496  18.574  1.00  0.00    -0.322 OA
ENDBRANCH   4  30
BRANCH   3  35
HETATM   35  C4  UNL     1      -1.451  -3.570  19.882  1.00  0.00     0.394 C 
HETATM   36  F1  UNL     1      -0.491  -4.278  19.211  1.00  0.00    -0.208 F 
HETATM   37  F2  UNL     1      -1.172  -3.273  21.160  1.00  0.00    -0.208 F 
ENDBRANCH   3  35
TORSDOF 12
ENDMDL
MODEL 5
REMARK VINA RESULT: -7.859350893      2.708      6.075
REMARK  12 active torsions:
REMARK  status: ('A' for Active; 'I' for Inactive)
REMARK    1  A    between atoms: C1_2  and  O2_3 
REMARK    2  A    between atoms: C1_2  and  C19_32 
REMARK    3  A    between atoms: O2_3  and  C2_4 
REMARK    4  A    between atoms: C3_6  and  C4_7 
REMARK    5  A    between atoms: C5_10  and  C6_11 
REMARK    6  A    between atoms: C10_16  and  C11_17 
REMARK    7  A    between atoms: C11_17  and  N1_18 
REMARK    8  A    between atoms: N1_18  and  S2_19 
REMARK    9  A    between atoms: S2_19  and  C12_22 
REMARK   10  A    between atoms: C17_27  and  O6_28 
REMARK   11  A    between atoms: O6_28  and  C18_29 
REMARK   12  A    between atoms: C18_29  and  O7_30 
ROOT
HETATM    1  C2  UNL     1       0.090  -1.282  17.090  1.00  0.00     0.134 A 
HETATM    2  S1  UNL     1      -0.808  -2.343  18.056  1.00  0.00    -0.062 SA
HETATM    3  C3  UNL     1       0.203  -2.329  19.466  1.00  0.00     0.063 A 
HETATM    4  C5  UNL     1       1.211  -1.489  19.131  1.00  0.00     0.032 A 
HETATM    5  C10 UNL     1       1.145  -0.933  17.859  1.00  0.00     0.049 A 
ENDROOT
BRANCH   5   6
HETATM    6  C11 UNL     1       2.163   0.031  17.297  1.00  0.00     0.213 C 
BRANCH   6   7
HETATM    7  N1  UNL     1       2.299   1.174  17.469  1.00  0.00    -0.331 NA
BRANCH   7   8
HETATM    8  S2  UNL     1       2.455   2.753  17.810  1.00  0.00     0.327 S 
HETATM    9  O4  UNL     1       3.678   3.108  18.663  1.00  0.00    -0.186 OA
HETATM   10  O5  UNL     1       2.442   3.632  16.567  1.00  0.00    -0.186 OA
BRANCH   8  11
HETATM   11  C12 UNL     1       1.098   3.352  18.769  1.00  0.00     0.126 A 
HETATM   12  C13 UNL     1       1.281   3.724  20.076  1.00  0.00     0.029 A 
HETATM   13  C14 UNL     1       0.193   4.206  20.822  1.00  0.00     0.002 A 
HETATM   14  C15 UNL     1      -1.061   4.307  20.252  1.00  0.00     0.003 A 
HETATM   15  C16 UNL     1      -1.229   3.932  18.947  1.00  0.00     0.038 A 
HETATM   16  C17 UNL     1      -0.147   3.453  18.200  1.00  0.00     0.096 A 
BRANCH  16  17
HETATM   17  O6  UNL     1      -0.342   3.083  16.895  1.00  0.00    -0.325 OA
BRANCH  17  18
HETATM   18  C18 UNL     1      -0.944   3.849  15.887  1.00  0.00     0.341 C 
BRANCH  18  19
HETATM   19  O7  UNL     1      -0.274   5.054  15.641  1.00  0.00    -0.377 OA
ATOM     20  H7  UNL     1       0.015   5.141  14.740  1.00  0.00     0.212 HD
ENDBRANCH  18  19
ENDBRANCH  17  18
ENDBRANCH  16  17
ENDBRANCH   8  11
ENDBRANCH   7   8
ENDBRANCH   6   7
ENDBRANCH   5   6
BRANCH   1  21
HETATM   21  O2  UNL     1      -0.263  -0.892  15.753  1.00  0.00    -0.266 OA
BRANCH  21  22
HETATM   22  C1  UNL     1      -1.635  -0.939  15.429  1.00  0.00     0.299 C 
HETATM   23  O1  UNL     1      -2.045  -2.074  15.000  1.00  0.00    -0.259 OA
BRANCH  22  24
HETATM   24  C19 UNL     1      -2.564   0.150  15.545  1.00  0.00     0.040 A 
HETATM   25  C20 UNL     1      -2.860   0.693  16.767  1.00  0.00     0.017 A 
HETATM   26  C21 UNL     1      -3.766   1.757  16.871  1.00  0.00     0.001 A 
HETATM   27  C22 UNL     1      -4.373   2.277  15.750  1.00  0.00     0.000 A 
HETATM   28  C23 UNL     1      -4.079   1.738  14.534  1.00  0.00     0.001 A 
HETATM   29  C24 UNL     1      -3.184   0.689  14.442  1.00  0.00     0.017 A 
ENDBRANCH  22  24
ENDBRANCH  21  22
ENDBRANCH   1  21
BRANCH   4  30
HETATM   30  C6  UNL     1       2.337  -1.208  20.074  1.00  0.00     0.087 A 
HETATM   31  C7  UNL     1       2.702  -0.110  20.758  1.00  0.00     0.040 A 
HETATM   32  C8  UNL     1       3.851  -0.400  21.514  1.00  0.00     0.027 A 
HETATM   33  C9  UNL     1       4.122  -1.707  21.231  1.00  0.00     0.142 A 
HETATM   34  O3  UNL     1       3.234  -2.140  20.402  1.00  0.00    -0.322 OA
ENDBRANCH   4  30
BRANCH   3  35
HETATM   35  C4  UNL     1      -0.119  -3.151  20.689  1.00  0.00     0.394 C 
HETATM   36  F1  UNL     1      -0.089  -2.318  21.773  1.00  0.00    -0.208 F 
HETATM   37  F2  UNL     1      -1.267  -3.818  20.496  1.00  0.00    -0.208 F 
ENDBRANCH   3  35
TORSDOF 12
ENDMDL
