MODEL 1
REMARK VINA RESULT: -7.063750841      0.000      0.000
REMARK  13 active torsions:
REMARK  status: ('A' for Active; 'I' for Inactive)
REMARK    1  A    between atoms: C3_3  and  C4_4 
REMARK    2  A    between atoms: C4_4  and  O2_6 
REMARK    3  A    between atoms: O2_6  and  C5_7 
REMARK    4  A    between atoms: C5_7  and  O3_9 
REMARK    5  A    between atoms: O3_9  and  C7_10 
REMARK    6  A    between atoms: C7_10  and  C8_11 
REMARK    7  A    between atoms: C7_10  and  O4_17 
REMARK    8  A    between atoms: C8_11  and  C9_12 
REMARK    9  A    between atoms: C9_12  and  C10_13 
REMARK   10  A    between atoms: C10_13  and  C11_14 
REMARK   11  A    between atoms: C11_14  and  C12_15 
REMARK   12  A    between atoms: O4_17  and  C14_18 
REMARK   13  A    between atoms: C25_34  and  O8_35 
ROOT
HETATM    1  C1  UNL     1       1.423   1.344  16.533  1.00  0.00     0.016 C 
HETATM    2  C2  UNL     1       0.514   1.995  17.261  1.00  0.00    -0.062 C 
HETATM    3  C3  UNL     1       0.970   2.363  18.609  1.00  0.00     0.142 C 
HETATM    4  C16 UNL     1       0.610   3.772  18.972  1.00  0.00     0.199 C 
HETATM    5 CL1  UNL     1       0.974   3.999  20.726  1.00  0.00    -0.113 Cl
HETATM    6  C17 UNL     1      -0.822   4.102  18.821  1.00  0.00     0.279 C 
HETATM    7  O6  UNL     1      -1.545   4.228  19.866  1.00  0.00    -0.263 OA
HETATM    8  O7  UNL     1      -1.432   4.288  17.596  1.00  0.00    -0.305 OA
HETATM    9  C18 UNL     1      -1.198   3.608  16.379  1.00  0.00     0.105 C 
HETATM   10  C19 UNL     1      -0.119   4.293  15.535  1.00  0.00     0.050 C 
HETATM   11  C20 UNL     1      -0.785   2.192  16.563  1.00  0.00     0.080 C 
HETATM   12  C21 UNL     1      -1.900   1.416  17.181  1.00  0.00    -0.075 C 
HETATM   13  C22 UNL     1      -1.695   0.527  18.383  1.00  0.00     0.044 C 
HETATM   14  C23 UNL     1      -3.092   1.540  16.614  1.00  0.00    -0.001 C 
HETATM   15  C24 UNL     1      -3.224   2.423  15.431  1.00  0.00     0.137 C 
HETATM   16 CL2  UNL     1      -2.835   1.574  13.921  1.00  0.00    -0.118 Cl
HETATM   17  C25 UNL     1      -2.487   3.701  15.590  1.00  0.00     0.176 C 
ENDROOT
BRANCH   3  18
HETATM   18  C4  UNL     1       2.441   2.225  18.782  1.00  0.00     0.271 C 
HETATM   19  O1  UNL     1       3.245   2.901  18.093  1.00  0.00    -0.264 OA
BRANCH  18  20
HETATM   20  O2  UNL     1       3.017   1.350  19.705  1.00  0.00    -0.289 OA
BRANCH  20  21
HETATM   21  C5  UNL     1       2.808  -0.032  19.688  1.00  0.00     0.268 C 
HETATM   22  C6  UNL     1       3.513  -0.644  20.888  1.00  0.00     0.071 C 
BRANCH  21  23
HETATM   23  O3  UNL     1       1.474  -0.402  19.633  1.00  0.00    -0.331 OA
BRANCH  23  24
HETATM   24  C7  UNL     1       1.311  -1.721  19.239  1.00  0.00     0.272 C 
BRANCH  24  25
HETATM   25  C8  UNL     1       1.584  -1.886  17.763  1.00  0.00     0.061 C 
BRANCH  25  26
HETATM   26  C9  UNL     1       0.331  -2.365  17.070  1.00  0.00     0.005 C 
BRANCH  26  27
HETATM   27  C10 UNL     1       0.249  -1.897  15.653  1.00  0.00     0.000 C 
BRANCH  27  28
HETATM   28  C11 UNL     1      -1.175  -1.535  15.248  1.00  0.00    -0.000 C 
BRANCH  28  29
HETATM   29  C12 UNL     1      -2.081  -2.416  16.118  1.00  0.00    -0.005 C 
HETATM   30  C13 UNL     1      -3.505  -2.029  15.818  1.00  0.00     0.005 C 
ENDBRANCH  28  29
ENDBRANCH  27  28
ENDBRANCH  26  27
ENDBRANCH  25  26
ENDBRANCH  24  25
BRANCH  24  31
HETATM   31  O4  UNL     1       0.033  -2.200  19.600  1.00  0.00    -0.290 OA
BRANCH  31  32
HETATM   32  C14 UNL     1      -0.167  -2.995  20.708  1.00  0.00     0.257 C 
HETATM   33  C15 UNL     1       0.980  -3.737  21.332  1.00  0.00     0.126 C 
HETATM   34  O5  UNL     1      -1.311  -3.113  21.216  1.00  0.00    -0.266 OA
ENDBRANCH  31  32
ENDBRANCH  24  31
ENDBRANCH  23  24
ENDBRANCH  21  23
ENDBRANCH  20  21
ENDBRANCH  18  20
ENDBRANCH   3  18
BRANCH  17  35
HETATM   35  O8  UNL     1      -2.263   4.238  14.299  1.00  0.00    -0.391 OA
ATOM     36  H8  UNL     1      -2.984   4.041  13.712  1.00  0.00     0.210 HD
ENDBRANCH  17  35
TORSDOF 13
ENDMDL
MODEL 2
REMARK VINA RESULT: -6.849647104      2.973      6.337
REMARK  13 active torsions:
REMARK  status: ('A' for Active; 'I' for Inactive)
REMARK    1  A    between atoms: C3_3  and  C4_4 
REMARK    2  A    between atoms: C4_4  and  O2_6 
REMARK    3  A    between atoms: O2_6  and  C5_7 
REMARK    4  A    between atoms: C5_7  and  O3_9 
REMARK    5  A    between atoms: O3_9  and  C7_10 
REMARK    6  A    between atoms: C7_10  and  C8_11 
REMARK    7  A    between atoms: C7_10  and  O4_17 
REMARK    8  A    between atoms: C8_11  and  C9_12 
REMARK    9  A    between atoms: C9_12  and  C10_13 
REMARK   10  A    between atoms: C10_13  and  C11_14 
REMARK   11  A    between atoms: C11_14  and  C12_15 
REMARK   12  A    between atoms: O4_17  and  C14_18 
REMARK   13  A    between atoms: C25_34  and  O8_35 
ROOT
HETATM    1  C1  UNL     1      -0.248  -0.147  15.694  1.00  0.00     0.016 C 
HETATM    2  C2  UNL     1      -0.336  -1.422  16.078  1.00  0.00    -0.062 C 
HETATM    3  C3  UNL     1       0.962  -2.091  16.252  1.00  0.00     0.142 C 
HETATM    4  C16 UNL     1       1.026  -2.900  17.512  1.00  0.00     0.199 C 
HETATM    5 CL1  UNL     1       2.543  -3.876  17.463  1.00  0.00    -0.113 Cl
HETATM    6  C17 UNL     1      -0.068  -3.879  17.675  1.00  0.00     0.279 C 
HETATM    7  O6  UNL     1       0.181  -5.121  17.514  1.00  0.00    -0.263 OA
HETATM    8  O7  UNL     1      -1.362  -3.523  17.998  1.00  0.00    -0.305 OA
HETATM    9  C18 UNL     1      -2.097  -2.387  17.587  1.00  0.00     0.105 C 
HETATM   10  C19 UNL     1      -1.920  -1.208  18.549  1.00  0.00     0.050 C 
HETATM   11  C20 UNL     1      -1.733  -1.909  16.227  1.00  0.00     0.080 C 
HETATM   12  C21 UNL     1      -2.100  -2.941  15.213  1.00  0.00    -0.075 C 
HETATM   13  C22 UNL     1      -1.133  -3.412  14.155  1.00  0.00     0.044 C 
HETATM   14  C23 UNL     1      -3.332  -3.426  15.282  1.00  0.00    -0.001 C 
HETATM   15  C24 UNL     1      -4.235  -2.914  16.340  1.00  0.00     0.137 C 
HETATM   16 CL2  UNL     1      -5.077  -1.434  15.837  1.00  0.00    -0.118 Cl
HETATM   17  C25 UNL     1      -3.556  -2.783  17.653  1.00  0.00     0.176 C 
ENDROOT
BRANCH   3  18
HETATM   18  C4  UNL     1       2.106  -1.141  16.278  1.00  0.00     0.271 C 
HETATM   19  O1  UNL     1       2.760  -0.878  15.238  1.00  0.00    -0.264 OA
BRANCH  18  20
HETATM   20  O2  UNL     1       2.523  -0.489  17.440  1.00  0.00    -0.289 OA
BRANCH  20  21
HETATM   21  C5  UNL     1       2.158   0.822  17.759  1.00  0.00     0.268 C 
HETATM   22  C6  UNL     1       2.559   1.101  19.199  1.00  0.00     0.071 C 
BRANCH  21  23
HETATM   23  O3  UNL     1       2.662   1.778  16.892  1.00  0.00    -0.331 OA
BRANCH  23  24
HETATM   24  C7  UNL     1       2.209   3.052  17.194  1.00  0.00     0.272 C 
BRANCH  24  25
HETATM   25  C8  UNL     1       1.032   3.431  16.327  1.00  0.00     0.061 C 
BRANCH  25  26
HETATM   26  C9  UNL     1      -0.085   3.958  17.195  1.00  0.00     0.005 C 
BRANCH  26  27
HETATM   27  C10 UNL     1      -1.051   2.889  17.592  1.00  0.00     0.000 C 
BRANCH  27  28
HETATM   28  C11 UNL     1      -0.941   2.533  19.070  1.00  0.00    -0.000 C 
BRANCH  28  29
HETATM   29  C12 UNL     1      -0.416   3.802  19.755  1.00  0.00    -0.005 C 
HETATM   30  C13 UNL     1      -1.572   4.424  20.491  1.00  0.00     0.005 C 
ENDBRANCH  28  29
ENDBRANCH  27  28
ENDBRANCH  26  27
ENDBRANCH  25  26
ENDBRANCH  24  25
BRANCH  24  31
HETATM   31  O4  UNL     1       3.258   3.993  17.107  1.00  0.00    -0.290 OA
BRANCH  31  32
HETATM   32  C14 UNL     1       3.916   4.465  18.223  1.00  0.00     0.257 C 
HETATM   33  C15 UNL     1       3.147   4.883  19.443  1.00  0.00     0.126 C 
HETATM   34  O5  UNL     1       5.170   4.553  18.240  1.00  0.00    -0.266 OA
ENDBRANCH  31  32
ENDBRANCH  24  31
ENDBRANCH  23  24
ENDBRANCH  21  23
ENDBRANCH  20  21
ENDBRANCH  18  20
ENDBRANCH   3  18
BRANCH  17  35
HETATM   35  O8  UNL     1      -4.302  -1.872  18.440  1.00  0.00    -0.391 OA
ATOM     36  H8  UNL     1      -5.002  -2.313  18.909  1.00  0.00     0.210 HD
ENDBRANCH  17  35
TORSDOF 13
ENDMDL
MODEL 3
REMARK VINA RESULT: -6.823285444      3.085      6.234
REMARK  13 active torsions:
REMARK  status: ('A' for Active; 'I' for Inactive)
REMARK    1  A    between atoms: C3_3  and  C4_4 
REMARK    2  A    between atoms: C4_4  and  O2_6 
REMARK    3  A    between atoms: O2_6  and  C5_7 
REMARK    4  A    between atoms: C5_7  and  O3_9 
REMARK    5  A    between atoms: O3_9  and  C7_10 
REMARK    6  A    between atoms: C7_10  and  C8_11 
REMARK    7  A    between atoms: C7_10  and  O4_17 
REMARK    8  A    between atoms: C8_11  and  C9_12 
REMARK    9  A    between atoms: C9_12  and  C10_13 
REMARK   10  A    between atoms: C10_13  and  C11_14 
REMARK   11  A    between atoms: C11_14  and  C12_15 
REMARK   12  A    between atoms: O4_17  and  C14_18 
REMARK   13  A    between atoms: C25_34  and  O8_35 
ROOT
HETATM    1  C1  UNL     1      -2.863   0.173  16.708  1.00  0.00     0.016 C 
HETATM    2  C2  UNL     1      -2.804  -0.773  15.769  1.00  0.00    -0.062 C 
HETATM    3  C3  UNL     1      -1.447  -1.270  15.498  1.00  0.00     0.142 C 
HETATM    4  C16 UNL     1      -1.392  -2.766  15.401  1.00  0.00     0.199 C 
HETATM    5 CL1  UNL     1       0.248  -3.218  14.798  1.00  0.00    -0.113 Cl
HETATM    6  C17 UNL     1      -2.343  -3.358  14.439  1.00  0.00     0.279 C 
HETATM    7  O6  UNL     1      -1.902  -3.817  13.332  1.00  0.00    -0.263 OA
HETATM    8  O7  UNL     1      -3.701  -3.447  14.672  1.00  0.00    -0.305 OA
HETATM    9  C18 UNL     1      -4.548  -2.528  15.334  1.00  0.00     0.105 C 
HETATM   10  C19 UNL     1      -4.641  -2.809  16.837  1.00  0.00     0.050 C 
HETATM   11  C20 UNL     1      -4.123  -1.112  15.173  1.00  0.00     0.080 C 
HETATM   12  C21 UNL     1      -4.234  -0.711  13.739  1.00  0.00    -0.075 C 
HETATM   13  C22 UNL     1      -3.108  -0.027  13.004  1.00  0.00     0.044 C 
HETATM   14  C23 UNL     1      -5.383  -0.981  13.137  1.00  0.00    -0.001 C 
HETATM   15  C24 UNL     1      -6.452  -1.647  13.918  1.00  0.00     0.137 C 
HETATM   16 CL2  UNL     1      -7.445  -0.481  14.815  1.00  0.00    -0.118 Cl
HETATM   17  C25 UNL     1      -5.934  -2.748  14.767  1.00  0.00     0.176 C 
ENDROOT
BRANCH   3  18
HETATM   18  C4  UNL     1      -0.461  -0.859  16.533  1.00  0.00     0.271 C 
HETATM   19  O1  UNL     1      -0.398  -1.442  17.644  1.00  0.00    -0.264 OA
BRANCH  18  20
HETATM   20  O2  UNL     1       0.446   0.186  16.343  1.00  0.00    -0.289 OA
BRANCH  20  21
HETATM   21  C5  UNL     1       1.814   0.074  16.610  1.00  0.00     0.268 C 
HETATM   22  C6  UNL     1       2.479  -0.642  15.445  1.00  0.00     0.071 C 
BRANCH  21  23
HETATM   23  O3  UNL     1       2.436   1.279  16.894  1.00  0.00    -0.331 OA
BRANCH  23  24
HETATM   24  C7  UNL     1       1.536   2.253  17.298  1.00  0.00     0.272 C 
BRANCH  24  25
HETATM   25  C8  UNL     1       1.702   3.517  16.488  1.00  0.00     0.061 C 
BRANCH  25  26
HETATM   26  C9  UNL     1       0.526   4.431  16.733  1.00  0.00     0.005 C 
BRANCH  26  27
HETATM   27  C10 UNL     1      -0.460   4.403  15.611  1.00  0.00     0.000 C 
BRANCH  27  28
HETATM   28  C11 UNL     1      -1.694   3.574  15.949  1.00  0.00    -0.000 C 
BRANCH  28  29
HETATM   29  C12 UNL     1      -2.509   3.510  14.652  1.00  0.00    -0.005 C 
HETATM   30  C13 UNL     1      -3.894   3.044  15.015  1.00  0.00     0.005 C 
ENDBRANCH  28  29
ENDBRANCH  27  28
ENDBRANCH  26  27
ENDBRANCH  25  26
ENDBRANCH  24  25
BRANCH  24  31
HETATM   31  O4  UNL     1       1.643   2.492  18.685  1.00  0.00    -0.290 OA
BRANCH  31  32
HETATM   32  C14 UNL     1       0.709   2.023  19.585  1.00  0.00     0.257 C 
HETATM   33  C15 UNL     1      -0.346   2.938  20.136  1.00  0.00     0.126 C 
HETATM   34  O5  UNL     1       0.725   0.824  19.960  1.00  0.00    -0.266 OA
ENDBRANCH  31  32
ENDBRANCH  24  31
ENDBRANCH  23  24
ENDBRANCH  21  23
ENDBRANCH  20  21
ENDBRANCH  18  20
ENDBRANCH   3  18
BRANCH  17  35
HETATM   35  O8  UNL     1      -6.879  -2.988  15.794  1.00  0.00    -0.391 OA
ATOM     36  H8  UNL     1      -7.768  -2.890  15.476  1.00  0.00     0.210 HD
ENDBRANCH  17  35
TORSDOF 13
ENDMDL
MODEL 4
REMARK VINA RESULT: -6.781631686      2.438      5.649
REMARK  13 active torsions:
REMARK  status: ('A' for Active; 'I' for Inactive)
REMARK    1  A    between atoms: C3_3  and  C4_4 
REMARK    2  A    between atoms: C4_4  and  O2_6 
REMARK    3  A    between atoms: O2_6  and  C5_7 
REMARK    4  A    between atoms: C5_7  and  O3_9 
REMARK    5  A    between atoms: O3_9  and  C7_10 
REMARK    6  A    between atoms: C7_10  and  C8_11 
REMARK    7  A    between atoms: C7_10  and  O4_17 
REMARK    8  A    between atoms: C8_11  and  C9_12 
REMARK    9  A    between atoms: C9_12  and  C10_13 
REMARK   10  A    between atoms: C10_13  and  C11_14 
REMARK   11  A    between atoms: C11_14  and  C12_15 
REMARK   12  A    between atoms: O4_17  and  C14_18 
REMARK   13  A    between atoms: C25_34  and  O8_35 
ROOT
HETATM    1  C1  UNL     1       0.610  -0.039  15.895  1.00  0.00     0.016 C 
HETATM    2  C2  UNL     1      -0.264  -0.881  16.448  1.00  0.00    -0.062 C 
HETATM    3  C3  UNL     1       0.179  -1.459  17.726  1.00  0.00     0.142 C 
HETATM    4  C16 UNL     1      -0.900  -1.446  18.767  1.00  0.00     0.199 C 
HETATM    5 CL1  UNL     1      -0.321  -2.421  20.171  1.00  0.00    -0.113 Cl
HETATM    6  C17 UNL     1      -2.170  -2.073  18.348  1.00  0.00     0.279 C 
HETATM    7  O6  UNL     1      -2.484  -3.217  18.821  1.00  0.00    -0.263 OA
HETATM    8  O7  UNL     1      -3.051  -1.485  17.463  1.00  0.00    -0.305 OA
HETATM    9  C18 UNL     1      -2.766  -0.699  16.322  1.00  0.00     0.105 C 
HETATM   10  C19 UNL     1      -2.676   0.793  16.657  1.00  0.00     0.050 C 
HETATM   11  C20 UNL     1      -1.499  -1.079  15.644  1.00  0.00     0.080 C 
HETATM   12  C21 UNL     1      -1.616  -2.461  15.090  1.00  0.00    -0.075 C 
HETATM   13  C22 UNL     1      -0.568  -3.519  15.334  1.00  0.00     0.044 C 
HETATM   14  C23 UNL     1      -2.694  -2.716  14.360  1.00  0.00    -0.001 C 
HETATM   15  C24 UNL     1      -3.680  -1.630  14.152  1.00  0.00     0.137 C 
HETATM   16 CL2  UNL     1      -3.253  -0.599  12.771  1.00  0.00    -0.118 Cl
HETATM   17  C25 UNL     1      -3.951  -0.862  15.393  1.00  0.00     0.176 C 
ENDROOT
BRANCH   3  18
HETATM   18  C4  UNL     1       1.357  -0.757  18.303  1.00  0.00     0.271 C 
HETATM   19  O1  UNL     1       2.528  -1.152  18.077  1.00  0.00    -0.264 OA
BRANCH  18  20
HETATM   20  O2  UNL     1       1.243   0.369  19.121  1.00  0.00    -0.289 OA
BRANCH  20  21
HETATM   21  C5  UNL     1       2.066   1.492  19.001  1.00  0.00     0.268 C 
HETATM   22  C6  UNL     1       3.319   1.266  19.832  1.00  0.00     0.071 C 
BRANCH  21  23
HETATM   23  O3  UNL     1       2.372   1.834  17.694  1.00  0.00    -0.331 OA
BRANCH  23  24
HETATM   24  C7  UNL     1       2.161   3.180  17.440  1.00  0.00     0.272 C 
BRANCH  24  25
HETATM   25  C8  UNL     1       1.223   3.374  16.273  1.00  0.00     0.061 C 
BRANCH  25  26
HETATM   26  C9  UNL     1      -0.196   3.473  16.778  1.00  0.00     0.005 C 
BRANCH  26  27
HETATM   27  C10 UNL     1      -0.272   4.050  18.155  1.00  0.00     0.000 C 
BRANCH  27  28
HETATM   28  C11 UNL     1      -1.204   3.254  19.061  1.00  0.00    -0.000 C 
BRANCH  28  29
HETATM   29  C12 UNL     1      -1.409   4.130  20.303  1.00  0.00    -0.005 C 
HETATM   30  C13 UNL     1      -0.045   4.489  20.829  1.00  0.00     0.005 C 
ENDBRANCH  28  29
ENDBRANCH  27  28
ENDBRANCH  26  27
ENDBRANCH  25  26
ENDBRANCH  24  25
BRANCH  24  31
HETATM   31  O4  UNL     1       3.388   3.854  17.253  1.00  0.00    -0.290 OA
BRANCH  31  32
HETATM   32  C14 UNL     1       4.054   4.469  18.293  1.00  0.00     0.257 C 
HETATM   33  C15 UNL     1       3.296   5.008  19.472  1.00  0.00     0.126 C 
HETATM   34  O5  UNL     1       5.305   4.588  18.273  1.00  0.00    -0.266 OA
ENDBRANCH  31  32
ENDBRANCH  24  31
ENDBRANCH  23  24
ENDBRANCH  21  23
ENDBRANCH  20  21
ENDBRANCH  18  20
ENDBRANCH   3  18
BRANCH  17  35
HETATM   35  O8  UNL     1      -4.489   0.394  15.019  1.00  0.00    -0.391 OA
ATOM     36  H8  UNL     1      -4.192   0.654  14.155  1.00  0.00     0.210 HD
ENDBRANCH  17  35
TORSDOF 13
ENDMDL
MODEL 5
REMARK VINA RESULT: -6.731814503      2.706      6.205
REMARK  13 active torsions:
REMARK  status: ('A' for Active; 'I' for Inactive)
REMARK    1  A    between atoms: C3_3  and  C4_4 
REMARK    2  A    between atoms: C4_4  and  O2_6 
REMARK    3  A    between atoms: O2_6  and  C5_7 
REMARK    4  A    between atoms: C5_7  and  O3_9 
REMARK    5  A    between atoms: O3_9  and  C7_10 
REMARK    6  A    between atoms: C7_10  and  C8_11 
REMARK    7  A    between atoms: C7_10  and  O4_17 
REMARK    8  A    between atoms: C8_11  and  C9_12 
REMARK    9  A    between atoms: C9_12  and  C10_13 
REMARK   10  A    between atoms: C10_13  and  C11_14 
REMARK   11  A    between atoms: C11_14  and  C12_15 
REMARK   12  A    between atoms: O4_17  and  C14_18 
REMARK   13  A    between atoms: C25_34  and  O8_35 
ROOT
HETATM    1  C1  UNL     1      -0.679  -0.667  18.976  1.00  0.00     0.016 C 
HETATM    2  C2  UNL     1      -0.423  -1.601  18.059  1.00  0.00    -0.062 C 
HETATM    3  C3  UNL     1       0.998  -1.963  17.945  1.00  0.00     0.142 C 
HETATM    4  C16 UNL     1       1.208  -3.445  17.868  1.00  0.00     0.199 C 
HETATM    5 CL1  UNL     1       2.941  -3.734  17.454  1.00  0.00    -0.113 Cl
HETATM    6  C17 UNL     1       0.432  -4.126  16.812  1.00  0.00     0.279 C 
HETATM    7  O6  UNL     1       1.036  -4.537  15.764  1.00  0.00    -0.263 OA
HETATM    8  O7  UNL     1      -0.928  -4.348  16.894  1.00  0.00    -0.305 OA
HETATM    9  C18 UNL     1      -1.929  -3.517  17.450  1.00  0.00     0.105 C 
HETATM   10  C19 UNL     1      -2.160  -3.809  18.936  1.00  0.00     0.050 C 
HETATM   11  C20 UNL     1      -1.629  -2.066  17.324  1.00  0.00     0.080 C 
HETATM   12  C21 UNL     1      -1.618  -1.675  15.883  1.00  0.00    -0.075 C 
HETATM   13  C22 UNL     1      -0.489  -0.883  15.271  1.00  0.00     0.044 C 
HETATM   14  C23 UNL     1      -2.662  -2.056  15.159  1.00  0.00    -0.001 C 
HETATM   15  C24 UNL     1      -3.741  -2.825  15.824  1.00  0.00     0.137 C 
HETATM   16 CL2  UNL     1      -4.936  -1.763  16.595  1.00  0.00    -0.118 Cl
HETATM   17  C25 UNL     1      -3.215  -3.871  16.735  1.00  0.00     0.176 C 
ENDROOT
BRANCH   3  18
HETATM   18  C4  UNL     1       1.818  -1.458  19.078  1.00  0.00     0.271 C 
HETATM   19  O1  UNL     1       1.637  -1.872  20.250  1.00  0.00    -0.264 OA
BRANCH  18  20
HETATM   20  O2  UNL     1       2.826  -0.506  18.919  1.00  0.00    -0.289 OA
BRANCH  20  21
HETATM   21  C5  UNL     1       2.592   0.872  18.939  1.00  0.00     0.268 C 
HETATM   22  C6  UNL     1       3.407   1.487  20.066  1.00  0.00     0.071 C 
BRANCH  21  23
HETATM   23  O3  UNL     1       2.830   1.505  17.730  1.00  0.00    -0.331 OA
BRANCH  23  24
HETATM   24  C7  UNL     1       1.942   2.545  17.498  1.00  0.00     0.272 C 
BRANCH  24  25
HETATM   25  C8  UNL     1       0.727   2.064  16.743  1.00  0.00     0.061 C 
BRANCH  25  26
HETATM   26  C9  UNL     1      -0.515   2.680  17.342  1.00  0.00     0.005 C 
BRANCH  26  27
HETATM   27  C10 UNL     1      -1.706   2.544  16.450  1.00  0.00     0.000 C 
BRANCH  27  28
HETATM   28  C11 UNL     1      -2.783   1.655  17.060  1.00  0.00    -0.000 C 
BRANCH  28  29
HETATM   29  C12 UNL     1      -3.934   1.655  16.046  1.00  0.00    -0.005 C 
HETATM   30  C13 UNL     1      -3.321   1.729  14.673  1.00  0.00     0.005 C 
ENDBRANCH  28  29
ENDBRANCH  27  28
ENDBRANCH  26  27
ENDBRANCH  25  26
ENDBRANCH  24  25
BRANCH  24  31
HETATM   31  O4  UNL     1       2.586   3.618  16.842  1.00  0.00    -0.290 OA
BRANCH  31  32
HETATM   32  C14 UNL     1       3.439   4.476  17.503  1.00  0.00     0.257 C 
HETATM   33  C15 UNL     1       3.141   4.917  18.907  1.00  0.00     0.126 C 
HETATM   34  O5  UNL     1       4.480   4.904  16.943  1.00  0.00    -0.266 OA
ENDBRANCH  31  32
ENDBRANCH  24  31
ENDBRANCH  23  24
ENDBRANCH  21  23
ENDBRANCH  20  21
ENDBRANCH  18  20
ENDBRANCH   3  18
BRANCH  17  35
HETATM   35  O8  UNL     1      -4.240  -4.205  17.653  1.00  0.00    -0.391 OA
ATOM     36  H8  UNL     1      -4.982  -4.605  17.214  1.00  0.00     0.210 HD
ENDBRANCH  17  35
TORSDOF 13
ENDMDL
