MODEL 1
REMARK VINA RESULT: -8.125626623      0.000      0.000
REMARK  3 active torsions:
REMARK  status: ('A' for Active; 'I' for Inactive)
REMARK    1  A    between atoms: C2_2  and  C3_3 
REMARK    2  A    between atoms: C9_9  and  O1_11 
REMARK    3  A    between atoms: C13_16  and  O3_17 
ROOT
HETATM    1  C3  UNL     1     -20.947  52.248   0.257  1.00  0.00     0.007 C 
HETATM    2  C4  UNL     1     -19.934  52.328   1.353  1.00  0.00     0.021 C 
HETATM    3  C5  UNL     1     -19.817  53.796   1.686  1.00  0.00    -0.002 C 
HETATM    4  C6  UNL     1     -18.534  54.407   1.304  1.00  0.00     0.005 C 
HETATM    5  C7  UNL     1     -17.692  53.732   0.292  1.00  0.00     0.004 C 
HETATM    6  C8  UNL     1     -18.136  53.652  -1.101  1.00  0.00     0.040 C 
HETATM    7  C9  UNL     1     -19.191  52.714  -1.496  1.00  0.00     0.081 C 
HETATM    8  C10 UNL     1     -19.206  52.758  -3.043  1.00  0.00     0.049 C 
HETATM    9  C11 UNL     1     -20.574  52.900  -1.039  1.00  0.00     0.168 C 
HETATM   10  O2  UNL     1     -21.102  54.177  -1.224  1.00  0.00    -0.373 OA
HETATM   11  C12 UNL     1     -20.935  55.065  -0.235  1.00  0.00     0.160 C 
HETATM   12  C13 UNL     1     -22.052  55.963   0.207  1.00  0.00     0.151 C 
HETATM   13  C15 UNL     1     -21.692  55.559   1.648  1.00  0.00     0.047 C 
HETATM   14  C16 UNL     1     -21.050  54.368   1.080  1.00  0.00    -0.005 C 
HETATM   15  C17 UNL     1     -22.004  53.180   0.885  1.00  0.00     0.028 C 
ENDROOT
BRANCH   7  16
HETATM   16  O1  UNL     1     -18.824  51.385  -1.216  1.00  0.00    -0.388 OA
ATOM     17  H1  UNL     1     -18.225  51.048  -1.872  1.00  0.00     0.210 HD
ENDBRANCH   7  16
BRANCH   1  18
HETATM   18  C2  UNL     1     -21.422  50.870   0.125  1.00  0.00    -0.025 C 
HETATM   19  C1  UNL     1     -22.634  50.619  -0.305  1.00  0.00     0.008 C 
ENDBRANCH   1  18
BRANCH  12  20
HETATM   20  O3  UNL     1     -23.318  55.696  -0.194  1.00  0.00    -0.388 OA
HETATM   21  C14 UNL     1     -23.757  56.550  -1.205  1.00  0.00     0.202 C 
ENDBRANCH  12  20
TORSDOF 3
ENDMDL
MODEL 2
REMARK VINA RESULT: -8.107567746      2.038      4.431
REMARK  3 active torsions:
REMARK  status: ('A' for Active; 'I' for Inactive)
REMARK    1  A    between atoms: C2_2  and  C3_3 
REMARK    2  A    between atoms: C9_9  and  O1_11 
REMARK    3  A    between atoms: C13_16  and  O3_17 
ROOT
HETATM    1  C3  UNL     1     -20.954  56.683  -0.322  1.00  0.00     0.007 C 
HETATM    2  C4  UNL     1     -19.921  56.591  -1.398  1.00  0.00     0.021 C 
HETATM    3  C5  UNL     1     -19.788  55.118  -1.702  1.00  0.00    -0.002 C 
HETATM    4  C6  UNL     1     -18.508  54.523  -1.286  1.00  0.00     0.005 C 
HETATM    5  C7  UNL     1     -17.690  55.221  -0.271  1.00  0.00     0.004 C 
HETATM    6  C8  UNL     1     -18.160  55.323   1.113  1.00  0.00     0.040 C 
HETATM    7  C9  UNL     1     -19.229  56.261   1.471  1.00  0.00     0.081 C 
HETATM    8  C10 UNL     1     -19.271  56.244   3.018  1.00  0.00     0.049 C 
HETATM    9  C11 UNL     1     -20.601  56.057   0.992  1.00  0.00     0.168 C 
HETATM   10  O2  UNL     1     -21.124  54.781   1.190  1.00  0.00    -0.373 OA
HETATM   11  C12 UNL     1     -20.933  53.875   0.221  1.00  0.00     0.160 C 
HETATM   12  C13 UNL     1     -22.036  52.963  -0.226  1.00  0.00     0.151 C 
HETATM   13  C15 UNL     1     -21.652  53.343  -1.666  1.00  0.00     0.047 C 
HETATM   14  C16 UNL     1     -21.028  54.548  -1.108  1.00  0.00    -0.005 C 
HETATM   15  C17 UNL     1     -21.994  55.733  -0.952  1.00  0.00     0.028 C 
ENDROOT
BRANCH   7  16
HETATM   16  O1  UNL     1     -18.865  57.587   1.174  1.00  0.00    -0.388 OA
ATOM     17  H1  UNL     1     -19.193  58.190   1.832  1.00  0.00     0.210 HD
ENDBRANCH   7  16
BRANCH   1  18
HETATM   18  C2  UNL     1     -21.441  58.061  -0.223  1.00  0.00    -0.025 C 
HETATM   19  C1  UNL     1     -22.600  58.321   0.329  1.00  0.00     0.008 C 
ENDBRANCH   1  18
BRANCH  12  20
HETATM   20  O3  UNL     1     -23.311  53.228   0.147  1.00  0.00    -0.388 OA
HETATM   21  C14 UNL     1     -23.736  52.441   1.217  1.00  0.00     0.202 C 
ENDBRANCH  12  20
TORSDOF 3
ENDMDL
MODEL 3
REMARK VINA RESULT: -7.974747529      2.562      4.378
REMARK  3 active torsions:
REMARK  status: ('A' for Active; 'I' for Inactive)
REMARK    1  A    between atoms: C2_2  and  C3_3 
REMARK    2  A    between atoms: C9_9  and  O1_11 
REMARK    3  A    between atoms: C13_16  and  O3_17 
ROOT
HETATM    1  C3  UNL     1     -19.133  53.983   0.690  1.00  0.00     0.007 C 
HETATM    2  C4  UNL     1     -18.634  54.536  -0.605  1.00  0.00     0.021 C 
HETATM    3  C5  UNL     1     -18.268  55.971  -0.315  1.00  0.00    -0.002 C 
HETATM    4  C6  UNL     1     -19.151  56.965  -0.949  1.00  0.00     0.005 C 
HETATM    5  C7  UNL     1     -20.492  56.543  -1.406  1.00  0.00     0.004 C 
HETATM    6  C8  UNL     1     -21.519  56.166  -0.431  1.00  0.00     0.040 C 
HETATM    7  C9  UNL     1     -21.455  54.874   0.259  1.00  0.00     0.081 C 
HETATM    8  C10 UNL     1     -22.806  54.753   1.004  1.00  0.00     0.049 C 
HETATM    9  C11 UNL     1     -20.391  54.591   1.230  1.00  0.00     0.168 C 
HETATM   10  O2  UNL     1     -20.198  55.563   2.210  1.00  0.00    -0.373 OA
HETATM   11  C12 UNL     1     -19.328  56.547   1.943  1.00  0.00     0.160 C 
HETATM   12  C13 UNL     1     -18.340  57.017   2.968  1.00  0.00     0.151 C 
HETATM   13  C15 UNL     1     -17.274  56.920   1.862  1.00  0.00     0.047 C 
HETATM   14  C16 UNL     1     -18.177  55.993   1.170  1.00  0.00    -0.005 C 
HETATM   15  C17 UNL     1     -18.007  54.526   1.594  1.00  0.00     0.028 C 
ENDROOT
BRANCH   7  16
HETATM   16  O1  UNL     1     -21.495  53.805  -0.655  1.00  0.00    -0.388 OA
ATOM     17  H1  UNL     1     -22.277  53.279  -0.535  1.00  0.00     0.210 HD
ENDBRANCH   7  16
BRANCH   1  18
HETATM   18  C2  UNL     1     -19.147  52.520   0.630  1.00  0.00    -0.025 C 
HETATM   19  C1  UNL     1     -18.148  51.864   0.093  1.00  0.00     0.008 C 
ENDBRANCH   1  18
BRANCH  12  20
HETATM   20  O3  UNL     1     -18.125  56.269   4.077  1.00  0.00    -0.388 OA
HETATM   21  C14 UNL     1     -18.757  56.786   5.208  1.00  0.00     0.202 C 
ENDBRANCH  12  20
TORSDOF 3
ENDMDL
MODEL 4
REMARK VINA RESULT: -7.957374063      1.680      4.761
REMARK  3 active torsions:
REMARK  status: ('A' for Active; 'I' for Inactive)
REMARK    1  A    between atoms: C2_2  and  C3_3 
REMARK    2  A    between atoms: C9_9  and  O1_11 
REMARK    3  A    between atoms: C13_16  and  O3_17 
ROOT
HETATM    1  C3  UNL     1     -19.162  54.989  -0.650  1.00  0.00     0.007 C 
HETATM    2  C4  UNL     1     -18.584  54.475   0.628  1.00  0.00     0.021 C 
HETATM    3  C5  UNL     1     -18.170  53.052   0.339  1.00  0.00    -0.002 C 
HETATM    4  C6  UNL     1     -18.981  52.031   1.021  1.00  0.00     0.005 C 
HETATM    5  C7  UNL     1     -20.318  52.402   1.533  1.00  0.00     0.004 C 
HETATM    6  C8  UNL     1     -21.401  52.723   0.600  1.00  0.00     0.040 C 
HETATM    7  C9  UNL     1     -21.423  54.007  -0.106  1.00  0.00     0.081 C 
HETATM    8  C10 UNL     1     -22.809  54.062  -0.792  1.00  0.00     0.049 C 
HETATM    9  C11 UNL     1     -20.415  54.322  -1.126  1.00  0.00     0.168 C 
HETATM   10  O2  UNL     1     -20.224  53.347  -2.103  1.00  0.00    -0.373 OA
HETATM   11  C12 UNL     1     -19.302  52.404  -1.864  1.00  0.00     0.160 C 
HETATM   12  C13 UNL     1     -18.341  51.962  -2.927  1.00  0.00     0.151 C 
HETATM   13  C15 UNL     1     -17.233  52.118  -1.870  1.00  0.00     0.047 C 
HETATM   14  C16 UNL     1     -18.143  53.015  -1.149  1.00  0.00    -0.005 C 
HETATM   15  C17 UNL     1     -18.054  54.483  -1.596  1.00  0.00     0.028 C 
ENDROOT
BRANCH   7  16
HETATM   16  O1  UNL     1     -21.468  55.085   0.796  1.00  0.00    -0.388 OA
ATOM     17  H1  UNL     1     -22.148  54.961   1.449  1.00  0.00     0.210 HD
ENDBRANCH   7  16
BRANCH   1  18
HETATM   18  C2  UNL     1     -19.235  56.451  -0.605  1.00  0.00    -0.025 C 
HETATM   19  C1  UNL     1     -18.283  57.151  -0.039  1.00  0.00     0.008 C 
ENDBRANCH   1  18
BRANCH  12  20
HETATM   20  O3  UNL     1     -18.207  52.703  -4.052  1.00  0.00    -0.388 OA
HETATM   21  C14 UNL     1     -18.863  52.145  -5.149  1.00  0.00     0.202 C 
ENDBRANCH  12  20
TORSDOF 3
ENDMDL
MODEL 5
REMARK VINA RESULT: -7.774258904      1.709      3.800
REMARK  3 active torsions:
REMARK  status: ('A' for Active; 'I' for Inactive)
REMARK    1  A    between atoms: C2_2  and  C3_3 
REMARK    2  A    between atoms: C9_9  and  O1_11 
REMARK    3  A    between atoms: C13_16  and  O3_17 
ROOT
HETATM    1  C3  UNL     1     -21.647  55.019  -0.355  1.00  0.00     0.007 C 
HETATM    2  C4  UNL     1     -21.912  54.282   0.918  1.00  0.00     0.021 C 
HETATM    3  C5  UNL     1     -20.560  53.816   1.401  1.00  0.00    -0.002 C 
HETATM    4  C6  UNL     1     -20.356  52.360   1.331  1.00  0.00     0.005 C 
HETATM    5  C7  UNL     1     -21.224  51.558   0.442  1.00  0.00     0.004 C 
HETATM    6  C8  UNL     1     -21.124  51.701  -1.012  1.00  0.00     0.040 C 
HETATM    7  C9  UNL     1     -21.685  52.875  -1.687  1.00  0.00     0.081 C 
HETATM    8  C10 UNL     1     -21.592  52.548  -3.197  1.00  0.00     0.049 C 
HETATM    9  C11 UNL     1     -21.101  54.207  -1.489  1.00  0.00     0.168 C 
HETATM   10  O2  UNL     1     -19.720  54.289  -1.655  1.00  0.00    -0.373 OA
HETATM   11  C12 UNL     1     -18.953  54.083  -0.575  1.00  0.00     0.160 C 
HETATM   12  C13 UNL     1     -17.773  54.958  -0.275  1.00  0.00     0.151 C 
HETATM   13  C15 UNL     1     -18.309  55.044   1.164  1.00  0.00     0.047 C 
HETATM   14  C16 UNL     1     -19.622  54.671   0.624  1.00  0.00    -0.005 C 
HETATM   15  C17 UNL     1     -20.457  55.867   0.140  1.00  0.00     0.028 C 
ENDROOT
BRANCH   7  16
HETATM   16  O1  UNL     1     -23.070  52.978  -1.465  1.00  0.00    -0.388 OA
ATOM     17  H1  UNL     1     -23.469  53.605  -2.058  1.00  0.00     0.210 HD
ENDBRANCH   7  16
BRANCH   1  18
HETATM   18  C2  UNL     1     -22.812  55.836  -0.703  1.00  0.00    -0.025 C 
HETATM   19  C1  UNL     1     -22.843  57.112  -0.410  1.00  0.00     0.008 C 
ENDBRANCH   1  18
BRANCH  12  20
HETATM   20  O3  UNL     1     -17.630  56.132  -0.935  1.00  0.00    -0.388 OA
HETATM   21  C14 UNL     1     -17.116  57.147  -0.128  1.00  0.00     0.202 C 
ENDBRANCH  12  20
TORSDOF 3
ENDMDL
