MODEL 1
REMARK VINA RESULT: -6.508194589      0.000      0.000
REMARK  8 active torsions:
REMARK  status: ('A' for Active; 'I' for Inactive)
REMARK    1  A    between atoms: C4_4  and  N1_5 
REMARK    2  A    between atoms: C10_12  and  N3_13 
REMARK    3  A    between atoms: N3_13  and  C11_15 
REMARK    4  A    between atoms: C15_19  and  C16_20 
REMARK    5  A    between atoms: C17_21  and  N4_22 
REMARK    6  A    between atoms: N4_22  and  C18_24 
REMARK    7  A    between atoms: C21_27  and  O1_28 
REMARK    8  A    between atoms: O1_28  and  C22_29 
ROOT
HETATM    1  C16 UNL     1      -1.160  11.659   0.442  1.00  0.00     0.069 A 
HETATM    2  C17 UNL     1      -0.756  11.629   1.790  1.00  0.00     0.050 A 
HETATM    3  C32 UNL     1      -1.684  11.168   2.689  1.00  0.00     0.047 A 
HETATM    4  C33 UNL     1      -2.958  10.748   2.325  1.00  0.00     0.093 A 
HETATM    5  N5  UNL     1      -3.301  10.793   1.028  1.00  0.00    -0.333 N 
ATOM      6  H5  UNL     1      -4.228  10.491   0.729  1.00  0.00     0.168 HD
HETATM    7  C34 UNL     1      -2.418  11.238   0.136  1.00  0.00     0.258 A 
HETATM    8  O2  UNL     1      -2.743  11.282  -1.099  1.00  0.00    -0.267 OA
ENDROOT
BRANCH   1   9
HETATM    9  C15 UNL     1      -0.225  12.139  -0.582  1.00  0.00    -0.010 A 
HETATM   10  C2  UNL     1      -0.189  13.479  -0.890  1.00  0.00    -0.048 A 
HETATM   11  C1  UNL     1      -1.109  14.401  -0.164  1.00  0.00     0.049 C 
HETATM   12  C3  UNL     1       0.669  13.987  -1.839  1.00  0.00     0.039 A 
HETATM   13  C4  UNL     1       1.522  13.128  -2.509  1.00  0.00     0.057 A 
HETATM   14  C10 UNL     1       1.518  11.783  -2.232  1.00  0.00     0.056 A 
HETATM   15  C14 UNL     1       0.636  11.307  -1.264  1.00  0.00     0.044 A 
BRANCH  13  16
HETATM   16  N1  UNL     1       2.398  13.628  -3.525  1.00  0.00    -0.376 N 
HETATM   17  C5  UNL     1       1.937  13.856  -4.872  1.00  0.00     0.142 C 
HETATM   18  C6  UNL     1       3.045  14.479  -5.669  1.00  0.00     0.136 C 
HETATM   19  N2  UNL     1       4.284  13.764  -5.628  1.00  0.00    -0.414 N 
HETATM   20  C7  UNL     1       4.499  12.834  -6.682  1.00  0.00     0.143 C 
HETATM   21  C8  UNL     1       4.671  13.333  -4.318  1.00  0.00     0.136 C 
HETATM   22  C9  UNL     1       3.791  13.918  -3.235  1.00  0.00     0.142 C 
ENDBRANCH  13  16
BRANCH  14  23
HETATM   23  N3  UNL     1       2.411  10.867  -2.860  1.00  0.00    -0.383 N 
ATOM     24  H3  UNL     1       3.404  10.907  -2.631  1.00  0.00     0.160 HD
BRANCH  23  25
HETATM   25  C11 UNL     1       1.950   9.886  -3.811  1.00  0.00     0.082 A 
HETATM   26  C12 UNL     1       1.522  10.331  -5.135  1.00  0.00     0.027 A 
HETATM   27  C13 UNL     1       2.835   9.648  -5.019  1.00  0.00     0.027 A 
ENDBRANCH  23  25
ENDBRANCH  14  23
ENDBRANCH   1   9
BRANCH   2  28
HETATM   28  N4  UNL     1       0.522  12.097   2.106  1.00  0.00    -0.355 N 
ATOM     29  H4  UNL     1       0.648  13.108   2.160  1.00  0.00     0.166 HD
BRANCH  28  30
HETATM   30  C18 UNL     1       1.654  11.293   2.359  1.00  0.00     0.032 A 
HETATM   31  C19 UNL     1       2.722  11.288   1.444  1.00  0.00     0.032 A 
HETATM   32  C20 UNL     1       3.818  10.499   1.625  1.00  0.00     0.039 A 
HETATM   33  C21 UNL     1       3.941   9.648   2.732  1.00  0.00     0.069 A 
HETATM   34  C30 UNL     1       2.917   9.643   3.623  1.00  0.00     0.039 A 
HETATM   35  C31 UNL     1       1.800  10.449   3.434  1.00  0.00     0.032 A 
BRANCH  33  36
HETATM   36  O1  UNL     1       5.066   8.890   2.846  1.00  0.00    -0.345 OA
BRANCH  36  37
HETATM   37  C22 UNL     1       6.345   9.252   3.282  1.00  0.00     0.137 C 
HETATM   38  C23 UNL     1       6.404   8.967   4.755  1.00  0.00     0.039 C 
HETATM   39  C24 UNL     1       7.776   8.793   5.310  1.00  0.00     0.081 C 
HETATM   40  C25 UNL     1       8.392   7.597   4.568  1.00  0.00     0.244 C 
HETATM   41  F1  UNL     1       7.450   6.586   4.622  1.00  0.00    -0.206 F 
HETATM   42  F2  UNL     1       9.590   7.238   5.104  1.00  0.00    -0.206 F 
HETATM   43  C26 UNL     1       8.561   8.030   3.151  1.00  0.00     0.090 C 
HETATM   44  C27 UNL     1       7.330   8.474   2.460  1.00  0.00    -0.015 C 
HETATM   45  C28 UNL     1       7.770   9.415   1.327  1.00  0.00     0.018 C 
HETATM   46  C29 UNL     1       6.681   7.278   1.776  1.00  0.00     0.018 C 
ENDBRANCH  36  37
ENDBRANCH  33  36
ENDBRANCH  28  30
ENDBRANCH   2  28
TORSDOF 8
ENDMDL
MODEL 2
REMARK VINA RESULT: -6.496628224      2.234      6.467
REMARK  8 active torsions:
REMARK  status: ('A' for Active; 'I' for Inactive)
REMARK    1  A    between atoms: C4_4  and  N1_5 
REMARK    2  A    between atoms: C10_12  and  N3_13 
REMARK    3  A    between atoms: N3_13  and  C11_15 
REMARK    4  A    between atoms: C15_19  and  C16_20 
REMARK    5  A    between atoms: C17_21  and  N4_22 
REMARK    6  A    between atoms: N4_22  and  C18_24 
REMARK    7  A    between atoms: C21_27  and  O1_28 
REMARK    8  A    between atoms: O1_28  and  C22_29 
ROOT
HETATM    1  C16 UNL     1       0.079  12.754  -0.527  1.00  0.00     0.069 A 
HETATM    2  C17 UNL     1       1.241  12.068  -0.928  1.00  0.00     0.050 A 
HETATM    3  C32 UNL     1       2.130  12.780  -1.694  1.00  0.00     0.047 A 
HETATM    4  C33 UNL     1       1.926  14.102  -2.069  1.00  0.00     0.093 A 
HETATM    5  N5  UNL     1       0.804  14.718  -1.663  1.00  0.00    -0.333 N 
ATOM      6  H5  UNL     1       0.627  15.688  -1.921  1.00  0.00     0.168 HD
HETATM    7  C34 UNL     1      -0.074  14.047  -0.920  1.00  0.00     0.258 A 
HETATM    8  O2  UNL     1      -1.142  14.631  -0.535  1.00  0.00    -0.267 OA
ENDROOT
BRANCH   1   9
HETATM    9  C15 UNL     1      -0.921  12.062   0.294  1.00  0.00    -0.010 A 
HETATM   10  C2  UNL     1      -0.827  12.121   1.664  1.00  0.00    -0.048 A 
HETATM   11  C1  UNL     1       0.296  12.893   2.269  1.00  0.00     0.049 C 
HETATM   12  C3  UNL     1      -1.738  11.494   2.486  1.00  0.00     0.039 A 
HETATM   13  C4  UNL     1      -2.779  10.780   1.921  1.00  0.00     0.057 A 
HETATM   14  C10 UNL     1      -2.909  10.697   0.556  1.00  0.00     0.056 A 
HETATM   15  C14 UNL     1      -1.968  11.345  -0.241  1.00  0.00     0.044 A 
BRANCH  13  16
HETATM   16  N1  UNL     1      -3.718  10.091   2.755  1.00  0.00    -0.376 N 
HETATM   17  C5  UNL     1      -4.807  10.784   3.395  1.00  0.00     0.142 C 
HETATM   18  C6  UNL     1      -5.672   9.785   4.105  1.00  0.00     0.136 C 
HETATM   19  N2  UNL     1      -4.970   8.920   5.004  1.00  0.00    -0.414 N 
HETATM   20  C7  UNL     1      -4.921   9.343   6.361  1.00  0.00     0.143 C 
HETATM   21  C8  UNL     1      -3.757   8.376   4.468  1.00  0.00     0.136 C 
HETATM   22  C9  UNL     1      -3.599   8.663   2.991  1.00  0.00     0.142 C 
ENDBRANCH  13  16
BRANCH  14  23
HETATM   23  N3  UNL     1      -3.991  10.014  -0.071  1.00  0.00    -0.383 N 
ATOM     24  H3  UNL     1      -3.956   8.997  -0.151  1.00  0.00     0.160 HD
BRANCH  23  25
HETATM   25  C11 UNL     1      -5.134  10.718  -0.596  1.00  0.00     0.082 A 
HETATM   26  C12 UNL     1      -5.220  10.956  -2.034  1.00  0.00     0.027 A 
HETATM   27  C13 UNL     1      -6.094   9.910  -1.447  1.00  0.00     0.027 A 
ENDBRANCH  23  25
ENDBRANCH  14  23
ENDBRANCH   1   9
BRANCH   2  28
HETATM   28  N4  UNL     1       1.380  10.728  -0.555  1.00  0.00    -0.355 N 
ATOM     29  H4  UNL     1       0.655  10.081  -0.866  1.00  0.00     0.166 HD
BRANCH  28  30
HETATM   30  C18 UNL     1       2.434  10.193   0.215  1.00  0.00     0.032 A 
HETATM   31  C19 UNL     1       3.301   9.245  -0.356  1.00  0.00     0.032 A 
HETATM   32  C20 UNL     1       4.309   8.672   0.360  1.00  0.00     0.039 A 
HETATM   33  C21 UNL     1       4.536   8.993   1.705  1.00  0.00     0.069 A 
HETATM   34  C30 UNL     1       3.705   9.906   2.269  1.00  0.00     0.039 A 
HETATM   35  C31 UNL     1       2.677  10.489   1.535  1.00  0.00     0.032 A 
BRANCH  33  36
HETATM   36  O1  UNL     1       5.562   8.380   2.355  1.00  0.00    -0.345 OA
BRANCH  36  37
HETATM   37  C22 UNL     1       6.698   8.937   2.953  1.00  0.00     0.137 C 
HETATM   38  C23 UNL     1       6.505   8.840   4.438  1.00  0.00     0.039 C 
HETATM   39  C24 UNL     1       7.758   8.893   5.244  1.00  0.00     0.081 C 
HETATM   40  C25 UNL     1       8.608   7.695   4.795  1.00  0.00     0.244 C 
HETATM   41  F1  UNL     1       7.769   6.597   4.825  1.00  0.00    -0.206 F 
HETATM   42  F2  UNL     1       9.712   7.543   5.576  1.00  0.00    -0.206 F 
HETATM   43  C26 UNL     1       9.001   7.970   3.383  1.00  0.00     0.090 C 
HETATM   44  C27 UNL     1       7.887   8.183   2.432  1.00  0.00    -0.015 C 
HETATM   45  C28 UNL     1       8.445   9.024   1.273  1.00  0.00     0.018 C 
HETATM   46  C29 UNL     1       7.489   6.847   1.819  1.00  0.00     0.018 C 
ENDBRANCH  36  37
ENDBRANCH  33  36
ENDBRANCH  28  30
ENDBRANCH   2  28
TORSDOF 8
ENDMDL
MODEL 3
REMARK VINA RESULT: -6.492930214      1.456      2.115
REMARK  8 active torsions:
REMARK  status: ('A' for Active; 'I' for Inactive)
REMARK    1  A    between atoms: C4_4  and  N1_5 
REMARK    2  A    between atoms: C10_12  and  N3_13 
REMARK    3  A    between atoms: N3_13  and  C11_15 
REMARK    4  A    between atoms: C15_19  and  C16_20 
REMARK    5  A    between atoms: C17_21  and  N4_22 
REMARK    6  A    between atoms: N4_22  and  C18_24 
REMARK    7  A    between atoms: C21_27  and  O1_28 
REMARK    8  A    between atoms: O1_28  and  C22_29 
ROOT
HETATM    1  C16 UNL     1      -2.011  11.127   0.484  1.00  0.00     0.069 A 
HETATM    2  C17 UNL     1      -1.651  11.346   1.827  1.00  0.00     0.050 A 
HETATM    3  C32 UNL     1      -2.447  10.749   2.772  1.00  0.00     0.047 A 
HETATM    4  C33 UNL     1      -3.551   9.966   2.456  1.00  0.00     0.093 A 
HETATM    5  N5  UNL     1      -3.858   9.783   1.163  1.00  0.00    -0.333 N 
ATOM      6  H5  UNL     1      -4.661   9.213   0.899  1.00  0.00     0.168 HD
HETATM    7  C34 UNL     1      -3.101  10.353   0.227  1.00  0.00     0.258 A 
HETATM    8  O2  UNL     1      -3.392  10.181  -1.005  1.00  0.00    -0.267 OA
ENDROOT
BRANCH   1   9
HETATM    9  C15 UNL     1      -1.210  11.731  -0.586  1.00  0.00    -0.010 A 
HETATM   10  C2  UNL     1      -1.582  12.950  -1.103  1.00  0.00    -0.048 A 
HETATM   11  C1  UNL     1      -2.795  13.617  -0.550  1.00  0.00     0.049 C 
HETATM   12  C3  UNL     1      -0.868  13.566  -2.106  1.00  0.00     0.039 A 
HETATM   13  C4  UNL     1       0.259  12.945  -2.615  1.00  0.00     0.057 A 
HETATM   14  C10 UNL     1       0.665  11.727  -2.126  1.00  0.00     0.056 A 
HETATM   15  C14 UNL     1      -0.084  11.136  -1.111  1.00  0.00     0.044 A 
BRANCH  13  16
HETATM   16  N1  UNL     1       0.997  13.550  -3.682  1.00  0.00    -0.376 N 
HETATM   17  C5  UNL     1       0.534  13.491  -5.046  1.00  0.00     0.142 C 
HETATM   18  C6  UNL     1       1.454  14.302  -5.910  1.00  0.00     0.136 C 
HETATM   19  N2  UNL     1       2.840  13.964  -5.787  1.00  0.00    -0.414 N 
HETATM   20  C7  UNL     1       3.333  13.017  -6.726  1.00  0.00     0.143 C 
HETATM   21  C8  UNL     1       3.288  13.804  -4.435  1.00  0.00     0.136 C 
HETATM   22  C9  UNL     1       2.248  14.242  -3.427  1.00  0.00     0.142 C 
ENDBRANCH  13  16
BRANCH  14  23
HETATM   23  N3  UNL     1       1.844  11.071  -2.585  1.00  0.00    -0.383 N 
ATOM     24  H3  UNL     1       2.754  11.415  -2.277  1.00  0.00     0.160 HD
BRANCH  23  25
HETATM   25  C11 UNL     1       1.788   9.937  -3.472  1.00  0.00     0.082 A 
HETATM   26  C12 UNL     1       1.535  10.161  -4.893  1.00  0.00     0.027 A 
HETATM   27  C13 UNL     1       2.916   9.808  -4.478  1.00  0.00     0.027 A 
ENDBRANCH  23  25
ENDBRANCH  14  23
ENDBRANCH   1   9
BRANCH   2  28
HETATM   28  N4  UNL     1      -0.554  12.171   2.091  1.00  0.00    -0.355 N 
ATOM     29  H4  UNL     1      -0.729  13.174   2.151  1.00  0.00     0.166 HD
BRANCH  28  30
HETATM   30  C18 UNL     1       0.775  11.737   2.281  1.00  0.00     0.032 A 
HETATM   31  C19 UNL     1       1.041  10.667   3.154  1.00  0.00     0.032 A 
HETATM   32  C20 UNL     1       2.310  10.239   3.399  1.00  0.00     0.039 A 
HETATM   33  C21 UNL     1       3.423  10.840   2.796  1.00  0.00     0.069 A 
HETATM   34  C30 UNL     1       3.181  11.875   1.951  1.00  0.00     0.039 A 
HETATM   35  C31 UNL     1       1.883  12.310   1.704  1.00  0.00     0.032 A 
BRANCH  33  36
HETATM   36  O1  UNL     1       4.661  10.357   3.088  1.00  0.00    -0.345 OA
BRANCH  36  37
HETATM   37  C22 UNL     1       5.161   9.056   2.968  1.00  0.00     0.137 C 
HETATM   38  C23 UNL     1       5.027   8.665   1.525  1.00  0.00     0.039 C 
HETATM   39  C24 UNL     1       5.932   7.568   1.080  1.00  0.00     0.081 C 
HETATM   40  C25 UNL     1       7.365   8.075   1.305  1.00  0.00     0.244 C 
HETATM   41  F1  UNL     1       7.417   9.337   0.741  1.00  0.00    -0.206 F 
HETATM   42  F2  UNL     1       8.286   7.221   0.783  1.00  0.00    -0.206 F 
HETATM   43  C26 UNL     1       7.537   8.194   2.781  1.00  0.00     0.090 C 
HETATM   44  C27 UNL     1       6.574   9.077   3.475  1.00  0.00    -0.015 C 
HETATM   45  C28 UNL     1       6.505   8.601   4.935  1.00  0.00     0.018 C 
HETATM   46  C29 UNL     1       7.139  10.490   3.527  1.00  0.00     0.018 C 
ENDBRANCH  36  37
ENDBRANCH  33  36
ENDBRANCH  28  30
ENDBRANCH   2  28
TORSDOF 8
ENDMDL
MODEL 4
REMARK VINA RESULT: -6.464250888      3.688      7.560
REMARK  8 active torsions:
REMARK  status: ('A' for Active; 'I' for Inactive)
REMARK    1  A    between atoms: C4_4  and  N1_5 
REMARK    2  A    between atoms: C10_12  and  N3_13 
REMARK    3  A    between atoms: N3_13  and  C11_15 
REMARK    4  A    between atoms: C15_19  and  C16_20 
REMARK    5  A    between atoms: C17_21  and  N4_22 
REMARK    6  A    between atoms: N4_22  and  C18_24 
REMARK    7  A    between atoms: C21_27  and  O1_28 
REMARK    8  A    between atoms: O1_28  and  C22_29 
ROOT
HETATM    1  C16 UNL     1       5.289   9.379   1.257  1.00  0.00     0.069 A 
HETATM    2  C17 UNL     1       5.185  10.215   2.384  1.00  0.00     0.050 A 
HETATM    3  C32 UNL     1       5.685   9.712   3.559  1.00  0.00     0.047 A 
HETATM    4  C33 UNL     1       6.268   8.455   3.664  1.00  0.00     0.093 A 
HETATM    5  N5  UNL     1       6.347   7.691   2.563  1.00  0.00    -0.333 N 
ATOM      6  H5  UNL     1       6.771   6.764   2.608  1.00  0.00     0.168 HD
HETATM    7  C34 UNL     1       5.867   8.157   1.411  1.00  0.00     0.258 A 
HETATM    8  O2  UNL     1       5.941   7.431   0.363  1.00  0.00    -0.267 OA
ENDROOT
BRANCH   1   9
HETATM    9  C15 UNL     1       4.777   9.844  -0.037  1.00  0.00    -0.010 A 
HETATM   10  C2  UNL     1       5.629  10.477  -0.913  1.00  0.00    -0.048 A 
HETATM   11  C1  UNL     1       7.051  10.667  -0.510  1.00  0.00     0.049 C 
HETATM   12  C3  UNL     1       5.206  10.932  -2.142  1.00  0.00     0.039 A 
HETATM   13  C4  UNL     1       3.885  10.752  -2.512  1.00  0.00     0.057 A 
HETATM   14  C10 UNL     1       3.002  10.125  -1.667  1.00  0.00     0.056 A 
HETATM   15  C14 UNL     1       3.468   9.678  -0.433  1.00  0.00     0.044 A 
BRANCH  13  16
HETATM   16  N1  UNL     1       3.415  11.249  -3.770  1.00  0.00    -0.376 N 
HETATM   17  C5  UNL     1       3.075  12.638  -3.952  1.00  0.00     0.142 C 
HETATM   18  C6  UNL     1       2.723  12.871  -5.392  1.00  0.00     0.136 C 
HETATM   19  N2  UNL     1       1.721  11.990  -5.910  1.00  0.00    -0.414 N 
HETATM   20  C7  UNL     1       0.383  12.468  -5.852  1.00  0.00     0.143 C 
HETATM   21  C8  UNL     1       1.914  10.612  -5.565  1.00  0.00     0.136 C 
HETATM   22  C9  UNL     1       3.255  10.364  -4.910  1.00  0.00     0.142 C 
ENDBRANCH  13  16
BRANCH  14  23
HETATM   23  N3  UNL     1       1.646   9.874  -2.024  1.00  0.00    -0.383 N 
ATOM     24  H3  UNL     1       1.439   9.141  -2.704  1.00  0.00     0.160 HD
BRANCH  23  25
HETATM   25  C11 UNL     1       0.557  10.627  -1.453  1.00  0.00     0.082 A 
HETATM   26  C12 UNL     1       0.714  12.067  -1.266  1.00  0.00     0.027 A 
HETATM   27  C13 UNL     1      -0.152  11.598  -2.378  1.00  0.00     0.027 A 
ENDBRANCH  23  25
ENDBRANCH  14  23
ENDBRANCH   1   9
BRANCH   2  28
HETATM   28  N4  UNL     1       4.557  11.455   2.231  1.00  0.00    -0.355 N 
ATOM     29  H4  UNL     1       5.154  12.258   2.032  1.00  0.00     0.166 HD
BRANCH  28  30
HETATM   30  C18 UNL     1       3.170  11.692   2.329  1.00  0.00     0.032 A 
HETATM   31  C19 UNL     1       2.341  10.736   2.942  1.00  0.00     0.032 A 
HETATM   32  C20 UNL     1       0.992  10.903   3.024  1.00  0.00     0.039 A 
HETATM   33  C21 UNL     1       0.354  12.036   2.502  1.00  0.00     0.069 A 
HETATM   34  C30 UNL     1       1.142  12.968   1.907  1.00  0.00     0.039 A 
HETATM   35  C31 UNL     1       2.520  12.793   1.824  1.00  0.00     0.032 A 
BRANCH  33  36
HETATM   36  O1  UNL     1      -0.998  12.134   2.623  1.00  0.00    -0.345 OA
BRANCH  36  37
HETATM   37  C22 UNL     1      -2.004  11.375   2.016  1.00  0.00     0.137 C 
HETATM   38  C23 UNL     1      -2.460  10.361   3.025  1.00  0.00     0.039 C 
HETATM   39  C24 UNL     1      -3.823   9.806   2.793  1.00  0.00     0.081 C 
HETATM   40  C25 UNL     1      -4.788  11.000   2.849  1.00  0.00     0.244 C 
HETATM   41  F1  UNL     1      -4.471  11.696   4.001  1.00  0.00    -0.206 F 
HETATM   42  F2  UNL     1      -6.087  10.597   2.811  1.00  0.00    -0.206 F 
HETATM   43  C26 UNL     1      -4.469  11.848   1.664  1.00  0.00     0.090 C 
HETATM   44  C27 UNL     1      -3.073  12.331   1.572  1.00  0.00    -0.015 C 
HETATM   45  C28 UNL     1      -2.796  12.612   0.086  1.00  0.00     0.018 C 
HETATM   46  C29 UNL     1      -2.961  13.676   2.276  1.00  0.00     0.018 C 
ENDBRANCH  36  37
ENDBRANCH  33  36
ENDBRANCH  28  30
ENDBRANCH   2  28
TORSDOF 8
ENDMDL
MODEL 5
REMARK VINA RESULT: -6.368740223      2.521      6.740
REMARK  8 active torsions:
REMARK  status: ('A' for Active; 'I' for Inactive)
REMARK    1  A    between atoms: C4_4  and  N1_5 
REMARK    2  A    between atoms: C10_12  and  N3_13 
REMARK    3  A    between atoms: N3_13  and  C11_15 
REMARK    4  A    between atoms: C15_19  and  C16_20 
REMARK    5  A    between atoms: C17_21  and  N4_22 
REMARK    6  A    between atoms: N4_22  and  C18_24 
REMARK    7  A    between atoms: C21_27  and  O1_28 
REMARK    8  A    between atoms: O1_28  and  C22_29 
ROOT
HETATM    1  C16 UNL     1       0.231  12.522  -0.526  1.00  0.00     0.069 A 
HETATM    2  C17 UNL     1       1.446  11.856  -0.779  1.00  0.00     0.050 A 
HETATM    3  C32 UNL     1       2.352  12.527  -1.562  1.00  0.00     0.047 A 
HETATM    4  C33 UNL     1       2.117  13.792  -2.089  1.00  0.00     0.093 A 
HETATM    5  N5  UNL     1       0.945  14.390  -1.821  1.00  0.00    -0.333 N 
ATOM      6  H5  UNL     1       0.744  15.318  -2.193  1.00  0.00     0.168 HD
HETATM    7  C34 UNL     1       0.049  13.758  -1.065  1.00  0.00     0.258 A 
HETATM    8  O2  UNL     1      -1.066  14.326  -0.811  1.00  0.00    -0.267 OA
ENDROOT
BRANCH   1   9
HETATM    9  C15 UNL     1      -0.790  11.871   0.302  1.00  0.00    -0.010 A 
HETATM   10  C2  UNL     1      -0.698  11.949   1.672  1.00  0.00    -0.048 A 
HETATM   11  C1  UNL     1       0.444  12.698   2.268  1.00  0.00     0.049 C 
HETATM   12  C3  UNL     1      -1.629  11.361   2.500  1.00  0.00     0.039 A 
HETATM   13  C4  UNL     1      -2.689  10.668   1.943  1.00  0.00     0.057 A 
HETATM   14  C10 UNL     1      -2.817  10.567   0.579  1.00  0.00     0.056 A 
HETATM   15  C14 UNL     1      -1.856  11.176  -0.225  1.00  0.00     0.044 A 
BRANCH  13  16
HETATM   16  N1  UNL     1      -3.648  10.018   2.784  1.00  0.00    -0.376 N 
HETATM   17  C5  UNL     1      -4.722  10.751   3.406  1.00  0.00     0.142 C 
HETATM   18  C6  UNL     1      -5.616   9.788   4.130  1.00  0.00     0.136 C 
HETATM   19  N2  UNL     1      -4.941   8.921   5.047  1.00  0.00    -0.414 N 
HETATM   20  C7  UNL     1      -4.887   9.367   6.397  1.00  0.00     0.143 C 
HETATM   21  C8  UNL     1      -3.741   8.336   4.527  1.00  0.00     0.136 C 
HETATM   22  C9  UNL     1      -3.568   8.593   3.046  1.00  0.00     0.142 C 
ENDBRANCH  13  16
BRANCH  14  23
HETATM   23  N3  UNL     1      -3.916   9.905  -0.041  1.00  0.00    -0.383 N 
ATOM     24  H3  UNL     1      -3.893   8.890  -0.137  1.00  0.00     0.160 HD
BRANCH  23  25
HETATM   25  C11 UNL     1      -5.059  10.630  -0.537  1.00  0.00     0.082 A 
HETATM   26  C12 UNL     1      -5.225  10.787  -1.980  1.00  0.00     0.027 A 
HETATM   27  C13 UNL     1      -6.104   9.819  -1.278  1.00  0.00     0.027 A 
ENDBRANCH  23  25
ENDBRANCH  14  23
ENDBRANCH   1   9
BRANCH   2  28
HETATM   28  N4  UNL     1       1.616  10.572  -0.256  1.00  0.00    -0.355 N 
ATOM     29  H4  UNL     1       0.828   9.928  -0.335  1.00  0.00     0.166 HD
BRANCH  28  30
HETATM   30  C18 UNL     1       2.783  10.087   0.372  1.00  0.00     0.032 A 
HETATM   31  C19 UNL     1       3.825   9.556  -0.408  1.00  0.00     0.032 A 
HETATM   32  C20 UNL     1       4.953   9.041   0.155  1.00  0.00     0.039 A 
HETATM   33  C21 UNL     1       5.137   9.010   1.544  1.00  0.00     0.069 A 
HETATM   34  C30 UNL     1       4.139   9.519   2.310  1.00  0.00     0.039 A 
HETATM   35  C31 UNL     1       2.988  10.044   1.730  1.00  0.00     0.032 A 
BRANCH  33  36
HETATM   36  O1  UNL     1       6.291   8.480   2.035  1.00  0.00    -0.345 OA
BRANCH  36  37
HETATM   37  C22 UNL     1       6.691   7.143   2.122  1.00  0.00     0.137 C 
HETATM   38  C23 UNL     1       6.771   6.614   0.720  1.00  0.00     0.039 C 
HETATM   39  C24 UNL     1       7.640   5.416   0.544  1.00  0.00     0.081 C 
HETATM   40  C25 UNL     1       9.052   5.844   0.972  1.00  0.00     0.244 C 
HETATM   41  F1  UNL     1       9.308   7.034   0.316  1.00  0.00    -0.206 F 
HETATM   42  F2  UNL     1       9.972   4.878   0.702  1.00  0.00    -0.206 F 
HETATM   43  C26 UNL     1       8.980   6.103   2.439  1.00  0.00     0.090 C 
HETATM   44  C27 UNL     1       7.993   7.118   2.869  1.00  0.00    -0.015 C 
HETATM   45  C28 UNL     1       7.636   6.802   4.330  1.00  0.00     0.018 C 
HETATM   46  C29 UNL     1       8.660   8.486   2.893  1.00  0.00     0.018 C 
ENDBRANCH  36  37
ENDBRANCH  33  36
ENDBRANCH  28  30
ENDBRANCH   2  28
TORSDOF 8
ENDMDL
