MODEL 1
REMARK VINA RESULT: -7.309940264      0.000      0.000
REMARK  9 active torsions:
REMARK  status: ('A' for Active; 'I' for Inactive)
REMARK    1  A    between atoms: C2_3  and  C3_4 
REMARK    2  A    between atoms: C3_4  and  O1_5 
REMARK    3  A    between atoms: C4_7  and  C5_8 
REMARK       I    between atoms: C5_8  and  N2_10 
REMARK    4  A    between atoms: N2_10  and  N3_12 
REMARK    5  A    between atoms: N3_12  and  C6_13 
REMARK    6  A    between atoms: C6_13  and  O3_14 
REMARK    7  A    between atoms: C7_16  and  N4_17 
REMARK    8  A    between atoms: N4_17  and  C8_19 
REMARK    9  A    between atoms: C11_22  and  C12_23 
ROOT
HETATM    1  N3  UNL     1      -0.870   7.078  81.250  1.00  0.00    -0.295 NA
ENDROOT
BRANCH   1   2
HETATM    2  N2  UNL     1       0.372   7.007  80.646  1.00  0.00    -0.196 N 
HETATM    3  C5  UNL     1       1.186   5.905  80.931  1.00  0.00     0.287 C 
HETATM    4  O2  UNL     1       0.567   4.956  81.564  1.00  0.00    -0.265 OA
ATOM      5  H2  UNL     1       0.686   7.739  80.008  1.00  0.00     0.205 HD
BRANCH   3   6
HETATM    6  C4  UNL     1       2.577   5.640  80.717  1.00  0.00     0.127 A 
HETATM    7  C2  UNL     1       3.606   6.037  81.582  1.00  0.00     0.060 A 
HETATM    8  N1  UNL     1       4.868   6.196  81.089  1.00  0.00    -0.304 N 
HETATM    9  C1  UNL     1       6.001   6.763  81.812  1.00  0.00     0.161 C 
HETATM   10  C15 UNL     1       5.160   5.964  79.775  1.00  0.00     0.331 A 
HETATM   11  N8  UNL     1       4.181   5.556  78.912  1.00  0.00    -0.270 N 
HETATM   12  O6  UNL     1       6.328   6.146  79.331  1.00  0.00    -0.246 OA
HETATM   13  C13 UNL     1       2.945   5.404  79.357  1.00  0.00     0.269 A 
HETATM   14  C14 UNL     1       4.506   5.395  77.495  1.00  0.00     0.164 C 
HETATM   15  O5  UNL     1       2.006   5.040  78.618  1.00  0.00    -0.267 OA
BRANCH   7  16
HETATM   16  C3  UNL     1       3.307   6.014  83.004  1.00  0.00     0.222 C 
BRANCH  16  17
HETATM   17  O1  UNL     1       2.961   4.844  83.581  1.00  0.00    -0.395 OA
ATOM     18  H1  UNL     1       3.217   4.030  83.162  1.00  0.00     0.209 HD
ENDBRANCH  16  17
ENDBRANCH   7  16
ENDBRANCH   3   6
ENDBRANCH   1   2
BRANCH   1  19
HETATM   19  C6  UNL     1      -2.016   7.151  81.820  1.00  0.00     0.254 C 
HETATM   20  C7  UNL     1      -2.666   6.878  83.050  1.00  0.00     0.163 C 
BRANCH  19  21
HETATM   21  O3  UNL     1      -3.049   7.660  80.985  1.00  0.00    -0.333 OA
ATOM     22  H3  UNL     1      -3.892   7.242  81.112  1.00  0.00     0.220 HD
ENDBRANCH  19  21
BRANCH  20  23
HETATM   23  N4  UNL     1      -2.006   6.520  84.263  1.00  0.00    -0.346 N 
ATOM     24  H4  UNL     1      -1.550   7.222  84.846  1.00  0.00     0.167 HD
BRANCH  23  25
HETATM   25  C8  UNL     1      -2.010   5.247  84.602  1.00  0.00     0.119 A 
HETATM   26  C9  UNL     1      -2.282   4.820  85.879  1.00  0.00     0.052 A 
HETATM   27  C10 UNL     1      -1.879   3.580  86.361  1.00  0.00     0.040 A 
HETATM   28  C11 UNL     1      -1.195   2.728  85.507  1.00  0.00     0.113 A 
HETATM   29  N6  UNL     1      -0.980   3.160  84.291  1.00  0.00    -0.294 N 
HETATM   30  N7  UNL     1      -1.343   4.356  83.795  1.00  0.00    -0.285 N 
ATOM     31  H6  UNL     1      -0.490   2.529  83.657  1.00  0.00     0.187 HD
ATOM     32  H7  UNL     1      -1.124   4.601  82.830  1.00  0.00     0.188 HD
BRANCH  28  33
HETATM   33  C12 UNL     1      -0.713   1.440  86.075  1.00  0.00     0.282 C 
HETATM   34  N5  UNL     1      -1.729   0.652  86.785  1.00  0.00    -0.056 NA
HETATM   35  O4  UNL     1       0.418   1.028  85.988  1.00  0.00    -0.269 OA
ENDBRANCH  28  33
ENDBRANCH  23  25
ENDBRANCH  20  23
ENDBRANCH   1  19
TORSDOF 9
ENDMDL
MODEL 2
REMARK VINA RESULT: -7.285893513      1.407      1.461
REMARK  9 active torsions:
REMARK  status: ('A' for Active; 'I' for Inactive)
REMARK    1  A    between atoms: C2_3  and  C3_4 
REMARK    2  A    between atoms: C3_4  and  O1_5 
REMARK    3  A    between atoms: C4_7  and  C5_8 
REMARK       I    between atoms: C5_8  and  N2_10 
REMARK    4  A    between atoms: N2_10  and  N3_12 
REMARK    5  A    between atoms: N3_12  and  C6_13 
REMARK    6  A    between atoms: C6_13  and  O3_14 
REMARK    7  A    between atoms: C7_16  and  N4_17 
REMARK    8  A    between atoms: N4_17  and  C8_19 
REMARK    9  A    between atoms: C11_22  and  C12_23 
ROOT
HETATM    1  N3  UNL     1      -0.294   7.905  82.142  1.00  0.00    -0.295 NA
ENDROOT
BRANCH   1   2
HETATM    2  N2  UNL     1       0.624   7.573  81.163  1.00  0.00    -0.196 N 
HETATM    3  C5  UNL     1       0.909   6.219  80.953  1.00  0.00     0.287 C 
HETATM    4  O2  UNL     1       0.091   5.419  81.563  1.00  0.00    -0.265 OA
ATOM      5  H2  UNL     1       1.081   8.297  80.607  1.00  0.00     0.205 HD
BRANCH   3   6
HETATM    6  C4  UNL     1       1.956   5.543  80.249  1.00  0.00     0.127 A 
HETATM    7  C2  UNL     1       3.193   5.189  80.806  1.00  0.00     0.060 A 
HETATM    8  N1  UNL     1       4.271   5.023  79.988  1.00  0.00    -0.304 N 
HETATM    9  C1  UNL     1       5.650   4.826  80.422  1.00  0.00     0.161 C 
HETATM   10  C15 UNL     1       4.175   5.176  78.633  1.00  0.00     0.331 A 
HETATM   11  N8  UNL     1       2.977   5.500  78.059  1.00  0.00    -0.270 N 
HETATM   12  O6  UNL     1       5.192   5.047  77.896  1.00  0.00    -0.246 OA
HETATM   13  C13 UNL     1       1.916   5.680  78.827  1.00  0.00     0.269 A 
HETATM   14  C14 UNL     1       2.923   5.738  76.617  1.00  0.00     0.164 C 
HETATM   15  O5  UNL     1       0.797   5.982  78.364  1.00  0.00    -0.267 OA
BRANCH   7  16
HETATM   16  C3  UNL     1       3.186   4.782  82.201  1.00  0.00     0.222 C 
BRANCH  16  17
HETATM   17  O1  UNL     1       2.260   3.894  82.618  1.00  0.00    -0.395 OA
ATOM     18  H1  UNL     1       2.044   3.853  83.543  1.00  0.00     0.209 HD
ENDBRANCH  16  17
ENDBRANCH   7  16
ENDBRANCH   3   6
ENDBRANCH   1   2
BRANCH   1  19
HETATM   19  C6  UNL     1      -1.136   8.222  83.056  1.00  0.00     0.254 C 
HETATM   20  C7  UNL     1      -1.504   7.904  84.387  1.00  0.00     0.163 C 
BRANCH  19  21
HETATM   21  O3  UNL     1      -2.067   9.225  82.665  1.00  0.00    -0.333 OA
ATOM     22  H3  UNL     1      -2.921   9.141  83.073  1.00  0.00     0.220 HD
ENDBRANCH  19  21
BRANCH  20  23
HETATM   23  N4  UNL     1      -0.749   7.077  85.271  1.00  0.00    -0.346 N 
ATOM     24  H4  UNL     1      -0.146   7.479  85.989  1.00  0.00     0.167 HD
BRANCH  23  25
HETATM   25  C8  UNL     1      -0.863   5.773  85.125  1.00  0.00     0.119 A 
HETATM   26  C9  UNL     1      -1.917   5.057  85.638  1.00  0.00     0.052 A 
HETATM   27  C10 UNL     1      -1.853   3.691  85.882  1.00  0.00     0.040 A 
HETATM   28  C11 UNL     1      -0.682   3.016  85.569  1.00  0.00     0.113 A 
HETATM   29  N6  UNL     1       0.288   3.728  85.055  1.00  0.00    -0.294 N 
HETATM   30  N7  UNL     1       0.266   5.051  84.819  1.00  0.00    -0.285 N 
ATOM     31  H6  UNL     1       1.145   3.230  84.811  1.00  0.00     0.187 HD
ATOM     32  H7  UNL     1       1.081   5.516  84.417  1.00  0.00     0.188 HD
BRANCH  28  33
HETATM   33  C12 UNL     1      -0.620   1.569  85.910  1.00  0.00     0.282 C 
HETATM   34  N5  UNL     1      -1.899   0.964  86.302  1.00  0.00    -0.056 NA
HETATM   35  O4  UNL     1       0.382   0.897  85.884  1.00  0.00    -0.269 OA
ENDBRANCH  28  33
ENDBRANCH  23  25
ENDBRANCH  20  23
ENDBRANCH   1  19
TORSDOF 9
ENDMDL
MODEL 3
REMARK VINA RESULT: -7.252142176      2.776      4.658
REMARK  9 active torsions:
REMARK  status: ('A' for Active; 'I' for Inactive)
REMARK    1  A    between atoms: C2_3  and  C3_4 
REMARK    2  A    between atoms: C3_4  and  O1_5 
REMARK    3  A    between atoms: C4_7  and  C5_8 
REMARK       I    between atoms: C5_8  and  N2_10 
REMARK    4  A    between atoms: N2_10  and  N3_12 
REMARK    5  A    between atoms: N3_12  and  C6_13 
REMARK    6  A    between atoms: C6_13  and  O3_14 
REMARK    7  A    between atoms: C7_16  and  N4_17 
REMARK    8  A    between atoms: N4_17  and  C8_19 
REMARK    9  A    between atoms: C11_22  and  C12_23 
ROOT
HETATM    1  N3  UNL     1      -0.362   2.300  82.769  1.00  0.00    -0.295 NA
ENDROOT
BRANCH   1   2
HETATM    2  N2  UNL     1      -0.465   3.527  82.141  1.00  0.00    -0.196 N 
HETATM    3  C5  UNL     1       0.682   4.325  82.053  1.00  0.00     0.287 C 
HETATM    4  O2  UNL     1       1.771   3.701  82.380  1.00  0.00    -0.265 OA
ATOM      5  H2  UNL     1      -1.353   3.843  81.751  1.00  0.00     0.205 HD
BRANCH   3   6
HETATM    6  C4  UNL     1       0.885   5.705  81.733  1.00  0.00     0.127 A 
HETATM    7  C2  UNL     1       1.646   6.599  82.499  1.00  0.00     0.060 A 
HETATM    8  N1  UNL     1       1.386   7.935  82.420  1.00  0.00    -0.304 N 
HETATM    9  C1  UNL     1       1.966   8.969  83.271  1.00  0.00     0.161 C 
HETATM   10  C15 UNL     1       0.412   8.430  81.599  1.00  0.00     0.331 A 
HETATM   11  N8  UNL     1      -0.332   7.585  80.824  1.00  0.00    -0.270 N 
HETATM   12  O6  UNL     1       0.168   9.669  81.563  1.00  0.00    -0.246 OA
HETATM   13  C13 UNL     1      -0.113   6.283  80.888  1.00  0.00     0.269 A 
HETATM   14  C14 UNL     1      -1.422   8.136  80.018  1.00  0.00     0.164 C 
HETATM   15  O5  UNL     1      -0.762   5.460  80.210  1.00  0.00    -0.267 OA
BRANCH   7  16
HETATM   16  C3  UNL     1       2.830   6.057  83.145  1.00  0.00     0.222 C 
BRANCH  16  17
HETATM   17  O1  UNL     1       2.707   5.478  84.357  1.00  0.00    -0.395 OA
ATOM     18  H1  UNL     1       2.523   6.025  85.112  1.00  0.00     0.209 HD
ENDBRANCH  16  17
ENDBRANCH   7  16
ENDBRANCH   3   6
ENDBRANCH   1   2
BRANCH   1  19
HETATM   19  C6  UNL     1      -0.277   1.157  83.344  1.00  0.00     0.254 C 
HETATM   20  C7  UNL     1      -0.041   0.563  84.609  1.00  0.00     0.163 C 
BRANCH  19  21
HETATM   21  O3  UNL     1      -0.454   0.050  82.467  1.00  0.00    -0.333 OA
ATOM     22  H3  UNL     1       0.198  -0.632  82.566  1.00  0.00     0.220 HD
ENDBRANCH  19  21
BRANCH  20  23
HETATM   23  N4  UNL     1       0.015   1.269  85.848  1.00  0.00    -0.346 N 
ATOM     24  H4  UNL     1       0.358   0.822  86.698  1.00  0.00     0.167 HD
BRANCH  23  25
HETATM   25  C8  UNL     1      -0.392   2.522  85.850  1.00  0.00     0.119 A 
HETATM   26  C9  UNL     1      -1.719   2.871  85.767  1.00  0.00     0.052 A 
HETATM   27  C10 UNL     1      -2.143   4.122  85.335  1.00  0.00     0.040 A 
HETATM   28  C11 UNL     1      -1.186   5.067  84.998  1.00  0.00     0.113 A 
HETATM   29  N6  UNL     1       0.066   4.705  85.117  1.00  0.00    -0.294 N 
HETATM   30  N7  UNL     1       0.513   3.501  85.518  1.00  0.00    -0.285 N 
ATOM     31  H6  UNL     1       0.772   5.404  84.884  1.00  0.00     0.187 HD
ATOM     32  H7  UNL     1       1.514   3.317  85.574  1.00  0.00     0.188 HD
BRANCH  28  33
HETATM   33  C12 UNL     1      -1.673   6.370  84.470  1.00  0.00     0.282 C 
HETATM   34  N5  UNL     1      -2.612   6.276  83.345  1.00  0.00    -0.056 NA
HETATM   35  O4  UNL     1      -1.350   7.451  84.898  1.00  0.00    -0.269 OA
ENDBRANCH  28  33
ENDBRANCH  23  25
ENDBRANCH  20  23
ENDBRANCH   1  19
TORSDOF 9
ENDMDL
MODEL 4
REMARK VINA RESULT: -7.248453086      1.735      2.066
REMARK  9 active torsions:
REMARK  status: ('A' for Active; 'I' for Inactive)
REMARK    1  A    between atoms: C2_3  and  C3_4 
REMARK    2  A    between atoms: C3_4  and  O1_5 
REMARK    3  A    between atoms: C4_7  and  C5_8 
REMARK       I    between atoms: C5_8  and  N2_10 
REMARK    4  A    between atoms: N2_10  and  N3_12 
REMARK    5  A    between atoms: N3_12  and  C6_13 
REMARK    6  A    between atoms: C6_13  and  O3_14 
REMARK    7  A    between atoms: C7_16  and  N4_17 
REMARK    8  A    between atoms: N4_17  and  C8_19 
REMARK    9  A    between atoms: C11_22  and  C12_23 
ROOT
HETATM    1  N3  UNL     1       0.766   7.460  82.997  1.00  0.00    -0.295 NA
ENDROOT
BRANCH   1   2
HETATM    2  N2  UNL     1       1.320   7.311  81.739  1.00  0.00    -0.196 N 
HETATM    3  C5  UNL     1       1.515   6.014  81.250  1.00  0.00     0.287 C 
HETATM    4  O2  UNL     1       0.931   5.101  81.962  1.00  0.00    -0.265 OA
ATOM      5  H2  UNL     1       1.580   8.125  81.182  1.00  0.00     0.205 HD
BRANCH   3   6
HETATM    6  C4  UNL     1       2.279   5.490  80.158  1.00  0.00     0.127 A 
HETATM    7  C2  UNL     1       3.649   5.202  80.208  1.00  0.00     0.060 A 
HETATM    8  N1  UNL     1       4.373   5.196  79.053  1.00  0.00    -0.304 N 
HETATM    9  C1  UNL     1       5.825   5.085  78.956  1.00  0.00     0.161 C 
HETATM   10  C15 UNL     1       3.795   5.450  77.841  1.00  0.00     0.331 A 
HETATM   11  N8  UNL     1       2.456   5.714  77.758  1.00  0.00    -0.270 N 
HETATM   12  O6  UNL     1       4.489   5.470  76.786  1.00  0.00    -0.246 OA
HETATM   13  C13 UNL     1       1.729   5.739  78.862  1.00  0.00     0.269 A 
HETATM   14  C14 UNL     1       1.881   6.063  76.459  1.00  0.00     0.164 C 
HETATM   15  O5  UNL     1       0.504   5.979  78.853  1.00  0.00    -0.267 OA
BRANCH   7  16
HETATM   16  C3  UNL     1       4.159   4.684  81.467  1.00  0.00     0.222 C 
BRANCH  16  17
HETATM   17  O1  UNL     1       3.714   3.490  81.912  1.00  0.00    -0.395 OA
ATOM     18  H1  UNL     1       3.422   3.414  82.812  1.00  0.00     0.209 HD
ENDBRANCH  16  17
ENDBRANCH   7  16
ENDBRANCH   3   6
ENDBRANCH   1   2
BRANCH   1  19
HETATM   19  C6  UNL     1       0.242   7.604  84.159  1.00  0.00     0.254 C 
HETATM   20  C7  UNL     1      -0.953   7.354  84.878  1.00  0.00     0.163 C 
BRANCH  19  21
HETATM   21  O3  UNL     1       1.092   8.245  85.104  1.00  0.00    -0.333 OA
ATOM     22  H3  UNL     1       1.127   9.190  85.015  1.00  0.00     0.220 HD
ENDBRANCH  19  21
BRANCH  20  23
HETATM   23  N4  UNL     1      -2.043   6.563  84.407  1.00  0.00    -0.346 N 
ATOM     24  H4  UNL     1      -2.797   6.972  83.856  1.00  0.00     0.167 HD
BRANCH  23  25
HETATM   25  C8  UNL     1      -2.036   5.281  84.712  1.00  0.00     0.119 A 
HETATM   26  C9  UNL     1      -2.295   4.818  85.979  1.00  0.00     0.052 A 
HETATM   27  C10 UNL     1      -1.879   3.569  86.425  1.00  0.00     0.040 A 
HETATM   28  C11 UNL     1      -1.195   2.745  85.544  1.00  0.00     0.113 A 
HETATM   29  N6  UNL     1      -0.993   3.210  84.338  1.00  0.00    -0.294 N 
HETATM   30  N7  UNL     1      -1.368   4.417  83.877  1.00  0.00    -0.285 N 
ATOM     31  H6  UNL     1      -0.503   2.600  83.684  1.00  0.00     0.187 HD
ATOM     32  H7  UNL     1      -1.158   4.689  82.916  1.00  0.00     0.188 HD
BRANCH  28  33
HETATM   33  C12 UNL     1      -0.701   1.446  86.074  1.00  0.00     0.282 C 
HETATM   34  N5  UNL     1      -1.712   0.619  86.744  1.00  0.00    -0.056 NA
HETATM   35  O4  UNL     1       0.438   1.054  85.987  1.00  0.00    -0.269 OA
ENDBRANCH  28  33
ENDBRANCH  23  25
ENDBRANCH  20  23
ENDBRANCH   1  19
TORSDOF 9
ENDMDL
MODEL 5
REMARK VINA RESULT: -7.247004371      1.873      2.964
REMARK  9 active torsions:
REMARK  status: ('A' for Active; 'I' for Inactive)
REMARK    1  A    between atoms: C2_3  and  C3_4 
REMARK    2  A    between atoms: C3_4  and  O1_5 
REMARK    3  A    between atoms: C4_7  and  C5_8 
REMARK       I    between atoms: C5_8  and  N2_10 
REMARK    4  A    between atoms: N2_10  and  N3_12 
REMARK    5  A    between atoms: N3_12  and  C6_13 
REMARK    6  A    between atoms: C6_13  and  O3_14 
REMARK    7  A    between atoms: C7_16  and  N4_17 
REMARK    8  A    between atoms: N4_17  and  C8_19 
REMARK    9  A    between atoms: C11_22  and  C12_23 
ROOT
HETATM    1  N3  UNL     1       1.293   7.758  81.987  1.00  0.00    -0.295 NA
ENDROOT
BRANCH   1   2
HETATM    2  N2  UNL     1       2.401   7.812  81.162  1.00  0.00    -0.196 N 
HETATM    3  C5  UNL     1       3.032   6.610  80.821  1.00  0.00     0.287 C 
HETATM    4  O2  UNL     1       2.348   5.557  81.145  1.00  0.00    -0.265 OA
ATOM      5  H2  UNL     1       2.750   8.704  80.811  1.00  0.00     0.205 HD
BRANCH   3   6
HETATM    6  C4  UNL     1       4.306   6.310  80.239  1.00  0.00     0.127 A 
HETATM    7  C2  UNL     1       4.495   5.532  79.089  1.00  0.00     0.060 A 
HETATM    8  N1  UNL     1       5.687   4.896  78.901  1.00  0.00    -0.304 N 
HETATM    9  C1  UNL     1       5.978   3.923  77.854  1.00  0.00     0.161 C 
HETATM   10  C15 UNL     1       6.711   5.010  79.798  1.00  0.00     0.331 A 
HETATM   11  N8  UNL     1       6.563   5.778  80.919  1.00  0.00    -0.270 N 
HETATM   12  O6  UNL     1       7.796   4.389  79.621  1.00  0.00    -0.246 OA
HETATM   13  C13 UNL     1       5.415   6.398  81.136  1.00  0.00     0.269 A 
HETATM   14  C14 UNL     1       7.646   5.815  81.902  1.00  0.00     0.164 C 
HETATM   15  O5  UNL     1       5.217   7.109  82.143  1.00  0.00    -0.267 OA
BRANCH   7  16
HETATM   16  C3  UNL     1       3.488   5.655  78.048  1.00  0.00     0.222 C 
BRANCH  16  17
HETATM   17  O1  UNL     1       2.464   4.777  78.022  1.00  0.00    -0.395 OA
ATOM     18  H1  UNL     1       2.539   3.967  78.512  1.00  0.00     0.209 HD
ENDBRANCH  16  17
ENDBRANCH   7  16
ENDBRANCH   3   6
ENDBRANCH   1   2
BRANCH   1  19
HETATM   19  C6  UNL     1       0.258   7.714  82.743  1.00  0.00     0.254 C 
HETATM   20  C7  UNL     1      -0.282   7.014  83.850  1.00  0.00     0.163 C 
BRANCH  19  21
HETATM   21  O3  UNL     1      -0.750   8.660  82.402  1.00  0.00    -0.333 OA
ATOM     22  H3  UNL     1      -1.511   8.636  82.969  1.00  0.00     0.220 HD
ENDBRANCH  19  21
BRANCH  20  23
HETATM   23  N4  UNL     1       0.436   6.085  84.661  1.00  0.00    -0.346 N 
ATOM     24  H4  UNL     1       1.351   6.315  85.048  1.00  0.00     0.167 HD
BRANCH  23  25
HETATM   25  C8  UNL     1      -0.131   4.919  84.891  1.00  0.00     0.119 A 
HETATM   26  C9  UNL     1      -1.476   4.782  85.133  1.00  0.00     0.052 A 
HETATM   27  C10 UNL     1      -2.016   3.683  85.790  1.00  0.00     0.040 A 
HETATM   28  C11 UNL     1      -1.162   2.668  86.196  1.00  0.00     0.113 A 
HETATM   29  N6  UNL     1       0.108   2.822  85.921  1.00  0.00    -0.294 N 
HETATM   30  N7  UNL     1       0.666   3.877  85.301  1.00  0.00    -0.285 N 
ATOM     31  H6  UNL     1       0.735   2.070  86.206  1.00  0.00     0.187 HD
ATOM     32  H7  UNL     1       1.672   3.903  85.136  1.00  0.00     0.188 HD
BRANCH  28  33
HETATM   33  C12 UNL     1      -1.761   1.541  86.960  1.00  0.00     0.282 C 
HETATM   34  N5  UNL     1      -3.169   1.259  86.657  1.00  0.00    -0.056 NA
HETATM   35  O4  UNL     1      -1.176   0.877  87.782  1.00  0.00    -0.269 OA
ENDBRANCH  28  33
ENDBRANCH  23  25
ENDBRANCH  20  23
ENDBRANCH   1  19
TORSDOF 9
ENDMDL
