MODEL 1
REMARK VINA RESULT: -8.208468958      0.000      0.000
REMARK  6 active torsions:
REMARK  status: ('A' for Active; 'I' for Inactive)
REMARK    1  A    between atoms: N1_2  and  C2_3 
REMARK    2  A    between atoms: N1_2  and  C5_10 
REMARK    3  A    between atoms: C2_3  and  C3_4 
REMARK    4  A    between atoms: C3_4  and  C4_5 
REMARK    5  A    between atoms: C4_5  and  N2_6 
REMARK    6  A    between atoms: C16_27  and  N5_28 
ROOT
HETATM    1  C5  UNL     1      16.085   7.760  11.899  1.00  0.00     0.683 A 
HETATM    2  N3  UNL     1      15.463   8.870  11.480  1.00  0.00    -0.184 N 
ATOM      3  H3  UNL     1      15.659   9.218  10.541  1.00  0.00     0.185 HD
HETATM    4  C6  UNL     1      14.578   9.554  12.262  1.00  0.00     0.107 A 
HETATM    5  S1  UNL     1      13.663  10.972  12.032  1.00  0.00    -0.073 SA
HETATM    6  C7  UNL     1      12.882  11.051  13.528  1.00  0.00     0.022 A 
HETATM    7  C8  UNL     1      13.368   9.927  14.204  1.00  0.00    -0.024 A 
HETATM    8  C9  UNL     1      14.245   9.160  13.542  1.00  0.00     0.074 A 
HETATM    9  C10 UNL     1      14.908   7.993  13.966  1.00  0.00     0.273 A 
HETATM   10  O1  UNL     1      14.744   7.473  15.100  1.00  0.00    -0.267 OA
HETATM   11  N4  UNL     1      15.770   7.370  13.144  1.00  0.00    -0.155 N 
ATOM     12  H4  UNL     1      16.225   6.527  13.497  1.00  0.00     0.187 HD
HETATM   13  C11 UNL     1      12.924   9.542  15.599  1.00  0.00     0.041 C 
HETATM   14  C12 UNL     1      13.282  10.642  16.581  1.00  0.00     0.005 C 
HETATM   15  C13 UNL     1      12.079  11.347  17.135  1.00  0.00     0.000 C 
HETATM   16  C14 UNL     1      11.128  11.862  16.101  1.00  0.00     0.002 C 
HETATM   17  C15 UNL     1      11.903  12.701  15.136  1.00  0.00     0.038 C 
HETATM   18  C16 UNL     1      11.966  12.200  13.739  1.00  0.00     0.223 C 
ENDROOT
BRANCH   1  19
HETATM   19  N1  UNL     1      16.999   7.028  11.098  1.00  0.00    -0.222 N 
HETATM   20  C1  UNL     1      17.195   5.613  11.368  1.00  0.00     0.168 C 
BRANCH  19  21
HETATM   21  C2  UNL     1      17.745   7.637  10.050  1.00  0.00     0.142 C 
BRANCH  21  22
HETATM   22  C3  UNL     1      17.315   7.354   8.660  1.00  0.00     0.048 C 
BRANCH  22  23
HETATM   23  C4  UNL     1      16.559   8.409   7.942  1.00  0.00     0.231 C 
BRANCH  23  24
HETATM   24  N2  UNL     1      17.231   9.008   6.818  1.00  0.00    -0.079 N 
ATOM     25  H23 UNL     1      17.870   8.334   6.397  1.00  0.00     0.274 HD
ATOM     26  H22 UNL     1      16.572   9.141   6.051  1.00  0.00     0.274 HD
ATOM     27  H21 UNL     1      17.723   9.881   7.009  1.00  0.00     0.274 HD
ENDBRANCH  23  24
ENDBRANCH  22  23
ENDBRANCH  21  22
ENDBRANCH  19  21
ENDBRANCH   1  19
BRANCH  18  28
HETATM   28  N5  UNL     1      10.717  11.915  13.108  1.00  0.00    -0.070 N 
ATOM     29  H53 UNL     1      10.749  12.053  12.099  1.00  0.00     0.275 HD
ATOM     30  H52 UNL     1      10.499  10.919  13.108  1.00  0.00     0.275 HD
ATOM     31  H51 UNL     1       9.988  12.473  13.555  1.00  0.00     0.275 HD
ENDBRANCH  18  28
TORSDOF 6
ENDMDL
MODEL 2
REMARK VINA RESULT: -8.111060454      2.263      7.503
REMARK  6 active torsions:
REMARK  status: ('A' for Active; 'I' for Inactive)
REMARK    1  A    between atoms: N1_2  and  C2_3 
REMARK    2  A    between atoms: N1_2  and  C5_10 
REMARK    3  A    between atoms: C2_3  and  C3_4 
REMARK    4  A    between atoms: C3_4  and  C4_5 
REMARK    5  A    between atoms: C4_5  and  N2_6 
REMARK    6  A    between atoms: C16_27  and  N5_28 
ROOT
HETATM    1  C5  UNL     1      12.924  10.484  14.792  1.00  0.00     0.683 A 
HETATM    2  N3  UNL     1      13.039  11.068  13.592  1.00  0.00    -0.184 N 
ATOM      3  H3  UNL     1      12.531  11.935  13.417  1.00  0.00     0.185 HD
HETATM    4  C6  UNL     1      13.811  10.548  12.594  1.00  0.00     0.107 A 
HETATM    5  S1  UNL     1      14.140  11.028  10.994  1.00  0.00    -0.073 SA
HETATM    6  C7  UNL     1      15.176   9.776  10.529  1.00  0.00     0.022 A 
HETATM    7  C8  UNL     1      15.249   8.978  11.675  1.00  0.00    -0.024 A 
HETATM    8  C9  UNL     1      14.538   9.383  12.736  1.00  0.00     0.074 A 
HETATM    9  C10 UNL     1      14.404   8.782  14.003  1.00  0.00     0.273 A 
HETATM   10  O1  UNL     1      14.984   7.714  14.330  1.00  0.00    -0.267 OA
HETATM   11  N4  UNL     1      13.625   9.349  14.939  1.00  0.00    -0.155 N 
ATOM     12  H4  UNL     1      13.561   8.876  15.841  1.00  0.00     0.187 HD
HETATM   13  C11 UNL     1      16.101   7.731  11.763  1.00  0.00     0.041 C 
HETATM   14  C12 UNL     1      15.643   6.713  10.735  1.00  0.00     0.005 C 
HETATM   15  C13 UNL     1      16.648   6.492   9.641  1.00  0.00     0.000 C 
HETATM   16  C14 UNL     1      17.116   7.741   8.965  1.00  0.00     0.002 C 
HETATM   17  C15 UNL     1      15.912   8.500   8.506  1.00  0.00     0.038 C 
HETATM   18  C16 UNL     1      15.694   9.826   9.139  1.00  0.00     0.223 C 
ENDROOT
BRANCH   1  19
HETATM   19  N1  UNL     1      12.136  11.016  15.845  1.00  0.00    -0.222 N 
HETATM   20  C1  UNL     1      11.324  12.195  15.592  1.00  0.00     0.168 C 
BRANCH  19  21
HETATM   21  C2  UNL     1      12.127  10.443  17.149  1.00  0.00     0.142 C 
BRANCH  21  22
HETATM   22  C3  UNL     1      11.326  11.134  18.186  1.00  0.00     0.048 C 
BRANCH  22  23
HETATM   23  C4  UNL     1      11.277  10.527  19.539  1.00  0.00     0.231 C 
BRANCH  23  24
HETATM   24  N2  UNL     1      11.770   9.178  19.639  1.00  0.00    -0.079 N 
ATOM     25  H23 UNL     1      10.991   8.520  19.606  1.00  0.00     0.274 HD
ATOM     26  H22 UNL     1      12.261   8.923  18.782  1.00  0.00     0.274 HD
ATOM     27  H21 UNL     1      12.359   8.978  20.449  1.00  0.00     0.274 HD
ENDBRANCH  23  24
ENDBRANCH  22  23
ENDBRANCH  21  22
ENDBRANCH  19  21
ENDBRANCH   1  19
BRANCH  18  28
HETATM   28  N5  UNL     1      16.788  10.742   9.087  1.00  0.00    -0.070 N 
ATOM     29  H53 UNL     1      17.307  10.680   8.212  1.00  0.00     0.275 HD
ATOM     30  H52 UNL     1      16.482  11.711   9.002  1.00  0.00     0.275 HD
ATOM     31  H51 UNL     1      17.382  10.592   9.903  1.00  0.00     0.275 HD
ENDBRANCH  18  28
TORSDOF 6
ENDMDL
MODEL 3
REMARK VINA RESULT: -8.097671635      2.434      7.842
REMARK  6 active torsions:
REMARK  status: ('A' for Active; 'I' for Inactive)
REMARK    1  A    between atoms: N1_2  and  C2_3 
REMARK    2  A    between atoms: N1_2  and  C5_10 
REMARK    3  A    between atoms: C2_3  and  C3_4 
REMARK    4  A    between atoms: C3_4  and  C4_5 
REMARK    5  A    between atoms: C4_5  and  N2_6 
REMARK    6  A    between atoms: C16_27  and  N5_28 
ROOT
HETATM    1  C5  UNL     1      13.134  10.621  14.038  1.00  0.00     0.683 A 
HETATM    2  N3  UNL     1      14.073   9.674  14.157  1.00  0.00    -0.184 N 
ATOM      3  H3  UNL     1      14.281   9.303  15.085  1.00  0.00     0.185 HD
HETATM    4  C6  UNL     1      14.762   9.185  13.085  1.00  0.00     0.107 A 
HETATM    5  S1  UNL     1      15.996   8.025  12.915  1.00  0.00    -0.073 SA
HETATM    6  C7  UNL     1      16.226   8.098  11.243  1.00  0.00     0.022 A 
HETATM    7  C8  UNL     1      15.299   9.062  10.834  1.00  0.00    -0.024 A 
HETATM    8  C9  UNL     1      14.549   9.620  11.793  1.00  0.00     0.074 A 
HETATM    9  C10 UNL     1      13.560  10.617  11.687  1.00  0.00     0.273 A 
HETATM   10  O1  UNL     1      13.220  11.145  10.596  1.00  0.00    -0.267 OA
HETATM   11  N4  UNL     1      12.921  11.054  12.785  1.00  0.00    -0.155 N 
ATOM     12  H4  UNL     1      12.212  11.776  12.656  1.00  0.00     0.187 HD
HETATM   13  C11 UNL     1      15.100   9.459   9.387  1.00  0.00     0.041 C 
HETATM   14  C12 UNL     1      16.384  10.041   8.825  1.00  0.00     0.005 C 
HETATM   15  C13 UNL     1      17.016   9.167   7.782  1.00  0.00     0.000 C 
HETATM   16  C14 UNL     1      17.230   7.748   8.206  1.00  0.00     0.002 C 
HETATM   17  C15 UNL     1      17.986   7.758   9.496  1.00  0.00     0.038 C 
HETATM   18  C16 UNL     1      17.271   7.209  10.677  1.00  0.00     0.223 C 
ENDROOT
BRANCH   1  19
HETATM   19  N1  UNL     1      12.399  11.134  15.138  1.00  0.00    -0.222 N 
HETATM   20  C1  UNL     1      11.537  12.287  14.933  1.00  0.00     0.168 C 
BRANCH  19  21
HETATM   21  C2  UNL     1      12.490  10.569  16.441  1.00  0.00     0.142 C 
BRANCH  21  22
HETATM   22  C3  UNL     1      11.554  11.082  17.469  1.00  0.00     0.048 C 
BRANCH  22  23
HETATM   23  C4  UNL     1      12.106  11.400  18.809  1.00  0.00     0.231 C 
BRANCH  23  24
HETATM   24  N2  UNL     1      12.877  12.613  18.897  1.00  0.00    -0.079 N 
ATOM     25  H23 UNL     1      12.786  13.146  18.033  1.00  0.00     0.274 HD
ATOM     26  H22 UNL     1      12.438  13.256  19.556  1.00  0.00     0.274 HD
ATOM     27  H21 UNL     1      13.864  12.496  19.131  1.00  0.00     0.274 HD
ENDBRANCH  23  24
ENDBRANCH  22  23
ENDBRANCH  21  22
ENDBRANCH  19  21
ENDBRANCH   1  19
BRANCH  18  28
HETATM   28  N5  UNL     1      16.732   5.894  10.539  1.00  0.00    -0.070 N 
ATOM     29  H53 UNL     1      17.399   5.239  10.131  1.00  0.00     0.275 HD
ATOM     30  H52 UNL     1      16.607   5.427  11.437  1.00  0.00     0.275 HD
ATOM     31  H51 UNL     1      15.864   5.949  10.005  1.00  0.00     0.275 HD
ENDBRANCH  18  28
TORSDOF 6
ENDMDL
MODEL 4
REMARK VINA RESULT: -8.085860702      1.180      1.402
REMARK  6 active torsions:
REMARK  status: ('A' for Active; 'I' for Inactive)
REMARK    1  A    between atoms: N1_2  and  C2_3 
REMARK    2  A    between atoms: N1_2  and  C5_10 
REMARK    3  A    between atoms: C2_3  and  C3_4 
REMARK    4  A    between atoms: C3_4  and  C4_5 
REMARK    5  A    between atoms: C4_5  and  N2_6 
REMARK    6  A    between atoms: C16_27  and  N5_28 
ROOT
HETATM    1  C5  UNL     1      16.044   8.349  11.071  1.00  0.00     0.683 A 
HETATM    2  N3  UNL     1      15.319   9.444  10.810  1.00  0.00    -0.184 N 
ATOM      3  H3  UNL     1      15.416   9.891   9.898  1.00  0.00     0.185 HD
HETATM    4  C6  UNL     1      14.455   9.987  11.717  1.00  0.00     0.107 A 
HETATM    5  S1  UNL     1      13.434  11.348  11.695  1.00  0.00    -0.073 SA
HETATM    6  C7  UNL     1      12.771  11.231  13.245  1.00  0.00     0.022 A 
HETATM    7  C8  UNL     1      13.382  10.088  13.769  1.00  0.00    -0.024 A 
HETATM    8  C9  UNL     1      14.253   9.453  12.973  1.00  0.00     0.074 A 
HETATM    9  C10 UNL     1      15.023   8.303  13.232  1.00  0.00     0.273 A 
HETATM   10  O1  UNL     1      14.985   7.670  14.319  1.00  0.00    -0.267 OA
HETATM   11  N4  UNL     1      15.856   7.823  12.292  1.00  0.00    -0.155 N 
ATOM     12  H4  UNL     1      16.392   6.987  12.527  1.00  0.00     0.187 HD
HETATM   13  C11 UNL     1      13.077   9.544  15.148  1.00  0.00     0.041 C 
HETATM   14  C12 UNL     1      13.439  10.572  16.205  1.00  0.00     0.005 C 
HETATM   15  C13 UNL     1      12.240  11.132  16.912  1.00  0.00     0.000 C 
HETATM   16  C14 UNL     1      11.178  11.670  16.006  1.00  0.00     0.002 C 
HETATM   17  C15 UNL     1      11.817  12.649  15.073  1.00  0.00     0.038 C 
HETATM   18  C16 UNL     1      11.801  12.286  13.633  1.00  0.00     0.223 C 
ENDROOT
BRANCH   1  19
HETATM   19  N1  UNL     1      16.938   7.764  10.138  1.00  0.00    -0.222 N 
HETATM   20  C1  UNL     1      17.782   8.631   9.332  1.00  0.00     0.168 C 
BRANCH  19  21
HETATM   21  C2  UNL     1      17.024   6.355   9.951  1.00  0.00     0.142 C 
BRANCH  21  22
HETATM   22  C3  UNL     1      15.845   5.677   9.361  1.00  0.00     0.048 C 
BRANCH  22  23
HETATM   23  C4  UNL     1      15.429   6.079   7.995  1.00  0.00     0.231 C 
BRANCH  23  24
HETATM   24  N2  UNL     1      16.458   6.038   6.989  1.00  0.00    -0.079 N 
ATOM     25  H23 UNL     1      17.143   5.319   7.222  1.00  0.00     0.274 HD
ATOM     26  H22 UNL     1      16.080   5.656   6.122  1.00  0.00     0.274 HD
ATOM     27  H21 UNL     1      16.933   6.922   6.802  1.00  0.00     0.274 HD
ENDBRANCH  23  24
ENDBRANCH  22  23
ENDBRANCH  21  22
ENDBRANCH  19  21
ENDBRANCH   1  19
BRANCH  18  28
HETATM   28  N5  UNL     1      10.527  11.969  13.071  1.00  0.00    -0.070 N 
ATOM     29  H53 UNL     1      10.240  12.636  12.354  1.00  0.00     0.275 HD
ATOM     30  H52 UNL     1      10.556  11.135  12.484  1.00  0.00     0.275 HD
ATOM     31  H51 UNL     1       9.845  11.891  13.825  1.00  0.00     0.275 HD
ENDBRANCH  18  28
TORSDOF 6
ENDMDL
MODEL 5
REMARK VINA RESULT: -8.064571344      1.638      2.710
REMARK  6 active torsions:
REMARK  status: ('A' for Active; 'I' for Inactive)
REMARK    1  A    between atoms: N1_2  and  C2_3 
REMARK    2  A    between atoms: N1_2  and  C5_10 
REMARK    3  A    between atoms: C2_3  and  C3_4 
REMARK    4  A    between atoms: C3_4  and  C4_5 
REMARK    5  A    between atoms: C4_5  and  N2_6 
REMARK    6  A    between atoms: C16_27  and  N5_28 
ROOT
HETATM    1  C5  UNL     1      15.980   7.221  12.534  1.00  0.00     0.683 A 
HETATM    2  N3  UNL     1      15.473   8.331  11.982  1.00  0.00    -0.184 N 
ATOM      3  H3  UNL     1      15.741   8.570  11.027  1.00  0.00     0.185 HD
HETATM    4  C6  UNL     1      14.613   9.155  12.648  1.00  0.00     0.107 A 
HETATM    5  S1  UNL     1      13.831  10.611  12.239  1.00  0.00    -0.073 SA
HETATM    6  C7  UNL     1      12.991  10.895  13.677  1.00  0.00     0.022 A 
HETATM    7  C8  UNL     1      13.349   9.807  14.479  1.00  0.00    -0.024 A 
HETATM    8  C9  UNL     1      14.190   8.913  13.939  1.00  0.00     0.074 A 
HETATM    9  C10 UNL     1      14.733   7.744  14.504  1.00  0.00     0.273 A 
HETATM   10  O1  UNL     1      14.473   7.351  15.671  1.00  0.00    -0.267 OA
HETATM   11  N4  UNL     1      15.577   6.979  13.791  1.00  0.00    -0.155 N 
ATOM     12  H4  UNL     1      15.943   6.141  14.245  1.00  0.00     0.187 HD
HETATM   13  C11 UNL     1      12.811   9.594  15.877  1.00  0.00     0.041 C 
HETATM   14  C12 UNL     1      13.213  10.752  16.772  1.00  0.00     0.005 C 
HETATM   15  C13 UNL     1      12.049  11.599  17.193  1.00  0.00     0.000 C 
HETATM   16  C14 UNL     1      11.193  12.086  16.066  1.00  0.00     0.002 C 
HETATM   17  C15 UNL     1      12.079  12.764  15.070  1.00  0.00     0.038 C 
HETATM   18  C16 UNL     1      12.165  12.128  13.731  1.00  0.00     0.223 C 
ENDROOT
BRANCH   1  19
HETATM   19  N1  UNL     1      16.867   6.346  11.855  1.00  0.00    -0.222 N 
HETATM   20  C1  UNL     1      18.087   6.888  11.278  1.00  0.00     0.168 C 
BRANCH  19  21
HETATM   21  C2  UNL     1      16.593   4.957  11.703  1.00  0.00     0.142 C 
BRANCH  21  22
HETATM   22  C3  UNL     1      15.172   4.558  11.574  1.00  0.00     0.048 C 
BRANCH  22  23
HETATM   23  C4  UNL     1      14.633   3.597  12.568  1.00  0.00     0.231 C 
BRANCH  23  24
HETATM   24  N2  UNL     1      13.694   4.137  13.517  1.00  0.00    -0.079 N 
ATOM     25  H23 UNL     1      13.428   5.083  13.243  1.00  0.00     0.274 HD
ATOM     26  H22 UNL     1      12.797   3.661  13.427  1.00  0.00     0.274 HD
ATOM     27  H21 UNL     1      13.995   4.131  14.492  1.00  0.00     0.274 HD
ENDBRANCH  23  24
ENDBRANCH  22  23
ENDBRANCH  21  22
ENDBRANCH  19  21
ENDBRANCH   1  19
BRANCH  18  28
HETATM   28  N5  UNL     1      10.927  11.882  13.063  1.00  0.00    -0.070 N 
ATOM     29  H53 UNL     1      11.052  11.395  12.176  1.00  0.00     0.275 HD
ATOM     30  H52 UNL     1      10.363  11.174  13.534  1.00  0.00     0.275 HD
ATOM     31  H51 UNL     1      10.430  12.767  12.955  1.00  0.00     0.275 HD
ENDBRANCH  18  28
TORSDOF 6
ENDMDL
