MODEL 1
REMARK VINA RESULT: -6.980936714      0.000      0.000
REMARK  4 active torsions:
REMARK  status: ('A' for Active; 'I' for Inactive)
REMARK       I    between atoms: C1_2  and  N2_4 
REMARK    1  A    between atoms: N2_4  and  N3_6 
REMARK    2  A    between atoms: N4_8  and  C2_10 
REMARK    3  A    between atoms: C4_15  and  N7_16 
REMARK       I    between atoms: N7_16  and  C5_18 
REMARK       I    between atoms: C5_18  and  N8_19 
REMARK       I    between atoms: C5_18  and  N9_23 
REMARK    4  A    between atoms: N10_27  and  N11_28 
ROOT
HETATM    1  C2  UNL     1      13.327  24.649  48.467  1.00  0.00     0.162 A 
HETATM    2  C3  UNL     1      13.003  23.424  49.004  1.00  0.00     0.165 A 
HETATM    3  N5  UNL     1      13.937  22.359  48.999  1.00  0.00    -0.079 NA
HETATM    4  N6  UNL     1      11.758  23.270  49.540  1.00  0.00    -0.175 N 
ATOM      5  H6  UNL     1      11.500  22.369  49.942  1.00  0.00     0.185 HD
HETATM    6  C4  UNL     1      10.867  24.267  49.552  1.00  0.00     0.706 A 
HETATM    7  N10 UNL     1      11.210  25.448  49.022  1.00  0.00    -0.052 N 
HETATM    8  C6  UNL     1      12.429  25.674  48.471  1.00  0.00     0.313 A 
HETATM    9  O2  UNL     1      12.716  26.815  47.978  1.00  0.00    -0.263 OA
ENDROOT
BRANCH   6  10
HETATM   10  N7  UNL     1       9.704  24.113  50.056  1.00  0.00    -0.172 N 
HETATM   11  C5  UNL     1       8.848  22.986  49.975  1.00  0.00     0.494 C 
HETATM   12  N8  UNL     1       8.407  22.659  48.633  1.00  0.00    -0.032 N 
HETATM   13  N9  UNL     1       9.353  21.786  50.581  1.00  0.00    -0.032 N 
ATOM     14  H83 UNL     1       7.969  23.471  48.197  1.00  0.00     0.278 HD
ATOM     15  H82 UNL     1       9.210  22.541  48.015  1.00  0.00     0.278 HD
ATOM     16  H81 UNL     1       7.791  21.849  48.576  1.00  0.00     0.278 HD
ATOM     17  H93 UNL     1      10.269  21.558  50.195  1.00  0.00     0.278 HD
ATOM     18  H92 UNL     1       9.607  21.964  51.552  1.00  0.00     0.278 HD
ATOM     19  H91 UNL     1       8.737  20.975  50.523  1.00  0.00     0.278 HD
ATOM     20  H7  UNL     1       9.344  24.907  50.586  1.00  0.00     0.181 HD
ENDBRANCH   6  10
BRANCH   7  21
HETATM   21  N11 UNL     1      10.281  26.465  49.042  1.00  0.00    -0.321 N 
ATOM     22 2H11 UNL     1       9.404  26.329  49.546  1.00  0.00     0.178 HD
ATOM     23 1H11 UNL     1      10.501  27.329  48.547  1.00  0.00     0.178 HD
ENDBRANCH   7  21
BRANCH   1  24
HETATM   24  N4  UNL     1      14.634  24.821  47.901  1.00  0.00    -0.278 N 
HETATM   25  N3  UNL     1      15.543  25.484  48.484  1.00  0.00    -0.238 N 
ATOM     26  H3  UNL     1      16.454  25.571  48.033  1.00  0.00     0.208 HD
ATOM     27  H4  UNL     1      14.838  24.394  46.997  1.00  0.00     0.189 HD
BRANCH  25  28
HETATM   28  N2  UNL     1      15.344  26.102  49.729  1.00  0.00    -0.239 N 
HETATM   29  C1  UNL     1      15.478  27.511  49.873  1.00  0.00     0.348 C 
HETATM   30  N1  UNL     1      15.275  28.129  51.135  1.00  0.00    -0.038 NA
HETATM   31  O1  UNL     1      15.778  28.205  48.865  1.00  0.00    -0.249 OA
ATOM     32  H2  UNL     1      15.101  25.534  50.540  1.00  0.00     0.193 HD
ENDBRANCH  25  28
ENDBRANCH   1  24
TORSDOF 4
ENDMDL
MODEL 2
REMARK VINA RESULT: -6.856239694      1.679      2.624
REMARK  4 active torsions:
REMARK  status: ('A' for Active; 'I' for Inactive)
REMARK       I    between atoms: C1_2  and  N2_4 
REMARK    1  A    between atoms: N2_4  and  N3_6 
REMARK    2  A    between atoms: N4_8  and  C2_10 
REMARK    3  A    between atoms: C4_15  and  N7_16 
REMARK       I    between atoms: N7_16  and  C5_18 
REMARK       I    between atoms: C5_18  and  N8_19 
REMARK       I    between atoms: C5_18  and  N9_23 
REMARK    4  A    between atoms: N10_27  and  N11_28 
ROOT
HETATM    1  C2  UNL     1      11.663  26.507  49.995  1.00  0.00     0.162 A 
HETATM    2  C3  UNL     1      11.011  25.721  50.918  1.00  0.00     0.165 A 
HETATM    3  N5  UNL     1      10.990  26.076  52.289  1.00  0.00    -0.079 NA
HETATM    4  N6  UNL     1      10.385  24.595  50.470  1.00  0.00    -0.175 N 
ATOM      5  H6  UNL     1       9.896  24.001  51.139  1.00  0.00     0.185 HD
HETATM    6  C4  UNL     1      10.395  24.248  49.179  1.00  0.00     0.706 A 
HETATM    7  N10 UNL     1      11.039  25.032  48.303  1.00  0.00    -0.052 N 
HETATM    8  C6  UNL     1      11.683  26.166  48.676  1.00  0.00     0.313 A 
HETATM    9  O2  UNL     1      12.284  26.884  47.810  1.00  0.00    -0.263 OA
ENDROOT
BRANCH   6  10
HETATM   10  N7  UNL     1       9.806  23.192  48.768  1.00  0.00    -0.172 N 
HETATM   11  C5  UNL     1       8.773  22.455  49.401  1.00  0.00     0.494 C 
HETATM   12  N8  UNL     1       9.148  21.861  50.669  1.00  0.00    -0.032 N 
HETATM   13  N9  UNL     1       7.539  23.163  49.589  1.00  0.00    -0.032 N 
ATOM     14  H83 UNL     1       9.981  21.283  50.559  1.00  0.00     0.278 HD
ATOM     15  H82 UNL     1       9.512  22.574  51.301  1.00  0.00     0.278 HD
ATOM     16  H81 UNL     1       8.405  21.330  51.123  1.00  0.00     0.278 HD
ATOM     17  H93 UNL     1       7.707  24.032  50.094  1.00  0.00     0.278 HD
ATOM     18  H92 UNL     1       7.209  23.534  48.698  1.00  0.00     0.278 HD
ATOM     19  H91 UNL     1       6.796  22.632  50.043  1.00  0.00     0.278 HD
ATOM     20  H7  UNL     1      10.121  22.832  47.867  1.00  0.00     0.181 HD
ENDBRANCH   6  10
BRANCH   7  21
HETATM   21  N11 UNL     1      11.041  24.661  46.976  1.00  0.00    -0.321 N 
ATOM     22 2H11 UNL     1      10.172  24.341  46.547  1.00  0.00     0.178 HD
ATOM     23 1H11 UNL     1      11.919  24.719  46.460  1.00  0.00     0.178 HD
ENDBRANCH   7  21
BRANCH   1  24
HETATM   24  N4  UNL     1      12.325  27.693  50.456  1.00  0.00    -0.278 N 
HETATM   25  N3  UNL     1      13.588  27.786  50.513  1.00  0.00    -0.238 N 
ATOM     26  H3  UNL     1      14.002  28.655  50.850  1.00  0.00     0.208 HD
ATOM     27  H4  UNL     1      11.759  28.490  50.749  1.00  0.00     0.189 HD
BRANCH  25  28
HETATM   28  N2  UNL     1      14.438  26.737  50.129  1.00  0.00    -0.239 N 
HETATM   29  C1  UNL     1      15.551  26.975  49.275  1.00  0.00     0.348 C 
HETATM   30  N1  UNL     1      16.406  25.910  48.891  1.00  0.00    -0.038 NA
HETATM   31  O1  UNL     1      15.768  28.146  48.864  1.00  0.00    -0.249 OA
ATOM     32  H2  UNL     1      14.256  25.792  50.466  1.00  0.00     0.193 HD
ENDBRANCH  25  28
ENDBRANCH   1  24
TORSDOF 4
ENDMDL
MODEL 3
REMARK VINA RESULT: -6.351400012      1.914      2.529
REMARK  4 active torsions:
REMARK  status: ('A' for Active; 'I' for Inactive)
REMARK       I    between atoms: C1_2  and  N2_4 
REMARK    1  A    between atoms: N2_4  and  N3_6 
REMARK    2  A    between atoms: N4_8  and  C2_10 
REMARK    3  A    between atoms: C4_15  and  N7_16 
REMARK       I    between atoms: N7_16  and  C5_18 
REMARK       I    between atoms: C5_18  and  N8_19 
REMARK       I    between atoms: C5_18  and  N9_23 
REMARK    4  A    between atoms: N10_27  and  N11_28 
ROOT
HETATM    1  C2  UNL     1      14.358  26.550  49.441  1.00  0.00     0.162 A 
HETATM    2  C3  UNL     1      14.632  25.211  49.272  1.00  0.00     0.165 A 
HETATM    3  N5  UNL     1      15.892  24.784  48.783  1.00  0.00    -0.079 NA
HETATM    4  N6  UNL     1      13.657  24.314  49.592  1.00  0.00    -0.175 N 
ATOM      5  H6  UNL     1      13.841  23.318  49.474  1.00  0.00     0.185 HD
HETATM    6  C4  UNL     1      12.465  24.703  50.056  1.00  0.00     0.706 A 
HETATM    7  N10 UNL     1      12.226  26.012  50.209  1.00  0.00    -0.052 N 
HETATM    8  C6  UNL     1      13.148  26.962  49.912  1.00  0.00     0.313 A 
HETATM    9  O2  UNL     1      12.881  28.199  50.073  1.00  0.00    -0.263 OA
ENDROOT
BRANCH   6  10
HETATM   10  N7  UNL     1      11.557  23.856  50.353  1.00  0.00    -0.172 N 
HETATM   11  C5  UNL     1      10.720  23.115  49.480  1.00  0.00     0.494 C 
HETATM   12  N8  UNL     1       9.827  23.923  48.674  1.00  0.00    -0.032 N 
HETATM   13  N9  UNL     1      11.399  22.198  48.608  1.00  0.00    -0.032 N 
ATOM     14  H83 UNL     1       9.268  24.535  49.268  1.00  0.00     0.278 HD
ATOM     15  H82 UNL     1      10.355  24.622  48.151  1.00  0.00     0.278 HD
ATOM     16  H81 UNL     1       9.225  23.390  48.047  1.00  0.00     0.278 HD
ATOM     17  H93 UNL     1      12.115  22.689  48.073  1.00  0.00     0.278 HD
ATOM     18  H92 UNL     1      11.984  21.566  49.153  1.00  0.00     0.278 HD
ATOM     19  H91 UNL     1      10.797  21.666  47.981  1.00  0.00     0.278 HD
ATOM     20  H7  UNL     1      11.416  23.690  51.350  1.00  0.00     0.181 HD
ENDBRANCH   6  10
BRANCH   7  21
HETATM   21  N11 UNL     1      10.993  26.398  50.688  1.00  0.00    -0.321 N 
ATOM     22 2H11 UNL     1      10.691  26.072  51.607  1.00  0.00     0.178 HD
ATOM     23 1H11 UNL     1      10.416  27.002  50.103  1.00  0.00     0.178 HD
ENDBRANCH   7  21
BRANCH   1  24
HETATM   24  N4  UNL     1      15.378  27.501  49.107  1.00  0.00    -0.278 N 
HETATM   25  N3  UNL     1      15.822  28.342  49.946  1.00  0.00    -0.238 N 
ATOM     26  H3  UNL     1      16.549  28.995  49.650  1.00  0.00     0.208 HD
ATOM     27  H4  UNL     1      15.761  27.501  48.161  1.00  0.00     0.189 HD
BRANCH  25  28
HETATM   28  N2  UNL     1      15.350  28.409  51.266  1.00  0.00    -0.239 N 
HETATM   29  C1  UNL     1      15.711  29.491  52.116  1.00  0.00     0.348 C 
HETATM   30  N1  UNL     1      15.230  29.552  53.450  1.00  0.00    -0.038 NA
HETATM   31  O1  UNL     1      16.463  30.398  51.668  1.00  0.00    -0.249 OA
ATOM     32  H2  UNL     1      14.742  27.672  51.621  1.00  0.00     0.193 HD
ENDBRANCH  25  28
ENDBRANCH   1  24
TORSDOF 4
ENDMDL
MODEL 4
REMARK VINA RESULT: -6.317557327      1.765      2.801
REMARK  4 active torsions:
REMARK  status: ('A' for Active; 'I' for Inactive)
REMARK       I    between atoms: C1_2  and  N2_4 
REMARK    1  A    between atoms: N2_4  and  N3_6 
REMARK    2  A    between atoms: N4_8  and  C2_10 
REMARK    3  A    between atoms: C4_15  and  N7_16 
REMARK       I    between atoms: N7_16  and  C5_18 
REMARK       I    between atoms: C5_18  and  N8_19 
REMARK       I    between atoms: C5_18  and  N9_23 
REMARK    4  A    between atoms: N10_27  and  N11_28 
ROOT
HETATM    1  C2  UNL     1      11.890  26.915  50.264  1.00  0.00     0.162 A 
HETATM    2  C3  UNL     1      11.240  26.039  51.105  1.00  0.00     0.165 A 
HETATM    3  N5  UNL     1      11.183  26.278  52.500  1.00  0.00    -0.079 NA
HETATM    4  N6  UNL     1      10.654  24.939  50.552  1.00  0.00    -0.175 N 
ATOM      5  H6  UNL     1      10.168  24.279  51.158  1.00  0.00     0.185 HD
HETATM    6  C4  UNL     1      10.699  24.701  49.237  1.00  0.00     0.706 A 
HETATM    7  N10 UNL     1      11.339  25.570  48.444  1.00  0.00    -0.052 N 
HETATM    8  C6  UNL     1      11.945  26.686  48.922  1.00  0.00     0.313 A 
HETATM    9  O2  UNL     1      12.544  27.488  48.132  1.00  0.00    -0.263 OA
ENDROOT
BRANCH   6  10
HETATM   10  N7  UNL     1      10.147  23.669  48.728  1.00  0.00    -0.172 N 
HETATM   11  C5  UNL     1      10.666  22.354  48.616  1.00  0.00     0.494 C 
HETATM   12  N8  UNL     1      11.848  22.242  47.784  1.00  0.00    -0.032 N 
HETATM   13  N9  UNL     1      10.935  21.691  49.861  1.00  0.00    -0.032 N 
ATOM     14  H83 UNL     1      11.669  22.633  46.859  1.00  0.00     0.278 HD
ATOM     15  H82 UNL     1      12.572  22.883  48.108  1.00  0.00     0.278 HD
ATOM     16  H81 UNL     1      12.220  21.296  47.703  1.00  0.00     0.278 HD
ATOM     17  H93 UNL     1      11.553  22.264  50.436  1.00  0.00     0.278 HD
ATOM     18  H92 UNL     1      10.099  21.689  50.445  1.00  0.00     0.278 HD
ATOM     19  H91 UNL     1      11.308  20.745  49.780  1.00  0.00     0.278 HD
ATOM     20  H7  UNL     1       9.209  23.808  48.352  1.00  0.00     0.181 HD
ENDBRANCH   6  10
BRANCH   7  21
HETATM   21  N11 UNL     1      11.377  25.311  47.091  1.00  0.00    -0.321 N 
ATOM     22 2H11 UNL     1      11.707  24.402  46.766  1.00  0.00     0.178 HD
ATOM     23 1H11 UNL     1      11.070  26.044  46.451  1.00  0.00     0.178 HD
ENDBRANCH   7  21
BRANCH   1  24
HETATM   24  N4  UNL     1      12.510  28.074  50.837  1.00  0.00    -0.278 N 
HETATM   25  N3  UNL     1      13.765  28.164  50.993  1.00  0.00    -0.238 N 
ATOM     26  H3  UNL     1      14.150  29.014  51.406  1.00  0.00     0.208 HD
ATOM     27  H4  UNL     1      11.921  28.855  51.128  1.00  0.00     0.189 HD
BRANCH  25  28
HETATM   28  N2  UNL     1      14.646  27.137  50.619  1.00  0.00    -0.239 N 
HETATM   29  C1  UNL     1      15.567  27.319  49.551  1.00  0.00     0.348 C 
HETATM   30  N1  UNL     1      16.455  26.275  49.179  1.00  0.00    -0.038 NA
HETATM   31  O1  UNL     1      15.587  28.420  48.939  1.00  0.00    -0.249 OA
ATOM     32  H2  UNL     1      14.625  26.248  51.120  1.00  0.00     0.193 HD
ENDBRANCH  25  28
ENDBRANCH   1  24
TORSDOF 4
ENDMDL
MODEL 5
REMARK VINA RESULT: -5.782835957      2.226      6.218
REMARK  4 active torsions:
REMARK  status: ('A' for Active; 'I' for Inactive)
REMARK       I    between atoms: C1_2  and  N2_4 
REMARK    1  A    between atoms: N2_4  and  N3_6 
REMARK    2  A    between atoms: N4_8  and  C2_10 
REMARK    3  A    between atoms: C4_15  and  N7_16 
REMARK       I    between atoms: N7_16  and  C5_18 
REMARK       I    between atoms: C5_18  and  N8_19 
REMARK       I    between atoms: C5_18  and  N9_23 
REMARK    4  A    between atoms: N10_27  and  N11_28 
ROOT
HETATM    1  C2  UNL     1      11.308  25.323  49.205  1.00  0.00     0.162 A 
HETATM    2  C3  UNL     1      11.677  26.055  50.310  1.00  0.00     0.165 A 
HETATM    3  N5  UNL     1      10.700  26.648  51.148  1.00  0.00    -0.079 NA
HETATM    4  N6  UNL     1      13.008  26.189  50.573  1.00  0.00    -0.175 N 
ATOM      5  H6  UNL     1      13.301  26.727  51.388  1.00  0.00     0.185 HD
HETATM    6  C4  UNL     1      13.941  25.634  49.793  1.00  0.00     0.706 A 
HETATM    7  N10 UNL     1      13.553  24.927  48.723  1.00  0.00    -0.052 N 
HETATM    8  C6  UNL     1      12.247  24.752  48.399  1.00  0.00     0.313 A 
HETATM    9  O2  UNL     1      11.920  24.071  47.371  1.00  0.00    -0.263 OA
ENDROOT
BRANCH   6  10
HETATM   10  N7  UNL     1      15.185  25.764  50.047  1.00  0.00    -0.172 N 
HETATM   11  C5  UNL     1      15.949  26.956  50.136  1.00  0.00     0.494 C 
HETATM   12  N8  UNL     1      16.031  27.711  48.901  1.00  0.00    -0.032 N 
HETATM   13  N9  UNL     1      15.561  27.858  51.183  1.00  0.00    -0.032 N 
ATOM     14  H83 UNL     1      16.380  27.121  48.146  1.00  0.00     0.278 HD
ATOM     15  H82 UNL     1      15.096  27.914  48.546  1.00  0.00     0.278 HD
ATOM     16  H81 UNL     1      16.580  28.568  48.965  1.00  0.00     0.278 HD
ATOM     17  H93 UNL     1      14.570  28.083  51.103  1.00  0.00     0.278 HD
ATOM     18  H92 UNL     1      15.563  27.373  52.081  1.00  0.00     0.278 HD
ATOM     19  H91 UNL     1      16.111  28.714  51.247  1.00  0.00     0.278 HD
ATOM     20  H7  UNL     1      15.698  24.896  50.207  1.00  0.00     0.181 HD
ENDBRANCH   6  10
BRANCH   7  21
HETATM   21  N11 UNL     1      14.526  24.361  47.928  1.00  0.00    -0.321 N 
ATOM     22 2H11 UNL     1      15.486  24.320  48.270  1.00  0.00     0.178 HD
ATOM     23 1H11 UNL     1      14.252  23.999  47.015  1.00  0.00     0.178 HD
ENDBRANCH   7  21
BRANCH   1  24
HETATM   24  N4  UNL     1       9.910  25.177  48.920  1.00  0.00    -0.278 N 
HETATM   25  N3  UNL     1       9.262  24.130  49.222  1.00  0.00    -0.238 N 
ATOM     26  H3  UNL     1       8.269  24.084  48.995  1.00  0.00     0.208 HD
ATOM     27  H4  UNL     1       9.420  25.943  48.457  1.00  0.00     0.189 HD
BRANCH  25  28
HETATM   28  N2  UNL     1       9.861  23.032  49.859  1.00  0.00    -0.239 N 
HETATM   29  C1  UNL     1       9.081  21.923  50.290  1.00  0.00     0.348 C 
HETATM   30  N1  UNL     1       9.693  20.816  50.933  1.00  0.00    -0.038 NA
HETATM   31  O1  UNL     1       7.836  21.936  50.092  1.00  0.00    -0.249 OA
ATOM     32  H2  UNL     1      10.869  23.028  50.016  1.00  0.00     0.193 HD
ENDBRANCH  25  28
ENDBRANCH   1  24
TORSDOF 4
ENDMDL
