MODEL 1
REMARK VINA RESULT: -8.475124150      0.000      0.000
REMARK  7 active torsions:
REMARK  status: ('A' for Active; 'I' for Inactive)
REMARK    1  A    between atoms: N1_1  and  C1_4 
REMARK    2  A    between atoms: C2_7  and  N3_8 
REMARK    3  A    between atoms: N3_8  and  N4_10 
REMARK    4  A    between atoms: C3_13  and  N5_14 
REMARK    5  A    between atoms: N5_14  and  N6_16 
REMARK    6  A    between atoms: N7_18  and  N8_20 
REMARK    7  A    between atoms: N8_20  and  C4_22 
ROOT
HETATM    1  C1  UNL     1      14.278  25.449  49.631  1.00  0.00     0.680 A 
HETATM    2  N2  UNL     1      13.484  26.333  49.023  1.00  0.00    -0.173 N 
ATOM      3  H2  UNL     1      13.773  27.308  48.939  1.00  0.00     0.186 HD
HETATM    4  C2  UNL     1      12.286  25.932  48.514  1.00  0.00     0.169 A 
HETATM    5  C3  UNL     1      11.900  24.613  48.630  1.00  0.00     0.164 A 
HETATM    6  C5  UNL     1      12.767  23.746  49.270  1.00  0.00     0.291 A 
HETATM    7  O1  UNL     1      12.395  22.546  49.366  1.00  0.00    -0.265 OA
HETATM    8  N13 UNL     1      13.947  24.149  49.771  1.00  0.00    -0.154 N 
ATOM      9  H13 UNL     1      14.572  23.494  50.241  1.00  0.00     0.187 HD
ENDROOT
BRANCH   5  10
HETATM   10  N5  UNL     1      10.656  24.178  48.102  1.00  0.00    -0.277 N 
ATOM     11  H5  UNL     1      10.561  23.993  47.103  1.00  0.00     0.189 HD
BRANCH  10  12
HETATM   12  N6  UNL     1       9.563  24.005  48.953  1.00  0.00    -0.227 N 
HETATM   13  N7  UNL     1       8.873  22.974  48.857  1.00  0.00    -0.214 N 
ATOM     14  H7  UNL     1       9.171  22.313  48.140  1.00  0.00     0.210 HD
ATOM     15  H6  UNL     1       9.332  24.717  49.646  1.00  0.00     0.210 HD
BRANCH  13  16
HETATM   16  N8  UNL     1       7.772  22.600  49.577  1.00  0.00    -0.114 N 
ATOM     17  H8  UNL     1       7.965  22.067  50.425  1.00  0.00     0.207 HD
BRANCH  16  18
HETATM   18  C4  UNL     1       6.545  22.821  49.341  1.00  0.00     0.729 A 
HETATM   19  N9  UNL     1       5.907  22.537  48.207  1.00  0.00    -0.114 N 
HETATM   20  N10 UNL     1       4.640  22.925  48.361  1.00  0.00    -0.213 N 
ATOM     21  H9  UNL     1       6.312  22.104  47.377  1.00  0.00     0.207 HD
HETATM   22  N11 UNL     1       4.481  23.442  49.565  1.00  0.00    -0.213 N 
ATOM     23  H10 UNL     1       3.906  22.835  47.658  1.00  0.00     0.210 HD
HETATM   24  N12 UNL     1       5.665  23.377  50.172  1.00  0.00    -0.114 N 
ATOM     25  H11 UNL     1       3.618  23.820  49.956  1.00  0.00     0.210 HD
ATOM     26  H12 UNL     1       5.865  23.700  51.118  1.00  0.00     0.207 HD
ENDBRANCH  16  18
ENDBRANCH  13  16
ENDBRANCH  10  12
ENDBRANCH   5  10
BRANCH   4  27
HETATM   27  N3  UNL     1      11.419  26.838  47.866  1.00  0.00    -0.290 N 
ATOM     28  H3  UNL     1      10.549  27.117  48.321  1.00  0.00     0.188 HD
BRANCH  27  29
HETATM   29  N4  UNL     1      11.736  27.355  46.617  1.00  0.00    -0.344 N 
ATOM     30  H42 UNL     1      12.665  27.750  46.473  1.00  0.00     0.176 HD
ATOM     31  H41 UNL     1      11.054  27.342  45.859  1.00  0.00     0.176 HD
ENDBRANCH  27  29
ENDBRANCH   4  27
BRANCH   1  32
HETATM   32  N1  UNL     1      15.413  25.834  50.112  1.00  0.00    -0.234 N 
ATOM     33  H12 UNL     1      15.507  26.814  50.377  1.00  0.00     0.174 HD
ATOM     34  H11 UNL     1      16.172  25.161  50.215  1.00  0.00     0.174 HD
ENDBRANCH   1  32
TORSDOF 7
ENDMDL
MODEL 2
REMARK VINA RESULT: -8.070034577      1.661      2.284
REMARK  7 active torsions:
REMARK  status: ('A' for Active; 'I' for Inactive)
REMARK    1  A    between atoms: N1_1  and  C1_4 
REMARK    2  A    between atoms: C2_7  and  N3_8 
REMARK    3  A    between atoms: N3_8  and  N4_10 
REMARK    4  A    between atoms: C3_13  and  N5_14 
REMARK    5  A    between atoms: N5_14  and  N6_16 
REMARK    6  A    between atoms: N7_18  and  N8_20 
REMARK    7  A    between atoms: N8_20  and  C4_22 
ROOT
HETATM    1  C1  UNL     1      14.794  26.294  49.655  1.00  0.00     0.680 A 
HETATM    2  N2  UNL     1      14.653  25.194  48.911  1.00  0.00    -0.173 N 
ATOM      3  H2  UNL     1      15.465  24.615  48.697  1.00  0.00     0.186 HD
HETATM    4  C2  UNL     1      13.424  24.847  48.439  1.00  0.00     0.169 A 
HETATM    5  C3  UNL     1      12.330  25.635  48.731  1.00  0.00     0.164 A 
HETATM    6  C5  UNL     1      12.541  26.760  49.507  1.00  0.00     0.291 A 
HETATM    7  O1  UNL     1      11.529  27.466  49.762  1.00  0.00    -0.265 OA
HETATM    8  N13 UNL     1      13.757  27.098  49.969  1.00  0.00    -0.154 N 
ATOM      9  H13 UNL     1      13.892  27.934  50.538  1.00  0.00     0.187 HD
ENDROOT
BRANCH   5  10
HETATM   10  N5  UNL     1      11.042  25.286  48.249  1.00  0.00    -0.277 N 
ATOM     11  H5  UNL     1      10.795  25.466  47.275  1.00  0.00     0.189 HD
BRANCH  10  12
HETATM   12  N6  UNL     1      10.114  24.695  49.108  1.00  0.00    -0.227 N 
HETATM   13  N7  UNL     1       9.485  23.691  48.730  1.00  0.00    -0.214 N 
ATOM     14  H7  UNL     1       9.704  23.366  47.788  1.00  0.00     0.210 HD
ATOM     15  H6  UNL     1       9.953  25.083  50.038  1.00  0.00     0.210 HD
BRANCH  13  16
HETATM   16  N8  UNL     1       8.541  22.960  49.396  1.00  0.00    -0.114 N 
ATOM     17  H8  UNL     1       8.893  22.388  50.164  1.00  0.00     0.207 HD
BRANCH  16  18
HETATM   18  C4  UNL     1       7.290  22.890  49.197  1.00  0.00     0.729 A 
HETATM   19  N9  UNL     1       6.687  22.108  48.304  1.00  0.00    -0.114 N 
HETATM   20  N10 UNL     1       5.375  22.332  48.407  1.00  0.00    -0.213 N 
ATOM     21  H9  UNL     1       7.142  21.460  47.661  1.00  0.00     0.207 HD
HETATM   22  N11 UNL     1       5.156  23.235  49.344  1.00  0.00    -0.213 N 
ATOM     23  H10 UNL     1       4.653  21.876  47.849  1.00  0.00     0.210 HD
HETATM   24  N12 UNL     1       6.345  23.580  49.833  1.00  0.00    -0.114 N 
ATOM     25  H11 UNL     1       4.250  23.599  49.638  1.00  0.00     0.210 HD
ATOM     26  H12 UNL     1       6.507  24.262  50.575  1.00  0.00     0.207 HD
ENDBRANCH  16  18
ENDBRANCH  13  16
ENDBRANCH  10  12
ENDBRANCH   5  10
BRANCH   4  27
HETATM   27  N3  UNL     1      13.237  23.693  47.648  1.00  0.00    -0.290 N 
ATOM     28  H3  UNL     1      13.422  23.734  46.645  1.00  0.00     0.188 HD
BRANCH  27  29
HETATM   29  N4  UNL     1      12.803  22.504  48.217  1.00  0.00    -0.344 N 
ATOM     30  H42 UNL     1      12.333  22.538  49.121  1.00  0.00     0.176 HD
ATOM     31  H41 UNL     1      12.952  21.613  47.743  1.00  0.00     0.176 HD
ENDBRANCH  27  29
ENDBRANCH   4  27
BRANCH   1  32
HETATM   32  N1  UNL     1      15.961  26.620  50.100  1.00  0.00    -0.234 N 
ATOM     33  H12 UNL     1      16.172  27.613  50.194  1.00  0.00     0.174 HD
ATOM     34  H11 UNL     1      16.631  25.890  50.343  1.00  0.00     0.174 HD
ENDBRANCH   1  32
TORSDOF 7
ENDMDL
MODEL 3
REMARK VINA RESULT: -7.986515511      1.750      2.011
REMARK  7 active torsions:
REMARK  status: ('A' for Active; 'I' for Inactive)
REMARK    1  A    between atoms: N1_1  and  C1_4 
REMARK    2  A    between atoms: C2_7  and  N3_8 
REMARK    3  A    between atoms: N3_8  and  N4_10 
REMARK    4  A    between atoms: C3_13  and  N5_14 
REMARK    5  A    between atoms: N5_14  and  N6_16 
REMARK    6  A    between atoms: N7_18  and  N8_20 
REMARK    7  A    between atoms: N8_20  and  C4_22 
ROOT
HETATM    1  C1  UNL     1      13.735  24.582  48.408  1.00  0.00     0.680 A 
HETATM    2  N2  UNL     1      13.270  25.175  49.511  1.00  0.00    -0.173 N 
ATOM      3  H2  UNL     1      13.773  25.964  49.918  1.00  0.00     0.186 HD
HETATM    4  C2  UNL     1      12.123  24.725  50.091  1.00  0.00     0.169 A 
HETATM    5  C3  UNL     1      11.447  23.659  49.536  1.00  0.00     0.164 A 
HETATM    6  C5  UNL     1      11.980  23.088  48.394  1.00  0.00     0.291 A 
HETATM    7  O1  UNL     1      11.348  22.115  47.904  1.00  0.00    -0.265 OA
HETATM    8  N13 UNL     1      13.113  23.536  47.827  1.00  0.00    -0.154 N 
ATOM      9  H13 UNL     1      13.490  23.100  46.986  1.00  0.00     0.187 HD
ENDROOT
BRANCH   5  10
HETATM   10  N5  UNL     1      10.249  23.180  50.127  1.00  0.00    -0.277 N 
ATOM     11  H5  UNL     1      10.221  22.966  51.124  1.00  0.00     0.189 HD
BRANCH  10  12
HETATM   12  N6  UNL     1       9.109  23.002  49.342  1.00  0.00    -0.227 N 
HETATM   13  N7  UNL     1       8.140  22.375  49.806  1.00  0.00    -0.214 N 
ATOM     14  H7  UNL     1       8.258  22.028  50.757  1.00  0.00     0.210 HD
ATOM     15  H6  UNL     1       9.071  23.383  48.396  1.00  0.00     0.210 HD
BRANCH  13  16
HETATM   16  N8  UNL     1       6.938  22.085  49.222  1.00  0.00    -0.114 N 
ATOM     17  H8  UNL     1       6.755  21.093  49.068  1.00  0.00     0.207 HD
BRANCH  16  18
HETATM   18  C4  UNL     1       6.017  22.872  48.845  1.00  0.00     0.729 A 
HETATM   19  N9  UNL     1       5.276  22.733  47.747  1.00  0.00    -0.114 N 
HETATM   20  N10 UNL     1       4.429  23.764  47.711  1.00  0.00    -0.213 N 
ATOM     21  H9  UNL     1       5.344  21.981  47.062  1.00  0.00     0.207 HD
HETATM   22  N11 UNL     1       4.630  24.535  48.763  1.00  0.00    -0.213 N 
ATOM     23  H10 UNL     1       3.733  23.930  46.984  1.00  0.00     0.210 HD
HETATM   24  N12 UNL     1       5.616  23.980  49.465  1.00  0.00    -0.114 N 
ATOM     25  H11 UNL     1       4.128  25.392  48.993  1.00  0.00     0.210 HD
ATOM     26  H12 UNL     1       6.001  24.345  50.337  1.00  0.00     0.207 HD
ENDBRANCH  16  18
ENDBRANCH  13  16
ENDBRANCH  10  12
ENDBRANCH   5  10
BRANCH   4  27
HETATM   27  N3  UNL     1      11.602  25.326  51.257  1.00  0.00    -0.290 N 
ATOM     28  H3  UNL     1      11.681  24.841  52.152  1.00  0.00     0.188 HD
BRANCH  27  29
HETATM   29  N4  UNL     1      10.984  26.568  51.203  1.00  0.00    -0.344 N 
ATOM     30  H42 UNL     1      10.787  26.975  50.289  1.00  0.00     0.176 HD
ATOM     31  H41 UNL     1      10.733  27.064  52.057  1.00  0.00     0.176 HD
ENDBRANCH  27  29
ENDBRANCH   4  27
BRANCH   1  32
HETATM   32  N1  UNL     1      14.823  25.012  47.862  1.00  0.00    -0.234 N 
ATOM     33  H12 UNL     1      14.776  25.882  47.333  1.00  0.00     0.174 HD
ATOM     34  H11 UNL     1      15.687  24.480  47.970  1.00  0.00     0.174 HD
ENDBRANCH   1  32
TORSDOF 7
ENDMDL
MODEL 4
REMARK VINA RESULT: -7.692245026      1.100      1.381
REMARK  7 active torsions:
REMARK  status: ('A' for Active; 'I' for Inactive)
REMARK    1  A    between atoms: N1_1  and  C1_4 
REMARK    2  A    between atoms: C2_7  and  N3_8 
REMARK    3  A    between atoms: N3_8  and  N4_10 
REMARK    4  A    between atoms: C3_13  and  N5_14 
REMARK    5  A    between atoms: N5_14  and  N6_16 
REMARK    6  A    between atoms: N7_18  and  N8_20 
REMARK    7  A    between atoms: N8_20  and  C4_22 
ROOT
HETATM    1  C1  UNL     1      14.172  24.243  48.187  1.00  0.00     0.680 A 
HETATM    2  N2  UNL     1      13.565  25.412  47.968  1.00  0.00    -0.173 N 
ATOM      3  H2  UNL     1      14.071  26.173  47.516  1.00  0.00     0.186 HD
HETATM    4  C2  UNL     1      12.270  25.586  48.350  1.00  0.00     0.169 A 
HETATM    5  C3  UNL     1      11.591  24.553  48.962  1.00  0.00     0.164 A 
HETATM    6  C5  UNL     1      12.274  23.367  49.159  1.00  0.00     0.291 A 
HETATM    7  O1  UNL     1      11.636  22.437  49.720  1.00  0.00    -0.265 OA
HETATM    8  N13 UNL     1      13.553  23.202  48.781  1.00  0.00    -0.154 N 
ATOM      9  H13 UNL     1      14.040  22.320  48.938  1.00  0.00     0.187 HD
ENDROOT
BRANCH   5  10
HETATM   10  N5  UNL     1      10.240  24.718  49.363  1.00  0.00    -0.277 N 
ATOM     11  H5  UNL     1       9.993  25.437  50.044  1.00  0.00     0.189 HD
BRANCH  10  12
HETATM   12  N6  UNL     1       9.249  23.895  48.825  1.00  0.00    -0.227 N 
HETATM   13  N7  UNL     1       8.562  23.190  49.586  1.00  0.00    -0.214 N 
ATOM     14  H7  UNL     1       8.784  23.272  50.578  1.00  0.00     0.210 HD
ATOM     15  H6  UNL     1       9.090  23.871  47.818  1.00  0.00     0.210 HD
BRANCH  13  16
HETATM   16  N8  UNL     1       7.551  22.322  49.282  1.00  0.00    -0.114 N 
ATOM     17  H8  UNL     1       7.759  21.335  49.443  1.00  0.00     0.207 HD
BRANCH  16  18
HETATM   18  C4  UNL     1       6.391  22.565  48.829  1.00  0.00     0.729 A 
HETATM   19  N9  UNL     1       5.399  23.145  49.503  1.00  0.00    -0.114 N 
HETATM   20  N10 UNL     1       4.352  23.216  48.678  1.00  0.00    -0.213 N 
ATOM     21  H9  UNL     1       5.433  23.473  50.468  1.00  0.00     0.207 HD
HETATM   22  N11 UNL     1       4.677  22.693  47.510  1.00  0.00    -0.213 N 
ATOM     23  H10 UNL     1       3.442  23.613  48.913  1.00  0.00     0.210 HD
HETATM   24  N12 UNL     1       5.942  22.290  47.606  1.00  0.00    -0.114 N 
ATOM     25  H11 UNL     1       4.074  22.613  46.691  1.00  0.00     0.210 HD
ATOM     26  H12 UNL     1       6.480  21.843  46.864  1.00  0.00     0.207 HD
ENDBRANCH  16  18
ENDBRANCH  13  16
ENDBRANCH  10  12
ENDBRANCH   5  10
BRANCH   4  27
HETATM   27  N3  UNL     1      11.596  26.809  48.138  1.00  0.00    -0.290 N 
ATOM     28  H3  UNL     1      11.181  27.300  48.930  1.00  0.00     0.188 HD
BRANCH  27  29
HETATM   29  N4  UNL     1      11.492  27.350  46.864  1.00  0.00    -0.344 N 
ATOM     30  H42 UNL     1      11.018  26.810  46.141  1.00  0.00     0.176 HD
ATOM     31  H41 UNL     1      11.881  28.269  46.654  1.00  0.00     0.176 HD
ENDBRANCH  27  29
ENDBRANCH   4  27
BRANCH   1  32
HETATM   32  N1  UNL     1      15.400  24.082  47.823  1.00  0.00    -0.234 N 
ATOM     33  H12 UNL     1      15.747  24.658  47.057  1.00  0.00     0.174 HD
ATOM     34  H11 UNL     1      15.983  23.396  48.302  1.00  0.00     0.174 HD
ENDBRANCH   1  32
TORSDOF 7
ENDMDL
MODEL 5
REMARK VINA RESULT: -7.618182821      1.632      2.354
REMARK  7 active torsions:
REMARK  status: ('A' for Active; 'I' for Inactive)
REMARK    1  A    between atoms: N1_1  and  C1_4 
REMARK    2  A    between atoms: C2_7  and  N3_8 
REMARK    3  A    between atoms: N3_8  and  N4_10 
REMARK    4  A    between atoms: C3_13  and  N5_14 
REMARK    5  A    between atoms: N5_14  and  N6_16 
REMARK    6  A    between atoms: N7_18  and  N8_20 
REMARK    7  A    between atoms: N8_20  and  C4_22 
ROOT
HETATM    1  C1  UNL     1      13.643  26.821  49.664  1.00  0.00     0.680 A 
HETATM    2  N2  UNL     1      13.993  25.745  48.955  1.00  0.00    -0.173 N 
ATOM      3  H2  UNL     1      14.977  25.554  48.769  1.00  0.00     0.186 HD
HETATM    4  C2  UNL     1      13.033  24.904  48.480  1.00  0.00     0.169 A 
HETATM    5  C3  UNL     1      11.704  25.168  48.735  1.00  0.00     0.164 A 
HETATM    6  C5  UNL     1      11.406  26.297  49.476  1.00  0.00     0.291 A 
HETATM    7  O1  UNL     1      10.186  26.520  49.697  1.00  0.00    -0.265 OA
HETATM    8  N13 UNL     1      12.358  27.124  49.941  1.00  0.00    -0.154 N 
ATOM      9  H13 UNL     1      12.117  27.953  50.484  1.00  0.00     0.187 HD
ENDROOT
BRANCH   5  10
HETATM   10  N5  UNL     1      10.692  24.300  48.249  1.00  0.00    -0.277 N 
ATOM     11  H5  UNL     1      10.817  23.815  47.360  1.00  0.00     0.189 HD
BRANCH  10  12
HETATM   12  N6  UNL     1       9.524  24.110  48.990  1.00  0.00    -0.227 N 
HETATM   13  N7  UNL     1       8.982  22.990  48.999  1.00  0.00    -0.214 N 
ATOM     14  H7  UNL     1       9.450  22.273  48.445  1.00  0.00     0.210 HD
ATOM     15  H6  UNL     1       9.118  24.883  49.519  1.00  0.00     0.210 HD
BRANCH  13  16
HETATM   16  N8  UNL     1       7.849  22.583  49.646  1.00  0.00    -0.114 N 
ATOM     17  H8  UNL     1       8.001  22.056  50.506  1.00  0.00     0.207 HD
BRANCH  16  18
HETATM   18  C4  UNL     1       6.633  22.766  49.330  1.00  0.00     0.729 A 
HETATM   19  N9  UNL     1       5.701  23.312  50.109  1.00  0.00    -0.114 N 
HETATM   20  N10 UNL     1       4.563  23.321  49.411  1.00  0.00    -0.213 N 
ATOM     21  H9  UNL     1       5.832  23.658  51.059  1.00  0.00     0.207 HD
HETATM   22  N11 UNL     1       4.773  22.793  48.220  1.00  0.00    -0.213 N 
ATOM     23  H10 UNL     1       3.669  23.681  49.747  1.00  0.00     0.210 HD
HETATM   24  N12 UNL     1       6.058  22.449  48.172  1.00  0.00    -0.114 N 
ATOM     25  H11 UNL     1       4.083  22.672  47.479  1.00  0.00     0.210 HD
ATOM     26  H12 UNL     1       6.526  22.014  47.376  1.00  0.00     0.207 HD
ENDBRANCH  16  18
ENDBRANCH  13  16
ENDBRANCH  10  12
ENDBRANCH   5  10
BRANCH   4  27
HETATM   27  N3  UNL     1      13.365  23.759  47.725  1.00  0.00    -0.290 N 
ATOM     28  H3  UNL     1      13.428  23.826  46.709  1.00  0.00     0.188 HD
BRANCH  27  29
HETATM   29  N4  UNL     1      13.606  22.542  48.348  1.00  0.00    -0.344 N 
ATOM     30  H42 UNL     1      12.865  21.841  48.353  1.00  0.00     0.176 HD
ATOM     31  H41 UNL     1      14.504  22.351  48.792  1.00  0.00     0.176 HD
ENDBRANCH  27  29
ENDBRANCH   4  27
BRANCH   1  32
HETATM   32  N1  UNL     1      14.556  27.616  50.112  1.00  0.00    -0.234 N 
ATOM     33  H12 UNL     1      14.415  28.618  49.987  1.00  0.00     0.174 HD
ATOM     34  H11 UNL     1      15.381  27.230  50.572  1.00  0.00     0.174 HD
ENDBRANCH   1  32
TORSDOF 7
ENDMDL
