MODEL 1
REMARK VINA RESULT: -8.327450374      0.000      0.000
REMARK  5 active torsions:
REMARK  status: ('A' for Active; 'I' for Inactive)
REMARK    1  A    between atoms: C2_2  and  C3_3 
REMARK    2  A    between atoms: C3_3  and  C4_4 
REMARK    3  A    between atoms: C7_7  and  N1_8 
REMARK    4  A    between atoms: N1_8  and  C8_10 
REMARK    5  A    between atoms: C9_13  and  C10_14 
ROOT
HETATM    1  C8  UNL     1      87.976  72.486  31.240  1.00  0.00     0.134 A 
HETATM    2  N2  UNL     1      86.945  71.614  31.070  1.00  0.00    -0.326 N 
ATOM      3  H2  UNL     1      87.096  70.645  31.352  1.00  0.00     0.169 HD
HETATM    4  C9  UNL     1      85.759  71.926  30.566  1.00  0.00     0.121 A 
HETATM    5  N5  UNL     1      85.576  73.222  30.195  1.00  0.00    -0.326 N 
ATOM      6  H5  UNL     1      84.678  73.504  29.802  1.00  0.00     0.169 HD
HETATM    7  C13 UNL     1      86.545  74.139  30.331  1.00  0.00     0.142 A 
HETATM    8  N6  UNL     1      86.625  75.466  30.047  1.00  0.00    -0.292 N 
ATOM      9  H6  UNL     1      85.877  76.031  29.642  1.00  0.00     0.172 HD
HETATM   10  C14 UNL     1      87.839  75.914  30.383  1.00  0.00     0.326 A 
HETATM   11  O1  UNL     1      88.269  77.088  30.262  1.00  0.00    -0.247 OA
HETATM   12  N7  UNL     1      88.552  74.904  30.879  1.00  0.00    -0.302 N 
ATOM     13  H7  UNL     1      89.513  74.955  31.216  1.00  0.00     0.171 HD
HETATM   14  C15 UNL     1      87.765  73.789  30.856  1.00  0.00     0.125 A 
ENDROOT
BRANCH   1  15
HETATM   15  N1  UNL     1      89.015  72.063  31.715  1.00  0.00    -0.368 N 
ATOM     16  H1  UNL     1      88.797  71.703  32.645  1.00  0.00     0.161 HD
BRANCH  15  17
HETATM   17  C7  UNL     1      90.362  71.874  31.510  1.00  0.00     0.107 C 
HETATM   18  C6  UNL     1      90.781  70.448  31.200  1.00  0.00     0.030 C 
HETATM   19  C5  UNL     1      92.126  70.183  31.831  1.00  0.00     0.034 C 
HETATM   20  C4  UNL     1      92.950  71.421  31.782  1.00  0.00     0.121 C 
HETATM   21  O2  UNL     1      92.439  72.361  32.642  1.00  0.00    -0.384 OA
HETATM   22  C16 UNL     1      91.081  72.275  32.827  1.00  0.00     0.193 C 
BRANCH  20  23
HETATM   23  C3  UNL     1      94.396  71.198  32.121  1.00  0.00     0.031 C 
BRANCH  23  24
HETATM   24  C2  UNL     1      94.863  71.975  33.311  1.00  0.00    -0.002 C 
HETATM   25  C1  UNL     1      96.041  71.198  33.908  1.00  0.00     0.005 C 
ENDBRANCH  23  24
ENDBRANCH  20  23
ENDBRANCH  15  17
ENDBRANCH   1  15
BRANCH   4  26
HETATM   26  C10 UNL     1      84.672  70.977  30.394  1.00  0.00     0.042 A 
HETATM   27  C11 UNL     1      84.628  69.962  29.475  1.00  0.00     0.123 A 
HETATM   28  N3  UNL     1      83.441  69.306  29.643  1.00  0.00    -0.311 N 
HETATM   29  N4  UNL     1      82.749  69.874  30.630  1.00  0.00    -0.311 N 
ATOM     30  H3  UNL     1      83.131  68.503  29.096  1.00  0.00     0.186 HD
HETATM   31  C12 UNL     1      83.497  70.904  31.102  1.00  0.00     0.123 A 
ATOM     32  H4  UNL     1      81.830  69.588  30.969  1.00  0.00     0.186 HD
ENDBRANCH   4  26
TORSDOF 5
ENDMDL
MODEL 2
REMARK VINA RESULT: -8.243695524      3.939      5.189
REMARK  5 active torsions:
REMARK  status: ('A' for Active; 'I' for Inactive)
REMARK    1  A    between atoms: C2_2  and  C3_3 
REMARK    2  A    between atoms: C3_3  and  C4_4 
REMARK    3  A    between atoms: C7_7  and  N1_8 
REMARK    4  A    between atoms: N1_8  and  C8_10 
REMARK    5  A    between atoms: C9_13  and  C10_14 
ROOT
HETATM    1  C8  UNL     1      85.935  72.128  30.541  1.00  0.00     0.134 A 
HETATM    2  N2  UNL     1      84.741  71.734  31.062  1.00  0.00    -0.326 N 
ATOM      3  H2  UNL     1      84.528  70.737  31.049  1.00  0.00     0.169 HD
HETATM    4  C9  UNL     1      83.834  72.546  31.585  1.00  0.00     0.121 A 
HETATM    5  N5  UNL     1      84.135  73.873  31.594  1.00  0.00    -0.326 N 
ATOM      6  H5  UNL     1      83.464  74.532  31.988  1.00  0.00     0.169 HD
HETATM    7  C13 UNL     1      85.292  74.338  31.098  1.00  0.00     0.142 A 
HETATM    8  N6  UNL     1      85.829  75.581  30.984  1.00  0.00    -0.292 N 
ATOM      9  H6  UNL     1      85.387  76.447  31.292  1.00  0.00     0.172 HD
HETATM   10  C14 UNL     1      87.030  75.488  30.404  1.00  0.00     0.326 A 
HETATM   11  O1  UNL     1      87.814  76.433  30.139  1.00  0.00    -0.247 OA
HETATM   12  N7  UNL     1      87.285  74.208  30.138  1.00  0.00    -0.302 N 
ATOM     13  H7  UNL     1      88.128  73.842  29.696  1.00  0.00     0.171 HD
HETATM   14  C15 UNL     1      86.215  73.474  30.562  1.00  0.00     0.125 A 
ENDROOT
BRANCH   1  15
HETATM   15  N1  UNL     1      86.677  71.273  30.091  1.00  0.00    -0.368 N 
ATOM     16  H1  UNL     1      87.266  70.949  30.858  1.00  0.00     0.161 HD
BRANCH  15  17
HETATM   17  C7  UNL     1      87.043  70.566  28.968  1.00  0.00     0.107 C 
HETATM   18  C6  UNL     1      86.026  69.552  28.474  1.00  0.00     0.030 C 
HETATM   19  C5  UNL     1      86.757  68.351  27.926  1.00  0.00     0.034 C 
HETATM   20  C4  UNL     1      88.017  68.794  27.270  1.00  0.00     0.121 C 
HETATM   21  O2  UNL     1      88.910  69.233  28.214  1.00  0.00    -0.384 OA
HETATM   22  C16 UNL     1      88.326  69.770  29.334  1.00  0.00     0.193 C 
BRANCH  20  23
HETATM   23  C3  UNL     1      88.677  67.723  26.447  1.00  0.00     0.031 C 
BRANCH  23  24
HETATM   24  C2  UNL     1      88.380  67.818  24.985  1.00  0.00    -0.002 C 
HETATM   25  C1  UNL     1      88.915  69.174  24.515  1.00  0.00     0.005 C 
ENDBRANCH  23  24
ENDBRANCH  20  23
ENDBRANCH  15  17
ENDBRANCH   1  15
BRANCH   4  26
HETATM   26  C10 UNL     1      82.564  72.102  32.136  1.00  0.00     0.042 A 
HETATM   27  C11 UNL     1      81.430  71.823  31.421  1.00  0.00     0.123 A 
HETATM   28  N3  UNL     1      80.466  71.440  32.310  1.00  0.00    -0.311 N 
HETATM   29  N4  UNL     1      80.959  71.469  33.548  1.00  0.00    -0.311 N 
ATOM     30  H3  UNL     1      79.513  71.171  32.064  1.00  0.00     0.186 HD
HETATM   31  C12 UNL     1      82.251  71.875  33.454  1.00  0.00     0.123 A 
ATOM     32  H4  UNL     1      80.459  71.232  34.405  1.00  0.00     0.186 HD
ENDBRANCH   4  26
TORSDOF 5
ENDMDL
MODEL 3
REMARK VINA RESULT: -8.243117629      0.707      1.297
REMARK  5 active torsions:
REMARK  status: ('A' for Active; 'I' for Inactive)
REMARK    1  A    between atoms: C2_2  and  C3_3 
REMARK    2  A    between atoms: C3_3  and  C4_4 
REMARK    3  A    between atoms: C7_7  and  N1_8 
REMARK    4  A    between atoms: N1_8  and  C8_10 
REMARK    5  A    between atoms: C9_13  and  C10_14 
ROOT
HETATM    1  C8  UNL     1      87.703  72.521  31.272  1.00  0.00     0.134 A 
HETATM    2  N2  UNL     1      86.610  71.719  31.151  1.00  0.00    -0.326 N 
ATOM      3  H2  UNL     1      86.710  70.742  31.427  1.00  0.00     0.169 HD
HETATM    4  C9  UNL     1      85.425  72.109  30.703  1.00  0.00     0.121 A 
HETATM    5  N5  UNL     1      85.310  73.415  30.339  1.00  0.00    -0.326 N 
ATOM      6  H5  UNL     1      84.416  73.757  29.989  1.00  0.00     0.169 HD
HETATM    7  C13 UNL     1      86.343  74.267  30.429  1.00  0.00     0.142 A 
HETATM    8  N6  UNL     1      86.497  75.586  30.141  1.00  0.00    -0.292 N 
ATOM      9  H6  UNL     1      85.771  76.199  29.771  1.00  0.00     0.172 HD
HETATM   10  C14 UNL     1      87.752  75.952  30.419  1.00  0.00     0.326 A 
HETATM   11  O1  UNL     1      88.253  77.096  30.278  1.00  0.00    -0.247 OA
HETATM   12  N7  UNL     1      88.419  74.896  30.883  1.00  0.00    -0.302 N 
ATOM     13  H7  UNL     1      89.396  74.883  31.175  1.00  0.00     0.171 HD
HETATM   14  C15 UNL     1      87.560  73.835  30.898  1.00  0.00     0.125 A 
ENDROOT
BRANCH   1  15
HETATM   15  N1  UNL     1      88.732  72.029  31.699  1.00  0.00    -0.368 N 
ATOM     16  H1  UNL     1      88.495  71.526  32.554  1.00  0.00     0.161 HD
BRANCH  15  17
HETATM   17  C7  UNL     1      90.085  71.876  31.498  1.00  0.00     0.107 C 
HETATM   18  C6  UNL     1      90.567  70.442  31.363  1.00  0.00     0.030 C 
HETATM   19  C5  UNL     1      91.929  70.321  32.001  1.00  0.00     0.034 C 
HETATM   20  C4  UNL     1      92.693  71.579  31.784  1.00  0.00     0.121 C 
HETATM   21  O2  UNL     1      92.148  72.596  32.527  1.00  0.00    -0.384 OA
HETATM   22  C16 UNL     1      90.797  72.472  32.742  1.00  0.00     0.193 C 
BRANCH  20  23
HETATM   23  C3  UNL     1      94.152  71.466  32.126  1.00  0.00     0.031 C 
BRANCH  23  24
HETATM   24  C2  UNL     1      94.925  70.593  31.190  1.00  0.00    -0.002 C 
HETATM   25  C1  UNL     1      94.626  71.094  29.774  1.00  0.00     0.005 C 
ENDBRANCH  23  24
ENDBRANCH  20  23
ENDBRANCH  15  17
ENDBRANCH   1  15
BRANCH   4  26
HETATM   26  C10 UNL     1      84.271  71.234  30.583  1.00  0.00     0.042 A 
HETATM   27  C11 UNL     1      83.094  71.355  31.274  1.00  0.00     0.123 A 
HETATM   28  N3  UNL     1      82.273  70.339  30.870  1.00  0.00    -0.311 N 
HETATM   29  N4  UNL     1      82.896  69.595  29.956  1.00  0.00    -0.311 N 
ATOM     30  H3  UNL     1      81.328  70.176  31.216  1.00  0.00     0.186 HD
HETATM   31  C12 UNL     1      84.126  70.137  29.770  1.00  0.00     0.123 A 
ATOM     32  H4  UNL     1      82.518  68.773  29.485  1.00  0.00     0.186 HD
ENDBRANCH   4  26
TORSDOF 5
ENDMDL
MODEL 4
REMARK VINA RESULT: -8.203859925      2.008      2.718
REMARK  5 active torsions:
REMARK  status: ('A' for Active; 'I' for Inactive)
REMARK    1  A    between atoms: C2_2  and  C3_3 
REMARK    2  A    between atoms: C3_3  and  C4_4 
REMARK    3  A    between atoms: C7_7  and  N1_8 
REMARK    4  A    between atoms: N1_8  and  C8_10 
REMARK    5  A    between atoms: C9_13  and  C10_14 
ROOT
HETATM    1  C8  UNL     1      86.244  72.174  30.683  1.00  0.00     0.134 A 
HETATM    2  N2  UNL     1      85.035  71.727  31.122  1.00  0.00    -0.326 N 
ATOM      3  H2  UNL     1      84.903  70.717  31.191  1.00  0.00     0.169 HD
HETATM    4  C9  UNL     1      84.017  72.501  31.467  1.00  0.00     0.121 A 
HETATM    5  N5  UNL     1      84.211  73.844  31.368  1.00  0.00    -0.326 N 
ATOM      6  H5  UNL     1      83.452  74.476  31.624  1.00  0.00     0.169 HD
HETATM    7  C13 UNL     1      85.374  74.360  30.943  1.00  0.00     0.142 A 
HETATM    8  N6  UNL     1      85.822  75.630  30.754  1.00  0.00    -0.292 N 
ATOM      9  H6  UNL     1      85.283  76.479  30.926  1.00  0.00     0.172 HD
HETATM   10  C14 UNL     1      87.081  75.588  30.308  1.00  0.00     0.326 A 
HETATM   11  O1  UNL     1      87.813  76.570  30.025  1.00  0.00    -0.247 OA
HETATM   12  N7  UNL     1      87.462  74.316  30.201  1.00  0.00    -0.302 N 
ATOM     13  H7  UNL     1      88.373  73.986  29.885  1.00  0.00     0.171 HD
HETATM   14  C15 UNL     1      86.414  73.534  30.592  1.00  0.00     0.125 A 
ENDROOT
BRANCH   1  15
HETATM   15  N1  UNL     1      87.094  71.348  30.399  1.00  0.00    -0.368 N 
ATOM     16  H1  UNL     1      86.741  70.812  29.606  1.00  0.00     0.161 HD
BRANCH  15  17
HETATM   17  C7  UNL     1      88.335  70.845  30.712  1.00  0.00     0.107 C 
HETATM   18  C6  UNL     1      88.955  71.382  31.989  1.00  0.00     0.030 C 
HETATM   19  C5  UNL     1      90.447  71.503  31.798  1.00  0.00     0.034 C 
HETATM   20  C4  UNL     1      90.928  70.393  30.932  1.00  0.00     0.121 C 
HETATM   21  O2  UNL     1      90.485  70.574  29.646  1.00  0.00    -0.384 OA
HETATM   22  C16 UNL     1      89.289  71.240  29.551  1.00  0.00     0.193 C 
BRANCH  20  23
HETATM   23  C3  UNL     1      92.424  70.250  30.908  1.00  0.00     0.031 C 
BRANCH  23  24
HETATM   24  C2  UNL     1      93.154  71.550  31.013  1.00  0.00    -0.002 C 
HETATM   25  C1  UNL     1      93.850  71.773  29.667  1.00  0.00     0.005 C 
ENDBRANCH  23  24
ENDBRANCH  20  23
ENDBRANCH  15  17
ENDBRANCH   1  15
BRANCH   4  26
HETATM   26  C10 UNL     1      82.734  72.001  31.934  1.00  0.00     0.042 A 
HETATM   27  C11 UNL     1      82.177  72.238  33.163  1.00  0.00     0.123 A 
HETATM   28  N3  UNL     1      80.973  71.592  33.200  1.00  0.00    -0.311 N 
HETATM   29  N4  UNL     1      80.763  70.966  32.043  1.00  0.00    -0.311 N 
ATOM     30  H3  UNL     1      80.332  71.591  33.994  1.00  0.00     0.186 HD
HETATM   31  C12 UNL     1      81.840  71.211  31.255  1.00  0.00     0.123 A 
ATOM     32  H4  UNL     1      79.946  70.407  31.796  1.00  0.00     0.186 HD
ENDBRANCH   4  26
TORSDOF 5
ENDMDL
MODEL 5
REMARK VINA RESULT: -8.203174317      2.649      7.379
REMARK  5 active torsions:
REMARK  status: ('A' for Active; 'I' for Inactive)
REMARK    1  A    between atoms: C2_2  and  C3_3 
REMARK    2  A    between atoms: C3_3  and  C4_4 
REMARK    3  A    between atoms: C7_7  and  N1_8 
REMARK    4  A    between atoms: N1_8  and  C8_10 
REMARK    5  A    between atoms: C9_13  and  C10_14 
ROOT
HETATM    1  C8  UNL     1      87.427  73.046  30.711  1.00  0.00     0.134 A 
HETATM    2  N2  UNL     1      88.006  71.937  31.248  1.00  0.00    -0.326 N 
ATOM      3  H2  UNL     1      87.479  71.064  31.205  1.00  0.00     0.169 HD
HETATM    4  C9  UNL     1      89.200  71.903  31.821  1.00  0.00     0.121 A 
HETATM    5  N5  UNL     1      89.887  73.077  31.869  1.00  0.00    -0.326 N 
ATOM      6  H5  UNL     1      90.811  73.094  32.302  1.00  0.00     0.169 HD
HETATM    7  C13 UNL     1      89.383  74.212  31.362  1.00  0.00     0.142 A 
HETATM    8  N6  UNL     1      89.846  75.487  31.280  1.00  0.00    -0.292 N 
ATOM      9  H6  UNL     1      90.747  75.813  31.630  1.00  0.00     0.172 HD
HETATM   10  C14 UNL     1      88.932  76.246  30.667  1.00  0.00     0.326 A 
HETATM   11  O1  UNL     1      89.017  77.474  30.417  1.00  0.00    -0.247 OA
HETATM   12  N7  UNL     1      87.882  75.489  30.349  1.00  0.00    -0.302 N 
ATOM     13  H7  UNL     1      87.037  75.803  29.873  1.00  0.00     0.171 HD
HETATM   14  C15 UNL     1      88.142  74.218  30.772  1.00  0.00     0.125 A 
ENDROOT
BRANCH   1  15
HETATM   15  N1  UNL     1      86.321  72.934  30.214  1.00  0.00    -0.368 N 
ATOM     16  H1  UNL     1      86.432  73.026  29.204  1.00  0.00     0.161 HD
BRANCH  15  17
HETATM   17  C7  UNL     1      84.982  72.735  30.461  1.00  0.00     0.107 C 
HETATM   18  C6  UNL     1      84.441  73.404  31.711  1.00  0.00     0.030 C 
HETATM   19  C5  UNL     1      83.395  72.512  32.333  1.00  0.00     0.034 C 
HETATM   20  C4  UNL     1      82.641  71.809  31.260  1.00  0.00     0.121 C 
HETATM   21  O2  UNL     1      83.447  70.880  30.650  1.00  0.00    -0.384 OA
HETATM   22  C16 UNL     1      84.780  71.206  30.649  1.00  0.00     0.193 C 
BRANCH  20  23
HETATM   23  C3  UNL     1      81.399  71.119  31.748  1.00  0.00     0.031 C 
BRANCH  23  24
HETATM   24  C2  UNL     1      81.017  71.482  33.147  1.00  0.00    -0.002 C 
HETATM   25  C1  UNL     1      79.512  71.762  33.133  1.00  0.00     0.005 C 
ENDBRANCH  23  24
ENDBRANCH  20  23
ENDBRANCH  15  17
ENDBRANCH   1  15
BRANCH   4  26
HETATM   26  C10 UNL     1      89.798  70.706  32.388  1.00  0.00     0.042 A 
HETATM   27  C11 UNL     1      91.091  70.290  32.208  1.00  0.00     0.123 A 
HETATM   28  N3  UNL     1      91.250  69.126  32.907  1.00  0.00    -0.311 N 
HETATM   29  N4  UNL     1      90.107  68.806  33.513  1.00  0.00    -0.311 N 
ATOM     30  H3  UNL     1      92.112  68.585  32.958  1.00  0.00     0.186 HD
HETATM   31  C12 UNL     1      89.205  69.772  33.201  1.00  0.00     0.123 A 
ATOM     32  H4  UNL     1      89.940  67.989  34.100  1.00  0.00     0.186 HD
ENDBRANCH   4  26
TORSDOF 5
ENDMDL
