MODEL 1
REMARK VINA RESULT: -6.952505962      0.000      0.000
REMARK  3 active torsions:
REMARK  status: ('A' for Active; 'I' for Inactive)
REMARK    1  A    between atoms: N1_1  and  C1_4 
REMARK    2  A    between atoms: C4_11  and  C5_12 
REMARK       I    between atoms: C5_12  and  N4_14 
REMARK    3  A    between atoms: N4_14  and  N5_16 
ROOT
HETATM    1  C1  UNL     1       6.374  12.700  12.374  1.00  0.00     0.132 A 
HETATM    2  N2  UNL     1       7.156  12.203  13.331  1.00  0.00    -0.283 N 
ATOM      3  H2  UNL     1       6.705  11.833  14.166  1.00  0.00     0.188 HD
HETATM    4  N3  UNL     1       8.479  12.157  13.272  1.00  0.00    -0.276 N 
ATOM      5  H3  UNL     1       9.016  11.762  14.044  1.00  0.00     0.189 HD
HETATM    6  C2  UNL     1       9.107  12.635  12.185  1.00  0.00     0.194 A 
HETATM    7  C3  UNL     1       8.324  13.164  11.159  1.00  0.00     0.143 A 
HETATM    8  C4  UNL     1       6.947  13.219  11.207  1.00  0.00     0.116 A 
HETATM    9  O2  UNL     1       9.250  13.559  10.215  1.00  0.00    -0.320 OA
HETATM   10  C6  UNL     1      10.495  12.911  10.434  1.00  0.00     0.354 C 
HETATM   11  O3  UNL     1      10.454  12.723  11.840  1.00  0.00    -0.306 OA
ENDROOT
BRANCH   8  12
HETATM   12  C5  UNL     1       6.127  13.765  10.148  1.00  0.00     0.276 C 
HETATM   13  O1  UNL     1       5.450  14.809  10.432  1.00  0.00    -0.266 OA
HETATM   14  N4  UNL     1       5.994  13.274   8.839  1.00  0.00    -0.272 N 
ATOM     15  H4  UNL     1       6.519  12.441   8.576  1.00  0.00     0.189 HD
BRANCH  14  16
HETATM   16  N5  UNL     1       5.172  13.877   7.880  1.00  0.00    -0.342 N 
ATOM     17  H52 UNL     1       5.011  13.367   7.010  1.00  0.00     0.176 HD
ATOM     18  H51 UNL     1       4.735  14.789   8.016  1.00  0.00     0.176 HD
ENDBRANCH  14  16
ENDBRANCH   8  12
BRANCH   1  19
HETATM   19  N1  UNL     1       5.106  12.700  12.524  1.00  0.00    -0.384 N 
ATOM     20  H12 UNL     1       4.512  12.176  11.881  1.00  0.00     0.157 HD
ATOM     21  H11 UNL     1       4.685  13.227  13.289  1.00  0.00     0.157 HD
ENDBRANCH   1  19
TORSDOF 3
ENDMDL
MODEL 2
REMARK VINA RESULT: -6.950326196      1.803      1.915
REMARK  3 active torsions:
REMARK  status: ('A' for Active; 'I' for Inactive)
REMARK    1  A    between atoms: N1_1  and  C1_4 
REMARK    2  A    between atoms: C4_11  and  C5_12 
REMARK       I    between atoms: C5_12  and  N4_14 
REMARK    3  A    between atoms: N4_14  and  N5_16 
ROOT
HETATM    1  C1  UNL     1       6.591  14.106  12.193  1.00  0.00     0.132 A 
HETATM    2  N2  UNL     1       7.171  14.035  13.390  1.00  0.00    -0.283 N 
ATOM      3  H2  UNL     1       6.961  14.771  14.062  1.00  0.00     0.188 HD
HETATM    4  N3  UNL     1       8.000  13.072  13.768  1.00  0.00    -0.276 N 
ATOM      5  H3  UNL     1       8.409  13.081  14.702  1.00  0.00     0.189 HD
HETATM    6  C2  UNL     1       8.298  12.085  12.907  1.00  0.00     0.194 A 
HETATM    7  C3  UNL     1       7.711  12.122  11.642  1.00  0.00     0.143 A 
HETATM    8  C4  UNL     1       6.847  13.117  11.235  1.00  0.00     0.116 A 
HETATM    9  O2  UNL     1       8.210  10.996  11.020  1.00  0.00    -0.320 OA
HETATM   10  C6  UNL     1       8.714  10.076  11.978  1.00  0.00     0.354 C 
HETATM   11  O3  UNL     1       9.117  10.961  13.011  1.00  0.00    -0.306 OA
ENDROOT
BRANCH   8  12
HETATM   12  C5  UNL     1       6.234  13.164   9.926  1.00  0.00     0.276 C 
HETATM   13  O1  UNL     1       6.206  14.302   9.351  1.00  0.00    -0.266 OA
HETATM   14  N4  UNL     1       5.666  12.094   9.217  1.00  0.00    -0.272 N 
ATOM     15  H4  UNL     1       5.670  11.169   9.646  1.00  0.00     0.189 HD
BRANCH  14  16
HETATM   16  N5  UNL     1       5.095  12.240   7.947  1.00  0.00    -0.342 N 
ATOM     17  H52 UNL     1       5.238  13.127   7.465  1.00  0.00     0.176 HD
ATOM     18  H51 UNL     1       4.551  11.504   7.495  1.00  0.00     0.176 HD
ENDBRANCH  14  16
ENDBRANCH   8  12
BRANCH   1  19
HETATM   19  N1  UNL     1       5.806  15.076  11.923  1.00  0.00    -0.384 N 
ATOM     20  H12 UNL     1       4.801  14.917  11.848  1.00  0.00     0.157 HD
ATOM     21  H11 UNL     1       6.183  16.012  11.781  1.00  0.00     0.157 HD
ENDBRANCH   1  19
TORSDOF 3
ENDMDL
MODEL 3
REMARK VINA RESULT: -6.889904842      2.117      2.877
REMARK  3 active torsions:
REMARK  status: ('A' for Active; 'I' for Inactive)
REMARK    1  A    between atoms: N1_1  and  C1_4 
REMARK    2  A    between atoms: C4_11  and  C5_12 
REMARK       I    between atoms: C5_12  and  N4_14 
REMARK    3  A    between atoms: N4_14  and  N5_16 
ROOT
HETATM    1  C1  UNL     1       6.262  12.314  12.139  1.00  0.00     0.132 A 
HETATM    2  N2  UNL     1       6.651  11.163  11.593  1.00  0.00    -0.283 N 
ATOM      3  H2  UNL     1       5.969  10.407  11.545  1.00  0.00     0.188 HD
HETATM    4  N3  UNL     1       7.863  10.932  11.107  1.00  0.00    -0.276 N 
ATOM      5  H3  UNL     1       8.092  10.024  10.703  1.00  0.00     0.189 HD
HETATM    6  C2  UNL     1       8.786  11.907  11.152  1.00  0.00     0.194 A 
HETATM    7  C3  UNL     1       8.418  13.129  11.716  1.00  0.00     0.143 A 
HETATM    8  C4  UNL     1       7.163  13.382  12.226  1.00  0.00     0.116 A 
HETATM    9  O2  UNL     1       9.564  13.891  11.611  1.00  0.00    -0.320 OA
HETATM   10  C6  UNL     1      10.445  13.341  10.642  1.00  0.00     0.354 C 
HETATM   11  O3  UNL     1      10.114  11.964  10.732  1.00  0.00    -0.306 OA
ENDROOT
BRANCH   8  12
HETATM   12  C5  UNL     1       6.773  14.646  12.811  1.00  0.00     0.276 C 
HETATM   13  O1  UNL     1       6.088  15.429  12.073  1.00  0.00    -0.266 OA
HETATM   14  N4  UNL     1       7.064  15.107  14.105  1.00  0.00    -0.272 N 
ATOM     15  H4  UNL     1       7.610  14.509  14.724  1.00  0.00     0.189 HD
BRANCH  14  16
HETATM   16  N5  UNL     1       6.639  16.352  14.583  1.00  0.00    -0.342 N 
ATOM     17  H52 UNL     1       7.000  16.658  15.487  1.00  0.00     0.176 HD
ATOM     18  H51 UNL     1       5.994  16.954  14.070  1.00  0.00     0.176 HD
ENDBRANCH  14  16
ENDBRANCH   8  12
BRANCH   1  19
HETATM   19  N1  UNL     1       5.071  12.439  12.580  1.00  0.00    -0.384 N 
ATOM     20  H12 UNL     1       4.457  11.626  12.643  1.00  0.00     0.157 HD
ATOM     21  H11 UNL     1       4.730  13.355  12.872  1.00  0.00     0.157 HD
ENDBRANCH   1  19
TORSDOF 3
ENDMDL
MODEL 4
REMARK VINA RESULT: -6.631218367      2.458      4.589
REMARK  3 active torsions:
REMARK  status: ('A' for Active; 'I' for Inactive)
REMARK    1  A    between atoms: N1_1  and  C1_4 
REMARK    2  A    between atoms: C4_11  and  C5_12 
REMARK       I    between atoms: C5_12  and  N4_14 
REMARK    3  A    between atoms: N4_14  and  N5_16 
ROOT
HETATM    1  C1  UNL     1       6.542  15.359  13.346  1.00  0.00     0.132 A 
HETATM    2  N2  UNL     1       5.705  16.295  12.902  1.00  0.00    -0.283 N 
ATOM      3  H2  UNL     1       5.521  17.092  13.510  1.00  0.00     0.188 HD
HETATM    4  N3  UNL     1       5.096  16.264  11.724  1.00  0.00    -0.276 N 
ATOM      5  H3  UNL     1       4.466  17.017  11.449  1.00  0.00     0.189 HD
HETATM    6  C2  UNL     1       5.318  15.229  10.897  1.00  0.00     0.194 A 
HETATM    7  C3  UNL     1       6.189  14.227  11.324  1.00  0.00     0.143 A 
HETATM    8  C4  UNL     1       6.828  14.246  12.546  1.00  0.00     0.116 A 
HETATM    9  O2  UNL     1       6.197  13.334  10.271  1.00  0.00    -0.320 OA
HETATM   10  C6  UNL     1       5.723  13.956   9.085  1.00  0.00     0.354 C 
HETATM   11  O3  UNL     1       4.835  14.921   9.626  1.00  0.00    -0.306 OA
ENDROOT
BRANCH   8  12
HETATM   12  C5  UNL     1       7.732  13.211  12.996  1.00  0.00     0.276 C 
HETATM   13  O1  UNL     1       8.972  13.397  12.760  1.00  0.00    -0.266 OA
HETATM   14  N4  UNL     1       7.397  12.024  13.667  1.00  0.00    -0.272 N 
ATOM     15  H4  UNL     1       6.415  11.841  13.872  1.00  0.00     0.189 HD
BRANCH  14  16
HETATM   16  N5  UNL     1       8.350  11.080  14.066  1.00  0.00    -0.342 N 
ATOM     17  H52 UNL     1       8.715  10.448  13.352  1.00  0.00     0.176 HD
ATOM     18  H51 UNL     1       8.687  11.002  15.025  1.00  0.00     0.176 HD
ENDBRANCH  14  16
ENDBRANCH   8  12
BRANCH   1  19
HETATM   19  N1  UNL     1       7.080  15.479  14.497  1.00  0.00    -0.384 N 
ATOM     20  H12 UNL     1       6.835  16.266  15.099  1.00  0.00     0.157 HD
ATOM     21  H11 UNL     1       7.756  14.787  14.817  1.00  0.00     0.157 HD
ENDBRANCH   1  19
TORSDOF 3
ENDMDL
MODEL 5
REMARK VINA RESULT: -6.624278483      2.269      2.522
REMARK  3 active torsions:
REMARK  status: ('A' for Active; 'I' for Inactive)
REMARK    1  A    between atoms: N1_1  and  C1_4 
REMARK    2  A    between atoms: C4_11  and  C5_12 
REMARK       I    between atoms: C5_12  and  N4_14 
REMARK    3  A    between atoms: N4_14  and  N5_16 
ROOT
HETATM    1  C1  UNL     1       7.779  11.280  13.492  1.00  0.00     0.132 A 
HETATM    2  N2  UNL     1       9.049  10.893  13.589  1.00  0.00    -0.283 N 
ATOM      3  H2  UNL     1       9.268  10.142  14.243  1.00  0.00     0.188 HD
HETATM    4  N3  UNL     1      10.051  11.417  12.895  1.00  0.00    -0.276 N 
ATOM      5  H3  UNL     1      11.002  11.071  13.021  1.00  0.00     0.189 HD
HETATM    6  C2  UNL     1       9.799  12.407  12.023  1.00  0.00     0.194 A 
HETATM    7  C3  UNL     1       8.481  12.841  11.890  1.00  0.00     0.143 A 
HETATM    8  C4  UNL     1       7.430  12.307  12.606  1.00  0.00     0.116 A 
HETATM    9  O2  UNL     1       8.562  13.841  10.942  1.00  0.00    -0.320 OA
HETATM   10  C6  UNL     1       9.770  13.732  10.202  1.00  0.00     0.354 C 
HETATM   11  O3  UNL     1      10.623  13.140  11.170  1.00  0.00    -0.306 OA
ENDROOT
BRANCH   8  12
HETATM   12  C5  UNL     1       6.060  12.751  12.475  1.00  0.00     0.276 C 
HETATM   13  O1  UNL     1       5.236  11.914  11.977  1.00  0.00    -0.266 OA
HETATM   14  N4  UNL     1       5.535  14.002  12.836  1.00  0.00    -0.272 N 
ATOM     15  H4  UNL     1       6.164  14.697  13.237  1.00  0.00     0.189 HD
BRANCH  14  16
HETATM   16  N5  UNL     1       4.186  14.338  12.670  1.00  0.00    -0.342 N 
ATOM     17  H52 UNL     1       3.872  14.576  11.729  1.00  0.00     0.176 HD
ATOM     18  H51 UNL     1       3.518  14.353  13.441  1.00  0.00     0.176 HD
ENDBRANCH  14  16
ENDBRANCH   8  12
BRANCH   1  19
HETATM   19  N1  UNL     1       6.885  10.714  14.205  1.00  0.00    -0.384 N 
ATOM     20  H12 UNL     1       5.982  10.467  13.798  1.00  0.00     0.157 HD
ATOM     21  H11 UNL     1       7.072  10.506  15.186  1.00  0.00     0.157 HD
ENDBRANCH   1  19
TORSDOF 3
ENDMDL
