MODEL 1
REMARK VINA RESULT: -7.063542058      0.000      0.000
REMARK  6 active torsions:
REMARK  status: ('A' for Active; 'I' for Inactive)
REMARK    1  A    between atoms: C2_2  and  C3_4 
REMARK    2  A    between atoms: C3_4  and  C12_21 
REMARK    3  A    between atoms: N1_5  and  N2_7 
REMARK    4  A    between atoms: N2_7  and  C4_9 
REMARK    5  A    between atoms: C5_12  and  C6_13 
REMARK    6  A    between atoms: C12_21  and  C14_24 
ROOT
HETATM    1  C12 UNL     1     -48.323  -4.856 -25.139  1.00  0.00     0.204 C 
HETATM    2  C13 UNL     1     -49.115  -5.984 -24.603  1.00  0.00     0.077 C 
HETATM    3  N4  UNL     1     -49.736  -6.869 -24.157  1.00  0.00    -0.196 NA
ENDROOT
BRANCH   1   4
HETATM    4  C3  UNL     1     -49.138  -4.113 -26.117  1.00  0.00     0.095 C 
HETATM    5  N1  UNL     1     -50.399  -4.015 -25.925  1.00  0.00    -0.297 N 
ATOM      6  H1  UNL     1     -50.805  -4.451 -25.097  1.00  0.00     0.187 HD
BRANCH   4   7
HETATM    7  C2  UNL     1     -48.535  -3.511 -27.275  1.00  0.00     0.171 C 
HETATM    8  C1  UNL     1     -47.887  -4.404 -28.293  1.00  0.00     0.098 C 
HETATM    9  O1  UNL     1     -48.533  -2.260 -27.458  1.00  0.00    -0.291 OA
ENDBRANCH   4   7
BRANCH   5  10
HETATM   10  N2  UNL     1     -51.226  -3.346 -26.791  1.00  0.00    -0.279 N 
ATOM     11  H2  UNL     1     -51.267  -3.593 -27.780  1.00  0.00     0.189 HD
BRANCH  10  12
HETATM   12  C4  UNL     1     -51.965  -2.374 -26.300  1.00  0.00     0.163 A 
HETATM   13  N3  UNL     1     -51.829  -1.788 -25.110  1.00  0.00    -0.334 N 
HETATM   14  C5  UNL     1     -52.649  -0.838 -24.782  1.00  0.00     0.058 A 
ATOM     15  H3  UNL     1     -51.093  -2.083 -24.468  1.00  0.00     0.168 HD
HETATM   16  C11 UNL     1     -53.619  -0.490 -25.694  1.00  0.00     0.084 A 
HETATM   17  S2  UNL     1     -53.295  -1.557 -26.982  1.00  0.00    -0.062 SA
BRANCH  14  18
HETATM   18  C6  UNL     1     -52.577  -0.120 -23.468  1.00  0.00     0.032 A 
HETATM   19  C7  UNL     1     -52.967   1.158 -23.171  1.00  0.00     0.022 A 
HETATM   20  C8  UNL     1     -52.797   1.573 -21.908  1.00  0.00     0.015 A 
HETATM   21  C9  UNL     1     -52.251   0.686 -21.023  1.00  0.00    -0.021 A 
HETATM   22  C10 UNL     1     -51.971   0.939 -19.561  1.00  0.00     0.056 C 
HETATM   23  S1  UNL     1     -51.989  -0.700 -21.981  1.00  0.00    -0.093 SA
ENDBRANCH  14  18
ENDBRANCH  10  12
ENDBRANCH   5  10
ENDBRANCH   1   4
BRANCH   1  24
HETATM   24  C14 UNL     1     -47.937  -3.995 -23.982  1.00  0.00     0.077 A 
HETATM   25  C15 UNL     1     -47.012  -4.320 -23.018  1.00  0.00     0.037 A 
HETATM   26  C16 UNL     1     -46.951  -3.251 -22.126  1.00  0.00     0.035 A 
HETATM   27  C17 UNL     1     -47.868  -2.339 -22.629  1.00  0.00     0.049 A 
HETATM   28  C18 UNL     1     -48.135  -1.017 -21.972  1.00  0.00     0.076 C 
HETATM   29  O2  UNL     1     -48.414  -2.810 -23.701  1.00  0.00    -0.318 OA
ENDBRANCH   1  24
TORSDOF 6
ENDMDL
MODEL 2
REMARK VINA RESULT: -7.050549855      3.216      5.592
REMARK  6 active torsions:
REMARK  status: ('A' for Active; 'I' for Inactive)
REMARK    1  A    between atoms: C2_2  and  C3_4 
REMARK    2  A    between atoms: C3_4  and  C12_21 
REMARK    3  A    between atoms: N1_5  and  N2_7 
REMARK    4  A    between atoms: N2_7  and  C4_9 
REMARK    5  A    between atoms: C5_12  and  C6_13 
REMARK    6  A    between atoms: C12_21  and  C14_24 
ROOT
HETATM    1  C12 UNL     1     -52.991  -2.211 -26.410  1.00  0.00     0.204 C 
HETATM    2  C13 UNL     1     -52.173  -1.747 -27.551  1.00  0.00     0.077 C 
HETATM    3  N4  UNL     1     -51.537  -1.359 -28.453  1.00  0.00    -0.196 NA
ENDROOT
BRANCH   1   4
HETATM    4  C3  UNL     1     -52.103  -2.733 -25.357  1.00  0.00     0.095 C 
HETATM    5  N1  UNL     1     -50.897  -2.311 -25.298  1.00  0.00    -0.297 N 
ATOM      6  H1  UNL     1     -50.584  -1.620 -25.981  1.00  0.00     0.187 HD
BRANCH   4   7
HETATM    7  C2  UNL     1     -52.573  -3.709 -24.411  1.00  0.00     0.171 C 
HETATM    8  C1  UNL     1     -53.010  -5.051 -24.920  1.00  0.00     0.098 C 
HETATM    9  O1  UNL     1     -52.631  -3.468 -23.170  1.00  0.00    -0.291 OA
ENDBRANCH   4   7
BRANCH   5  10
HETATM   10  N2  UNL     1     -50.007  -2.751 -24.352  1.00  0.00    -0.279 N 
ATOM     11  H2  UNL     1     -49.559  -3.665 -24.433  1.00  0.00     0.189 HD
BRANCH  10  12
HETATM   12  C4  UNL     1     -49.750  -1.954 -23.337  1.00  0.00     0.163 A 
HETATM   13  N3  UNL     1     -50.641  -1.328 -22.567  1.00  0.00    -0.334 N 
HETATM   14  C5  UNL     1     -50.214  -0.575 -21.602  1.00  0.00     0.058 A 
ATOM     15  H3  UNL     1     -51.641  -1.440 -22.734  1.00  0.00     0.168 HD
HETATM   16  C11 UNL     1     -48.853  -0.467 -21.431  1.00  0.00     0.084 A 
HETATM   17  S2  UNL     1     -48.259  -1.463 -22.678  1.00  0.00    -0.062 SA
BRANCH  14  18
HETATM   18  C6  UNL     1     -51.136   0.169 -20.683  1.00  0.00     0.032 A 
HETATM   19  C7  UNL     1     -52.251   0.899 -21.000  1.00  0.00     0.022 A 
HETATM   20  C8  UNL     1     -52.913   1.476 -19.987  1.00  0.00     0.015 A 
HETATM   21  C9  UNL     1     -52.423   1.286 -18.725  1.00  0.00    -0.021 A 
HETATM   22  C10 UNL     1     -53.006   1.839 -17.447  1.00  0.00     0.056 C 
HETATM   23  S1  UNL     1     -51.050   0.310 -18.990  1.00  0.00    -0.093 SA
ENDBRANCH  14  18
ENDBRANCH  10  12
ENDBRANCH   5  10
ENDBRANCH   1   4
BRANCH   1  24
HETATM   24  C14 UNL     1     -53.784  -1.041 -25.928  1.00  0.00     0.077 A 
HETATM   25  C15 UNL     1     -53.384  -0.150 -24.960  1.00  0.00     0.037 A 
HETATM   26  C16 UNL     1     -54.408   0.783 -24.809  1.00  0.00     0.035 A 
HETATM   27  C17 UNL     1     -55.374   0.374 -25.718  1.00  0.00     0.049 A 
HETATM   28  C18 UNL     1     -56.673   1.103 -25.897  1.00  0.00     0.076 C 
HETATM   29  O2  UNL     1     -54.972  -0.682 -26.341  1.00  0.00    -0.318 OA
ENDBRANCH   1  24
TORSDOF 6
ENDMDL
MODEL 3
REMARK VINA RESULT: -6.970618217      3.425      7.231
REMARK  6 active torsions:
REMARK  status: ('A' for Active; 'I' for Inactive)
REMARK    1  A    between atoms: C2_2  and  C3_4 
REMARK    2  A    between atoms: C3_4  and  C12_21 
REMARK    3  A    between atoms: N1_5  and  N2_7 
REMARK    4  A    between atoms: N2_7  and  C4_9 
REMARK    5  A    between atoms: C5_12  and  C6_13 
REMARK    6  A    between atoms: C12_21  and  C14_24 
ROOT
HETATM    1  C12 UNL     1     -51.638   0.826 -19.701  1.00  0.00     0.204 C 
HETATM    2  C13 UNL     1     -52.387   1.105 -18.456  1.00  0.00     0.077 C 
HETATM    3  N4  UNL     1     -52.997   1.336 -17.486  1.00  0.00    -0.196 NA
ENDROOT
BRANCH   1   4
HETATM    4  C3  UNL     1     -51.193  -0.579 -19.693  1.00  0.00     0.095 C 
HETATM    5  N1  UNL     1     -52.069  -1.507 -19.788  1.00  0.00    -0.297 N 
ATOM      6  H1  UNL     1     -53.052  -1.248 -19.871  1.00  0.00     0.187 HD
BRANCH   4   7
HETATM    7  C2  UNL     1     -49.800  -0.912 -19.573  1.00  0.00     0.171 C 
HETATM    8  C1  UNL     1     -48.902  -0.681 -20.754  1.00  0.00     0.098 C 
HETATM    9  O1  UNL     1     -49.313  -1.393 -18.509  1.00  0.00    -0.291 OA
ENDBRANCH   4   7
BRANCH   5  10
HETATM   10  N2  UNL     1     -51.737  -2.837 -19.783  1.00  0.00    -0.279 N 
ATOM     11  H2  UNL     1     -51.661  -3.360 -18.909  1.00  0.00     0.189 HD
BRANCH  10  12
HETATM   12  C4  UNL     1     -51.519  -3.417 -20.944  1.00  0.00     0.163 A 
HETATM   13  N3  UNL     1     -51.785  -2.915 -22.150  1.00  0.00    -0.334 N 
HETATM   14  C5  UNL     1     -51.505  -3.624 -23.199  1.00  0.00     0.058 A 
ATOM     15  H3  UNL     1     -52.201  -1.988 -22.246  1.00  0.00     0.168 HD
HETATM   16  C11 UNL     1     -50.945  -4.865 -23.000  1.00  0.00     0.084 A 
HETATM   17  S2  UNL     1     -50.852  -4.943 -21.300  1.00  0.00    -0.062 SA
BRANCH  14  18
HETATM   18  C6  UNL     1     -51.766  -3.147 -24.596  1.00  0.00     0.032 A 
HETATM   19  C7  UNL     1     -52.695  -3.602 -25.494  1.00  0.00     0.022 A 
HETATM   20  C8  UNL     1     -52.731  -3.004 -26.694  1.00  0.00     0.015 A 
HETATM   21  C9  UNL     1     -51.841  -1.991 -26.919  1.00  0.00    -0.021 A 
HETATM   22  C10 UNL     1     -51.707  -1.184 -28.188  1.00  0.00     0.056 C 
HETATM   23  S1  UNL     1     -50.979  -1.904 -25.450  1.00  0.00    -0.093 SA
ENDBRANCH  14  18
ENDBRANCH  10  12
ENDBRANCH   5  10
ENDBRANCH   1   4
BRANCH   1  24
HETATM   24  C14 UNL     1     -52.558   1.103 -20.844  1.00  0.00     0.077 A 
HETATM   25  C15 UNL     1     -53.702   1.862 -20.782  1.00  0.00     0.037 A 
HETATM   26  C16 UNL     1     -54.263   1.869 -22.058  1.00  0.00     0.035 A 
HETATM   27  C17 UNL     1     -53.394   1.093 -22.813  1.00  0.00     0.049 A 
HETATM   28  C18 UNL     1     -53.612   0.825 -24.273  1.00  0.00     0.076 C 
HETATM   29  O2  UNL     1     -52.425   0.671 -22.072  1.00  0.00    -0.318 OA
ENDBRANCH   1  24
TORSDOF 6
ENDMDL
MODEL 4
REMARK VINA RESULT: -6.956453503      2.943      7.436
REMARK  6 active torsions:
REMARK  status: ('A' for Active; 'I' for Inactive)
REMARK    1  A    between atoms: C2_2  and  C3_4 
REMARK    2  A    between atoms: C3_4  and  C12_21 
REMARK    3  A    between atoms: N1_5  and  N2_7 
REMARK    4  A    between atoms: N2_7  and  C4_9 
REMARK    5  A    between atoms: C5_12  and  C6_13 
REMARK    6  A    between atoms: C12_21  and  C14_24 
ROOT
HETATM    1  C12 UNL     1     -52.369   1.101 -22.393  1.00  0.00     0.204 C 
HETATM    2  C13 UNL     1     -53.375   1.786 -21.551  1.00  0.00     0.077 C 
HETATM    3  N4  UNL     1     -54.185   2.327 -20.905  1.00  0.00    -0.196 NA
ENDROOT
BRANCH   1   4
HETATM    4  C3  UNL     1     -51.820  -0.049 -21.652  1.00  0.00     0.095 C 
HETATM    5  N1  UNL     1     -52.293  -1.215 -21.879  1.00  0.00    -0.297 N 
ATOM      6  H1  UNL     1     -53.036  -1.318 -22.571  1.00  0.00     0.187 HD
BRANCH   4   7
HETATM    7  C2  UNL     1     -50.774   0.130 -20.682  1.00  0.00     0.171 C 
HETATM    8  C1  UNL     1     -49.348   0.111 -21.150  1.00  0.00     0.098 C 
HETATM    9  O1  UNL     1     -51.020   0.298 -19.452  1.00  0.00    -0.291 OA
ENDBRANCH   4   7
BRANCH   5  10
HETATM   10  N2  UNL     1     -51.840  -2.333 -21.228  1.00  0.00    -0.279 N 
ATOM     11  H2  UNL     1     -52.132  -2.543 -20.272  1.00  0.00     0.189 HD
BRANCH  10  12
HETATM   12  C4  UNL     1     -51.016  -3.127 -21.879  1.00  0.00     0.163 A 
HETATM   13  N3  UNL     1     -50.583  -2.977 -23.131  1.00  0.00    -0.334 N 
HETATM   14  C5  UNL     1     -49.767  -3.858 -23.621  1.00  0.00     0.058 A 
ATOM     15  H3  UNL     1     -50.888  -2.182 -23.693  1.00  0.00     0.168 HD
HETATM   16  C11 UNL     1     -49.396  -4.905 -22.809  1.00  0.00     0.084 A 
HETATM   17  S2  UNL     1     -50.248  -4.561 -21.375  1.00  0.00    -0.062 SA
BRANCH  14  18
HETATM   18  C6  UNL     1     -49.226  -3.775 -25.016  1.00  0.00     0.032 A 
HETATM   19  C7  UNL     1     -49.124  -2.678 -25.829  1.00  0.00     0.022 A 
HETATM   20  C8  UNL     1     -48.599  -2.865 -27.048  1.00  0.00     0.015 A 
HETATM   21  C9  UNL     1     -48.206  -4.132 -27.377  1.00  0.00    -0.021 A 
HETATM   22  C10 UNL     1     -47.593  -4.568 -28.686  1.00  0.00     0.056 C 
HETATM   23  S1  UNL     1     -48.585  -5.026 -25.975  1.00  0.00    -0.093 SA
ENDBRANCH  14  18
ENDBRANCH  10  12
ENDBRANCH   5  10
ENDBRANCH   1   4
BRANCH   1  24
HETATM   24  C14 UNL     1     -53.059   0.667 -23.644  1.00  0.00     0.077 A 
HETATM   25  C15 UNL     1     -54.246   1.174 -24.118  1.00  0.00     0.037 A 
HETATM   26  C16 UNL     1     -54.539   0.501 -25.303  1.00  0.00     0.035 A 
HETATM   27  C17 UNL     1     -53.481  -0.385 -25.459  1.00  0.00     0.049 A 
HETATM   28  C18 UNL     1     -53.381  -1.327 -26.621  1.00  0.00     0.076 C 
HETATM   29  O2  UNL     1     -52.651  -0.254 -24.478  1.00  0.00    -0.318 OA
ENDBRANCH   1  24
TORSDOF 6
ENDMDL
MODEL 5
REMARK VINA RESULT: -6.879260592      2.615      4.682
REMARK  6 active torsions:
REMARK  status: ('A' for Active; 'I' for Inactive)
REMARK    1  A    between atoms: C2_2  and  C3_4 
REMARK    2  A    between atoms: C3_4  and  C12_21 
REMARK    3  A    between atoms: N1_5  and  N2_7 
REMARK    4  A    between atoms: N2_7  and  C4_9 
REMARK    5  A    between atoms: C5_12  and  C6_13 
REMARK    6  A    between atoms: C12_21  and  C14_24 
ROOT
HETATM    1  C12 UNL     1     -49.733  -2.850 -23.998  1.00  0.00     0.204 C 
HETATM    2  C13 UNL     1     -48.736  -2.052 -23.251  1.00  0.00     0.077 C 
HETATM    3  N4  UNL     1     -47.931  -1.427 -22.677  1.00  0.00    -0.196 NA
ENDROOT
BRANCH   1   4
HETATM    4  C3  UNL     1     -50.973  -2.066 -24.139  1.00  0.00     0.095 C 
HETATM    5  N1  UNL     1     -50.985  -0.849 -23.744  1.00  0.00    -0.297 N 
ATOM      6  H1  UNL     1     -50.134  -0.454 -23.345  1.00  0.00     0.187 HD
BRANCH   4   7
HETATM    7  C2  UNL     1     -52.157  -2.654 -24.703  1.00  0.00     0.171 C 
HETATM    8  C1  UNL     1     -52.663  -3.945 -24.128  1.00  0.00     0.098 C 
HETATM    9  O1  UNL     1     -52.780  -2.119 -25.666  1.00  0.00    -0.291 OA
ENDBRANCH   4   7
BRANCH   5  10
HETATM   10  N2  UNL     1     -52.100  -0.056 -23.835  1.00  0.00    -0.279 N 
ATOM     11  H2  UNL     1     -52.564   0.102 -24.730  1.00  0.00     0.189 HD
BRANCH  10  12
HETATM   12  C4  UNL     1     -52.551   0.493 -22.727  1.00  0.00     0.163 A 
HETATM   13  N3  UNL     1     -52.046   0.351 -21.501  1.00  0.00    -0.334 N 
HETATM   14  C5  UNL     1     -52.617   0.969 -20.514  1.00  0.00     0.058 A 
ATOM     15  H3  UNL     1     -51.225  -0.233 -21.343  1.00  0.00     0.168 HD
HETATM   16  C11 UNL     1     -53.720   1.741 -20.796  1.00  0.00     0.084 A 
HETATM   17  S2  UNL     1     -53.876   1.533 -22.480  1.00  0.00    -0.062 SA
BRANCH  14  18
HETATM   18  C6  UNL     1     -52.124   0.872 -19.102  1.00  0.00     0.032 A 
HETATM   19  C7  UNL     1     -52.646   1.446 -17.974  1.00  0.00     0.022 A 
HETATM   20  C8  UNL     1     -52.015   1.206 -16.815  1.00  0.00     0.015 A 
HETATM   21  C9  UNL     1     -50.906   0.407 -16.856  1.00  0.00    -0.021 A 
HETATM   22  C10 UNL     1     -50.048   0.008 -15.681  1.00  0.00     0.056 C 
HETATM   23  S1  UNL     1     -50.776   0.018 -18.512  1.00  0.00    -0.093 SA
ENDBRANCH  14  18
ENDBRANCH  10  12
ENDBRANCH   5  10
ENDBRANCH   1   4
BRANCH   1  24
HETATM   24  C14 UNL     1     -49.135  -3.173 -25.327  1.00  0.00     0.077 A 
HETATM   25  C15 UNL     1     -48.958  -2.284 -26.361  1.00  0.00     0.037 A 
HETATM   26  C16 UNL     1     -48.374  -2.986 -27.414  1.00  0.00     0.035 A 
HETATM   27  C17 UNL     1     -48.240  -4.278 -26.926  1.00  0.00     0.049 A 
HETATM   28  C18 UNL     1     -47.646  -5.391 -27.738  1.00  0.00     0.076 C 
HETATM   29  O2  UNL     1     -48.692  -4.341 -25.718  1.00  0.00    -0.318 OA
ENDBRANCH   1  24
TORSDOF 6
ENDMDL
