MODEL 1
REMARK VINA RESULT: -5.915472982      0.000      0.000
REMARK  4 active torsions:
REMARK  status: ('A' for Active; 'I' for Inactive)
REMARK    1  A    between atoms: O1_1  and  C1_3 
REMARK    2  A    between atoms: C2_4  and  C3_5 
REMARK    3  A    between atoms: N1_6  and  C4_8 
REMARK    4  A    between atoms: N2_17  and  C11_18 
ROOT
HETATM    1  C1  UNL     1     -12.407  18.023 -10.837  1.00  0.00     0.186 A 
HETATM    2  C2  UNL     1     -11.058  17.761 -10.812  1.00  0.00     0.145 A 
HETATM    3  O2  UNL     1     -10.484  18.846 -11.323  1.00  0.00    -0.278 OA
HETATM    4  C10 UNL     1     -11.415  19.730 -11.646  1.00  0.00     0.229 A 
HETATM    5  S1  UNL     1     -11.177  21.211 -12.308  1.00  0.00    -0.032 SA
HETATM    6  N2  UNL     1     -12.635  19.247 -11.355  1.00  0.00    -0.260 N 
ENDROOT
BRANCH   2   7
HETATM    7  C3  UNL     1     -10.371  16.564 -10.337  1.00  0.00     0.125 C 
HETATM    8  N1  UNL     1     -10.906  15.805  -9.440  1.00  0.00    -0.392 N 
ATOM      9  H1  UNL     1     -11.820  16.034  -9.050  1.00  0.00     0.159 HD
BRANCH   8  10
HETATM   10  C4  UNL     1     -10.193  14.625  -8.993  1.00  0.00     0.081 C 
HETATM   11  C5  UNL     1     -11.129  13.592  -8.413  1.00  0.00     0.025 C 
HETATM   12  C6  UNL     1     -11.483  12.516  -9.417  1.00  0.00     0.002 C 
HETATM   13  C7  UNL     1     -10.272  11.770  -9.901  1.00  0.00     0.000 C 
HETATM   14  C8  UNL     1      -9.053  12.664  -9.905  1.00  0.00     0.002 C 
HETATM   15  C9  UNL     1      -9.419  14.096 -10.170  1.00  0.00     0.025 C 
ENDBRANCH   8  10
ENDBRANCH   2   7
BRANCH   1  16
HETATM   16  O1  UNL     1     -13.373  17.123 -10.380  1.00  0.00    -0.344 OA
ATOM     17  H1  UNL     1     -13.939  17.297  -9.637  1.00  0.00     0.219 HD
ENDBRANCH   1  16
BRANCH   6  18
HETATM   18  C11 UNL     1     -13.907  19.855 -11.535  1.00  0.00     0.044 A 
HETATM   19  C12 UNL     1     -14.475  20.703 -10.632  1.00  0.00     0.031 A 
HETATM   20  C13 UNL     1     -15.715  21.273 -10.841  1.00  0.00     0.021 A 
HETATM   21  C14 UNL     1     -16.390  20.974 -11.999  1.00  0.00     0.011 A 
HETATM   22 BR1  UNL     1     -18.102  21.751 -12.312  1.00  0.00    -0.051 Br
HETATM   23  C15 UNL     1     -15.856  20.129 -12.931  1.00  0.00     0.021 A 
HETATM   24  C16 UNL     1     -14.632  19.582 -12.696  1.00  0.00     0.031 A 
ENDBRANCH   6  18
TORSDOF 4
ENDMDL
MODEL 2
REMARK VINA RESULT: -5.888452516      0.077      1.013
REMARK  4 active torsions:
REMARK  status: ('A' for Active; 'I' for Inactive)
REMARK    1  A    between atoms: O1_1  and  C1_3 
REMARK    2  A    between atoms: C2_4  and  C3_5 
REMARK    3  A    between atoms: N1_6  and  C4_8 
REMARK    4  A    between atoms: N2_17  and  C11_18 
ROOT
HETATM    1  C1  UNL     1     -12.402  17.981 -10.918  1.00  0.00     0.186 A 
HETATM    2  C2  UNL     1     -11.051  17.744 -10.828  1.00  0.00     0.145 A 
HETATM    3  O2  UNL     1     -10.474  18.855 -11.273  1.00  0.00    -0.278 OA
HETATM    4  C10 UNL     1     -11.404  19.731 -11.618  1.00  0.00     0.229 A 
HETATM    5  S1  UNL     1     -11.161  21.238 -12.219  1.00  0.00    -0.032 SA
HETATM    6  N2  UNL     1     -12.627  19.217 -11.409  1.00  0.00    -0.260 N 
ENDROOT
BRANCH   2   7
HETATM    7  C3  UNL     1     -10.366  16.545 -10.354  1.00  0.00     0.125 C 
HETATM    8  N1  UNL     1     -10.887  15.804  -9.435  1.00  0.00    -0.392 N 
ATOM      9  H1  UNL     1     -11.789  16.047  -9.026  1.00  0.00     0.159 HD
BRANCH   8  10
HETATM   10  C4  UNL     1     -10.177  14.622  -8.991  1.00  0.00     0.081 C 
HETATM   11  C5  UNL     1     -11.114  13.591  -8.409  1.00  0.00     0.025 C 
HETATM   12  C6  UNL     1     -11.473  12.516  -9.412  1.00  0.00     0.002 C 
HETATM   13  C7  UNL     1     -10.265  11.767  -9.900  1.00  0.00     0.000 C 
HETATM   14  C8  UNL     1      -9.044  12.658  -9.906  1.00  0.00     0.002 C 
HETATM   15  C9  UNL     1      -9.407  14.091 -10.170  1.00  0.00     0.025 C 
ENDBRANCH   8  10
ENDBRANCH   2   7
BRANCH   1  16
HETATM   16  O1  UNL     1     -13.372  17.048 -10.543  1.00  0.00    -0.344 OA
ATOM     17  H1  UNL     1     -13.935  17.155  -9.785  1.00  0.00     0.219 HD
ENDBRANCH   1  16
BRANCH   6  18
HETATM   18  C11 UNL     1     -13.900  19.806 -11.638  1.00  0.00     0.044 A 
HETATM   19  C12 UNL     1     -14.622  19.628 -12.780  1.00  0.00     0.031 A 
HETATM   20  C13 UNL     1     -15.856  20.218 -12.968  1.00  0.00     0.021 A 
HETATM   21  C14 UNL     1     -16.366  21.007 -11.966  1.00  0.00     0.011 A 
HETATM   22 BR1  UNL     1     -18.068  21.832 -12.200  1.00  0.00    -0.051 Br
HETATM   23  C15 UNL     1     -15.676  21.213 -10.804  1.00  0.00     0.021 A 
HETATM   24  C16 UNL     1     -14.461  20.617 -10.650  1.00  0.00     0.031 A 
ENDBRANCH   6  18
TORSDOF 4
ENDMDL
MODEL 3
REMARK VINA RESULT: -5.580123821      1.790      2.060
REMARK  4 active torsions:
REMARK  status: ('A' for Active; 'I' for Inactive)
REMARK    1  A    between atoms: O1_1  and  C1_3 
REMARK    2  A    between atoms: C2_4  and  C3_5 
REMARK    3  A    between atoms: N1_6  and  C4_8 
REMARK    4  A    between atoms: N2_17  and  C11_18 
ROOT
HETATM    1  C1  UNL     1     -12.759  18.201 -10.827  1.00  0.00     0.186 A 
HETATM    2  C2  UNL     1     -12.254  17.611  -9.694  1.00  0.00     0.145 A 
HETATM    3  O2  UNL     1     -12.762  18.308  -8.683  1.00  0.00    -0.278 OA
HETATM    4  C10 UNL     1     -13.537  19.272  -9.155  1.00  0.00     0.229 A 
HETATM    5  S1  UNL     1     -14.373  20.379  -8.279  1.00  0.00    -0.032 SA
HETATM    6  N2  UNL     1     -13.559  19.236 -10.498  1.00  0.00    -0.260 N 
ENDROOT
BRANCH   2   7
HETATM    7  C3  UNL     1     -11.351  16.468  -9.587  1.00  0.00     0.125 C 
HETATM    8  N1  UNL     1     -11.373  15.702  -8.548  1.00  0.00    -0.392 N 
ATOM      9  H1  UNL     1     -12.023  15.887  -7.785  1.00  0.00     0.159 HD
BRANCH   8  10
HETATM   10  C4  UNL     1     -10.462  14.578  -8.478  1.00  0.00     0.081 C 
HETATM   11  C5  UNL     1     -11.189  13.284  -8.203  1.00  0.00     0.025 C 
HETATM   12  C6  UNL     1     -11.444  12.493  -9.468  1.00  0.00     0.002 C 
HETATM   13  C7  UNL     1     -10.168  12.123 -10.173  1.00  0.00     0.000 C 
HETATM   14  C8  UNL     1      -9.102  13.170  -9.942  1.00  0.00     0.002 C 
HETATM   15  C9  UNL     1      -9.697  14.538  -9.773  1.00  0.00     0.025 C 
ENDBRANCH   8  10
ENDBRANCH   2   7
BRANCH   1  16
HETATM   16  O1  UNL     1     -12.463  17.761 -12.121  1.00  0.00    -0.344 OA
ATOM     17  H1  UNL     1     -13.012  17.156 -12.605  1.00  0.00     0.219 HD
ENDBRANCH   1  16
BRANCH   6  18
HETATM   18  C11 UNL     1     -14.255  20.077 -11.407  1.00  0.00     0.044 A 
HETATM   19  C12 UNL     1     -15.519  19.831 -11.852  1.00  0.00     0.031 A 
HETATM   20  C13 UNL     1     -16.163  20.672 -12.737  1.00  0.00     0.021 A 
HETATM   21  C14 UNL     1     -15.502  21.791 -13.179  1.00  0.00     0.011 A 
HETATM   22 BR1  UNL     1     -16.369  22.969 -14.401  1.00  0.00    -0.051 Br
HETATM   23  C15 UNL     1     -14.233  22.077 -12.759  1.00  0.00     0.021 A 
HETATM   24  C16 UNL     1     -13.625  21.228 -11.885  1.00  0.00     0.031 A 
ENDBRANCH   6  18
TORSDOF 4
ENDMDL
MODEL 4
REMARK VINA RESULT: -5.320518719      4.497      7.632
REMARK  4 active torsions:
REMARK  status: ('A' for Active; 'I' for Inactive)
REMARK    1  A    between atoms: O1_1  and  C1_3 
REMARK    2  A    between atoms: C2_4  and  C3_5 
REMARK    3  A    between atoms: N1_6  and  C4_8 
REMARK    4  A    between atoms: N2_17  and  C11_18 
ROOT
HETATM    1  C1  UNL     1     -12.304  17.276  -8.657  1.00  0.00     0.186 A 
HETATM    2  C2  UNL     1     -12.797  16.619  -9.758  1.00  0.00     0.145 A 
HETATM    3  O2  UNL     1     -12.501  15.339  -9.560  1.00  0.00    -0.278 OA
HETATM    4  C10 UNL     1     -11.864  15.204  -8.407  1.00  0.00     0.229 A 
HETATM    5  S1  UNL     1     -11.305  13.809  -7.749  1.00  0.00    -0.032 SA
HETATM    6  N2  UNL     1     -11.722  16.400  -7.812  1.00  0.00    -0.260 N 
ENDROOT
BRANCH   2   7
HETATM    7  C3  UNL     1     -13.497  17.174 -10.913  1.00  0.00     0.125 C 
HETATM    8  N1  UNL     1     -14.403  18.081 -10.765  1.00  0.00    -0.392 N 
ATOM      9  H1  UNL     1     -14.643  18.423  -9.835  1.00  0.00     0.159 HD
BRANCH   8  10
HETATM   10  C4  UNL     1     -15.076  18.608 -11.935  1.00  0.00     0.081 C 
HETATM   11  C5  UNL     1     -14.492  19.931 -12.369  1.00  0.00     0.025 C 
HETATM   12  C6  UNL     1     -13.498  19.772 -13.499  1.00  0.00     0.002 C 
HETATM   13  C7  UNL     1     -14.121  19.159 -14.722  1.00  0.00     0.000 C 
HETATM   14  C8  UNL     1     -15.239  18.215 -14.342  1.00  0.00     0.002 C 
HETATM   15  C9  UNL     1     -14.985  17.563 -13.014  1.00  0.00     0.025 C 
ENDBRANCH   8  10
ENDBRANCH   2   7
BRANCH   1  16
HETATM   16  O1  UNL     1     -12.411  18.658  -8.474  1.00  0.00    -0.344 OA
ATOM     17  H1  UNL     1     -12.052  19.115  -7.722  1.00  0.00     0.219 HD
ENDBRANCH   1  16
BRANCH   6  18
HETATM   18  C11 UNL     1     -11.105  16.718  -6.572  1.00  0.00     0.044 A 
HETATM   19  C12 UNL     1     -11.682  16.489  -5.359  1.00  0.00     0.031 A 
HETATM   20  C13 UNL     1     -11.052  16.812  -4.174  1.00  0.00     0.021 A 
HETATM   21  C14 UNL     1      -9.804  17.384  -4.228  1.00  0.00     0.011 A 
HETATM   22 BR1  UNL     1      -8.912  17.839  -2.606  1.00  0.00    -0.051 Br
HETATM   23  C15 UNL     1      -9.189  17.632  -5.423  1.00  0.00     0.021 A 
HETATM   24  C16 UNL     1      -9.836  17.301  -6.574  1.00  0.00     0.031 A 
ENDBRANCH   6  18
TORSDOF 4
ENDMDL
MODEL 5
REMARK VINA RESULT: -5.257747655      2.639      3.153
REMARK  4 active torsions:
REMARK  status: ('A' for Active; 'I' for Inactive)
REMARK    1  A    between atoms: O1_1  and  C1_3 
REMARK    2  A    between atoms: C2_4  and  C3_5 
REMARK    3  A    between atoms: N1_6  and  C4_8 
REMARK    4  A    between atoms: N2_17  and  C11_18 
ROOT
HETATM    1  C1  UNL     1     -12.483  18.242 -11.955  1.00  0.00     0.186 A 
HETATM    2  C2  UNL     1     -12.888  17.819 -10.712  1.00  0.00     0.145 A 
HETATM    3  O2  UNL     1     -13.988  18.517 -10.449  1.00  0.00    -0.278 OA
HETATM    4  C10 UNL     1     -14.254  19.325 -11.464  1.00  0.00     0.229 A 
HETATM    5  S1  UNL     1     -15.511  20.372 -11.583  1.00  0.00    -0.032 SA
HETATM    6  N2  UNL     1     -13.330  19.180 -12.428  1.00  0.00    -0.260 N 
ENDROOT
BRANCH   2   7
HETATM    7  C3  UNL     1     -12.269  16.823  -9.843  1.00  0.00     0.125 C 
HETATM    8  N1  UNL     1     -11.062  16.419 -10.053  1.00  0.00    -0.392 N 
ATOM      9  H1  UNL     1     -10.522  16.792 -10.834  1.00  0.00     0.159 HD
BRANCH   8  10
HETATM   10  C4  UNL     1     -10.481  15.429  -9.168  1.00  0.00     0.081 C 
HETATM   11  C5  UNL     1     -11.539  14.572  -8.515  1.00  0.00     0.025 C 
HETATM   12  C6  UNL     1     -11.723  13.251  -9.230  1.00  0.00     0.002 C 
HETATM   13  C7  UNL     1     -10.462  12.433  -9.246  1.00  0.00     0.000 C 
HETATM   14  C8  UNL     1      -9.241  13.325  -9.263  1.00  0.00     0.002 C 
HETATM   15  C9  UNL     1      -9.510  14.616  -9.980  1.00  0.00     0.025 C 
ENDBRANCH   8  10
ENDBRANCH   2   7
BRANCH   1  16
HETATM   16  O1  UNL     1     -11.349  17.746 -12.605  1.00  0.00    -0.344 OA
ATOM     17  H1  UNL     1     -10.894  16.958 -12.332  1.00  0.00     0.219 HD
ENDBRANCH   1  16
BRANCH   6  18
HETATM   18  C11 UNL     1     -13.228  19.843 -13.681  1.00  0.00     0.044 A 
HETATM   19  C12 UNL     1     -12.540  21.004 -13.869  1.00  0.00     0.031 A 
HETATM   20  C13 UNL     1     -12.464  21.621 -15.102  1.00  0.00     0.021 A 
HETATM   21  C14 UNL     1     -13.105  21.038 -16.168  1.00  0.00     0.011 A 
HETATM   22 BR1  UNL     1     -13.014  21.869 -17.882  1.00  0.00    -0.051 Br
HETATM   23  C15 UNL     1     -13.806  19.874 -16.024  1.00  0.00     0.021 A 
HETATM   24  C16 UNL     1     -13.862  19.291 -14.795  1.00  0.00     0.031 A 
ENDBRANCH   6  18
TORSDOF 4
ENDMDL
