MODEL 1
REMARK VINA RESULT: -7.259893569      0.000      0.000
REMARK  1 active torsions:
REMARK  status: ('A' for Active; 'I' for Inactive)
REMARK    1  A    between atoms: C6_6  and  C7_7 
ROOT
HETATM    1  C1  UNL     1      29.402  65.872  47.412  1.00  0.00     0.013 C 
HETATM    2  C2  UNL     1      29.108  65.630  46.267  1.00  0.00    -0.105 C 
HETATM    3  C3  UNL     1      28.742  65.317  44.864  1.00  0.00     0.109 C 
HETATM    4  C4  UNL     1      29.410  64.064  44.425  1.00  0.00    -0.009 C 
HETATM    5  C5  UNL     1      30.597  64.136  43.864  1.00  0.00    -0.021 C 
HETATM    6  C6  UNL     1      31.277  65.417  43.662  1.00  0.00     0.030 C 
HETATM    7  C9  UNL     1      30.359  66.556  43.490  1.00  0.00    -0.021 C 
HETATM    8  C10 UNL     1      29.171  66.494  44.061  1.00  0.00    -0.009 C 
ENDROOT
BRANCH   6   9
HETATM    9  C7  UNL     1      32.296  65.318  42.547  1.00  0.00     0.008 C 
HETATM   10  C8  UNL     1      32.133  66.442  41.557  1.00  0.00     0.006 C 
ENDBRANCH   6   9
TORSDOF 1
ENDMDL
MODEL 2
REMARK VINA RESULT: -7.151436080      1.461      4.113
REMARK  1 active torsions:
REMARK  status: ('A' for Active; 'I' for Inactive)
REMARK    1  A    between atoms: C6_6  and  C7_7 
ROOT
HETATM    1  C1  UNL     1      31.686  64.017  43.613  1.00  0.00     0.013 C 
HETATM    2  C2  UNL     1      30.561  64.302  43.942  1.00  0.00    -0.105 C 
HETATM    3  C3  UNL     1      29.176  64.661  44.334  1.00  0.00     0.109 C 
HETATM    4  C4  UNL     1      28.982  66.132  44.250  1.00  0.00    -0.009 C 
HETATM    5  C5  UNL     1      29.235  66.870  45.308  1.00  0.00    -0.021 C 
HETATM    6  C6  UNL     1      29.701  66.281  46.566  1.00  0.00     0.030 C 
HETATM    7  C9  UNL     1      29.243  64.898  46.778  1.00  0.00    -0.021 C 
HETATM    8  C10 UNL     1      29.000  64.148  45.719  1.00  0.00    -0.009 C 
ENDROOT
BRANCH   6   9
HETATM    9  C7  UNL     1      29.385  67.186  47.737  1.00  0.00     0.008 C 
HETATM   10  C8  UNL     1      29.154  68.604  47.283  1.00  0.00     0.006 C 
ENDBRANCH   6   9
TORSDOF 1
ENDMDL
MODEL 3
REMARK VINA RESULT: -7.047423499      0.863      1.090
REMARK  1 active torsions:
REMARK  status: ('A' for Active; 'I' for Inactive)
REMARK    1  A    between atoms: C6_6  and  C7_7 
ROOT
HETATM    1  C1  UNL     1      29.547  64.538  47.392  1.00  0.00     0.013 C 
HETATM    2  C2  UNL     1      29.351  64.470  46.203  1.00  0.00    -0.105 C 
HETATM    3  C3  UNL     1      29.117  64.371  44.742  1.00  0.00     0.109 C 
HETATM    4  C4  UNL     1      30.350  63.905  44.053  1.00  0.00    -0.009 C 
HETATM    5  C5  UNL     1      31.217  64.796  43.628  1.00  0.00    -0.021 C 
HETATM    6  C6  UNL     1      31.002  66.233  43.815  1.00  0.00     0.030 C 
HETATM    7  C9  UNL     1      29.582  66.618  43.865  1.00  0.00    -0.021 C 
HETATM    8  C10 UNL     1      28.707  65.732  44.303  1.00  0.00    -0.009 C 
ENDROOT
BRANCH   6   9
HETATM    9  C7  UNL     1      31.787  67.034  42.799  1.00  0.00     0.008 C 
HETATM   10  C8  UNL     1      32.166  66.187  41.611  1.00  0.00     0.006 C 
ENDBRANCH   6   9
TORSDOF 1
ENDMDL
MODEL 4
REMARK VINA RESULT: -6.954147946      1.551      3.696
REMARK  1 active torsions:
REMARK  status: ('A' for Active; 'I' for Inactive)
REMARK    1  A    between atoms: C6_6  and  C7_7 
ROOT
HETATM    1  C1  UNL     1      32.539  68.075  45.544  1.00  0.00     0.013 C 
HETATM    2  C2  UNL     1      32.037  67.606  44.552  1.00  0.00    -0.105 C 
HETATM    3  C3  UNL     1      31.411  67.043  43.331  1.00  0.00     0.109 C 
HETATM    4  C4  UNL     1      29.930  67.157  43.412  1.00  0.00    -0.009 C 
HETATM    5  C5  UNL     1      29.244  66.173  43.948  1.00  0.00    -0.021 C 
HETATM    6  C6  UNL     1      29.897  64.968  44.467  1.00  0.00     0.030 C 
HETATM    7  C9  UNL     1      31.163  64.642  43.788  1.00  0.00    -0.021 C 
HETATM    8  C10 UNL     1      31.863  65.627  43.259  1.00  0.00    -0.009 C 
ENDROOT
BRANCH   6   9
HETATM    9  C7  UNL     1      28.935  63.801  44.498  1.00  0.00     0.008 C 
HETATM   10  C8  UNL     1      27.987  63.908  45.665  1.00  0.00     0.006 C 
ENDBRANCH   6   9
TORSDOF 1
ENDMDL
MODEL 5
REMARK VINA RESULT: -6.904528433      1.951      3.740
REMARK  1 active torsions:
REMARK  status: ('A' for Active; 'I' for Inactive)
REMARK    1  A    between atoms: C6_6  and  C7_7 
ROOT
HETATM    1  C1  UNL     1      30.215  69.411  47.331  1.00  0.00     0.013 C 
HETATM    2  C2  UNL     1      30.669  68.483  46.709  1.00  0.00    -0.105 C 
HETATM    3  C3  UNL     1      31.228  67.350  45.930  1.00  0.00     0.109 C 
HETATM    4  C4  UNL     1      30.493  67.195  44.647  1.00  0.00    -0.009 C 
HETATM    5  C5  UNL     1      29.439  66.411  44.607  1.00  0.00    -0.021 C 
HETATM    6  C6  UNL     1      28.969  65.688  45.791  1.00  0.00     0.030 C 
HETATM    7  C9  UNL     1      30.039  65.362  46.750  1.00  0.00    -0.021 C 
HETATM    8  C10 UNL     1      31.095  66.153  46.804  1.00  0.00    -0.009 C 
ENDROOT
BRANCH   6   9
HETATM    9  C7  UNL     1      28.152  64.477  45.398  1.00  0.00     0.008 C 
HETATM   10  C8  UNL     1      28.920  63.583  44.458  1.00  0.00     0.006 C 
ENDBRANCH   6   9
TORSDOF 1
ENDMDL
