MODEL 1
REMARK VINA RESULT: -7.203921710      0.000      0.000
REMARK  9 active torsions:
REMARK  status: ('A' for Active; 'I' for Inactive)
REMARK    1  A    between atoms: O1_2  and  C2_3 
REMARK    2  A    between atoms: C4_5  and  O2_6 
REMARK    3  A    between atoms: C5_8  and  O3_9 
REMARK    4  A    between atoms: C6_11  and  O4_12 
REMARK    5  A    between atoms: C7_14  and  O5_15 
REMARK    6  A    between atoms: O5_15  and  S1_16 
REMARK    7  A    between atoms: C8_20  and  N1_21 
REMARK    8  A    between atoms: N1_21  and  C10_23 
REMARK    9  A    between atoms: C11_27  and  O9_28 
ROOT
HETATM    1  C2  UNL     1      14.319  -3.908  -3.788  1.00  0.00     0.118 C 
HETATM    2  C3  UNL     1      15.633  -4.614  -4.223  1.00  0.00     0.051 C 
HETATM    3  C4  UNL     1      13.637  -4.952  -2.942  1.00  0.00     0.185 C 
HETATM    4  C5  UNL     1      12.379  -4.408  -2.384  1.00  0.00     0.181 C 
HETATM    5  C6  UNL     1      11.482  -3.769  -3.396  1.00  0.00     0.182 C 
HETATM    6  C7  UNL     1      11.982  -3.787  -4.795  1.00  0.00     0.213 C 
HETATM    7  C8  UNL     1      13.440  -3.682  -4.994  1.00  0.00     0.294 C 
ENDROOT
BRANCH   7   8
HETATM    8  N1  UNL     1      13.858  -2.653  -5.905  1.00  0.00     0.130 N 
HETATM    9  C9  UNL     1      13.119  -2.621  -7.159  1.00  0.00     0.313 C 
BRANCH   8  10
HETATM   10  C10 UNL     1      15.265  -2.705  -6.242  1.00  0.00     0.478 A 
HETATM   11  N2  UNL     1      16.234  -1.769  -5.817  1.00  0.00    -0.009 N 
HETATM   12  C11 UNL     1      15.687  -1.555  -7.136  1.00  0.00     0.383 A 
ATOM     13  H22 UNL     1      16.303  -1.173  -4.993  1.00  0.00     0.283 HD
ATOM     14  H21 UNL     1      17.188  -1.871  -5.473  1.00  0.00     0.283 HD
BRANCH  12  15
HETATM   15  O9  UNL     1      16.597  -1.782  -8.167  1.00  0.00    -0.367 OA
ATOM     16  H9  UNL     1      16.950  -1.045  -8.651  1.00  0.00     0.212 HD
ENDBRANCH  12  15
ENDBRANCH   8  10
ENDBRANCH   7   8
BRANCH   1  17
HETATM   17  O1  UNL     1      14.586  -2.769  -3.116  1.00  0.00    -0.380 OA
HETATM   18  C1  UNL     1      15.772  -2.581  -2.510  1.00  0.00     0.202 C 
ENDBRANCH   1  17
BRANCH   6  19
HETATM   19  O5  UNL     1      11.329  -2.763  -5.478  1.00  0.00    -0.246 OA
BRANCH  19  20
HETATM   20  S1  UNL     1       9.763  -3.094  -5.888  1.00  0.00     0.252 S 
HETATM   21  O6  UNL     1       8.828  -2.380  -4.929  1.00  0.00    -0.572 OA
HETATM   22  O7  UNL     1       9.445  -4.569  -5.837  1.00  0.00    -0.572 OA
HETATM   23  O8  UNL     1       9.376  -2.531  -7.422  1.00  0.00    -0.572 OA
ENDBRANCH  19  20
ENDBRANCH   6  19
BRANCH   3  24
HETATM   24  O2  UNL     1      14.473  -5.447  -1.947  1.00  0.00    -0.390 OA
ATOM     25  H2  UNL     1      14.200  -6.305  -1.645  1.00  0.00     0.210 HD
ENDBRANCH   3  24
BRANCH   5  26
HETATM   26  O4  UNL     1      11.063  -2.524  -2.933  1.00  0.00    -0.390 OA
ATOM     27  H4  UNL     1      10.171  -2.359  -3.216  1.00  0.00     0.210 HD
ENDBRANCH   5  26
BRANCH   4  28
HETATM   28  O3  UNL     1      11.671  -5.434  -1.684  1.00  0.00    -0.390 OA
ATOM     29  H3  UNL     1      12.190  -5.746  -0.953  1.00  0.00     0.210 HD
ENDBRANCH   4  28
TORSDOF 9
ENDMDL
MODEL 2
REMARK VINA RESULT: -7.190281303      1.896      4.368
REMARK  9 active torsions:
REMARK  status: ('A' for Active; 'I' for Inactive)
REMARK    1  A    between atoms: O1_2  and  C2_3 
REMARK    2  A    between atoms: C4_5  and  O2_6 
REMARK    3  A    between atoms: C5_8  and  O3_9 
REMARK    4  A    between atoms: C6_11  and  O4_12 
REMARK    5  A    between atoms: C7_14  and  O5_15 
REMARK    6  A    between atoms: O5_15  and  S1_16 
REMARK    7  A    between atoms: C8_20  and  N1_21 
REMARK    8  A    between atoms: N1_21  and  C10_23 
REMARK    9  A    between atoms: C11_27  and  O9_28 
ROOT
HETATM    1  C2  UNL     1      15.350  -2.962  -4.577  1.00  0.00     0.118 C 
HETATM    2  C3  UNL     1      16.400  -2.039  -3.900  1.00  0.00     0.051 C 
HETATM    3  C4  UNL     1      15.244  -2.393  -5.969  1.00  0.00     0.185 C 
HETATM    4  C5  UNL     1      14.317  -3.211  -6.782  1.00  0.00     0.181 C 
HETATM    5  C6  UNL     1      12.995  -3.472  -6.133  1.00  0.00     0.182 C 
HETATM    6  C7  UNL     1      12.812  -2.867  -4.789  1.00  0.00     0.213 C 
HETATM    7  C8  UNL     1      14.003  -2.767  -3.924  1.00  0.00     0.294 C 
ENDROOT
BRANCH   7   8
HETATM    8  N1  UNL     1      13.847  -3.319  -2.606  1.00  0.00     0.130 N 
HETATM    9  C9  UNL     1      14.685  -2.698  -1.590  1.00  0.00     0.313 C 
BRANCH   8  10
HETATM   10  C10 UNL     1      14.082  -4.746  -2.538  1.00  0.00     0.478 A 
HETATM   11  N2  UNL     1      13.486  -5.705  -3.387  1.00  0.00    -0.009 N 
HETATM   12  C11 UNL     1      12.847  -5.514  -2.106  1.00  0.00     0.383 A 
ATOM     13  H22 UNL     1      13.141  -5.660  -4.345  1.00  0.00     0.283 HD
ATOM     14  H21 UNL     1      13.851  -6.532  -3.860  1.00  0.00     0.283 HD
BRANCH  12  15
HETATM   15  O9  UNL     1      12.977  -6.599  -1.243  1.00  0.00    -0.367 OA
ATOM     16  H9  UNL     1      12.217  -7.130  -1.039  1.00  0.00     0.212 HD
ENDBRANCH  12  15
ENDBRANCH   8  10
ENDBRANCH   7   8
BRANCH   1  17
HETATM   17  O1  UNL     1      15.757  -4.248  -4.558  1.00  0.00    -0.380 OA
HETATM   18  C1  UNL     1      17.028  -4.571  -4.254  1.00  0.00     0.202 C 
ENDBRANCH   1  17
BRANCH   6  19
HETATM   19  O5  UNL     1      11.810  -3.589  -4.146  1.00  0.00    -0.246 OA
BRANCH  19  20
HETATM   20  S1  UNL     1      10.337  -2.841  -4.102  1.00  0.00     0.252 S 
HETATM   21  O6  UNL     1      10.495  -1.449  -3.517  1.00  0.00    -0.572 OA
HETATM   22  O7  UNL     1       9.328  -3.588  -3.264  1.00  0.00    -0.572 OA
HETATM   23  O8  UNL     1       9.687  -2.630  -5.636  1.00  0.00    -0.572 OA
ENDBRANCH  19  20
ENDBRANCH   6  19
BRANCH   3  24
HETATM   24  O2  UNL     1      16.489  -2.262  -6.576  1.00  0.00    -0.390 OA
ATOM     25  H2  UNL     1      16.537  -2.735  -7.398  1.00  0.00     0.210 HD
ENDBRANCH   3  24
BRANCH   5  26
HETATM   26  O4  UNL     1      12.690  -4.828  -6.218  1.00  0.00    -0.390 OA
ATOM     27  H4  UNL     1      12.020  -5.046  -5.581  1.00  0.00     0.210 HD
ENDBRANCH   5  26
BRANCH   4  28
HETATM   28  O3  UNL     1      14.121  -2.602  -8.061  1.00  0.00    -0.390 OA
ATOM     29  H3  UNL     1      14.058  -1.659  -7.966  1.00  0.00     0.210 HD
ENDBRANCH   4  28
TORSDOF 9
ENDMDL
MODEL 3
REMARK VINA RESULT: -6.999890300      2.268      4.878
REMARK  9 active torsions:
REMARK  status: ('A' for Active; 'I' for Inactive)
REMARK    1  A    between atoms: O1_2  and  C2_3 
REMARK    2  A    between atoms: C4_5  and  O2_6 
REMARK    3  A    between atoms: C5_8  and  O3_9 
REMARK    4  A    between atoms: C6_11  and  O4_12 
REMARK    5  A    between atoms: C7_14  and  O5_15 
REMARK    6  A    between atoms: O5_15  and  S1_16 
REMARK    7  A    between atoms: C8_20  and  N1_21 
REMARK    8  A    between atoms: N1_21  and  C10_23 
REMARK    9  A    between atoms: C11_27  and  O9_28 
ROOT
HETATM    1  C2  UNL     1      14.959  -2.136  -7.102  1.00  0.00     0.118 C 
HETATM    2  C3  UNL     1      15.797  -0.856  -7.367  1.00  0.00     0.051 C 
HETATM    3  C4  UNL     1      13.540  -1.645  -7.224  1.00  0.00     0.185 C 
HETATM    4  C5  UNL     1      12.598  -2.775  -7.062  1.00  0.00     0.181 C 
HETATM    5  C6  UNL     1      12.845  -3.614  -5.848  1.00  0.00     0.182 C 
HETATM    6  C7  UNL     1      13.981  -3.183  -4.995  1.00  0.00     0.213 C 
HETATM    7  C8  UNL     1      15.145  -2.579  -5.670  1.00  0.00     0.294 C 
ENDROOT
BRANCH   7   8
HETATM    8  N1  UNL     1      16.414  -3.170  -5.345  1.00  0.00     0.130 N 
HETATM    9  C9  UNL     1      16.444  -4.623  -5.442  1.00  0.00     0.313 C 
BRANCH   8  10
HETATM   10  C10 UNL     1      16.901  -2.821  -4.027  1.00  0.00     0.478 A 
HETATM   11  N2  UNL     1      16.612  -1.616  -3.351  1.00  0.00    -0.009 N 
HETATM   12  C11 UNL     1      17.868  -1.652  -4.061  1.00  0.00     0.383 A 
ATOM     13  H22 UNL     1      15.817  -0.978  -3.385  1.00  0.00     0.283 HD
ATOM     14  H21 UNL     1      16.372  -1.407  -2.382  1.00  0.00     0.283 HD
BRANCH  12  15
HETATM   15  O9  UNL     1      18.986  -1.659  -3.230  1.00  0.00    -0.367 OA
ATOM     16  H9  UNL     1      19.782  -2.089  -3.518  1.00  0.00     0.212 HD
ENDBRANCH  12  15
ENDBRANCH   8  10
ENDBRANCH   7   8
BRANCH   1  17
HETATM   17  O1  UNL     1      15.266  -3.104  -7.990  1.00  0.00    -0.380 OA
HETATM   18  C1  UNL     1      16.038  -2.844  -9.062  1.00  0.00     0.202 C 
ENDBRANCH   1  17
BRANCH   6  19
HETATM   19  O5  UNL     1      14.380  -4.291  -4.250  1.00  0.00    -0.246 OA
BRANCH  19  20
HETATM   20  S1  UNL     1      13.896  -4.274  -2.670  1.00  0.00     0.252 S 
HETATM   21  O6  UNL     1      14.918  -5.008  -1.821  1.00  0.00    -0.572 OA
HETATM   22  O7  UNL     1      12.556  -4.937  -2.463  1.00  0.00    -0.572 OA
HETATM   23  O8  UNL     1      13.808  -2.716  -2.050  1.00  0.00    -0.572 OA
ENDBRANCH  19  20
ENDBRANCH   6  19
BRANCH   3  24
HETATM   24  O2  UNL     1      13.325  -0.958  -8.414  1.00  0.00    -0.390 OA
ATOM     25  H2  UNL     1      13.180  -0.031  -8.270  1.00  0.00     0.210 HD
ENDBRANCH   3  24
BRANCH   5  26
HETATM   26  O4  UNL     1      12.847  -4.961  -6.201  1.00  0.00    -0.390 OA
ATOM     27  H4  UNL     1      12.040  -5.370  -5.913  1.00  0.00     0.210 HD
ENDBRANCH   5  26
BRANCH   4  28
HETATM   28  O3  UNL     1      11.252  -2.292  -7.054  1.00  0.00    -0.390 OA
ATOM     29  H3  UNL     1      10.644  -3.022  -7.063  1.00  0.00     0.210 HD
ENDBRANCH   4  28
TORSDOF 9
ENDMDL
MODEL 4
REMARK VINA RESULT: -6.614612292      1.542      1.946
REMARK  9 active torsions:
REMARK  status: ('A' for Active; 'I' for Inactive)
REMARK    1  A    between atoms: O1_2  and  C2_3 
REMARK    2  A    between atoms: C4_5  and  O2_6 
REMARK    3  A    between atoms: C5_8  and  O3_9 
REMARK    4  A    between atoms: C6_11  and  O4_12 
REMARK    5  A    between atoms: C7_14  and  O5_15 
REMARK    6  A    between atoms: O5_15  and  S1_16 
REMARK    7  A    between atoms: C8_20  and  N1_21 
REMARK    8  A    between atoms: N1_21  and  C10_23 
REMARK    9  A    between atoms: C11_27  and  O9_28 
ROOT
HETATM    1  C2  UNL     1      15.237  -3.312  -5.730  1.00  0.00     0.118 C 
HETATM    2  C3  UNL     1      16.302  -3.663  -6.804  1.00  0.00     0.051 C 
HETATM    3  C4  UNL     1      15.070  -4.608  -4.979  1.00  0.00     0.185 C 
HETATM    4  C5  UNL     1      14.121  -4.426  -3.858  1.00  0.00     0.181 C 
HETATM    5  C6  UNL     1      12.828  -3.780  -4.244  1.00  0.00     0.182 C 
HETATM    6  C7  UNL     1      12.692  -3.433  -5.682  1.00  0.00     0.213 C 
HETATM    7  C8  UNL     1      13.914  -3.023  -6.398  1.00  0.00     0.294 C 
ENDROOT
BRANCH   7   8
HETATM    8  N1  UNL     1      13.817  -1.777  -7.107  1.00  0.00     0.130 N 
HETATM    9  C9  UNL     1      12.883  -1.791  -8.225  1.00  0.00     0.313 C 
BRANCH   8  10
HETATM   10  C10 UNL     1      15.082  -1.292  -7.616  1.00  0.00     0.478 A 
HETATM   11  N2  UNL     1      15.752  -0.138  -7.153  1.00  0.00    -0.009 N 
HETATM   12  C11 UNL     1      14.943   0.036  -8.336  1.00  0.00     0.383 A 
ATOM     13  H22 UNL     1      15.767   0.336  -6.250  1.00  0.00     0.283 HD
ATOM     14  H21 UNL     1      16.732   0.058  -6.951  1.00  0.00     0.283 HD
BRANCH  12  15
HETATM   15  O9  UNL     1      15.682   0.273  -9.493  1.00  0.00    -0.367 OA
ATOM     16  H9  UNL     1      15.475   1.025 -10.036  1.00  0.00     0.212 HD
ENDBRANCH  12  15
ENDBRANCH   8  10
ENDBRANCH   7   8
BRANCH   1  17
HETATM   17  O1  UNL     1      15.658  -2.295  -4.949  1.00  0.00    -0.380 OA
HETATM   18  C1  UNL     1      16.960  -2.150  -4.640  1.00  0.00     0.202 C 
ENDBRANCH   1  17
BRANCH   6  19
HETATM   19  O5  UNL     1      11.724  -2.435  -5.774  1.00  0.00    -0.246 OA
BRANCH  19  20
HETATM   20  S1  UNL     1      10.177  -2.987  -5.958  1.00  0.00     0.252 S 
HETATM   21  O6  UNL     1       9.325  -2.496  -4.802  1.00  0.00    -0.572 OA
HETATM   22  O7  UNL     1      10.095  -4.494  -5.990  1.00  0.00    -0.572 OA
HETATM   23  O8  UNL     1       9.454  -2.396  -7.354  1.00  0.00    -0.572 OA
ENDBRANCH  19  20
ENDBRANCH   6  19
BRANCH   3  24
HETATM   24  O2  UNL     1      16.288  -5.123  -4.548  1.00  0.00    -0.390 OA
ATOM     25  H2  UNL     1      16.980  -4.473  -4.573  1.00  0.00     0.210 HD
ENDBRANCH   3  24
BRANCH   5  26
HETATM   26  O4  UNL     1      12.535  -2.748  -3.356  1.00  0.00    -0.390 OA
ATOM     27  H4  UNL     1      12.514  -3.086  -2.468  1.00  0.00     0.210 HD
ENDBRANCH   5  26
BRANCH   4  28
HETATM   28  O3  UNL     1      13.868  -5.681  -3.223  1.00  0.00    -0.390 OA
ATOM     29  H3  UNL     1      14.180  -5.661  -2.326  1.00  0.00     0.210 HD
ENDBRANCH   4  28
TORSDOF 9
ENDMDL
MODEL 5
REMARK VINA RESULT: -6.574746026      2.590      4.335
REMARK  9 active torsions:
REMARK  status: ('A' for Active; 'I' for Inactive)
REMARK    1  A    between atoms: O1_2  and  C2_3 
REMARK    2  A    between atoms: C4_5  and  O2_6 
REMARK    3  A    between atoms: C5_8  and  O3_9 
REMARK    4  A    between atoms: C6_11  and  O4_12 
REMARK    5  A    between atoms: C7_14  and  O5_15 
REMARK    6  A    between atoms: O5_15  and  S1_16 
REMARK    7  A    between atoms: C8_20  and  N1_21 
REMARK    8  A    between atoms: N1_21  and  C10_23 
REMARK    9  A    between atoms: C11_27  and  O9_28 
ROOT
HETATM    1  C2  UNL     1      15.286  -3.546  -4.247  1.00  0.00     0.118 C 
HETATM    2  C3  UNL     1      16.332  -4.436  -3.522  1.00  0.00     0.051 C 
HETATM    3  C4  UNL     1      14.306  -4.550  -4.796  1.00  0.00     0.185 C 
HETATM    4  C5  UNL     1      13.190  -3.852  -5.471  1.00  0.00     0.181 C 
HETATM    5  C6  UNL     1      13.619  -2.820  -6.465  1.00  0.00     0.182 C 
HETATM    6  C7  UNL     1      15.087  -2.663  -6.629  1.00  0.00     0.213 C 
HETATM    7  C8  UNL     1      15.927  -2.870  -5.434  1.00  0.00     0.294 C 
ENDROOT
BRANCH   7   8
HETATM    8  N1  UNL     1      16.844  -1.802  -5.142  1.00  0.00     0.130 N 
HETATM    9  C9  UNL     1      17.938  -1.670  -6.094  1.00  0.00     0.313 C 
BRANCH   8  10
HETATM   10  C10 UNL     1      17.435  -1.882  -3.822  1.00  0.00     0.478 A 
HETATM   11  N2  UNL     1      17.113  -1.034  -2.740  1.00  0.00    -0.009 N 
HETATM   12  C11 UNL     1      18.286  -0.669  -3.498  1.00  0.00     0.383 A 
ATOM     13  H22 UNL     1      16.266  -0.524  -2.490  1.00  0.00     0.283 HD
ATOM     14  H21 UNL     1      16.959  -1.209  -1.747  1.00  0.00     0.283 HD
BRANCH  12  15
HETATM   15  O9  UNL     1      19.481  -0.833  -2.801  1.00  0.00    -0.367 OA
ATOM     16  H9  UNL     1      20.249  -0.340  -3.064  1.00  0.00     0.212 HD
ENDBRANCH  12  15
ENDBRANCH   8  10
ENDBRANCH   7   8
BRANCH   1  17
HETATM   17  O1  UNL     1      14.724  -2.669  -3.388  1.00  0.00    -0.380 OA
HETATM   18  C1  UNL     1      14.472  -3.011  -2.111  1.00  0.00     0.202 C 
ENDBRANCH   1  17
BRANCH   6  19
HETATM   19  O5  UNL     1      15.309  -1.394  -7.159  1.00  0.00    -0.246 OA
BRANCH  19  20
HETATM   20  S1  UNL     1      15.073  -1.275  -8.790  1.00  0.00     0.252 S 
HETATM   21  O6  UNL     1      16.198  -0.462  -9.404  1.00  0.00    -0.572 OA
HETATM   22  O7  UNL     1      13.767  -0.606  -9.143  1.00  0.00    -0.572 OA
HETATM   23  O8  UNL     1      15.113  -2.772  -9.548  1.00  0.00    -0.572 OA
ENDBRANCH  19  20
ENDBRANCH   6  19
BRANCH   3  24
HETATM   24  O2  UNL     1      13.852  -5.427  -3.816  1.00  0.00    -0.390 OA
ATOM     25  H2  UNL     1      14.540  -5.672  -3.209  1.00  0.00     0.210 HD
ENDBRANCH   3  24
BRANCH   5  26
HETATM   26  O4  UNL     1      12.918  -1.637  -6.247  1.00  0.00    -0.390 OA
ATOM     27  H4  UNL     1      12.460  -1.385  -7.040  1.00  0.00     0.210 HD
ENDBRANCH   5  26
BRANCH   4  28
HETATM   28  O3  UNL     1      12.326  -4.803  -6.098  1.00  0.00    -0.390 OA
ATOM     29  H3  UNL     1      11.857  -5.301  -5.439  1.00  0.00     0.210 HD
ENDBRANCH   4  28
TORSDOF 9
ENDMDL
