MODEL 1
REMARK VINA RESULT: -5.253383174      0.000      0.000
REMARK  7 active torsions:
REMARK  status: ('A' for Active; 'I' for Inactive)
REMARK    1  A    between atoms: N2_4  and  C1_6 
REMARK    2  A    between atoms: C2_7  and  C3_8 
REMARK    3  A    between atoms: C3_8  and  N3_9 
REMARK    4  A    between atoms: C3_8  and  C4_13 
REMARK    5  A    between atoms: C4_13  and  O1_14 
REMARK    6  A    between atoms: C4_13  and  C5_16 
REMARK    7  A    between atoms: C6_17  and  O2_18 
ROOT
HETATM    1  C4  UNL     1     -62.485 -40.841  51.569  1.00  0.00     0.105 C 
ENDROOT
BRANCH   1   2
HETATM    2  C3  UNL     1     -62.749 -40.074  52.823  1.00  0.00     0.320 C 
BRANCH   2   3
HETATM    3  C2  UNL     1     -62.277 -38.659  52.798  1.00  0.00    -0.042 C 
HETATM    4  C1  UNL     1     -61.963 -37.528  52.747  1.00  0.00     0.028 C 
BRANCH   4   5
HETATM    5  N2  UNL     1     -61.597 -36.138  52.659  1.00  0.00    -0.265 N 
HETATM    6  N1  UNL     1     -61.233 -35.671  51.523  1.00  0.00    -0.338 N 
ATOM      7  H12 UNL     1     -61.210 -36.284  50.708  1.00  0.00     0.177 HD
ATOM      8  H11 UNL     1     -60.973 -34.687  51.461  1.00  0.00     0.177 HD
ATOM      9  H2  UNL     1     -61.625 -35.538  53.484  1.00  0.00     0.197 HD
ENDBRANCH   4   5
ENDBRANCH   2   3
BRANCH   2  10
HETATM   10  N3  UNL     1     -64.195 -40.012  53.092  1.00  0.00    -0.059 N 
ATOM     11  H33 UNL     1     -64.557 -39.061  53.158  1.00  0.00     0.276 HD
ATOM     12  H32 UNL     1     -64.769 -40.308  52.304  1.00  0.00     0.276 HD
ATOM     13  H31 UNL     1     -64.345 -40.564  53.937  1.00  0.00     0.276 HD
ENDBRANCH   2  10
ENDBRANCH   1   2
BRANCH   1  14
HETATM   14  O1  UNL     1     -61.540 -40.397  50.705  1.00  0.00    -0.361 OA
ATOM     15  H1  UNL     1     -60.872 -40.999  50.396  1.00  0.00     0.217 HD
ENDBRANCH   1  14
BRANCH   1  16
HETATM   16  C5  UNL     1     -62.968 -42.214  51.574  1.00  0.00     0.115 A 
HETATM   17  C6  UNL     1     -63.857 -42.585  50.588  1.00  0.00     0.162 A 
HETATM   18  N4  UNL     1     -64.393 -43.814  50.644  1.00  0.00    -0.288 N 
HETATM   19  C7  UNL     1     -64.098 -44.707  51.633  1.00  0.00     0.329 A 
ATOM     20  H4  UNL     1     -65.049 -44.093  49.915  1.00  0.00     0.172 HD
HETATM   21  O3  UNL     1     -64.657 -45.856  51.606  1.00  0.00    -0.247 OA
HETATM   22  N5  UNL     1     -63.243 -44.353  52.583  1.00  0.00    -0.275 N 
HETATM   23  C8  UNL     1     -62.672 -43.149  52.587  1.00  0.00     0.266 A 
ATOM     24  H5  UNL     1     -63.019 -45.015  53.326  1.00  0.00     0.173 HD
HETATM   25  O4  UNL     1     -61.836 -42.847  53.529  1.00  0.00    -0.267 OA
BRANCH  17  26
HETATM   26  O2  UNL     1     -64.181 -41.686  49.558  1.00  0.00    -0.345 OA
ATOM     27  H2  UNL     1     -64.284 -41.999  48.667  1.00  0.00     0.219 HD
ENDBRANCH  17  26
ENDBRANCH   1  16
TORSDOF 7
ENDMDL
MODEL 2
REMARK VINA RESULT: -4.988871590      2.611      7.001
REMARK  7 active torsions:
REMARK  status: ('A' for Active; 'I' for Inactive)
REMARK    1  A    between atoms: N2_4  and  C1_6 
REMARK    2  A    between atoms: C2_7  and  C3_8 
REMARK    3  A    between atoms: C3_8  and  N3_9 
REMARK    4  A    between atoms: C3_8  and  C4_13 
REMARK    5  A    between atoms: C4_13  and  O1_14 
REMARK    6  A    between atoms: C4_13  and  C5_16 
REMARK    7  A    between atoms: C6_17  and  O2_18 
ROOT
HETATM    1  C4  UNL     1     -63.762 -44.723  51.673  1.00  0.00     0.105 C 
ENDROOT
BRANCH   1   2
HETATM    2  C3  UNL     1     -65.253 -44.779  51.671  1.00  0.00     0.320 C 
BRANCH   2   3
HETATM    3  C2  UNL     1     -65.825 -46.138  51.442  1.00  0.00    -0.042 C 
HETATM    4  C1  UNL     1     -66.260 -47.202  51.196  1.00  0.00     0.028 C 
BRANCH   4   5
HETATM    5  N2  UNL     1     -66.799 -48.495  50.866  1.00  0.00    -0.265 N 
HETATM    6  N1  UNL     1     -66.050 -49.525  51.003  1.00  0.00    -0.338 N 
ATOM      7  H12 UNL     1     -65.094 -49.414  51.340  1.00  0.00     0.177 HD
ATOM      8  H11 UNL     1     -66.432 -50.441  50.769  1.00  0.00     0.177 HD
ATOM      9  H2  UNL     1     -67.758 -48.589  50.530  1.00  0.00     0.197 HD
ENDBRANCH   4   5
ENDBRANCH   2   3
BRANCH   2  10
HETATM   10  N3  UNL     1     -65.786 -44.331  52.968  1.00  0.00    -0.059 N 
ATOM     11  H33 UNL     1     -66.187 -43.393  52.942  1.00  0.00     0.276 HD
ATOM     12  H32 UNL     1     -66.635 -44.819  53.250  1.00  0.00     0.276 HD
ATOM     13  H31 UNL     1     -65.019 -44.428  53.633  1.00  0.00     0.276 HD
ENDBRANCH   2  10
ENDBRANCH   1   2
BRANCH   1  14
HETATM   14  O1  UNL     1     -63.054 -45.827  51.326  1.00  0.00    -0.361 OA
ATOM     15  H1  UNL     1     -63.208 -46.230  50.480  1.00  0.00     0.217 HD
ENDBRANCH   1  14
BRANCH   1  16
HETATM   16  C5  UNL     1     -63.195 -43.382  51.647  1.00  0.00     0.115 A 
HETATM   17  C6  UNL     1     -62.882 -42.795  52.855  1.00  0.00     0.162 A 
HETATM   18  N4  UNL     1     -62.462 -41.521  52.852  1.00  0.00    -0.288 N 
HETATM   19  C7  UNL     1     -62.336 -40.784  51.710  1.00  0.00     0.329 A 
ATOM     20  H4  UNL     1     -62.227 -41.083  53.742  1.00  0.00     0.172 HD
HETATM   21  O3  UNL     1     -61.928 -39.576  51.802  1.00  0.00    -0.247 OA
HETATM   22  N5  UNL     1     -62.637 -41.347  50.547  1.00  0.00    -0.275 N 
HETATM   23  C8  UNL     1     -63.057 -42.609  50.476  1.00  0.00     0.266 A 
ATOM     24  H5  UNL     1     -62.545 -40.802  49.689  1.00  0.00     0.173 HD
HETATM   25  O4  UNL     1     -63.331 -43.122  49.319  1.00  0.00    -0.267 OA
BRANCH  17  26
HETATM   26  O2  UNL     1     -63.005 -43.528  54.047  1.00  0.00    -0.345 OA
ATOM     27  H2  UNL     1     -63.026 -43.077  54.883  1.00  0.00     0.219 HD
ENDBRANCH  17  26
ENDBRANCH   1  16
TORSDOF 7
ENDMDL
MODEL 3
REMARK VINA RESULT: -4.976648066      3.312      5.707
REMARK  7 active torsions:
REMARK  status: ('A' for Active; 'I' for Inactive)
REMARK    1  A    between atoms: N2_4  and  C1_6 
REMARK    2  A    between atoms: C2_7  and  C3_8 
REMARK    3  A    between atoms: C3_8  and  N3_9 
REMARK    4  A    between atoms: C3_8  and  C4_13 
REMARK    5  A    between atoms: C4_13  and  O1_14 
REMARK    6  A    between atoms: C4_13  and  C5_16 
REMARK    7  A    between atoms: C6_17  and  O2_18 
ROOT
HETATM    1  C4  UNL     1     -61.887 -40.325  52.755  1.00  0.00     0.105 C 
ENDROOT
BRANCH   1   2
HETATM    2  C3  UNL     1     -62.679 -41.572  52.540  1.00  0.00     0.320 C 
BRANCH   2   3
HETATM    3  C2  UNL     1     -62.870 -41.950  51.109  1.00  0.00    -0.042 C 
HETATM    4  C1  UNL     1     -63.013 -42.182  49.967  1.00  0.00     0.028 C 
BRANCH   4   5
HETATM    5  N2  UNL     1     -63.202 -42.438  48.562  1.00  0.00    -0.265 N 
HETATM    6  N1  UNL     1     -64.062 -41.737  47.922  1.00  0.00    -0.338 N 
ATOM      7  H12 UNL     1     -64.594 -41.018  48.412  1.00  0.00     0.177 HD
ATOM      8  H11 UNL     1     -64.196 -41.919  46.927  1.00  0.00     0.177 HD
ATOM      9  H2  UNL     1     -62.662 -43.161  48.087  1.00  0.00     0.197 HD
ENDBRANCH   4   5
ENDBRANCH   2   3
BRANCH   2  10
HETATM   10  N3  UNL     1     -62.010 -42.720  53.174  1.00  0.00    -0.059 N 
ATOM     11  H33 UNL     1     -62.480 -43.609  53.008  1.00  0.00     0.276 HD
ATOM     12  H32 UNL     1     -61.123 -42.967  52.737  1.00  0.00     0.276 HD
ATOM     13  H31 UNL     1     -61.925 -42.483  54.163  1.00  0.00     0.276 HD
ENDBRANCH   2  10
ENDBRANCH   1   2
BRANCH   1  14
HETATM   14  O1  UNL     1     -62.015 -39.297  51.880  1.00  0.00    -0.361 OA
ATOM     15  H1  UNL     1     -61.259 -39.015  51.379  1.00  0.00     0.217 HD
ENDBRANCH   1  14
BRANCH   1  16
HETATM   16  C5  UNL     1     -61.360 -40.154  54.101  1.00  0.00     0.115 A 
HETATM   17  C6  UNL     1     -62.153 -39.500  55.021  1.00  0.00     0.162 A 
HETATM   18  N4  UNL     1     -61.638 -39.240  56.232  1.00  0.00    -0.288 N 
HETATM   19  C7  UNL     1     -60.367 -39.589  56.589  1.00  0.00     0.329 A 
ATOM     20  H4  UNL     1     -62.221 -38.760  56.917  1.00  0.00     0.172 HD
HETATM   21  O3  UNL     1     -59.961 -39.300  57.766  1.00  0.00    -0.247 OA
HETATM   22  N5  UNL     1     -59.603 -40.217  55.706  1.00  0.00    -0.275 N 
HETATM   23  C8  UNL     1     -60.052 -40.510  54.485  1.00  0.00     0.266 A 
ATOM     24  H5  UNL     1     -58.652 -40.480  55.965  1.00  0.00     0.173 HD
HETATM   25  O4  UNL     1     -59.274 -41.132  53.657  1.00  0.00    -0.267 OA
BRANCH  17  26
HETATM   26  O2  UNL     1     -63.464 -39.126  54.682  1.00  0.00    -0.345 OA
ATOM     27  H2  UNL     1     -63.923 -39.581  53.985  1.00  0.00     0.219 HD
ENDBRANCH  17  26
ENDBRANCH   1  16
TORSDOF 7
ENDMDL
MODEL 4
REMARK VINA RESULT: -4.953950291      3.846      4.565
REMARK  7 active torsions:
REMARK  status: ('A' for Active; 'I' for Inactive)
REMARK    1  A    between atoms: N2_4  and  C1_6 
REMARK    2  A    between atoms: C2_7  and  C3_8 
REMARK    3  A    between atoms: C3_8  and  N3_9 
REMARK    4  A    between atoms: C3_8  and  C4_13 
REMARK    5  A    between atoms: C4_13  and  O1_14 
REMARK    6  A    between atoms: C4_13  and  C5_16 
REMARK    7  A    between atoms: C6_17  and  O2_18 
ROOT
HETATM    1  C4  UNL     1     -64.125 -44.295  53.022  1.00  0.00     0.105 C 
ENDROOT
BRANCH   1   2
HETATM    2  C3  UNL     1     -62.851 -43.756  52.462  1.00  0.00     0.320 C 
BRANCH   2   3
HETATM    3  C2  UNL     1     -63.004 -42.998  51.185  1.00  0.00    -0.042 C 
HETATM    4  C1  UNL     1     -63.058 -42.411  50.169  1.00  0.00     0.028 C 
BRANCH   4   5
HETATM    5  N2  UNL     1     -63.094 -41.682  48.928  1.00  0.00    -0.265 N 
HETATM    6  N1  UNL     1     -64.154 -41.745  48.211  1.00  0.00    -0.338 N 
ATOM      7  H12 UNL     1     -64.947 -42.303  48.528  1.00  0.00     0.177 HD
ATOM      8  H11 UNL     1     -64.179 -41.229  47.332  1.00  0.00     0.177 HD
ATOM      9  H2  UNL     1     -62.292 -41.128  48.625  1.00  0.00     0.197 HD
ENDBRANCH   4   5
ENDBRANCH   2   3
BRANCH   2  10
HETATM   10  N3  UNL     1     -62.228 -42.821  53.413  1.00  0.00    -0.059 N 
ATOM     11  H33 UNL     1     -61.779 -42.022  52.965  1.00  0.00     0.276 HD
ATOM     12  H32 UNL     1     -62.902 -42.291  53.964  1.00  0.00     0.276 HD
ATOM     13  H31 UNL     1     -61.590 -43.382  53.978  1.00  0.00     0.276 HD
ENDBRANCH   2  10
ENDBRANCH   1   2
BRANCH   1  14
HETATM   14  O1  UNL     1     -64.850 -43.533  53.878  1.00  0.00    -0.361 OA
ATOM     15  H1  UNL     1     -65.710 -43.228  53.616  1.00  0.00     0.217 HD
ENDBRANCH   1  14
BRANCH   1  16
HETATM   16  C5  UNL     1     -64.694 -45.417  52.289  1.00  0.00     0.115 A 
HETATM   17  C6  UNL     1     -65.940 -45.247  51.723  1.00  0.00     0.162 A 
HETATM   18  N4  UNL     1     -66.523 -46.306  51.140  1.00  0.00    -0.288 N 
HETATM   19  C7  UNL     1     -65.938 -47.538  51.086  1.00  0.00     0.329 A 
ATOM     20  H4  UNL     1     -67.443 -46.185  50.717  1.00  0.00     0.172 HD
HETATM   21  O3  UNL     1     -66.567 -48.490  50.509  1.00  0.00    -0.247 OA
HETATM   22  N5  UNL     1     -64.740 -47.704  51.630  1.00  0.00    -0.275 N 
HETATM   23  C8  UNL     1     -64.102 -46.695  52.223  1.00  0.00     0.266 A 
ATOM     24  H5  UNL     1     -64.297 -48.622  51.594  1.00  0.00     0.173 HD
HETATM   25  O4  UNL     1     -62.930 -46.899  52.734  1.00  0.00    -0.267 OA
BRANCH  17  26
HETATM   26  O2  UNL     1     -66.568 -43.991  51.766  1.00  0.00    -0.345 OA
ATOM     27  H2  UNL     1     -66.153 -43.238  51.360  1.00  0.00     0.219 HD
ENDBRANCH  17  26
ENDBRANCH   1  16
TORSDOF 7
ENDMDL
MODEL 5
REMARK VINA RESULT: -4.929918222      2.599      6.750
REMARK  7 active torsions:
REMARK  status: ('A' for Active; 'I' for Inactive)
REMARK    1  A    between atoms: N2_4  and  C1_6 
REMARK    2  A    between atoms: C2_7  and  C3_8 
REMARK    3  A    between atoms: C3_8  and  N3_9 
REMARK    4  A    between atoms: C3_8  and  C4_13 
REMARK    5  A    between atoms: C4_13  and  O1_14 
REMARK    6  A    between atoms: C4_13  and  C5_16 
REMARK    7  A    between atoms: C6_17  and  O2_18 
ROOT
HETATM    1  C4  UNL     1     -63.858 -44.558  51.725  1.00  0.00     0.105 C 
ENDROOT
BRANCH   1   2
HETATM    2  C3  UNL     1     -65.340 -44.730  51.687  1.00  0.00     0.320 C 
BRANCH   2   3
HETATM    3  C2  UNL     1     -65.798 -46.123  51.410  1.00  0.00    -0.042 C 
HETATM    4  C1  UNL     1     -66.219 -47.194  51.177  1.00  0.00     0.028 C 
BRANCH   4   5
HETATM    5  N2  UNL     1     -66.765 -48.497  50.900  1.00  0.00    -0.265 N 
HETATM    6  N1  UNL     1     -65.994 -49.516  50.989  1.00  0.00    -0.338 N 
ATOM      7  H12 UNL     1     -65.017 -49.390  51.252  1.00  0.00     0.177 HD
ATOM      8  H11 UNL     1     -66.381 -50.439  50.793  1.00  0.00     0.177 HD
ATOM      9  H2  UNL     1     -67.745 -48.607  50.638  1.00  0.00     0.197 HD
ENDBRANCH   4   5
ENDBRANCH   2   3
BRANCH   2  10
HETATM   10  N3  UNL     1     -65.933 -44.361  52.983  1.00  0.00    -0.059 N 
ATOM     11  H33 UNL     1     -65.528 -44.862  53.774  1.00  0.00     0.276 HD
ATOM     12  H32 UNL     1     -65.684 -43.422  53.293  1.00  0.00     0.276 HD
ATOM     13  H31 UNL     1     -66.938 -44.504  52.881  1.00  0.00     0.276 HD
ENDBRANCH   2  10
ENDBRANCH   1   2
BRANCH   1  14
HETATM   14  O1  UNL     1     -63.059 -45.579  51.327  1.00  0.00    -0.361 OA
ATOM     15  H1  UNL     1     -62.326 -45.837  51.874  1.00  0.00     0.217 HD
ENDBRANCH   1  14
BRANCH   1  16
HETATM   16  C5  UNL     1     -63.399 -43.177  51.792  1.00  0.00     0.115 A 
HETATM   17  C6  UNL     1     -63.091 -42.547  50.604  1.00  0.00     0.162 A 
HETATM   18  N4  UNL     1     -62.565 -41.314  50.657  1.00  0.00    -0.288 N 
HETATM   19  C7  UNL     1     -62.320 -40.662  51.831  1.00  0.00     0.329 A 
ATOM     20  H4  UNL     1     -62.338 -40.843  49.782  1.00  0.00     0.172 HD
HETATM   21  O3  UNL     1     -61.816 -39.488  51.786  1.00  0.00    -0.247 OA
HETATM   22  N5  UNL     1     -62.615 -41.267  52.974  1.00  0.00    -0.275 N 
HETATM   23  C8  UNL     1     -63.143 -42.490  52.995  1.00  0.00     0.266 A 
ATOM     24  H5  UNL     1     -62.434 -40.786  53.856  1.00  0.00     0.173 HD
HETATM   25  O4  UNL     1     -63.424 -43.040  54.134  1.00  0.00    -0.267 OA
BRANCH  17  26
HETATM   26  O2  UNL     1     -63.330 -43.194  49.380  1.00  0.00    -0.345 OA
ATOM     27  H2  UNL     1     -63.997 -42.864  48.789  1.00  0.00     0.219 HD
ENDBRANCH  17  26
ENDBRANCH   1  16
TORSDOF 7
ENDMDL
