MODEL 1
REMARK VINA RESULT: -6.186699917      0.000      0.000
REMARK  5 active torsions:
REMARK  status: ('A' for Active; 'I' for Inactive)
REMARK    1  A    between atoms: C2_2  and  C3_3 
REMARK    2  A    between atoms: C7_10  and  C8_11 
REMARK    3  A    between atoms: C7_10  and  C11_14 
REMARK    4  A    between atoms: C11_14  and  C12_16 
REMARK    5  A    between atoms: C20_24  and  O5_25 
ROOT
HETATM    1  C3  UNL     1      73.879  35.359   0.645  1.00  0.00     0.177 C 
HETATM    2  O1  UNL     1      74.926  35.364   1.506  1.00  0.00    -0.373 OA
HETATM    3  C4  UNL     1      75.230  36.635   2.009  1.00  0.00     0.248 C 
HETATM    4  C5  UNL     1      74.055  37.164   2.805  1.00  0.00     0.278 A 
HETATM    5  O2  UNL     1      73.987  37.440   4.065  1.00  0.00    -0.187 OA
HETATM    6  O3  UNL     1      73.709  36.213   3.816  1.00  0.00    -0.187 OA
HETATM    7  C6  UNL     1      72.916  37.236   1.795  1.00  0.00     0.034 C 
HETATM    8  C7  UNL     1      72.425  38.469   1.434  1.00  0.00     0.021 C 
HETATM    9  C20 UNL     1      72.571  35.918   1.295  1.00  0.00     0.189 C 
ENDROOT
BRANCH   8  10
HETATM   10  C8  UNL     1      73.115  39.539   2.089  1.00  0.00     0.011 C 
HETATM   11  C9  UNL     1      73.998  40.378   1.711  1.00  0.00    -0.030 C 
HETATM   12  C10 UNL     1      74.552  41.428   2.686  1.00  0.00     0.036 C 
ENDBRANCH   8  10
BRANCH   8  13
HETATM   13  C11 UNL     1      71.305  38.505   0.540  1.00  0.00     0.169 C 
HETATM   14  O4  UNL     1      70.128  38.311   1.052  1.00  0.00    -0.291 OA
BRANCH  13  15
HETATM   15  C12 UNL     1      71.214  38.722  -0.904  1.00  0.00     0.032 C 
HETATM   16  C13 UNL     1      71.267  37.522  -1.774  1.00  0.00     0.025 C 
HETATM   17  C14 UNL     1      72.039  39.913  -1.305  1.00  0.00     0.045 C 
HETATM   18  C15 UNL     1      71.225  41.068  -0.760  1.00  0.00    -0.023 C 
HETATM   19  C16 UNL     1      69.956  40.703  -0.717  1.00  0.00    -0.083 C 
HETATM   20  C17 UNL     1      68.806  41.552  -0.235  1.00  0.00     0.043 C 
HETATM   21  C18 UNL     1      69.817  39.355  -1.230  1.00  0.00     0.026 C 
HETATM   22  C19 UNL     1      68.692  38.531  -0.747  1.00  0.00     0.016 C 
ENDBRANCH  13  15
ENDBRANCH   8  13
BRANCH   9  23
HETATM   23  O5  UNL     1      72.300  35.101   2.427  1.00  0.00    -0.383 OA
HETATM   24  C21 UNL     1      71.965  33.809   2.029  1.00  0.00     0.202 C 
ENDBRANCH   9  23
BRANCH   1  25
HETATM   25  C2  UNL     1      74.095  36.142  -0.593  1.00  0.00    -0.003 C 
HETATM   26  C1  UNL     1      74.842  35.679  -1.585  1.00  0.00     0.009 C 
ENDBRANCH   1  25
TORSDOF 5
ENDMDL
MODEL 2
REMARK VINA RESULT: -6.058652112      1.906      2.807
REMARK  5 active torsions:
REMARK  status: ('A' for Active; 'I' for Inactive)
REMARK    1  A    between atoms: C2_2  and  C3_3 
REMARK    2  A    between atoms: C7_10  and  C8_11 
REMARK    3  A    between atoms: C7_10  and  C11_14 
REMARK    4  A    between atoms: C11_14  and  C12_16 
REMARK    5  A    between atoms: C20_24  and  O5_25 
ROOT
HETATM    1  C3  UNL     1      74.934  35.682   0.456  1.00  0.00     0.177 C 
HETATM    2  O1  UNL     1      76.165  36.248   0.486  1.00  0.00    -0.373 OA
HETATM    3  C4  UNL     1      76.243  37.458  -0.216  1.00  0.00     0.248 C 
HETATM    4  C5  UNL     1      75.318  38.476   0.417  1.00  0.00     0.278 A 
HETATM    5  O2  UNL     1      75.615  39.591   0.998  1.00  0.00    -0.187 OA
HETATM    6  O3  UNL     1      75.637  38.596   1.807  1.00  0.00    -0.187 OA
HETATM    7  C6  UNL     1      73.930  37.859   0.290  1.00  0.00     0.034 C 
HETATM    8  C7  UNL     1      73.010  38.461  -0.536  1.00  0.00     0.021 C 
HETATM    9  C20 UNL     1      73.832  36.623   1.044  1.00  0.00     0.189 C 
ENDROOT
BRANCH   8  10
HETATM   10  C8  UNL     1      73.542  39.620  -1.186  1.00  0.00     0.011 C 
HETATM   11  C9  UNL     1      73.345  40.158  -2.327  1.00  0.00    -0.030 C 
HETATM   12  C10 UNL     1      74.098  41.433  -2.734  1.00  0.00     0.036 C 
ENDBRANCH   8  10
BRANCH   8  13
HETATM   13  C11 UNL     1      71.690  37.904  -0.581  1.00  0.00     0.169 C 
HETATM   14  O4  UNL     1      71.402  37.134  -1.586  1.00  0.00    -0.291 OA
BRANCH  13  15
HETATM   15  C12 UNL     1      70.542  38.037   0.317  1.00  0.00     0.032 C 
HETATM   16  C13 UNL     1      70.555  37.222   1.557  1.00  0.00     0.025 C 
HETATM   17  C14 UNL     1      69.264  38.089  -0.473  1.00  0.00     0.045 C 
HETATM   18  C15 UNL     1      69.332  39.462  -1.106  1.00  0.00    -0.023 C 
HETATM   19  C16 UNL     1      70.056  40.248  -0.328  1.00  0.00    -0.083 C 
HETATM   20  C17 UNL     1      70.377  41.699  -0.587  1.00  0.00     0.043 C 
HETATM   21  C18 UNL     1      70.486  39.512   0.844  1.00  0.00     0.026 C 
HETATM   22  C19 UNL     1      71.734  39.926   1.514  1.00  0.00     0.016 C 
ENDBRANCH  13  15
ENDBRANCH   8  13
BRANCH   9  23
HETATM   23  O5  UNL     1      74.221  36.919   2.379  1.00  0.00    -0.383 OA
HETATM   24  C21 UNL     1      73.733  35.952   3.255  1.00  0.00     0.202 C 
ENDBRANCH   9  23
BRANCH   1  25
HETATM   25  C2  UNL     1      74.470  35.290  -0.893  1.00  0.00    -0.003 C 
HETATM   26  C1  UNL     1      75.026  34.285  -1.554  1.00  0.00     0.009 C 
ENDBRANCH   1  25
TORSDOF 5
ENDMDL
MODEL 3
REMARK VINA RESULT: -5.998679929      1.599      2.369
REMARK  5 active torsions:
REMARK  status: ('A' for Active; 'I' for Inactive)
REMARK    1  A    between atoms: C2_2  and  C3_3 
REMARK    2  A    between atoms: C7_10  and  C8_11 
REMARK    3  A    between atoms: C7_10  and  C11_14 
REMARK    4  A    between atoms: C11_14  and  C12_16 
REMARK    5  A    between atoms: C20_24  and  O5_25 
ROOT
HETATM    1  C3  UNL     1      74.852  36.560   1.970  1.00  0.00     0.177 C 
HETATM    2  O1  UNL     1      76.121  36.773   2.397  1.00  0.00    -0.373 OA
HETATM    3  C4  UNL     1      76.596  38.062   2.123  1.00  0.00     0.248 C 
HETATM    4  C5  UNL     1      75.751  39.084   2.854  1.00  0.00     0.278 A 
HETATM    5  O2  UNL     1      76.098  39.903   3.790  1.00  0.00    -0.187 OA
HETATM    6  O3  UNL     1      75.732  38.763   4.248  1.00  0.00    -0.187 OA
HETATM    7  C6  UNL     1      74.348  38.888   2.292  1.00  0.00     0.034 C 
HETATM    8  C7  UNL     1      73.791  39.891   1.533  1.00  0.00     0.021 C 
HETATM    9  C20 UNL     1      73.836  37.566   2.602  1.00  0.00     0.189 C 
ENDROOT
BRANCH   8  10
HETATM   10  C8  UNL     1      74.675  41.005   1.376  1.00  0.00     0.011 C 
HETATM   11  C9  UNL     1      74.529  42.268   1.493  1.00  0.00    -0.030 C 
HETATM   12  C10 UNL     1      75.708  43.221   1.246  1.00  0.00     0.036 C 
ENDBRANCH   8  10
BRANCH   8  13
HETATM   13  C11 UNL     1      72.442  39.713   1.079  1.00  0.00     0.169 C 
HETATM   14  O4  UNL     1      71.491  39.976   1.921  1.00  0.00    -0.291 OA
BRANCH  13  15
HETATM   15  C12 UNL     1      71.895  39.267  -0.203  1.00  0.00     0.032 C 
HETATM   16  C13 UNL     1      70.949  38.124  -0.174  1.00  0.00     0.025 C 
HETATM   17  C14 UNL     1      72.968  39.259  -1.255  1.00  0.00     0.045 C 
HETATM   18  C15 UNL     1      73.189  40.737  -1.502  1.00  0.00    -0.023 C 
HETATM   19  C16 UNL     1      72.068  41.380  -1.226  1.00  0.00    -0.083 C 
HETATM   20  C17 UNL     1      71.851  42.869  -1.333  1.00  0.00     0.043 C 
HETATM   21  C18 UNL     1      71.048  40.433  -0.820  1.00  0.00     0.026 C 
HETATM   22  C19 UNL     1      69.976  40.897   0.081  1.00  0.00     0.016 C 
ENDBRANCH  13  15
ENDBRANCH   8  13
BRANCH   9  23
HETATM   23  O5  UNL     1      73.929  37.405   4.012  1.00  0.00    -0.383 OA
HETATM   24  C21 UNL     1      73.430  36.163   4.396  1.00  0.00     0.202 C 
ENDBRANCH   9  23
BRANCH   1  25
HETATM   25  C2  UNL     1      74.672  36.654   0.504  1.00  0.00    -0.003 C 
HETATM   26  C1  UNL     1      73.912  35.794  -0.158  1.00  0.00     0.009 C 
ENDBRANCH   1  25
TORSDOF 5
ENDMDL
MODEL 4
REMARK VINA RESULT: -5.965804347      1.964      3.057
REMARK  5 active torsions:
REMARK  status: ('A' for Active; 'I' for Inactive)
REMARK    1  A    between atoms: C2_2  and  C3_3 
REMARK    2  A    between atoms: C7_10  and  C8_11 
REMARK    3  A    between atoms: C7_10  and  C11_14 
REMARK    4  A    between atoms: C11_14  and  C12_16 
REMARK    5  A    between atoms: C20_24  and  O5_25 
ROOT
HETATM    1  C3  UNL     1      74.646  35.875   3.829  1.00  0.00     0.177 C 
HETATM    2  O1  UNL     1      75.970  35.992   4.096  1.00  0.00    -0.373 OA
HETATM    3  C4  UNL     1      76.606  36.992   3.349  1.00  0.00     0.248 C 
HETATM    4  C5  UNL     1      76.009  38.341   3.687  1.00  0.00     0.278 A 
HETATM    5  O2  UNL     1      76.573  39.362   4.242  1.00  0.00    -0.187 OA
HETATM    6  O3  UNL     1      76.085  38.545   5.101  1.00  0.00    -0.187 OA
HETATM    7  C6  UNL     1      74.542  38.216   3.293  1.00  0.00     0.034 C 
HETATM    8  C7  UNL     1      74.070  38.968   2.242  1.00  0.00     0.021 C 
HETATM    9  C20 UNL     1      73.867  37.206   4.088  1.00  0.00     0.189 C 
ENDROOT
BRANCH   8  10
HETATM   10  C8  UNL     1      75.094  39.774   1.651  1.00  0.00     0.011 C 
HETATM   11  C9  UNL     1      75.153  40.998   1.293  1.00  0.00    -0.030 C 
HETATM   12  C10 UNL     1      76.434  41.572   0.669  1.00  0.00     0.036 C 
ENDBRANCH   8  10
BRANCH   8  13
HETATM   13  C11 UNL     1      72.670  38.887   1.940  1.00  0.00     0.169 C 
HETATM   14  O4  UNL     1      71.874  39.678   2.592  1.00  0.00    -0.291 OA
BRANCH  13  15
HETATM   15  C12 UNL     1      71.920  38.048   1.005  1.00  0.00     0.032 C 
HETATM   16  C13 UNL     1      70.763  37.295   1.548  1.00  0.00     0.025 C 
HETATM   17  C14 UNL     1      72.862  37.318   0.088  1.00  0.00     0.045 C 
HETATM   18  C15 UNL     1      73.362  38.429  -0.812  1.00  0.00    -0.023 C 
HETATM   19  C16 UNL     1      72.432  39.366  -0.878  1.00  0.00    -0.083 C 
HETATM   20  C17 UNL     1      72.523  40.650  -1.665  1.00  0.00     0.043 C 
HETATM   21  C18 UNL     1      71.281  38.968  -0.093  1.00  0.00     0.026 C 
HETATM   22  C19 UNL     1      70.422  40.023   0.479  1.00  0.00     0.016 C 
ENDBRANCH  13  15
ENDBRANCH   8  13
BRANCH   9  23
HETATM   23  O5  UNL     1      74.080  37.541   5.453  1.00  0.00    -0.383 OA
HETATM   24  C21 UNL     1      73.515  36.580   6.287  1.00  0.00     0.202 C 
ENDBRANCH   9  23
BRANCH   1  25
HETATM   25  C2  UNL     1      74.332  35.473   2.439  1.00  0.00    -0.003 C 
HETATM   26  C1  UNL     1      73.525  34.456   2.177  1.00  0.00     0.009 C 
ENDBRANCH   1  25
TORSDOF 5
ENDMDL
MODEL 5
REMARK VINA RESULT: -5.825967260      3.448      6.669
REMARK  5 active torsions:
REMARK  status: ('A' for Active; 'I' for Inactive)
REMARK    1  A    between atoms: C2_2  and  C3_3 
REMARK    2  A    between atoms: C7_10  and  C8_11 
REMARK    3  A    between atoms: C7_10  and  C11_14 
REMARK    4  A    between atoms: C11_14  and  C12_16 
REMARK    5  A    between atoms: C20_24  and  O5_25 
ROOT
HETATM    1  C3  UNL     1      73.440  42.617  -3.290  1.00  0.00     0.177 C 
HETATM    2  O1  UNL     1      72.556  43.391  -3.966  1.00  0.00    -0.373 OA
HETATM    3  C4  UNL     1      71.220  43.026  -3.761  1.00  0.00     0.248 C 
HETATM    4  C5  UNL     1      70.863  43.193  -2.299  1.00  0.00     0.278 A 
HETATM    5  O2  UNL     1      70.005  43.994  -1.760  1.00  0.00    -0.187 OA
HETATM    6  O3  UNL     1      71.160  44.533  -1.896  1.00  0.00    -0.187 OA
HETATM    7  C6  UNL     1      71.807  42.246  -1.567  1.00  0.00     0.034 C 
HETATM    8  C7  UNL     1      71.280  41.149  -0.926  1.00  0.00     0.021 C 
HETATM    9  C20 UNL     1      73.192  42.639  -1.747  1.00  0.00     0.189 C 
ENDROOT
BRANCH   8  10
HETATM   10  C8  UNL     1      69.859  41.065  -1.074  1.00  0.00     0.011 C 
HETATM   11  C9  UNL     1      68.906  40.774  -0.276  1.00  0.00    -0.030 C 
HETATM   12  C10 UNL     1      67.449  40.773  -0.760  1.00  0.00     0.036 C 
ENDBRANCH   8  10
BRANCH   8  13
HETATM   13  C11 UNL     1      72.180  40.315  -0.184  1.00  0.00     0.169 C 
HETATM   14  O4  UNL     1      72.447  40.666   1.037  1.00  0.00    -0.291 OA
BRANCH  13  15
HETATM   15  C12 UNL     1      72.898  39.091  -0.542  1.00  0.00     0.032 C 
HETATM   16  C13 UNL     1      74.365  39.198  -0.733  1.00  0.00     0.025 C 
HETATM   17  C14 UNL     1      72.116  38.306  -1.557  1.00  0.00     0.045 C 
HETATM   18  C15 UNL     1      70.965  37.768  -0.733  1.00  0.00    -0.023 C 
HETATM   19  C16 UNL     1      71.364  37.657   0.523  1.00  0.00    -0.083 C 
HETATM   20  C17 UNL     1      70.529  37.162   1.677  1.00  0.00     0.043 C 
HETATM   21  C18 UNL     1      72.752  38.061   0.632  1.00  0.00     0.026 C 
HETATM   22  C19 UNL     1      73.228  38.597   1.922  1.00  0.00     0.016 C 
ENDBRANCH  13  15
ENDBRANCH   8  13
BRANCH   9  23
HETATM   23  O5  UNL     1      73.294  43.998  -1.339  1.00  0.00    -0.383 OA
HETATM   24  C21 UNL     1      74.008  44.098  -0.148  1.00  0.00     0.202 C 
ENDBRANCH   9  23
BRANCH   1  25
HETATM   25  C2  UNL     1      73.442  41.192  -3.690  1.00  0.00    -0.003 C 
HETATM   26  C1  UNL     1      74.521  40.615  -4.198  1.00  0.00     0.009 C 
ENDBRANCH   1  25
TORSDOF 5
ENDMDL
