MODEL 1
REMARK VINA RESULT: -5.750092860      0.000      0.000
REMARK  10 active torsions:
REMARK  status: ('A' for Active; 'I' for Inactive)
REMARK    1  A    between atoms: C2_2  and  C3_3 
REMARK    2  A    between atoms: C3_3  and  C4_4 
REMARK    3  A    between atoms: C4_4  and  C5_5 
REMARK    4  A    between atoms: C5_5  and  N1_6 
REMARK    5  A    between atoms: N1_6  and  C6_9 
REMARK    6  A    between atoms: C6_9  and  C7_10 
REMARK    7  A    between atoms: C7_10  and  C8_11 
REMARK    8  A    between atoms: C8_11  and  C9_12 
REMARK    9  A    between atoms: C9_12  and  C10_13 
REMARK   10  A    between atoms: C10_13  and  C11_14 
ROOT
HETATM    1  C6  UNL     1      -6.754 -23.465   4.872  1.00  0.00     0.232 C 
ENDROOT
BRANCH   1   2
HETATM    2  N1  UNL     1      -8.044 -22.847   4.930  1.00  0.00    -0.075 N 
ATOM      3  H12 UNL     1      -8.550 -23.140   5.767  1.00  0.00     0.277 HD
ATOM      4  H11 UNL     1      -8.664 -23.231   4.217  1.00  0.00     0.277 HD
BRANCH   2   5
HETATM    5  C5  UNL     1      -7.986 -21.380   4.840  1.00  0.00     0.232 C 
BRANCH   5   6
HETATM    6  C4  UNL     1      -7.071 -20.949   3.766  1.00  0.00     0.027 C 
BRANCH   6   7
HETATM    7  C3  UNL     1      -7.576 -20.094   2.673  1.00  0.00     0.001 C 
BRANCH   7   8
HETATM    8  C2  UNL     1      -6.620 -19.394   1.789  1.00  0.00    -0.005 C 
HETATM    9  C1  UNL     1      -7.118 -19.151   0.409  1.00  0.00     0.005 C 
ENDBRANCH   7   8
ENDBRANCH   6   7
ENDBRANCH   5   6
ENDBRANCH   2   5
ENDBRANCH   1   2
BRANCH   1  10
HETATM   10  C7  UNL     1      -6.764 -24.703   3.986  1.00  0.00     0.027 C 
BRANCH  10  11
HETATM   11  C8  UNL     1      -8.100 -24.745   3.322  1.00  0.00     0.002 C 
BRANCH  11  12
HETATM   12  C9  UNL     1      -8.050 -24.991   1.829  1.00  0.00     0.000 C 
BRANCH  12  13
HETATM   13  C10 UNL     1      -6.847 -24.445   1.201  1.00  0.00     0.004 C 
BRANCH  13  14
HETATM   14  C11 UNL     1      -6.838 -23.041   0.728  1.00  0.00    -0.014 C 
HETATM   15  C12 UNL     1      -8.073 -22.706  -0.048  1.00  0.00     0.004 C 
HETATM   16  C13 UNL     1      -7.656 -22.777  -1.488  1.00  0.00     0.000 C 
HETATM   17  C14 UNL     1      -6.148 -22.807  -1.508  1.00  0.00     0.000 C 
HETATM   18  C15 UNL     1      -5.731 -22.562  -0.098  1.00  0.00     0.004 C 
ENDBRANCH  13  14
ENDBRANCH  12  13
ENDBRANCH  11  12
ENDBRANCH  10  11
ENDBRANCH   1  10
TORSDOF 10
ENDMDL
MODEL 2
REMARK VINA RESULT: -5.717113053      1.206      1.832
REMARK  10 active torsions:
REMARK  status: ('A' for Active; 'I' for Inactive)
REMARK    1  A    between atoms: C2_2  and  C3_3 
REMARK    2  A    between atoms: C3_3  and  C4_4 
REMARK    3  A    between atoms: C4_4  and  C5_5 
REMARK    4  A    between atoms: C5_5  and  N1_6 
REMARK    5  A    between atoms: N1_6  and  C6_9 
REMARK    6  A    between atoms: C6_9  and  C7_10 
REMARK    7  A    between atoms: C7_10  and  C8_11 
REMARK    8  A    between atoms: C8_11  and  C9_12 
REMARK    9  A    between atoms: C9_12  and  C10_13 
REMARK   10  A    between atoms: C10_13  and  C11_14 
ROOT
HETATM    1  C6  UNL     1      -6.552 -23.662   5.150  1.00  0.00     0.232 C 
ENDROOT
BRANCH   1   2
HETATM    2  N1  UNL     1      -7.686 -22.822   5.398  1.00  0.00    -0.075 N 
ATOM      3  H12 UNL     1      -8.431 -23.344   5.861  1.00  0.00     0.277 HD
ATOM      4  H11 UNL     1      -8.163 -22.588   4.527  1.00  0.00     0.277 HD
BRANCH   2   5
HETATM    5  C5  UNL     1      -7.350 -21.607   6.154  1.00  0.00     0.232 C 
BRANCH   5   6
HETATM    6  C4  UNL     1      -6.252 -20.863   5.506  1.00  0.00     0.027 C 
BRANCH   6   7
HETATM    7  C3  UNL     1      -6.562 -19.702   4.648  1.00  0.00     0.001 C 
BRANCH   7   8
HETATM    8  C2  UNL     1      -6.878 -19.910   3.219  1.00  0.00    -0.005 C 
HETATM    9  C1  UNL     1      -8.329 -19.876   2.895  1.00  0.00     0.005 C 
ENDBRANCH   7   8
ENDBRANCH   6   7
ENDBRANCH   5   6
ENDBRANCH   2   5
ENDBRANCH   1   2
BRANCH   1  10
HETATM   10  C7  UNL     1      -6.744 -24.508   3.899  1.00  0.00     0.027 C 
BRANCH  10  11
HETATM   11  C8  UNL     1      -6.530 -23.604   2.732  1.00  0.00     0.002 C 
BRANCH  11  12
HETATM   12  C9  UNL     1      -7.669 -23.585   1.735  1.00  0.00     0.000 C 
BRANCH  12  13
HETATM   13  C10 UNL     1      -7.245 -23.935   0.379  1.00  0.00     0.004 C 
BRANCH  13  14
HETATM   14  C11 UNL     1      -7.258 -22.903  -0.683  1.00  0.00    -0.014 C 
HETATM   15  C12 UNL     1      -6.084 -23.035  -1.603  1.00  0.00     0.004 C 
HETATM   16  C13 UNL     1      -5.115 -21.985  -1.145  1.00  0.00     0.000 C 
HETATM   17  C14 UNL     1      -5.870 -21.062  -0.221  1.00  0.00     0.000 C 
HETATM   18  C15 UNL     1      -7.294 -21.488  -0.318  1.00  0.00     0.004 C 
ENDBRANCH  13  14
ENDBRANCH  12  13
ENDBRANCH  11  12
ENDBRANCH  10  11
ENDBRANCH   1  10
TORSDOF 10
ENDMDL
MODEL 3
REMARK VINA RESULT: -5.683676665      1.190      3.396
REMARK  10 active torsions:
REMARK  status: ('A' for Active; 'I' for Inactive)
REMARK    1  A    between atoms: C2_2  and  C3_3 
REMARK    2  A    between atoms: C3_3  and  C4_4 
REMARK    3  A    between atoms: C4_4  and  C5_5 
REMARK    4  A    between atoms: C5_5  and  N1_6 
REMARK    5  A    between atoms: N1_6  and  C6_9 
REMARK    6  A    between atoms: C6_9  and  C7_10 
REMARK    7  A    between atoms: C7_10  and  C8_11 
REMARK    8  A    between atoms: C8_11  and  C9_12 
REMARK    9  A    between atoms: C9_12  and  C10_13 
REMARK   10  A    between atoms: C10_13  and  C11_14 
ROOT
HETATM    1  C6  UNL     1      -7.791 -20.768   5.667  1.00  0.00     0.232 C 
ENDROOT
BRANCH   1   2
HETATM    2  N1  UNL     1      -7.920 -22.195   5.671  1.00  0.00    -0.075 N 
ATOM      3  H12 UNL     1      -8.386 -22.520   4.823  1.00  0.00     0.277 HD
ATOM      4  H11 UNL     1      -8.605 -22.496   6.364  1.00  0.00     0.277 HD
BRANCH   2   5
HETATM    5  C5  UNL     1      -6.639 -22.890   5.864  1.00  0.00     0.232 C 
BRANCH   5   6
HETATM    6  C4  UNL     1      -6.522 -24.053   4.965  1.00  0.00     0.027 C 
BRANCH   6   7
HETATM    7  C3  UNL     1      -7.304 -24.091   3.712  1.00  0.00     0.001 C 
BRANCH   7   8
HETATM    8  C2  UNL     1      -6.635 -24.446   2.442  1.00  0.00    -0.005 C 
HETATM    9  C1  UNL     1      -7.547 -24.961   1.386  1.00  0.00     0.005 C 
ENDBRANCH   7   8
ENDBRANCH   6   7
ENDBRANCH   5   6
ENDBRANCH   2   5
ENDBRANCH   1   2
BRANCH   1  10
HETATM   10  C7  UNL     1      -6.912 -20.288   4.520  1.00  0.00     0.027 C 
BRANCH  10  11
HETATM   11  C8  UNL     1      -7.726 -20.408   3.275  1.00  0.00     0.002 C 
BRANCH  11  12
HETATM   12  C9  UNL     1      -6.928 -20.747   2.035  1.00  0.00     0.000 C 
BRANCH  12  13
HETATM   13  C10 UNL     1      -7.763 -21.222   0.931  1.00  0.00     0.004 C 
BRANCH  13  14
HETATM   14  C11 UNL     1      -7.308 -21.037  -0.466  1.00  0.00    -0.014 C 
HETATM   15  C12 UNL     1      -8.232 -21.691  -1.445  1.00  0.00     0.004 C 
HETATM   16  C13 UNL     1      -7.557 -22.979  -1.813  1.00  0.00     0.000 C 
HETATM   17  C14 UNL     1      -6.133 -22.886  -1.324  1.00  0.00     0.000 C 
HETATM   18  C15 UNL     1      -5.970 -21.480  -0.857  1.00  0.00     0.004 C 
ENDBRANCH  13  14
ENDBRANCH  12  13
ENDBRANCH  11  12
ENDBRANCH  10  11
ENDBRANCH   1  10
TORSDOF 10
ENDMDL
MODEL 4
REMARK VINA RESULT: -5.671832385      2.231      4.875
REMARK  10 active torsions:
REMARK  status: ('A' for Active; 'I' for Inactive)
REMARK    1  A    between atoms: C2_2  and  C3_3 
REMARK    2  A    between atoms: C3_3  and  C4_4 
REMARK    3  A    between atoms: C4_4  and  C5_5 
REMARK    4  A    between atoms: C5_5  and  N1_6 
REMARK    5  A    between atoms: N1_6  and  C6_9 
REMARK    6  A    between atoms: C6_9  and  C7_10 
REMARK    7  A    between atoms: C7_10  and  C8_11 
REMARK    8  A    between atoms: C8_11  and  C9_12 
REMARK    9  A    between atoms: C9_12  and  C10_13 
REMARK   10  A    between atoms: C10_13  and  C11_14 
ROOT
HETATM    1  C6  UNL     1      -6.997 -22.054  -1.741  1.00  0.00     0.232 C 
ENDROOT
BRANCH   1   2
HETATM    2  N1  UNL     1      -8.383 -21.806  -2.008  1.00  0.00    -0.075 N 
ATOM      3  H12 UNL     1      -8.964 -22.561  -1.644  1.00  0.00     0.277 HD
ATOM      4  H11 UNL     1      -8.584 -21.904  -3.003  1.00  0.00     0.277 HD
BRANCH   2   5
HETATM    5  C5  UNL     1      -8.842 -20.503  -1.506  1.00  0.00     0.232 C 
BRANCH   5   6
HETATM    6  C4  UNL     1      -9.320 -20.606  -0.114  1.00  0.00     0.027 C 
BRANCH   6   7
HETATM    7  C3  UNL     1      -8.606 -19.887   0.960  1.00  0.00     0.001 C 
BRANCH   7   8
HETATM    8  C2  UNL     1      -7.325 -19.211   0.663  1.00  0.00    -0.005 C 
HETATM    9  C1  UNL     1      -6.383 -19.138   1.812  1.00  0.00     0.005 C 
ENDBRANCH   7   8
ENDBRANCH   6   7
ENDBRANCH   5   6
ENDBRANCH   2   5
ENDBRANCH   1   2
BRANCH   1  10
HETATM   10  C7  UNL     1      -6.806 -23.284  -0.865  1.00  0.00     0.027 C 
BRANCH  10  11
HETATM   11  C8  UNL     1      -6.332 -22.796   0.463  1.00  0.00     0.002 C 
BRANCH  11  12
HETATM   12  C9  UNL     1      -7.191 -23.229   1.633  1.00  0.00     0.000 C 
BRANCH  12  13
HETATM   13  C10 UNL     1      -6.444 -23.311   2.889  1.00  0.00     0.004 C 
BRANCH  13  14
HETATM   14  C11 UNL     1      -7.136 -23.053   4.172  1.00  0.00    -0.014 C 
HETATM   15  C12 UNL     1      -7.618 -21.640   4.273  1.00  0.00     0.004 C 
HETATM   16  C13 UNL     1      -6.604 -20.947   5.136  1.00  0.00     0.000 C 
HETATM   17  C14 UNL     1      -5.771 -22.023   5.786  1.00  0.00     0.000 C 
HETATM   18  C15 UNL     1      -6.442 -23.306   5.433  1.00  0.00     0.004 C 
ENDBRANCH  13  14
ENDBRANCH  12  13
ENDBRANCH  11  12
ENDBRANCH  10  11
ENDBRANCH   1  10
TORSDOF 10
ENDMDL
MODEL 5
REMARK VINA RESULT: -5.655095818      1.182      1.776
REMARK  10 active torsions:
REMARK  status: ('A' for Active; 'I' for Inactive)
REMARK    1  A    between atoms: C2_2  and  C3_3 
REMARK    2  A    between atoms: C3_3  and  C4_4 
REMARK    3  A    between atoms: C4_4  and  C5_5 
REMARK    4  A    between atoms: C5_5  and  N1_6 
REMARK    5  A    between atoms: N1_6  and  C6_9 
REMARK    6  A    between atoms: C6_9  and  C7_10 
REMARK    7  A    between atoms: C7_10  and  C8_11 
REMARK    8  A    between atoms: C8_11  and  C9_12 
REMARK    9  A    between atoms: C9_12  and  C10_13 
REMARK   10  A    between atoms: C10_13  and  C11_14 
ROOT
HETATM    1  C6  UNL     1      -6.555 -23.413   5.325  1.00  0.00     0.232 C 
ENDROOT
BRANCH   1   2
HETATM    2  N1  UNL     1      -7.724 -22.613   5.542  1.00  0.00    -0.075 N 
ATOM      3  H12 UNL     1      -8.415 -23.123   6.094  1.00  0.00     0.277 HD
ATOM      4  H11 UNL     1      -8.251 -22.498   4.677  1.00  0.00     0.277 HD
BRANCH   2   5
HETATM    5  C5  UNL     1      -7.425 -21.309   6.152  1.00  0.00     0.232 C 
BRANCH   5   6
HETATM    6  C4  UNL     1      -6.315 -20.635   5.452  1.00  0.00     0.027 C 
BRANCH   6   7
HETATM    7  C3  UNL     1      -6.607 -19.566   4.476  1.00  0.00     0.001 C 
BRANCH   7   8
HETATM    8  C2  UNL     1      -6.872 -19.915   3.064  1.00  0.00    -0.005 C 
HETATM    9  C1  UNL     1      -8.313 -20.036   2.717  1.00  0.00     0.005 C 
ENDBRANCH   7   8
ENDBRANCH   6   7
ENDBRANCH   5   6
ENDBRANCH   2   5
ENDBRANCH   1   2
BRANCH   1  10
HETATM   10  C7  UNL     1      -6.778 -24.447   4.231  1.00  0.00     0.027 C 
BRANCH  10  11
HETATM   11  C8  UNL     1      -7.420 -23.733   3.089  1.00  0.00     0.002 C 
BRANCH  11  12
HETATM   12  C9  UNL     1      -6.502 -23.479   1.912  1.00  0.00     0.000 C 
BRANCH  12  13
HETATM   13  C10 UNL     1      -7.081 -23.899   0.636  1.00  0.00     0.004 C 
BRANCH  13  14
HETATM   14  C11 UNL     1      -6.655 -23.235  -0.617  1.00  0.00    -0.014 C 
HETATM   15  C12 UNL     1      -6.028 -21.901  -0.357  1.00  0.00     0.004 C 
HETATM   16  C13 UNL     1      -7.105 -20.902  -0.661  1.00  0.00     0.000 C 
HETATM   17  C14 UNL     1      -8.191 -21.638  -1.405  1.00  0.00     0.000 C 
HETATM   18  C15 UNL     1      -7.631 -22.993  -1.677  1.00  0.00     0.004 C 
ENDBRANCH  13  14
ENDBRANCH  12  13
ENDBRANCH  11  12
ENDBRANCH  10  11
ENDBRANCH   1  10
TORSDOF 10
ENDMDL
