MODEL 1
REMARK VINA RESULT: -8.624742339      0.000      0.000
REMARK  16 active torsions:
REMARK  status: ('A' for Active; 'I' for Inactive)
REMARK    1  A    between atoms: C2_2  and  C3_3 
REMARK    2  A    between atoms: C4_4  and  C5_5 
REMARK    3  A    between atoms: C5_5  and  N1_6 
REMARK    4  A    between atoms: N1_6  and  C6_8 
REMARK    5  A    between atoms: C9_11  and  O1_12 
REMARK    6  A    between atoms: O1_12  and  C10_13 
REMARK    7  A    between atoms: C10_13  and  C11_14 
REMARK    8  A    between atoms: C11_14  and  C12_15 
REMARK    9  A    between atoms: C12_15  and  N2_16 
REMARK   10  A    between atoms: N2_16  and  C13_19 
REMARK   11  A    between atoms: C13_19  and  C14_20 
REMARK   12  A    between atoms: C14_20  and  C15_21 
REMARK   13  A    between atoms: C15_21  and  N3_22 
REMARK   14  A    between atoms: C24_34  and  O2_35 
REMARK   15  A    between atoms: C29_41  and  O3_42 
REMARK   16  A    between atoms: C30_44  and  O4_45 
ROOT
HETATM    1  C6  UNL     1      45.670  20.067 -12.330  1.00  0.00     0.108 C 
HETATM    2  C7  UNL     1      45.946  19.526 -13.683  1.00  0.00     0.030 C 
HETATM    3  C8  UNL     1      46.944  18.412 -13.736  1.00  0.00     0.035 C 
HETATM    4  C9  UNL     1      48.386  18.879 -13.755  1.00  0.00     0.133 C 
HETATM    5  C20 UNL     1      48.928  19.328 -12.460  1.00  0.00     0.085 C 
HETATM    6  C21 UNL     1      49.909  20.430 -12.506  1.00  0.00    -0.042 A 
HETATM    7  C22 UNL     1      50.268  21.176 -13.594  1.00  0.00     0.011 A 
HETATM    8  C23 UNL     1      51.210  22.195 -13.540  1.00  0.00     0.037 A 
HETATM    9  C24 UNL     1      51.817  22.480 -12.349  1.00  0.00     0.066 A 
HETATM   10  C25 UNL     1      51.462  21.726 -11.220  1.00  0.00     0.044 A 
HETATM   11  C26 UNL     1      50.529  20.726 -11.309  1.00  0.00    -0.049 A 
HETATM   12  C27 UNL     1      50.138  19.926 -10.133  1.00  0.00     0.042 C 
HETATM   13  C28 UNL     1      48.629  20.044 -10.089  1.00  0.00     0.046 C 
HETATM   14  C29 UNL     1      47.948  19.606 -11.358  1.00  0.00     0.096 C 
HETATM   15  C30 UNL     1      46.930  20.655 -11.700  1.00  0.00     0.175 C 
ENDROOT
BRANCH   4  16
HETATM   16  O1  UNL     1      49.145  17.794 -14.203  1.00  0.00    -0.385 OA
BRANCH  16  17
HETATM   17  C10 UNL     1      49.196  17.593 -15.541  1.00  0.00     0.169 C 
BRANCH  17  18
HETATM   18  C11 UNL     1      49.538  16.213 -16.013  1.00  0.00     0.054 C 
BRANCH  18  19
HETATM   19  C12 UNL     1      48.597  15.248 -15.278  1.00  0.00     0.234 C 
BRANCH  19  20
HETATM   20  N2  UNL     1      49.013  15.002 -13.941  1.00  0.00    -0.075 N 
ATOM     21  H22 UNL     1      49.731  14.278 -13.904  1.00  0.00     0.277 HD
ATOM     22  H21 UNL     1      49.554  15.783 -13.571  1.00  0.00     0.277 HD
BRANCH  20  23
HETATM   23  C13 UNL     1      47.917  14.685 -13.094  1.00  0.00     0.234 C 
BRANCH  23  24
HETATM   24  C14 UNL     1      48.327  14.380 -11.666  1.00  0.00     0.047 C 
BRANCH  24  25
HETATM   25  C15 UNL     1      49.154  15.506 -11.088  1.00  0.00     0.122 C 
BRANCH  25  26
HETATM   26  N3  UNL     1      48.636  16.080  -9.897  1.00  0.00    -0.380 N 
HETATM   27  C16 UNL     1      49.268  16.555  -8.898  1.00  0.00     0.072 C 
HETATM   28  C17 UNL     1      48.625  17.141  -7.693  1.00  0.00     0.077 C 
HETATM   29  N4  UNL     1      50.684  16.620  -8.717  1.00  0.00    -0.380 N 
HETATM   30  C18 UNL     1      49.761  17.709  -6.889  1.00  0.00     0.027 C 
HETATM   31  C19 UNL     1      50.961  16.897  -7.329  1.00  0.00     0.121 C 
ATOM     32  H4  UNL     1      51.384  16.492  -9.448  1.00  0.00     0.160 HD
ATOM     33  H3  UNL     1      47.618  16.116  -9.833  1.00  0.00     0.160 HD
ENDBRANCH  25  26
ENDBRANCH  24  25
ENDBRANCH  23  24
ENDBRANCH  20  23
ENDBRANCH  19  20
ENDBRANCH  18  19
ENDBRANCH  17  18
ENDBRANCH  16  17
ENDBRANCH   4  16
BRANCH  14  34
HETATM   34  O3  UNL     1      47.230  18.450 -10.961  1.00  0.00    -0.386 OA
ATOM     35  H3  UNL     1      47.296  18.280 -10.028  1.00  0.00     0.210 HD
ENDBRANCH  14  34
BRANCH   1  36
HETATM   36  N1  UNL     1      44.713  21.130 -12.365  1.00  0.00    -0.411 N 
ATOM     37  H1  UNL     1      44.958  22.076 -12.660  1.00  0.00     0.153 HD
BRANCH  36  38
HETATM   38  C5  UNL     1      43.376  20.771 -11.953  1.00  0.00     0.141 C 
BRANCH  38  39
HETATM   39  C4  UNL     1      43.505  19.975 -10.711  1.00  0.00    -0.012 C 
HETATM   40  C3  UNL     1      43.049  18.749 -10.536  1.00  0.00    -0.029 C 
BRANCH  40  41
HETATM   41  C2  UNL     1      42.331  17.935 -11.522  1.00  0.00     0.022 C 
HETATM   42  C1  UNL     1      43.372  17.084 -12.256  1.00  0.00     0.009 C 
ENDBRANCH  40  41
ENDBRANCH  38  39
ENDBRANCH  36  38
ENDBRANCH   1  36
BRANCH  15  43
HETATM   43  O4  UNL     1      47.446  21.718 -12.418  1.00  0.00    -0.390 OA
ATOM     44  H4  UNL     1      47.542  22.506 -11.896  1.00  0.00     0.210 HD
ENDBRANCH  15  43
BRANCH   9  45
HETATM   45  O2  UNL     1      52.756  23.495 -12.291  1.00  0.00    -0.361 OA
ATOM     46  H2  UNL     1      52.485  24.366 -12.027  1.00  0.00     0.217 HD
ENDBRANCH   9  45
TORSDOF 16
ENDMDL
MODEL 2
REMARK VINA RESULT: -8.577756482      1.411      2.110
REMARK  16 active torsions:
REMARK  status: ('A' for Active; 'I' for Inactive)
REMARK    1  A    between atoms: C2_2  and  C3_3 
REMARK    2  A    between atoms: C4_4  and  C5_5 
REMARK    3  A    between atoms: C5_5  and  N1_6 
REMARK    4  A    between atoms: N1_6  and  C6_8 
REMARK    5  A    between atoms: C9_11  and  O1_12 
REMARK    6  A    between atoms: O1_12  and  C10_13 
REMARK    7  A    between atoms: C10_13  and  C11_14 
REMARK    8  A    between atoms: C11_14  and  C12_15 
REMARK    9  A    between atoms: C12_15  and  N2_16 
REMARK   10  A    between atoms: N2_16  and  C13_19 
REMARK   11  A    between atoms: C13_19  and  C14_20 
REMARK   12  A    between atoms: C14_20  and  C15_21 
REMARK   13  A    between atoms: C15_21  and  N3_22 
REMARK   14  A    between atoms: C24_34  and  O2_35 
REMARK   15  A    between atoms: C29_41  and  O3_42 
REMARK   16  A    between atoms: C30_44  and  O4_45 
ROOT
HETATM    1  C6  UNL     1      45.640  20.179 -12.448  1.00  0.00     0.108 C 
HETATM    2  C7  UNL     1      45.888  19.742 -13.843  1.00  0.00     0.030 C 
HETATM    3  C8  UNL     1      46.868  18.621 -13.998  1.00  0.00     0.035 C 
HETATM    4  C9  UNL     1      48.316  19.068 -14.004  1.00  0.00     0.133 C 
HETATM    5  C20 UNL     1      48.884  19.407 -12.686  1.00  0.00     0.085 C 
HETATM    6  C21 UNL     1      49.881  20.495 -12.662  1.00  0.00    -0.042 A 
HETATM    7  C22 UNL     1      50.236  21.319 -13.694  1.00  0.00     0.011 A 
HETATM    8  C23 UNL     1      51.193  22.318 -13.575  1.00  0.00     0.037 A 
HETATM    9  C24 UNL     1      51.821  22.501 -12.375  1.00  0.00     0.066 A 
HETATM   10  C25 UNL     1      51.471  21.665 -11.303  1.00  0.00     0.044 A 
HETATM   11  C26 UNL     1      50.522  20.689 -11.454  1.00  0.00    -0.049 A 
HETATM   12  C27 UNL     1      50.136  19.804 -10.338  1.00  0.00     0.042 C 
HETATM   13  C28 UNL     1      48.630  19.940 -10.262  1.00  0.00     0.046 C 
HETATM   14  C29 UNL     1      47.924  19.612 -11.550  1.00  0.00     0.096 C 
HETATM   15  C30 UNL     1      46.917  20.698 -11.794  1.00  0.00     0.175 C 
ENDROOT
BRANCH   4  16
HETATM   16  O1  UNL     1      49.053  18.012 -14.546  1.00  0.00    -0.385 OA
BRANCH  16  17
HETATM   17  C10 UNL     1      48.361  16.906 -14.909  1.00  0.00     0.169 C 
BRANCH  17  18
HETATM   18  C11 UNL     1      48.895  15.583 -14.452  1.00  0.00     0.054 C 
BRANCH  18  19
HETATM   19  C12 UNL     1      48.319  15.334 -13.050  1.00  0.00     0.234 C 
BRANCH  19  20
HETATM   20  N2  UNL     1      49.024  16.045 -12.041  1.00  0.00    -0.075 N 
ATOM     21  H22 UNL     1      49.984  16.237 -12.327  1.00  0.00     0.277 HD
ATOM     22  H21 UNL     1      48.686  17.005 -11.959  1.00  0.00     0.277 HD
BRANCH  20  23
HETATM   23  C13 UNL     1      48.981  15.374 -10.790  1.00  0.00     0.234 C 
BRANCH  23  24
HETATM   24  C14 UNL     1      49.667  16.137  -9.673  1.00  0.00     0.047 C 
BRANCH  24  25
HETATM   25  C15 UNL     1      48.781  16.220  -8.451  1.00  0.00     0.122 C 
BRANCH  25  26
HETATM   26  N3  UNL     1      47.552  16.906  -8.648  1.00  0.00    -0.380 N 
HETATM   27  C16 UNL     1      46.370  16.525  -8.364  1.00  0.00     0.072 C 
HETATM   28  C17 UNL     1      45.142  17.327  -8.609  1.00  0.00     0.077 C 
HETATM   29  N4  UNL     1      45.974  15.284  -7.776  1.00  0.00    -0.380 N 
HETATM   30  C18 UNL     1      44.036  16.543  -7.961  1.00  0.00     0.027 C 
HETATM   31  C19 UNL     1      44.553  15.120  -7.953  1.00  0.00     0.121 C 
ATOM     32  H4  UNL     1      46.595  14.623  -7.308  1.00  0.00     0.160 HD
ATOM     33  H3  UNL     1      47.627  17.829  -9.075  1.00  0.00     0.160 HD
ENDBRANCH  25  26
ENDBRANCH  24  25
ENDBRANCH  23  24
ENDBRANCH  20  23
ENDBRANCH  19  20
ENDBRANCH  18  19
ENDBRANCH  17  18
ENDBRANCH  16  17
ENDBRANCH   4  16
BRANCH  14  34
HETATM   34  O3  UNL     1      47.194  18.439 -11.233  1.00  0.00    -0.386 OA
ATOM     35  H3  UNL     1      46.371  18.382 -11.704  1.00  0.00     0.210 HD
ENDBRANCH  14  34
BRANCH   1  36
HETATM   36  N1  UNL     1      44.699  21.255 -12.385  1.00  0.00    -0.411 N 
ATOM     37  H1  UNL     1      44.976  22.231 -12.494  1.00  0.00     0.153 HD
BRANCH  36  38
HETATM   38  C5  UNL     1      43.328  20.863 -12.157  1.00  0.00     0.141 C 
BRANCH  38  39
HETATM   39  C4  UNL     1      43.272  20.246 -10.813  1.00  0.00    -0.012 C 
HETATM   40  C3  UNL     1      42.793  19.046 -10.539  1.00  0.00    -0.029 C 
BRANCH  40  41
HETATM   41  C2  UNL     1      42.226  18.093 -11.499  1.00  0.00     0.022 C 
HETATM   42  C1  UNL     1      43.369  17.190 -11.974  1.00  0.00     0.009 C 
ENDBRANCH  40  41
ENDBRANCH  38  39
ENDBRANCH  36  38
ENDBRANCH   1  36
BRANCH  15  43
HETATM   43  O4  UNL     1      47.439  21.807 -12.435  1.00  0.00    -0.390 OA
ATOM     44  H4  UNL     1      46.895  22.580 -12.341  1.00  0.00     0.210 HD
ENDBRANCH  15  43
BRANCH   9  45
HETATM   45  O2  UNL     1      52.776  23.494 -12.253  1.00  0.00    -0.361 OA
ATOM     46  H2  UNL     1      52.520  24.351 -11.933  1.00  0.00     0.217 HD
ENDBRANCH   9  45
TORSDOF 16
ENDMDL
MODEL 3
REMARK VINA RESULT: -8.465899964      1.537      2.204
REMARK  16 active torsions:
REMARK  status: ('A' for Active; 'I' for Inactive)
REMARK    1  A    between atoms: C2_2  and  C3_3 
REMARK    2  A    between atoms: C4_4  and  C5_5 
REMARK    3  A    between atoms: C5_5  and  N1_6 
REMARK    4  A    between atoms: N1_6  and  C6_8 
REMARK    5  A    between atoms: C9_11  and  O1_12 
REMARK    6  A    between atoms: O1_12  and  C10_13 
REMARK    7  A    between atoms: C10_13  and  C11_14 
REMARK    8  A    between atoms: C11_14  and  C12_15 
REMARK    9  A    between atoms: C12_15  and  N2_16 
REMARK   10  A    between atoms: N2_16  and  C13_19 
REMARK   11  A    between atoms: C13_19  and  C14_20 
REMARK   12  A    between atoms: C14_20  and  C15_21 
REMARK   13  A    between atoms: C15_21  and  N3_22 
REMARK   14  A    between atoms: C24_34  and  O2_35 
REMARK   15  A    between atoms: C29_41  and  O3_42 
REMARK   16  A    between atoms: C30_44  and  O4_45 
ROOT
HETATM    1  C6  UNL     1      45.703  20.121 -12.405  1.00  0.00     0.108 C 
HETATM    2  C7  UNL     1      45.985  19.604 -13.766  1.00  0.00     0.030 C 
HETATM    3  C8  UNL     1      46.984  18.491 -13.834  1.00  0.00     0.035 C 
HETATM    4  C9  UNL     1      48.426  18.958 -13.839  1.00  0.00     0.133 C 
HETATM    5  C20 UNL     1      48.962  19.384 -12.532  1.00  0.00     0.085 C 
HETATM    6  C21 UNL     1      49.943  20.485 -12.555  1.00  0.00    -0.042 A 
HETATM    7  C22 UNL     1      50.308  21.251 -13.627  1.00  0.00     0.011 A 
HETATM    8  C23 UNL     1      51.249  22.269 -13.550  1.00  0.00     0.037 A 
HETATM    9  C24 UNL     1      51.850  22.533 -12.351  1.00  0.00     0.066 A 
HETATM   10  C25 UNL     1      51.490  21.758 -11.238  1.00  0.00     0.044 A 
HETATM   11  C26 UNL     1      50.557  20.760 -11.349  1.00  0.00    -0.049 A 
HETATM   12  C27 UNL     1      50.161  19.939 -10.189  1.00  0.00     0.042 C 
HETATM   13  C28 UNL     1      48.651  20.056 -10.151  1.00  0.00     0.046 C 
HETATM   14  C29 UNL     1      47.976  19.642 -11.430  1.00  0.00     0.096 C 
HETATM   15  C30 UNL     1      46.960  20.697 -11.758  1.00  0.00     0.175 C 
ENDROOT
BRANCH   4  16
HETATM   16  O1  UNL     1      49.187  17.881 -14.302  1.00  0.00    -0.385 OA
BRANCH  16  17
HETATM   17  C10 UNL     1      48.889  17.406 -15.535  1.00  0.00     0.169 C 
BRANCH  17  18
HETATM   18  C11 UNL     1      49.467  16.077 -15.914  1.00  0.00     0.054 C 
BRANCH  18  19
HETATM   19  C12 UNL     1      48.553  15.006 -15.300  1.00  0.00     0.234 C 
BRANCH  19  20
HETATM   20  N2  UNL     1      48.660  14.951 -13.884  1.00  0.00    -0.075 N 
ATOM     21  H22 UNL     1      49.552  14.549 -13.596  1.00  0.00     0.277 HD
ATOM     22  H21 UNL     1      48.767  15.883 -13.484  1.00  0.00     0.277 HD
BRANCH  20  23
HETATM   23  C13 UNL     1      47.568  14.258 -13.296  1.00  0.00     0.234 C 
BRANCH  23  24
HETATM   24  C14 UNL     1      46.738  15.121 -12.364  1.00  0.00     0.047 C 
BRANCH  24  25
HETATM   25  C15 UNL     1      47.078  14.837 -10.919  1.00  0.00     0.122 C 
BRANCH  25  26
HETATM   26  N3  UNL     1      46.617  15.811  -9.993  1.00  0.00    -0.380 N 
HETATM   27  C16 UNL     1      45.512  15.851  -9.360  1.00  0.00     0.072 C 
HETATM   28  C17 UNL     1      45.126  16.921  -8.402  1.00  0.00     0.077 C 
HETATM   29  N4  UNL     1      44.433  14.916  -9.432  1.00  0.00    -0.380 N 
HETATM   30  C18 UNL     1      43.835  16.447  -7.796  1.00  0.00     0.027 C 
HETATM   31  C19 UNL     1      43.262  15.514  -8.842  1.00  0.00     0.121 C 
ATOM     32  H4  UNL     1      44.484  13.980  -9.835  1.00  0.00     0.160 HD
ATOM     33  H3  UNL     1      47.259  16.582  -9.810  1.00  0.00     0.160 HD
ENDBRANCH  25  26
ENDBRANCH  24  25
ENDBRANCH  23  24
ENDBRANCH  20  23
ENDBRANCH  19  20
ENDBRANCH  18  19
ENDBRANCH  17  18
ENDBRANCH  16  17
ENDBRANCH   4  16
BRANCH  14  34
HETATM   34  O3  UNL     1      47.256  18.479 -11.058  1.00  0.00    -0.386 OA
ATOM     35  H3  UNL     1      46.332  18.537 -11.272  1.00  0.00     0.210 HD
ENDBRANCH  14  34
BRANCH   1  36
HETATM   36  N1  UNL     1      44.747  21.184 -12.426  1.00  0.00    -0.411 N 
ATOM     37  H1  UNL     1      44.998  22.141 -12.678  1.00  0.00     0.153 HD
BRANCH  36  38
HETATM   38  C5  UNL     1      43.400  20.810 -12.064  1.00  0.00     0.141 C 
BRANCH  38  39
HETATM   39  C4  UNL     1      43.485  20.064 -10.788  1.00  0.00    -0.012 C 
HETATM   40  C3  UNL     1      43.056  18.831 -10.591  1.00  0.00    -0.029 C 
BRANCH  40  41
HETATM   41  C2  UNL     1      42.417  17.960 -11.583  1.00  0.00     0.022 C 
HETATM   42  C1  UNL     1      43.526  17.145 -12.257  1.00  0.00     0.009 C 
ENDBRANCH  40  41
ENDBRANCH  38  39
ENDBRANCH  36  38
ENDBRANCH   1  36
BRANCH  15  43
HETATM   43  O4  UNL     1      47.480  21.772 -12.455  1.00  0.00    -0.390 OA
ATOM     44  H4  UNL     1      48.361  21.616 -12.775  1.00  0.00     0.210 HD
ENDBRANCH  15  43
BRANCH   9  45
HETATM   45  O2  UNL     1      52.789  23.545 -12.271  1.00  0.00    -0.361 OA
ATOM     46  H2  UNL     1      53.565  23.420 -11.738  1.00  0.00     0.217 HD
ENDBRANCH   9  45
TORSDOF 16
ENDMDL
MODEL 4
REMARK VINA RESULT: -8.328149436      1.755      3.129
REMARK  16 active torsions:
REMARK  status: ('A' for Active; 'I' for Inactive)
REMARK    1  A    between atoms: C2_2  and  C3_3 
REMARK    2  A    between atoms: C4_4  and  C5_5 
REMARK    3  A    between atoms: C5_5  and  N1_6 
REMARK    4  A    between atoms: N1_6  and  C6_8 
REMARK    5  A    between atoms: C9_11  and  O1_12 
REMARK    6  A    between atoms: O1_12  and  C10_13 
REMARK    7  A    between atoms: C10_13  and  C11_14 
REMARK    8  A    between atoms: C11_14  and  C12_15 
REMARK    9  A    between atoms: C12_15  and  N2_16 
REMARK   10  A    between atoms: N2_16  and  C13_19 
REMARK   11  A    between atoms: C13_19  and  C14_20 
REMARK   12  A    between atoms: C14_20  and  C15_21 
REMARK   13  A    between atoms: C15_21  and  N3_22 
REMARK   14  A    between atoms: C24_34  and  O2_35 
REMARK   15  A    between atoms: C29_41  and  O3_42 
REMARK   16  A    between atoms: C30_44  and  O4_45 
ROOT
HETATM    1  C6  UNL     1      45.773  19.937 -12.438  1.00  0.00     0.108 C 
HETATM    2  C7  UNL     1      46.077  19.431 -13.799  1.00  0.00     0.030 C 
HETATM    3  C8  UNL     1      47.119  18.358 -13.865  1.00  0.00     0.035 C 
HETATM    4  C9  UNL     1      48.541  18.882 -13.868  1.00  0.00     0.133 C 
HETATM    5  C20 UNL     1      49.059  19.330 -12.562  1.00  0.00     0.085 C 
HETATM    6  C21 UNL     1      49.996  20.470 -12.584  1.00  0.00    -0.042 A 
HETATM    7  C22 UNL     1      50.330  21.249 -13.658  1.00  0.00     0.011 A 
HETATM    8  C23 UNL     1      51.230  22.303 -13.581  1.00  0.00     0.037 A 
HETATM    9  C24 UNL     1      51.819  22.592 -12.381  1.00  0.00     0.066 A 
HETATM   10  C25 UNL     1      51.489  21.805 -11.267  1.00  0.00     0.044 A 
HETATM   11  C26 UNL     1      50.597  20.770 -11.378  1.00  0.00    -0.049 A 
HETATM   12  C27 UNL     1      50.232  19.935 -10.219  1.00  0.00     0.042 C 
HETATM   13  C28 UNL     1      48.719  19.992 -10.182  1.00  0.00     0.046 C 
HETATM   14  C29 UNL     1      48.063  19.550 -11.461  1.00  0.00     0.096 C 
HETATM   15  C30 UNL     1      47.006  20.563 -11.791  1.00  0.00     0.175 C 
ENDROOT
BRANCH   4  16
HETATM   16  O1  UNL     1      49.345  17.836 -14.330  1.00  0.00    -0.385 OA
BRANCH  16  17
HETATM   17  C10 UNL     1      49.313  17.579 -15.659  1.00  0.00     0.169 C 
BRANCH  17  18
HETATM   18  C11 UNL     1      49.679  16.195 -16.098  1.00  0.00     0.054 C 
BRANCH  18  19
HETATM   19  C12 UNL     1      48.679  15.240 -15.429  1.00  0.00     0.234 C 
BRANCH  19  20
HETATM   20  N2  UNL     1      48.949  15.057 -14.045  1.00  0.00    -0.075 N 
ATOM     21  H22 UNL     1      49.703  14.386 -13.901  1.00  0.00     0.277 HD
ATOM     22  H21 UNL     1      49.390  15.883 -13.641  1.00  0.00     0.277 HD
BRANCH  20  23
HETATM   23  C13 UNL     1      47.783  14.687 -13.322  1.00  0.00     0.234 C 
BRANCH  23  24
HETATM   24  C14 UNL     1      47.980  14.697 -11.818  1.00  0.00     0.047 C 
BRANCH  24  25
HETATM   25  C15 UNL     1      46.687  15.024 -11.105  1.00  0.00     0.122 C 
BRANCH  25  26
HETATM   26  N3  UNL     1      45.751  15.767 -11.874  1.00  0.00    -0.380 N 
HETATM   27  C16 UNL     1      44.481  15.669 -11.899  1.00  0.00     0.072 C 
HETATM   28  C17 UNL     1      43.586  16.504 -12.743  1.00  0.00     0.077 C 
HETATM   29  N4  UNL     1      43.664  14.762 -11.156  1.00  0.00    -0.380 N 
HETATM   30  C18 UNL     1      42.195  16.141 -12.304  1.00  0.00     0.027 C 
HETATM   31  C19 UNL     1      42.344  14.746 -11.736  1.00  0.00     0.121 C 
ATOM     32  H4  UNL     1      43.965  14.216 -10.348  1.00  0.00     0.160 HD
ATOM     33  H3  UNL     1      46.151  16.476 -12.489  1.00  0.00     0.160 HD
ENDBRANCH  25  26
ENDBRANCH  24  25
ENDBRANCH  23  24
ENDBRANCH  20  23
ENDBRANCH  19  20
ENDBRANCH  18  19
ENDBRANCH  17  18
ENDBRANCH  16  17
ENDBRANCH   4  16
BRANCH  14  34
HETATM   34  O3  UNL     1      47.389  18.360 -11.088  1.00  0.00    -0.386 OA
ATOM     35  H3  UNL     1      47.025  18.405 -10.211  1.00  0.00     0.210 HD
ENDBRANCH  14  34
BRANCH   1  36
HETATM   36  N1  UNL     1      44.775  20.962 -12.461  1.00  0.00    -0.411 N 
ATOM     37  H1  UNL     1      44.923  21.858 -12.925  1.00  0.00     0.153 HD
BRANCH  36  38
HETATM   38  C5  UNL     1      43.544  20.638 -11.780  1.00  0.00     0.141 C 
BRANCH  38  39
HETATM   39  C4  UNL     1      43.868  19.616 -10.760  1.00  0.00    -0.012 C 
HETATM   40  C3  UNL     1      42.989  18.953 -10.031  1.00  0.00    -0.029 C 
BRANCH  40  41
HETATM   41  C2  UNL     1      41.530  19.092 -10.084  1.00  0.00     0.022 C 
HETATM   42  C1  UNL     1      40.946  18.200  -8.984  1.00  0.00     0.009 C 
ENDBRANCH  40  41
ENDBRANCH  38  39
ENDBRANCH  36  38
ENDBRANCH   1  36
BRANCH  15  43
HETATM   43  O4  UNL     1      47.483  21.658 -12.488  1.00  0.00    -0.390 OA
ATOM     44  H4  UNL     1      47.663  21.466 -13.401  1.00  0.00     0.210 HD
ENDBRANCH  15  43
BRANCH   9  45
HETATM   45  O2  UNL     1      52.717  23.641 -12.301  1.00  0.00    -0.361 OA
ATOM     46  H2  UNL     1      53.488  23.555 -11.754  1.00  0.00     0.217 HD
ENDBRANCH   9  45
TORSDOF 16
ENDMDL
MODEL 5
REMARK VINA RESULT: -8.068366522      3.274      7.054
REMARK  16 active torsions:
REMARK  status: ('A' for Active; 'I' for Inactive)
REMARK    1  A    between atoms: C2_2  and  C3_3 
REMARK    2  A    between atoms: C4_4  and  C5_5 
REMARK    3  A    between atoms: C5_5  and  N1_6 
REMARK    4  A    between atoms: N1_6  and  C6_8 
REMARK    5  A    between atoms: C9_11  and  O1_12 
REMARK    6  A    between atoms: O1_12  and  C10_13 
REMARK    7  A    between atoms: C10_13  and  C11_14 
REMARK    8  A    between atoms: C11_14  and  C12_15 
REMARK    9  A    between atoms: C12_15  and  N2_16 
REMARK   10  A    between atoms: N2_16  and  C13_19 
REMARK   11  A    between atoms: C13_19  and  C14_20 
REMARK   12  A    between atoms: C14_20  and  C15_21 
REMARK   13  A    between atoms: C15_21  and  N3_22 
REMARK   14  A    between atoms: C24_34  and  O2_35 
REMARK   15  A    between atoms: C29_41  and  O3_42 
REMARK   16  A    between atoms: C30_44  and  O4_45 
ROOT
HETATM    1  C6  UNL     1      48.536  21.332 -12.508  1.00  0.00     0.108 C 
HETATM    2  C7  UNL     1      49.224  20.738 -11.336  1.00  0.00     0.030 C 
HETATM    3  C8  UNL     1      49.463  19.262 -11.414  1.00  0.00     0.035 C 
HETATM    4  C9  UNL     1      48.273  18.424 -10.994  1.00  0.00     0.133 C 
HETATM    5  C20 UNL     1      47.186  18.319 -11.985  1.00  0.00     0.085 C 
HETATM    6  C21 UNL     1      45.814  18.234 -11.447  1.00  0.00    -0.042 A 
HETATM    7  C22 UNL     1      45.422  18.383 -10.146  1.00  0.00     0.011 A 
HETATM    8  C23 UNL     1      44.101  18.281  -9.733  1.00  0.00     0.037 A 
HETATM    9  C24 UNL     1      43.130  18.020 -10.660  1.00  0.00     0.066 A 
HETATM   10  C25 UNL     1      43.512  17.864 -12.002  1.00  0.00     0.044 A 
HETATM   11  C26 UNL     1      44.826  17.970 -12.375  1.00  0.00    -0.049 A 
HETATM   12  C27 UNL     1      45.247  17.815 -13.780  1.00  0.00     0.042 C 
HETATM   13  C28 UNL     1      46.042  19.071 -14.070  1.00  0.00     0.046 C 
HETATM   14  C29 UNL     1      47.193  19.292 -13.127  1.00  0.00     0.096 C 
HETATM   15  C30 UNL     1      47.146  20.731 -12.699  1.00  0.00     0.175 C 
ENDROOT
BRANCH   4  16
HETATM   16  O1  UNL     1      48.765  17.141 -10.737  1.00  0.00    -0.385 OA
BRANCH  16  17
HETATM   17  C10 UNL     1      49.291  16.922  -9.509  1.00  0.00     0.169 C 
BRANCH  17  18
HETATM   18  C11 UNL     1      48.633  17.605  -8.350  1.00  0.00     0.054 C 
BRANCH  18  19
HETATM   19  C12 UNL     1      49.010  16.807  -7.093  1.00  0.00     0.234 C 
BRANCH  19  20
HETATM   20  N2  UNL     1      49.697  17.600  -6.135  1.00  0.00    -0.075 N 
ATOM     21  H22 UNL     1      49.302  18.538  -6.079  1.00  0.00     0.277 HD
ATOM     22  H21 UNL     1      49.500  17.286  -5.184  1.00  0.00     0.277 HD
BRANCH  20  23
HETATM   23  C13 UNL     1      51.095  17.642  -6.386  1.00  0.00     0.234 C 
BRANCH  23  24
HETATM   24  C14 UNL     1      51.740  18.956  -5.987  1.00  0.00     0.047 C 
BRANCH  24  25
HETATM   25  C15 UNL     1      52.712  18.758  -4.846  1.00  0.00     0.122 C 
BRANCH  25  26
HETATM   26  N3  UNL     1      52.114  18.438  -3.598  1.00  0.00    -0.380 N 
HETATM   27  C16 UNL     1      52.595  18.570  -2.425  1.00  0.00     0.072 C 
HETATM   28  C17 UNL     1      51.879  18.207  -1.174  1.00  0.00     0.077 C 
HETATM   29  N4  UNL     1      53.884  19.071  -2.065  1.00  0.00    -0.380 N 
HETATM   30  C18 UNL     1      52.769  18.697  -0.066  1.00  0.00     0.027 C 
HETATM   31  C19 UNL     1      54.148  18.724  -0.691  1.00  0.00     0.121 C 
ATOM     32  H4  UNL     1      54.513  19.589  -2.678  1.00  0.00     0.160 HD
ATOM     33  H3  UNL     1      51.172  18.050  -3.648  1.00  0.00     0.160 HD
ENDBRANCH  25  26
ENDBRANCH  24  25
ENDBRANCH  23  24
ENDBRANCH  20  23
ENDBRANCH  19  20
ENDBRANCH  18  19
ENDBRANCH  17  18
ENDBRANCH  16  17
ENDBRANCH   4  16
BRANCH  14  34
HETATM   34  O3  UNL     1      48.330  19.148 -13.961  1.00  0.00    -0.386 OA
ATOM     35  H3  UNL     1      48.112  18.814 -14.823  1.00  0.00     0.210 HD
ENDBRANCH  14  34
BRANCH   1  36
HETATM   36  N1  UNL     1      48.339  22.741 -12.354  1.00  0.00    -0.411 N 
ATOM     37  H1  UNL     1      47.726  23.131 -11.638  1.00  0.00     0.153 HD
BRANCH  36  38
HETATM   38  C5  UNL     1      49.070  23.571 -13.282  1.00  0.00     0.141 C 
BRANCH  38  39
HETATM   39  C4  UNL     1      50.419  23.777 -12.710  1.00  0.00    -0.012 C 
HETATM   40  C3  UNL     1      51.523  23.174 -13.111  1.00  0.00    -0.029 C 
BRANCH  40  41
HETATM   41  C2  UNL     1      51.636  22.189 -14.192  1.00  0.00     0.022 C 
HETATM   42  C1  UNL     1      52.000  22.953 -15.469  1.00  0.00     0.009 C 
ENDBRANCH  40  41
ENDBRANCH  38  39
ENDBRANCH  36  38
ENDBRANCH   1  36
BRANCH  15  43
HETATM   43  O4  UNL     1      46.305  20.965 -11.627  1.00  0.00    -0.390 OA
ATOM     44  H4  UNL     1      45.633  21.608 -11.817  1.00  0.00     0.210 HD
ENDBRANCH  15  43
BRANCH   9  45
HETATM   45  O2  UNL     1      41.812  17.917 -10.253  1.00  0.00    -0.361 OA
ATOM     46  H2  UNL     1      41.306  18.708 -10.108  1.00  0.00     0.217 HD
ENDBRANCH   9  45
TORSDOF 16
ENDMDL
