MODEL 1
REMARK VINA RESULT: -4.744722197      0.000      0.000
REMARK  3 active torsions:
REMARK  status: ('A' for Active; 'I' for Inactive)
REMARK    1  A    between atoms: C2_2  and  O2_4 
REMARK    2  A    between atoms: O2_4  and  C3_5 
REMARK    3  A    between atoms: C3_5  and  O3_7 
ROOT
HETATM    1  C3  UNL     1      39.381  32.239 -13.967  1.00  0.00     0.258 C 
HETATM    2  C4  UNL     1      40.796  32.251 -13.517  1.00  0.00     0.097 C 
HETATM    3  C5  UNL     1      38.638  33.236 -13.164  1.00  0.00     0.128 C 
HETATM    4  N1  UNL     1      38.044  34.014 -12.545  1.00  0.00    -0.191 NA
ENDROOT
BRANCH   1   5
HETATM    5  O2  UNL     1      39.196  32.590 -15.318  1.00  0.00    -0.270 OA
BRANCH   5   6
HETATM    6  C2  UNL     1      38.143  32.076 -16.048  1.00  0.00     0.258 C 
HETATM    7  C1  UNL     1      37.003  32.937 -16.517  1.00  0.00     0.126 C 
HETATM    8  O1  UNL     1      38.174  30.845 -16.306  1.00  0.00    -0.266 OA
ENDBRANCH   5   6
ENDBRANCH   1   5
BRANCH   1   9
HETATM    9  O3  UNL     1      38.812  31.000 -13.665  1.00  0.00    -0.354 OA
ATOM     10  H3  UNL     1      38.523  30.951 -12.762  1.00  0.00     0.214 HD
ENDBRANCH   1   9
TORSDOF 3
ENDMDL
MODEL 2
REMARK VINA RESULT: -4.703243094      8.353      9.438
REMARK  3 active torsions:
REMARK  status: ('A' for Active; 'I' for Inactive)
REMARK    1  A    between atoms: C2_2  and  O2_4 
REMARK    2  A    between atoms: O2_4  and  C3_5 
REMARK    3  A    between atoms: C3_5  and  O3_7 
ROOT
HETATM    1  C3  UNL     1      38.271  33.674  -6.020  1.00  0.00     0.258 C 
HETATM    2  C4  UNL     1      38.005  34.300  -7.340  1.00  0.00     0.097 C 
HETATM    3  C5  UNL     1      37.284  32.589  -5.820  1.00  0.00     0.128 C 
HETATM    4  N1  UNL     1      36.520  31.737  -5.650  1.00  0.00    -0.191 NA
ENDROOT
BRANCH   1   5
HETATM    5  O2  UNL     1      39.547  33.088  -5.901  1.00  0.00    -0.270 OA
BRANCH   5   6
HETATM    6  C2  UNL     1      40.661  33.859  -5.638  1.00  0.00     0.258 C 
HETATM    7  C1  UNL     1      41.639  34.238  -6.715  1.00  0.00     0.126 C 
HETATM    8  O1  UNL     1      40.827  34.236  -4.450  1.00  0.00    -0.266 OA
ENDBRANCH   5   6
ENDBRANCH   1   5
BRANCH   1   9
HETATM    9  O3  UNL     1      38.029  34.608  -5.010  1.00  0.00    -0.354 OA
ATOM     10  H3  UNL     1      38.133  35.500  -5.318  1.00  0.00     0.214 HD
ENDBRANCH   1   9
TORSDOF 3
ENDMDL
MODEL 3
REMARK VINA RESULT: -4.676942471      1.578      2.162
REMARK  3 active torsions:
REMARK  status: ('A' for Active; 'I' for Inactive)
REMARK    1  A    between atoms: C2_2  and  O2_4 
REMARK    2  A    between atoms: O2_4  and  C3_5 
REMARK    3  A    between atoms: C3_5  and  O3_7 
ROOT
HETATM    1  C3  UNL     1      38.920  33.075 -13.842  1.00  0.00     0.258 C 
HETATM    2  C4  UNL     1      38.161  33.660 -12.707  1.00  0.00     0.097 C 
HETATM    3  C5  UNL     1      40.077  32.338 -13.287  1.00  0.00     0.128 C 
HETATM    4  N1  UNL     1      40.985  31.756 -12.868  1.00  0.00    -0.191 NA
ENDROOT
BRANCH   1   5
HETATM    5  O2  UNL     1      38.188  32.155 -14.618  1.00  0.00    -0.270 OA
BRANCH   5   6
HETATM    6  C2  UNL     1      38.066  32.317 -15.984  1.00  0.00     0.258 C 
HETATM    7  C1  UNL     1      36.845  32.934 -16.607  1.00  0.00     0.126 C 
HETATM    8  O1  UNL     1      39.028  31.925 -16.693  1.00  0.00    -0.266 OA
ENDBRANCH   5   6
ENDBRANCH   1   5
BRANCH   1   9
HETATM    9  O3  UNL     1      39.455  34.106 -14.618  1.00  0.00    -0.354 OA
ATOM     10  H3  UNL     1      39.264  33.991 -15.541  1.00  0.00     0.214 HD
ENDBRANCH   1   9
TORSDOF 3
ENDMDL
MODEL 4
REMARK VINA RESULT: -4.652539850      6.361      7.349
REMARK  3 active torsions:
REMARK  status: ('A' for Active; 'I' for Inactive)
REMARK    1  A    between atoms: C2_2  and  O2_4 
REMARK    2  A    between atoms: O2_4  and  C3_5 
REMARK    3  A    between atoms: C3_5  and  O3_7 
ROOT
HETATM    1  C3  UNL     1      37.355  32.961  -7.067  1.00  0.00     0.258 C 
HETATM    2  C4  UNL     1      38.501  32.053  -7.327  1.00  0.00     0.097 C 
HETATM    3  C5  UNL     1      37.732  33.867  -5.959  1.00  0.00     0.128 C 
HETATM    4  N1  UNL     1      38.012  34.583  -5.094  1.00  0.00    -0.191 NA
ENDROOT
BRANCH   1   5
HETATM    5  O2  UNL     1      37.003  33.781  -8.157  1.00  0.00    -0.270 OA
BRANCH   5   6
HETATM    6  C2  UNL     1      36.091  33.354  -9.101  1.00  0.00     0.258 C 
HETATM    7  C1  UNL     1      36.518  32.672 -10.371  1.00  0.00     0.126 C 
HETATM    8  O1  UNL     1      34.875  33.562  -8.854  1.00  0.00    -0.266 OA
ENDBRANCH   5   6
ENDBRANCH   1   5
BRANCH   1   9
HETATM    9  O3  UNL     1      36.271  32.213  -6.604  1.00  0.00    -0.354 OA
ATOM     10  H3  UNL     1      35.915  32.566  -5.797  1.00  0.00     0.214 HD
ENDBRANCH   1   9
TORSDOF 3
ENDMDL
MODEL 5
REMARK VINA RESULT: -4.621966136      6.546      7.519
REMARK  3 active torsions:
REMARK  status: ('A' for Active; 'I' for Inactive)
REMARK    1  A    between atoms: C2_2  and  O2_4 
REMARK    2  A    between atoms: O2_4  and  C3_5 
REMARK    3  A    between atoms: C3_5  and  O3_7 
ROOT
HETATM    1  C3  UNL     1      36.950  31.336  -7.099  1.00  0.00     0.258 C 
HETATM    2  C4  UNL     1      37.807  30.153  -6.829  1.00  0.00     0.097 C 
HETATM    3  C5  UNL     1      37.375  32.424  -6.191  1.00  0.00     0.128 C 
HETATM    4  N1  UNL     1      37.697  33.286  -5.488  1.00  0.00    -0.191 NA
ENDROOT
BRANCH   1   5
HETATM    5  O2  UNL     1      37.051  31.841  -8.410  1.00  0.00    -0.270 OA
BRANCH   5   6
HETATM    6  C2  UNL     1      36.499  33.061  -8.745  1.00  0.00     0.258 C 
HETATM    7  C1  UNL     1      37.332  34.192  -9.282  1.00  0.00     0.126 C 
HETATM    8  O1  UNL     1      35.259  33.191  -8.580  1.00  0.00    -0.266 OA
ENDBRANCH   5   6
ENDBRANCH   1   5
BRANCH   1   9
HETATM    9  O3  UNL     1      35.631  31.037  -6.753  1.00  0.00    -0.354 OA
ATOM     10  H3  UNL     1      35.223  31.741  -6.263  1.00  0.00     0.214 HD
ENDBRANCH   1   9
TORSDOF 3
ENDMDL
