MODEL 1
REMARK VINA RESULT: -6.599216168      0.000      0.000
REMARK  7 active torsions:
REMARK  status: ('A' for Active; 'I' for Inactive)
REMARK    1  A    between atoms: C2_2  and  C4_4 
REMARK    2  A    between atoms: C5_5  and  O1_7 
REMARK    3  A    between atoms: C7_9  and  O2_10 
REMARK    4  A    between atoms: C14_19  and  C15_20 
REMARK    5  A    between atoms: C14_19  and  C17_22 
REMARK    6  A    between atoms: C17_22  and  C18_23 
REMARK    7  A    between atoms: C22_27  and  O5_28 
ROOT
HETATM    1  C4  UNL     1     -11.081  21.224   7.451  1.00  0.00    -0.017 C 
HETATM    2  C5  UNL     1     -11.421  20.152   6.464  1.00  0.00     0.105 C 
HETATM    3  C6  UNL     1     -12.867  20.267   5.943  1.00  0.00     0.053 C 
HETATM    4  C7  UNL     1     -11.275  18.763   6.985  1.00  0.00     0.159 C 
HETATM    5  C9  UNL     1     -12.019  18.623   8.293  1.00  0.00     0.041 C 
HETATM    6  C10 UNL     1     -11.555  19.585   9.300  1.00  0.00     0.009 C 
HETATM    7  C11 UNL     1     -10.226  19.131   9.844  1.00  0.00     0.011 C 
HETATM    8  C12 UNL     1     -11.573  21.017   8.830  1.00  0.00     0.107 C 
HETATM    9  C13 UNL     1     -10.918  21.915   9.784  1.00  0.00     0.276 C 
HETATM   10  O3  UNL     1      -9.765  21.824  10.332  1.00  0.00    -0.264 OA
HETATM   11  O4  UNL     1     -11.739  22.987  10.077  1.00  0.00    -0.306 OA
HETATM   12  C14 UNL     1     -13.063  22.574   9.974  1.00  0.00     0.101 C 
HETATM   13  C22 UNL     1     -13.028  21.472   8.975  1.00  0.00     0.176 C 
ENDROOT
BRANCH   1  14
HETATM   14  C2  UNL     1      -9.738  21.836   7.276  1.00  0.00    -0.065 C 
HETATM   15  C1  UNL     1      -9.515  23.131   7.114  1.00  0.00     0.019 C 
HETATM   16  C3  UNL     1      -8.460  21.025   7.354  1.00  0.00     0.047 C 
ENDBRANCH   1  14
BRANCH  13  17
HETATM   17  O5  UNL     1     -13.867  20.472   9.445  1.00  0.00    -0.391 OA
ATOM     18  H5  UNL     1     -13.525  20.028  10.212  1.00  0.00     0.210 HD
ENDBRANCH  13  17
BRANCH   2  19
HETATM   19  O1  UNL     1     -10.655  20.320   5.320  1.00  0.00    -0.383 OA
ATOM     20  H1  UNL     1      -9.912  19.729   5.348  1.00  0.00     0.211 HD
ENDBRANCH   2  19
BRANCH  12  21
HETATM   21  C15 UNL     1     -13.605  22.093  11.329  1.00  0.00     0.037 C 
HETATM   22  C16 UNL     1     -13.641  23.291  12.270  1.00  0.00     0.008 C 
ENDBRANCH  12  21
BRANCH  12  23
HETATM   23  C17 UNL     1     -13.938  23.746   9.584  1.00  0.00     0.069 C 
BRANCH  23  24
HETATM   24  C18 UNL     1     -15.205  23.369   8.953  1.00  0.00    -0.022 C 
HETATM   25  C19 UNL     1     -16.302  24.038   9.216  1.00  0.00    -0.091 C 
HETATM   26  C20 UNL     1     -16.308  25.192  10.152  1.00  0.00     0.042 C 
HETATM   27  C21 UNL     1     -17.573  23.632   8.560  1.00  0.00     0.042 C 
ENDBRANCH  23  24
ENDBRANCH  12  23
BRANCH   4  28
HETATM   28  O2  UNL     1     -11.884  17.892   6.081  1.00  0.00    -0.387 OA
HETATM   29  C8  UNL     1     -12.149  16.665   6.657  1.00  0.00     0.202 C 
ENDBRANCH   4  28
TORSDOF 7
ENDMDL
MODEL 2
REMARK VINA RESULT: -6.041743190      1.659      4.238
REMARK  7 active torsions:
REMARK  status: ('A' for Active; 'I' for Inactive)
REMARK    1  A    between atoms: C2_2  and  C4_4 
REMARK    2  A    between atoms: C5_5  and  O1_7 
REMARK    3  A    between atoms: C7_9  and  O2_10 
REMARK    4  A    between atoms: C14_19  and  C15_20 
REMARK    5  A    between atoms: C14_19  and  C17_22 
REMARK    6  A    between atoms: C17_22  and  C18_23 
REMARK    7  A    between atoms: C22_27  and  O5_28 
ROOT
HETATM    1  C4  UNL     1     -11.723  19.659   8.874  1.00  0.00    -0.017 C 
HETATM    2  C5  UNL     1     -10.236  19.629   8.715  1.00  0.00     0.105 C 
HETATM    3  C6  UNL     1      -9.525  20.653   9.621  1.00  0.00     0.053 C 
HETATM    4  C7  UNL     1      -9.756  19.896   7.329  1.00  0.00     0.159 C 
HETATM    5  C9  UNL     1     -10.384  21.167   6.804  1.00  0.00     0.041 C 
HETATM    6  C10 UNL     1     -11.851  21.108   6.822  1.00  0.00     0.009 C 
HETATM    7  C11 UNL     1     -12.328  20.237   5.690  1.00  0.00     0.011 C 
HETATM    8  C12 UNL     1     -12.431  20.748   8.166  1.00  0.00     0.107 C 
HETATM    9  C13 UNL     1     -13.873  20.505   8.093  1.00  0.00     0.276 C 
HETATM   10  O3  UNL     1     -14.535  19.748   7.300  1.00  0.00    -0.264 OA
HETATM   11  O4  UNL     1     -14.534  21.241   9.057  1.00  0.00    -0.306 OA
HETATM   12  C14 UNL     1     -13.817  22.408   9.294  1.00  0.00     0.101 C 
HETATM   13  C22 UNL     1     -12.409  22.045   8.978  1.00  0.00     0.176 C 
ENDROOT
BRANCH   1  14
HETATM   14  C2  UNL     1     -12.376  18.326   8.930  1.00  0.00    -0.065 C 
HETATM   15  C1  UNL     1     -13.144  17.903   9.922  1.00  0.00     0.019 C 
HETATM   16  C3  UNL     1     -12.293  17.332   7.787  1.00  0.00     0.047 C 
ENDBRANCH   1  14
BRANCH  13  17
HETATM   17  O5  UNL     1     -11.861  23.114   8.283  1.00  0.00    -0.391 OA
ATOM     18  H5  UNL     1     -11.874  23.926   8.776  1.00  0.00     0.210 HD
ENDBRANCH  13  17
BRANCH   2  19
HETATM   19  O1  UNL     1      -9.749  18.411   9.166  1.00  0.00    -0.383 OA
ATOM     20  H1  UNL     1     -10.337  18.060   9.824  1.00  0.00     0.211 HD
ENDBRANCH   2  19
BRANCH  12  21
HETATM   21  C15 UNL     1     -14.317  23.561   8.409  1.00  0.00     0.037 C 
HETATM   22  C16 UNL     1     -15.683  23.990   8.929  1.00  0.00     0.008 C 
ENDBRANCH  12  21
BRANCH  12  23
HETATM   23  C17 UNL     1     -14.040  22.869  10.718  1.00  0.00     0.069 C 
BRANCH  23  24
HETATM   24  C18 UNL     1     -13.031  22.398  11.670  1.00  0.00    -0.022 C 
HETATM   25  C19 UNL     1     -12.087  23.207  12.091  1.00  0.00    -0.091 C 
HETATM   26  C20 UNL     1     -12.004  24.617  11.628  1.00  0.00     0.042 C 
HETATM   27  C21 UNL     1     -11.077  22.702  13.057  1.00  0.00     0.042 C 
ENDBRANCH  23  24
ENDBRANCH  12  23
BRANCH   4  28
HETATM   28  O2  UNL     1      -8.381  20.119   7.379  1.00  0.00    -0.387 OA
HETATM   29  C8  UNL     1      -7.921  20.720   6.224  1.00  0.00     0.202 C 
ENDBRANCH   4  28
TORSDOF 7
ENDMDL
MODEL 3
REMARK VINA RESULT: -6.020124592      2.209      3.919
REMARK  7 active torsions:
REMARK  status: ('A' for Active; 'I' for Inactive)
REMARK    1  A    between atoms: C2_2  and  C4_4 
REMARK    2  A    between atoms: C5_5  and  O1_7 
REMARK    3  A    between atoms: C7_9  and  O2_10 
REMARK    4  A    between atoms: C14_19  and  C15_20 
REMARK    5  A    between atoms: C14_19  and  C17_22 
REMARK    6  A    between atoms: C17_22  and  C18_23 
REMARK    7  A    between atoms: C22_27  and  O5_28 
ROOT
HETATM    1  C4  UNL     1     -11.797  18.999   6.913  1.00  0.00    -0.017 C 
HETATM    2  C5  UNL     1     -11.996  19.156   5.438  1.00  0.00     0.105 C 
HETATM    3  C6  UNL     1     -11.696  20.588   4.952  1.00  0.00     0.053 C 
HETATM    4  C7  UNL     1     -13.372  18.836   4.963  1.00  0.00     0.159 C 
HETATM    5  C9  UNL     1     -14.390  19.593   5.784  1.00  0.00     0.041 C 
HETATM    6  C10 UNL     1     -14.276  19.298   7.218  1.00  0.00     0.009 C 
HETATM    7  C11 UNL     1     -14.859  17.936   7.492  1.00  0.00     0.011 C 
HETATM    8  C12 UNL     1     -12.890  19.500   7.774  1.00  0.00     0.107 C 
HETATM    9  C13 UNL     1     -12.773  19.006   9.148  1.00  0.00     0.276 C 
HETATM   10  O3  UNL     1     -13.099  17.869   9.637  1.00  0.00    -0.264 OA
HETATM   11  O4  UNL     1     -12.223  19.976   9.963  1.00  0.00    -0.306 OA
HETATM   12  C14 UNL     1     -12.582  21.226   9.471  1.00  0.00     0.101 C 
HETATM   13  C22 UNL     1     -12.764  21.008   8.010  1.00  0.00     0.176 C 
ENDROOT
BRANCH   1  14
HETATM   14  C2  UNL     1     -11.105  17.750   7.323  1.00  0.00    -0.065 C 
HETATM   15  C1  UNL     1     -11.559  16.527   7.098  1.00  0.00     0.019 C 
HETATM   16  C3  UNL     1      -9.738  17.758   7.979  1.00  0.00     0.047 C 
ENDBRANCH   1  14
BRANCH  13  17
HETATM   17  O5  UNL     1     -13.898  21.715   7.633  1.00  0.00    -0.391 OA
ATOM     18  H5  UNL     1     -14.282  21.399   6.824  1.00  0.00     0.210 HD
ENDBRANCH  13  17
BRANCH   2  19
HETATM   19  O1  UNL     1     -11.062  18.387   4.762  1.00  0.00    -0.383 OA
ATOM     20  H1  UNL     1     -11.280  18.366   3.838  1.00  0.00     0.211 HD
ENDBRANCH   2  19
BRANCH  12  21
HETATM   21  C15 UNL     1     -13.871  21.738  10.132  1.00  0.00     0.037 C 
HETATM   22  C16 UNL     1     -13.495  22.352  11.475  1.00  0.00     0.008 C 
ENDBRANCH  12  21
BRANCH  12  23
HETATM   23  C17 UNL     1     -11.517  22.243   9.824  1.00  0.00     0.069 C 
BRANCH  23  24
HETATM   24  C18 UNL     1     -11.011  23.007   8.682  1.00  0.00    -0.022 C 
HETATM   25  C19 UNL     1     -10.372  24.137   8.869  1.00  0.00    -0.091 C 
HETATM   26  C20 UNL     1     -10.136  24.684  10.232  1.00  0.00     0.042 C 
HETATM   27  C21 UNL     1      -9.869  24.890   7.691  1.00  0.00     0.042 C 
ENDBRANCH  23  24
ENDBRANCH  12  23
BRANCH   4  28
HETATM   28  O2  UNL     1     -13.497  19.290   3.650  1.00  0.00    -0.387 OA
HETATM   29  C8  UNL     1     -14.281  18.444   2.892  1.00  0.00     0.202 C 
ENDBRANCH   4  28
TORSDOF 7
ENDMDL
MODEL 4
REMARK VINA RESULT: -6.004177425      2.200      4.554
REMARK  7 active torsions:
REMARK  status: ('A' for Active; 'I' for Inactive)
REMARK    1  A    between atoms: C2_2  and  C4_4 
REMARK    2  A    between atoms: C5_5  and  O1_7 
REMARK    3  A    between atoms: C7_9  and  O2_10 
REMARK    4  A    between atoms: C14_19  and  C15_20 
REMARK    5  A    between atoms: C14_19  and  C17_22 
REMARK    6  A    between atoms: C17_22  and  C18_23 
REMARK    7  A    between atoms: C22_27  and  O5_28 
ROOT
HETATM    1  C4  UNL     1     -13.934  17.824   5.609  1.00  0.00    -0.017 C 
HETATM    2  C5  UNL     1     -14.091  16.339   5.701  1.00  0.00     0.105 C 
HETATM    3  C6  UNL     1     -14.583  15.882   7.088  1.00  0.00     0.053 C 
HETATM    4  C7  UNL     1     -12.844  15.568   5.428  1.00  0.00     0.159 C 
HETATM    5  C9  UNL     1     -11.713  16.100   6.277  1.00  0.00     0.041 C 
HETATM    6  C10 UNL     1     -11.476  17.531   6.050  1.00  0.00     0.009 C 
HETATM    7  C11 UNL     1     -10.762  17.713   4.736  1.00  0.00     0.011 C 
HETATM    8  C12 UNL     1     -12.706  18.387   6.210  1.00  0.00     0.107 C 
HETATM    9  C13 UNL     1     -12.472  19.767   5.781  1.00  0.00     0.276 C 
HETATM   10  O3  UNL     1     -11.973  20.210   4.688  1.00  0.00    -0.264 OA
HETATM   11  O4  UNL     1     -12.878  20.651   6.762  1.00  0.00    -0.306 OA
HETATM   12  C14 UNL     1     -12.720  20.042   8.002  1.00  0.00     0.101 C 
HETATM   13  C22 UNL     1     -12.866  18.588   7.719  1.00  0.00     0.176 C 
ENDROOT
BRANCH   1  14
HETATM   14  C2  UNL     1     -14.435  18.431   4.349  1.00  0.00    -0.065 C 
HETATM   15  C1  UNL     1     -15.368  19.368   4.282  1.00  0.00     0.019 C 
HETATM   16  C3  UNL     1     -13.848  18.088   2.994  1.00  0.00     0.047 C 
ENDBRANCH   1  14
BRANCH  13  17
HETATM   17  O5  UNL     1     -11.896  17.931   8.462  1.00  0.00    -0.391 OA
ATOM     18  H5  UNL     1     -11.142  18.475   8.655  1.00  0.00     0.210 HD
ENDBRANCH  13  17
BRANCH   2  19
HETATM   19  O1  UNL     1     -15.106  15.929   4.851  1.00  0.00    -0.383 OA
ATOM     20  H1  UNL     1     -14.855  15.117   4.427  1.00  0.00     0.211 HD
ENDBRANCH   2  19
BRANCH  12  21
HETATM   21  C15 UNL     1     -11.347  20.365   8.612  1.00  0.00     0.037 C 
HETATM   22  C16 UNL     1     -10.951  21.764   8.158  1.00  0.00     0.008 C 
ENDBRANCH  12  21
BRANCH  12  23
HETATM   23  C17 UNL     1     -13.735  20.594   8.979  1.00  0.00     0.069 C 
BRANCH  23  24
HETATM   24  C18 UNL     1     -14.503  21.734   8.471  1.00  0.00    -0.022 C 
HETATM   25  C19 UNL     1     -14.524  22.868   9.131  1.00  0.00    -0.091 C 
HETATM   26  C20 UNL     1     -13.780  23.044  10.405  1.00  0.00     0.042 C 
HETATM   27  C21 UNL     1     -15.312  24.006   8.590  1.00  0.00     0.042 C 
ENDBRANCH  23  24
ENDBRANCH  12  23
BRANCH   4  28
HETATM   28  O2  UNL     1     -13.054  14.246   5.820  1.00  0.00    -0.387 OA
HETATM   29  C8  UNL     1     -11.873  13.631   6.185  1.00  0.00     0.202 C 
ENDBRANCH   4  28
TORSDOF 7
ENDMDL
MODEL 5
REMARK VINA RESULT: -5.918480833      1.371      1.765
REMARK  7 active torsions:
REMARK  status: ('A' for Active; 'I' for Inactive)
REMARK    1  A    between atoms: C2_2  and  C4_4 
REMARK    2  A    between atoms: C5_5  and  O1_7 
REMARK    3  A    between atoms: C7_9  and  O2_10 
REMARK    4  A    between atoms: C14_19  and  C15_20 
REMARK    5  A    between atoms: C14_19  and  C17_22 
REMARK    6  A    between atoms: C17_22  and  C18_23 
REMARK    7  A    between atoms: C22_27  and  O5_28 
ROOT
HETATM    1  C4  UNL     1     -10.643  22.239   8.043  1.00  0.00    -0.017 C 
HETATM    2  C5  UNL     1     -10.269  21.058   7.204  1.00  0.00     0.105 C 
HETATM    3  C6  UNL     1     -11.477  20.457   6.459  1.00  0.00     0.053 C 
HETATM    4  C7  UNL     1      -9.647  19.935   7.961  1.00  0.00     0.159 C 
HETATM    5  C9  UNL     1     -10.511  19.571   9.146  1.00  0.00     0.041 C 
HETATM    6  C10 UNL     1     -10.732  20.714  10.041  1.00  0.00     0.009 C 
HETATM    7  C11 UNL     1      -9.484  20.963  10.847  1.00  0.00     0.011 C 
HETATM    8  C12 UNL     1     -11.273  21.938   9.346  1.00  0.00     0.107 C 
HETATM    9  C13 UNL     1     -11.289  23.107  10.228  1.00  0.00     0.276 C 
HETATM   10  O3  UNL     1     -10.353  23.597  10.952  1.00  0.00    -0.264 OA
HETATM   11  O4  UNL     1     -12.535  23.702  10.215  1.00  0.00    -0.306 OA
HETATM   12  C14 UNL     1     -13.494  22.723   9.982  1.00  0.00     0.101 C 
HETATM   13  C22 UNL     1     -12.775  21.685   9.193  1.00  0.00     0.176 C 
ENDROOT
BRANCH   1  14
HETATM   14  C2  UNL     1      -9.697  23.383   7.975  1.00  0.00    -0.065 C 
HETATM   15  C1  UNL     1     -10.032  24.621   7.644  1.00  0.00     0.019 C 
HETATM   16  C3  UNL     1      -8.239  23.255   8.370  1.00  0.00     0.047 C 
ENDBRANCH   1  14
BRANCH  13  17
HETATM   17  O5  UNL     1     -13.174  20.452   9.688  1.00  0.00    -0.391 OA
ATOM     18  H5  UNL     1     -13.641  19.927   9.049  1.00  0.00     0.210 HD
ENDBRANCH  13  17
BRANCH   2  19
HETATM   19  O1  UNL     1      -9.433  21.468   6.177  1.00  0.00    -0.383 OA
ATOM     20  H1  UNL     1      -8.854  22.151   6.495  1.00  0.00     0.211 HD
ENDBRANCH   2  19
BRANCH  12  21
HETATM   21  C15 UNL     1     -14.042  22.154  11.300  1.00  0.00     0.037 C 
HETATM   22  C16 UNL     1     -13.495  23.003  12.439  1.00  0.00     0.008 C 
ENDBRANCH  12  21
BRANCH  12  23
HETATM   23  C17 UNL     1     -14.688  23.330   9.277  1.00  0.00     0.069 C 
BRANCH  23  24
HETATM   24  C18 UNL     1     -15.434  24.300  10.082  1.00  0.00    -0.022 C 
HETATM   25  C19 UNL     1     -16.707  24.516   9.851  1.00  0.00    -0.091 C 
HETATM   26  C20 UNL     1     -17.438  23.795   8.777  1.00  0.00     0.042 C 
HETATM   27  C21 UNL     1     -17.437  25.506  10.685  1.00  0.00     0.042 C 
ENDBRANCH  23  24
ENDBRANCH  12  23
BRANCH   4  28
HETATM   28  O2  UNL     1      -9.613  18.815   7.130  1.00  0.00    -0.387 OA
HETATM   29  C8  UNL     1      -8.919  17.772   7.711  1.00  0.00     0.202 C 
ENDBRANCH   4  28
TORSDOF 7
ENDMDL
