MODEL 1
REMARK VINA RESULT: -7.750207696      0.000      0.000
REMARK  2 active torsions:
REMARK  status: ('A' for Active; 'I' for Inactive)
REMARK    1  A    between atoms: C3_6  and  C4_7 
REMARK    2  A    between atoms: C9_16  and  N4_17 
ROOT
HETATM    1  N1  UNL     1      15.808  33.459  81.195  1.00  0.00    -0.190 NA
HETATM    2  C1  UNL     1      15.711  33.600  80.050  1.00  0.00     0.120 C 
HETATM    3  C2  UNL     1      15.588  33.807  78.602  1.00  0.00     0.148 A 
HETATM    4  N2  UNL     1      15.552  35.001  78.079  1.00  0.00    -0.343 N 
ATOM      5  H2  UNL     1      15.612  35.818  78.688  1.00  0.00     0.167 HD
HETATM    6  C3  UNL     1      15.442  35.167  76.789  1.00  0.00     0.059 A 
HETATM    7  S1  UNL     1      15.381  33.540  76.232  1.00  0.00    -0.056 SA
HETATM    8  C9  UNL     1      15.505  32.743  77.741  1.00  0.00     0.112 A 
ENDROOT
BRANCH   8   9
HETATM    9  N4  UNL     1      15.518  31.337  78.022  1.00  0.00    -0.373 N 
HETATM   10  C10 UNL     1      16.709  30.692  78.548  1.00  0.00     0.123 C 
HETATM   11  C11 UNL     1      16.082  29.578  79.374  1.00  0.00     0.021 C 
HETATM   12  C12 UNL     1      15.037  29.077  78.368  1.00  0.00     0.021 C 
HETATM   13  C13 UNL     1      14.476  30.373  77.861  1.00  0.00     0.123 C 
ENDBRANCH   8   9
BRANCH   6  14
HETATM   14  C4  UNL     1      15.378  36.377  75.935  1.00  0.00     0.068 C 
HETATM   15  C5  UNL     1      14.877  36.108  74.556  1.00  0.00     0.014 C 
HETATM   16  C6  UNL     1      15.105  37.375  73.756  1.00  0.00     0.028 C 
HETATM   17  C7  UNL     1      14.584  38.600  74.417  1.00  0.00     0.232 C 
HETATM   18  N3  UNL     1      14.817  38.676  75.827  1.00  0.00    -0.074 N 
HETATM   19  C8  UNL     1      14.496  37.455  76.532  1.00  0.00     0.243 C 
ATOM     20  H32 UNL     1      15.778  38.961  76.019  1.00  0.00     0.277 HD
ATOM     21  H31 UNL     1      14.320  39.468  76.233  1.00  0.00     0.277 HD
ENDBRANCH   6  14
TORSDOF 2
ENDMDL
MODEL 2
REMARK VINA RESULT: -7.477010642      1.956      6.387
REMARK  2 active torsions:
REMARK  status: ('A' for Active; 'I' for Inactive)
REMARK    1  A    between atoms: C3_6  and  C4_7 
REMARK    2  A    between atoms: C9_16  and  N4_17 
ROOT
HETATM    1  N1  UNL     1      14.862  37.929  75.636  1.00  0.00    -0.190 NA
HETATM    2  C1  UNL     1      15.033  36.832  75.966  1.00  0.00     0.120 C 
HETATM    3  C2  UNL     1      15.255  35.451  76.410  1.00  0.00     0.148 A 
HETATM    4  N2  UNL     1      15.573  35.168  77.642  1.00  0.00    -0.343 N 
ATOM      5  H2  UNL     1      15.671  35.923  78.322  1.00  0.00     0.167 HD
HETATM    6  C3  UNL     1      15.767  33.934  78.020  1.00  0.00     0.059 A 
HETATM    7  S1  UNL     1      15.491  33.073  76.555  1.00  0.00    -0.056 SA
HETATM    8  C9  UNL     1      15.136  34.401  75.535  1.00  0.00     0.112 A 
ENDROOT
BRANCH   8   9
HETATM    9  N4  UNL     1      14.803  34.406  74.141  1.00  0.00    -0.373 N 
HETATM   10  C10 UNL     1      13.434  34.204  73.700  1.00  0.00     0.123 C 
HETATM   11  C11 UNL     1      13.428  35.029  72.421  1.00  0.00     0.021 C 
HETATM   12  C12 UNL     1      14.753  34.555  71.810  1.00  0.00     0.021 C 
HETATM   13  C13 UNL     1      15.655  34.589  73.008  1.00  0.00     0.123 C 
ENDBRANCH   8   9
BRANCH   6  14
HETATM   14  C4  UNL     1      16.129  33.328  79.324  1.00  0.00     0.068 C 
HETATM   15  C5  UNL     1      15.428  33.948  80.485  1.00  0.00     0.014 C 
HETATM   16  C6  UNL     1      16.083  33.394  81.734  1.00  0.00     0.028 C 
HETATM   17  C7  UNL     1      16.187  31.911  81.746  1.00  0.00     0.232 C 
HETATM   18  N3  UNL     1      16.568  31.319  80.500  1.00  0.00    -0.074 N 
HETATM   19  C8  UNL     1      15.839  31.841  79.365  1.00  0.00     0.243 C 
ATOM     20  H32 UNL     1      17.574  31.405  80.352  1.00  0.00     0.277 HD
ATOM     21  H31 UNL     1      16.489  30.304  80.543  1.00  0.00     0.277 HD
ENDBRANCH   6  14
TORSDOF 2
ENDMDL
MODEL 3
REMARK VINA RESULT: -7.404118555      2.283      6.835
REMARK  2 active torsions:
REMARK  status: ('A' for Active; 'I' for Inactive)
REMARK    1  A    between atoms: C3_6  and  C4_7 
REMARK    2  A    between atoms: C9_16  and  N4_17 
ROOT
HETATM    1  N1  UNL     1      16.548  32.594  72.773  1.00  0.00    -0.190 NA
HETATM    2  C1  UNL     1      16.312  33.061  73.806  1.00  0.00     0.120 C 
HETATM    3  C2  UNL     1      16.022  33.628  75.128  1.00  0.00     0.148 A 
HETATM    4  N2  UNL     1      16.331  33.001  76.228  1.00  0.00    -0.343 N 
ATOM      5  H2  UNL     1      16.788  32.090  76.176  1.00  0.00     0.167 HD
HETATM    6  C3  UNL     1      16.066  33.521  77.396  1.00  0.00     0.059 A 
HETATM    7  S1  UNL     1      15.323  35.009  76.955  1.00  0.00    -0.056 SA
HETATM    8  C9  UNL     1      15.410  34.850  75.253  1.00  0.00     0.112 A 
ENDROOT
BRANCH   8   9
HETATM    9  N4  UNL     1      14.961  35.756  74.236  1.00  0.00    -0.373 N 
HETATM   10  C10 UNL     1      15.080  37.193  74.411  1.00  0.00     0.123 C 
HETATM   11  C11 UNL     1      15.261  37.636  72.967  1.00  0.00     0.021 C 
HETATM   12  C12 UNL     1      14.158  36.799  72.307  1.00  0.00     0.021 C 
HETATM   13  C13 UNL     1      14.365  35.469  72.970  1.00  0.00     0.123 C 
ENDBRANCH   8   9
BRANCH   6  14
HETATM   14  C4  UNL     1      16.298  33.047  78.782  1.00  0.00     0.068 C 
HETATM   15  C5  UNL     1      15.477  33.762  79.801  1.00  0.00     0.014 C 
HETATM   16  C6  UNL     1      16.005  33.339  81.158  1.00  0.00     0.028 C 
HETATM   17  C7  UNL     1      16.119  31.866  81.322  1.00  0.00     0.232 C 
HETATM   18  N3  UNL     1      16.630  31.166  80.182  1.00  0.00    -0.074 N 
HETATM   19  C8  UNL     1      16.016  31.566  78.936  1.00  0.00     0.243 C 
ATOM     20  H32 UNL     1      17.645  31.256  80.130  1.00  0.00     0.277 HD
ATOM     21  H31 UNL     1      16.555  30.158  80.314  1.00  0.00     0.277 HD
ENDBRANCH   6  14
TORSDOF 2
ENDMDL
MODEL 4
REMARK VINA RESULT: -7.381455524      4.524      5.503
REMARK  2 active torsions:
REMARK  status: ('A' for Active; 'I' for Inactive)
REMARK    1  A    between atoms: C3_6  and  C4_7 
REMARK    2  A    between atoms: C9_16  and  N4_17 
ROOT
HETATM    1  N1  UNL     1      17.569  32.423  77.024  1.00  0.00    -0.190 NA
HETATM    2  C1  UNL     1      17.039  32.746  76.046  1.00  0.00     0.120 C 
HETATM    3  C2  UNL     1      16.344  33.157  74.821  1.00  0.00     0.148 A 
HETATM    4  N2  UNL     1      15.090  33.511  74.829  1.00  0.00    -0.343 N 
ATOM      5  H2  UNL     1      14.571  33.505  75.707  1.00  0.00     0.167 HD
HETATM    6  C3  UNL     1      14.486  33.875  73.729  1.00  0.00     0.059 A 
HETATM    7  S1  UNL     1      15.750  33.719  72.571  1.00  0.00    -0.056 SA
HETATM    8  C9  UNL     1      16.996  33.183  73.614  1.00  0.00     0.112 A 
ENDROOT
BRANCH   8   9
HETATM    9  N4  UNL     1      18.356  32.853  73.302  1.00  0.00    -0.373 N 
HETATM   10  C10 UNL     1      18.721  32.353  71.988  1.00  0.00     0.123 C 
HETATM   11  C11 UNL     1      20.140  32.891  71.869  1.00  0.00     0.021 C 
HETATM   12  C12 UNL     1      20.668  32.517  73.261  1.00  0.00     0.021 C 
HETATM   13  C13 UNL     1      19.518  32.934  74.130  1.00  0.00     0.123 C 
ENDBRANCH   8   9
BRANCH   6  14
HETATM   14  C4  UNL     1      13.100  34.318  73.444  1.00  0.00     0.068 C 
HETATM   15  C5  UNL     1      12.910  35.792  73.559  1.00  0.00     0.014 C 
HETATM   16  C6  UNL     1      11.418  36.044  73.482  1.00  0.00     0.028 C 
HETATM   17  C7  UNL     1      10.759  35.386  72.324  1.00  0.00     0.232 C 
HETATM   18  N3  UNL     1      11.204  34.053  72.050  1.00  0.00    -0.074 N 
HETATM   19  C8  UNL     1      12.644  33.912  72.057  1.00  0.00     0.243 C 
ATOM     20  H32 UNL     1      10.773  33.390  72.693  1.00  0.00     0.277 HD
ATOM     21  H31 UNL     1      10.813  33.716  71.170  1.00  0.00     0.277 HD
ENDBRANCH   6  14
TORSDOF 2
ENDMDL
MODEL 5
REMARK VINA RESULT: -7.374295975      2.890      6.737
REMARK  2 active torsions:
REMARK  status: ('A' for Active; 'I' for Inactive)
REMARK    1  A    between atoms: C3_6  and  C4_7 
REMARK    2  A    between atoms: C9_16  and  N4_17 
ROOT
HETATM    1  N1  UNL     1      18.468  32.410  72.760  1.00  0.00    -0.190 NA
HETATM    2  C1  UNL     1      17.789  32.753  73.633  1.00  0.00     0.120 C 
HETATM    3  C2  UNL     1      16.944  33.171  74.758  1.00  0.00     0.148 A 
HETATM    4  N2  UNL     1      17.191  32.794  75.981  1.00  0.00    -0.343 N 
ATOM      5  H2  UNL     1      17.993  32.191  76.168  1.00  0.00     0.167 HD
HETATM    6  C3  UNL     1      16.429  33.176  76.969  1.00  0.00     0.059 A 
HETATM    7  S1  UNL     1      15.261  34.143  76.156  1.00  0.00    -0.056 SA
HETATM    8  C9  UNL     1      15.855  33.982  74.559  1.00  0.00     0.112 A 
ENDROOT
BRANCH   8   9
HETATM    9  N4  UNL     1      15.345  34.546  73.344  1.00  0.00    -0.373 N 
HETATM   10  C10 UNL     1      15.007  35.957  73.260  1.00  0.00     0.123 C 
HETATM   11  C11 UNL     1      15.299  36.227  71.791  1.00  0.00     0.021 C 
HETATM   12  C12 UNL     1      14.620  34.999  71.170  1.00  0.00     0.021 C 
HETATM   13  C13 UNL     1      15.087  33.910  72.090  1.00  0.00     0.123 C 
ENDBRANCH   8   9
BRANCH   6  14
HETATM   14  C4  UNL     1      16.468  32.909  78.427  1.00  0.00     0.068 C 
HETATM   15  C5  UNL     1      15.514  33.746  79.212  1.00  0.00     0.014 C 
HETATM   16  C6  UNL     1      15.851  33.531  80.674  1.00  0.00     0.028 C 
HETATM   17  C7  UNL     1      15.940  32.099  81.063  1.00  0.00     0.232 C 
HETATM   18  N3  UNL     1      16.603  31.254  80.116  1.00  0.00    -0.074 N 
HETATM   19  C8  UNL     1      16.167  31.460  78.753  1.00  0.00     0.243 C 
ATOM     20  H32 UNL     1      17.616  31.355  80.190  1.00  0.00     0.277 HD
ATOM     21  H31 UNL     1      16.510  30.274  80.381  1.00  0.00     0.277 HD
ENDBRANCH   6  14
TORSDOF 2
ENDMDL
