MODEL 1
REMARK VINA RESULT: -7.480227742      0.000      0.000
REMARK  9 active torsions:
REMARK  status: ('A' for Active; 'I' for Inactive)
REMARK    1  A    between atoms: C2_2  and  C3_3 
REMARK    2  A    between atoms: C3_3  and  N1_4 
REMARK    3  A    between atoms: C3_3  and  C19_24 
REMARK       I    between atoms: N1_4  and  C4_6 
REMARK       I    between atoms: C4_6  and  N2_8 
REMARK    4  A    between atoms: N2_8  and  C5_10 
REMARK    5  A    between atoms: C5_10  and  C6_11 
REMARK    6  A    between atoms: C5_10  and  C9_14 
REMARK       I    between atoms: C19_24  and  N3_26 
REMARK    7  A    between atoms: N3_26  and  C20_28 
REMARK    8  A    between atoms: C20_28  and  C21_29 
REMARK    9  A    between atoms: C20_28  and  C23_34 
REMARK       I    between atoms: C21_29  and  N4_31 
ROOT
HETATM    1  N1  UNL     1      39.632 -20.415  27.626  1.00  0.00    -0.330 N 
ATOM      2  H1  UNL     1      40.489 -20.390  27.074  1.00  0.00     0.165 HD
HETATM    3  C4  UNL     1      38.430 -20.821  26.989  1.00  0.00     0.317 C 
HETATM    4  O1  UNL     1      37.364 -20.749  27.642  1.00  0.00    -0.247 OA
HETATM    5  N2  UNL     1      38.449 -21.302  25.653  1.00  0.00    -0.337 N 
ATOM      6  H2  UNL     1      39.325 -21.375  25.135  1.00  0.00     0.164 HD
ENDROOT
BRANCH   1   7
HETATM    7  C3  UNL     1      39.698 -20.043  28.994  1.00  0.00     0.178 C 
BRANCH   7   8
HETATM    8  C2  UNL     1      41.032 -20.532  29.560  1.00  0.00     0.030 C 
HETATM    9  C1  UNL     1      42.085 -20.353  28.481  1.00  0.00     0.007 C 
ENDBRANCH   7   8
BRANCH   7  10
HETATM   10  C19 UNL     1      39.467 -18.630  29.346  1.00  0.00     0.241 C 
HETATM   11  O2  UNL     1      39.727 -18.181  30.466  1.00  0.00    -0.271 OA
HETATM   12  N3  UNL     1      38.926 -17.771  28.353  1.00  0.00    -0.346 N 
ATOM     13  H3  UNL     1      38.746 -18.209  27.449  1.00  0.00     0.163 HD
BRANCH  12  14
HETATM   14  C20 UNL     1      38.593 -16.366  28.436  1.00  0.00     0.180 C 
BRANCH  14  15
HETATM   15  C21 UNL     1      37.216 -16.220  28.856  1.00  0.00     0.240 C 
HETATM   16  O3  UNL     1      36.491 -17.230  29.178  1.00  0.00    -0.271 OA
HETATM   17  N4  UNL     1      36.575 -14.973  28.940  1.00  0.00    -0.364 N 
HETATM   18  C22 UNL     1      35.174 -14.810  29.361  1.00  0.00     0.149 C 
ATOM     19  H4  UNL     1      37.107 -14.137  28.697  1.00  0.00     0.161 HD
ENDBRANCH  14  15
BRANCH  14  20
HETATM   20  C23 UNL     1      38.822 -15.704  27.081  1.00  0.00     0.009 C 
HETATM   21  C24 UNL     1      40.149 -16.218  26.512  1.00  0.00     0.012 C 
HETATM   22  C25 UNL     1      37.789 -16.171  26.058  1.00  0.00     0.012 C 
ENDBRANCH  14  20
ENDBRANCH  12  14
ENDBRANCH   7  10
ENDBRANCH   1   7
BRANCH   5  23
HETATM   23  C5  UNL     1      37.149 -21.697  25.025  1.00  0.00     0.098 C 
BRANCH  23  24
HETATM   24  C6  UNL     1      37.218 -23.161  24.880  1.00  0.00     0.001 C 
HETATM   25  C7  UNL     1      35.882 -23.897  24.931  1.00  0.00     0.011 C 
HETATM   26  C8  UNL     1      38.282 -23.902  25.609  1.00  0.00     0.011 C 
ENDBRANCH  23  24
BRANCH  23  27
HETATM   27  C9  UNL     1      36.844 -20.774  23.956  1.00  0.00    -0.018 C 
HETATM   28  C10 UNL     1      37.304 -19.344  24.238  1.00  0.00     0.016 C 
HETATM   29  C11 UNL     1      37.181 -18.437  23.066  1.00  0.00    -0.013 C 
HETATM   30  C12 UNL     1      35.728 -18.460  22.633  1.00  0.00     0.009 C 
HETATM   31  C16 UNL     1      38.051 -18.890  21.912  1.00  0.00     0.009 C 
HETATM   32  C13 UNL     1      35.389 -19.846  22.202  1.00  0.00    -0.013 C 
HETATM   33  C14 UNL     1      36.282 -20.358  21.087  1.00  0.00     0.009 C 
HETATM   34  C18 UNL     1      35.476 -20.850  23.358  1.00  0.00     0.016 C 
HETATM   35  C15 UNL     1      37.691 -20.323  21.629  1.00  0.00    -0.013 C 
HETATM   36  C17 UNL     1      37.804 -21.197  22.817  1.00  0.00     0.016 C 
ENDBRANCH  23  27
ENDBRANCH   5  23
TORSDOF 9
ENDMDL
MODEL 2
REMARK VINA RESULT: -7.293423216      3.323      7.490
REMARK  9 active torsions:
REMARK  status: ('A' for Active; 'I' for Inactive)
REMARK    1  A    between atoms: C2_2  and  C3_3 
REMARK    2  A    between atoms: C3_3  and  N1_4 
REMARK    3  A    between atoms: C3_3  and  C19_24 
REMARK       I    between atoms: N1_4  and  C4_6 
REMARK       I    between atoms: C4_6  and  N2_8 
REMARK    4  A    between atoms: N2_8  and  C5_10 
REMARK    5  A    between atoms: C5_10  and  C6_11 
REMARK    6  A    between atoms: C5_10  and  C9_14 
REMARK       I    between atoms: C19_24  and  N3_26 
REMARK    7  A    between atoms: N3_26  and  C20_28 
REMARK    8  A    between atoms: C20_28  and  C21_29 
REMARK    9  A    between atoms: C20_28  and  C23_34 
REMARK       I    between atoms: C21_29  and  N4_31 
ROOT
HETATM    1  N1  UNL     1      40.060 -20.784  29.607  1.00  0.00    -0.330 N 
ATOM      2  H1  UNL     1      39.672 -20.868  30.546  1.00  0.00     0.165 HD
HETATM    3  C4  UNL     1      41.151 -21.619  29.250  1.00  0.00     0.317 C 
HETATM    4  O1  UNL     1      41.692 -21.438  28.135  1.00  0.00    -0.247 OA
HETATM    5  N2  UNL     1      41.604 -22.631  30.137  1.00  0.00    -0.337 N 
ATOM      6  H2  UNL     1      41.146 -22.784  31.036  1.00  0.00     0.164 HD
ENDROOT
BRANCH   1   7
HETATM    7  C3  UNL     1      39.482 -19.839  28.719  1.00  0.00     0.178 C 
BRANCH   7   8
HETATM    8  C2  UNL     1      38.173 -20.420  28.184  1.00  0.00     0.030 C 
HETATM    9  C1  UNL     1      38.425 -20.894  26.764  1.00  0.00     0.007 C 
ENDBRANCH   7   8
BRANCH   7  10
HETATM   10  C19 UNL     1      39.284 -18.459  29.201  1.00  0.00     0.241 C 
HETATM   11  O2  UNL     1      39.600 -18.109  30.341  1.00  0.00    -0.271 OA
HETATM   12  N3  UNL     1      38.708 -17.515  28.311  1.00  0.00    -0.346 N 
ATOM     13  H3  UNL     1      38.482 -17.872  27.383  1.00  0.00     0.163 HD
BRANCH  12  14
HETATM   14  C20 UNL     1      38.395 -16.119  28.529  1.00  0.00     0.180 C 
BRANCH  14  15
HETATM   15  C21 UNL     1      36.999 -15.986  28.884  1.00  0.00     0.240 C 
HETATM   16  O3  UNL     1      36.240 -17.007  29.055  1.00  0.00    -0.271 OA
HETATM   17  N4  UNL     1      36.375 -14.741  29.064  1.00  0.00    -0.364 N 
HETATM   18  C22 UNL     1      34.955 -14.591  29.421  1.00  0.00     0.149 C 
ATOM     19  H4  UNL     1      36.935 -13.896  28.942  1.00  0.00     0.161 HD
ENDBRANCH  14  15
BRANCH  14  20
HETATM   20  C23 UNL     1      38.715 -15.319  27.270  1.00  0.00     0.009 C 
HETATM   21  C24 UNL     1      40.055 -15.813  26.712  1.00  0.00     0.012 C 
HETATM   22  C25 UNL     1      37.724 -15.633  26.151  1.00  0.00     0.012 C 
ENDBRANCH  14  20
ENDBRANCH  12  14
ENDBRANCH   7  10
ENDBRANCH   1   7
BRANCH   5  23
HETATM   23  C5  UNL     1      42.772 -23.468  29.716  1.00  0.00     0.098 C 
BRANCH  23  24
HETATM   24  C6  UNL     1      42.332 -24.863  29.893  1.00  0.00     0.001 C 
HETATM   25  C7  UNL     1      42.589 -25.793  28.710  1.00  0.00     0.011 C 
HETATM   26  C8  UNL     1      41.009 -25.121  30.518  1.00  0.00     0.011 C 
ENDBRANCH  23  24
BRANCH  23  27
HETATM   27  C9  UNL     1      43.979 -22.905  30.277  1.00  0.00    -0.018 C 
HETATM   28  C10 UNL     1      44.790 -23.904  31.103  1.00  0.00     0.016 C 
HETATM   29  C11 UNL     1      46.126 -23.395  31.508  1.00  0.00    -0.013 C 
HETATM   30  C12 UNL     1      45.901 -22.112  32.284  1.00  0.00     0.009 C 
HETATM   31  C16 UNL     1      47.004 -23.102  30.308  1.00  0.00     0.009 C 
HETATM   32  C13 UNL     1      45.267 -21.117  31.372  1.00  0.00    -0.013 C 
HETATM   33  C14 UNL     1      46.088 -20.844  30.126  1.00  0.00     0.009 C 
HETATM   34  C18 UNL     1      43.870 -21.557  30.915  1.00  0.00     0.016 C 
HETATM   35  C15 UNL     1      46.228 -22.169  29.417  1.00  0.00    -0.013 C 
HETATM   36  C17 UNL     1      44.895 -22.694  29.046  1.00  0.00     0.016 C 
ENDBRANCH  23  27
ENDBRANCH   5  23
TORSDOF 9
ENDMDL
MODEL 3
REMARK VINA RESULT: -7.067504706      2.515      5.048
REMARK  9 active torsions:
REMARK  status: ('A' for Active; 'I' for Inactive)
REMARK    1  A    between atoms: C2_2  and  C3_3 
REMARK    2  A    between atoms: C3_3  and  N1_4 
REMARK    3  A    between atoms: C3_3  and  C19_24 
REMARK       I    between atoms: N1_4  and  C4_6 
REMARK       I    between atoms: C4_6  and  N2_8 
REMARK    4  A    between atoms: N2_8  and  C5_10 
REMARK    5  A    between atoms: C5_10  and  C6_11 
REMARK    6  A    between atoms: C5_10  and  C9_14 
REMARK       I    between atoms: C19_24  and  N3_26 
REMARK    7  A    between atoms: N3_26  and  C20_28 
REMARK    8  A    between atoms: C20_28  and  C21_29 
REMARK    9  A    between atoms: C20_28  and  C23_34 
REMARK       I    between atoms: C21_29  and  N4_31 
ROOT
HETATM    1  N1  UNL     1      36.768 -21.243  26.779  1.00  0.00    -0.330 N 
ATOM      2  H1  UNL     1      35.945 -21.546  27.299  1.00  0.00     0.165 HD
HETATM    3  C4  UNL     1      37.074 -21.895  25.556  1.00  0.00     0.317 C 
HETATM    4  O1  UNL     1      38.142 -21.592  24.978  1.00  0.00    -0.247 OA
HETATM    5  N2  UNL     1      36.182 -22.856  25.010  1.00  0.00    -0.337 N 
ATOM      6  H2  UNL     1      35.305 -23.083  25.478  1.00  0.00     0.164 HD
ENDROOT
BRANCH   1   7
HETATM    7  C3  UNL     1      37.553 -20.189  27.315  1.00  0.00     0.178 C 
BRANCH   7   8
HETATM    8  C2  UNL     1      39.021 -20.614  27.272  1.00  0.00     0.030 C 
HETATM    9  C1  UNL     1      39.537 -20.636  28.700  1.00  0.00     0.007 C 
ENDBRANCH   7   8
BRANCH   7  10
HETATM   10  C19 UNL     1      37.383 -18.836  26.752  1.00  0.00     0.241 C 
HETATM   11  O2  UNL     1      37.079 -18.649  25.571  1.00  0.00    -0.271 OA
HETATM   12  N3  UNL     1      37.581 -17.723  27.611  1.00  0.00    -0.346 N 
ATOM     13  H3  UNL     1      37.820 -17.953  28.576  1.00  0.00     0.163 HD
BRANCH  12  14
HETATM   14  C20 UNL     1      37.492 -16.309  27.317  1.00  0.00     0.180 C 
BRANCH  14  15
HETATM   15  C21 UNL     1      38.592 -15.924  26.459  1.00  0.00     0.240 C 
HETATM   16  O3  UNL     1      39.745 -15.610  26.929  1.00  0.00    -0.271 OA
HETATM   17  N4  UNL     1      38.480 -15.864  25.060  1.00  0.00    -0.364 N 
HETATM   18  C22 UNL     1      39.589 -15.469  24.176  1.00  0.00     0.149 C 
ATOM     19  H4  UNL     1      37.585 -16.106  24.635  1.00  0.00     0.161 HD
ENDBRANCH  14  15
BRANCH  14  20
HETATM   20  C23 UNL     1      37.513 -15.513  28.618  1.00  0.00     0.009 C 
HETATM   21  C24 UNL     1      36.104 -14.967  28.872  1.00  0.00     0.012 C 
HETATM   22  C25 UNL     1      37.766 -16.423  29.818  1.00  0.00     0.012 C 
ENDBRANCH  14  20
ENDBRANCH  12  14
ENDBRANCH   7  10
ENDBRANCH   1   7
BRANCH   5  23
HETATM   23  C5  UNL     1      36.566 -23.526  23.727  1.00  0.00     0.098 C 
BRANCH  23  24
HETATM   24  C6  UNL     1      35.719 -22.903  22.696  1.00  0.00     0.001 C 
HETATM   25  C7  UNL     1      36.433 -21.957  21.735  1.00  0.00     0.011 C 
HETATM   26  C8  UNL     1      34.382 -22.383  23.088  1.00  0.00     0.011 C 
ENDBRANCH  23  24
BRANCH  23  27
HETATM   27  C9  UNL     1      36.677 -24.949  23.956  1.00  0.00    -0.018 C 
HETATM   28  C10 UNL     1      35.332 -25.633  24.197  1.00  0.00     0.016 C 
HETATM   29  C11 UNL     1      35.416 -27.117  24.228  1.00  0.00    -0.013 C 
HETATM   30  C12 UNL     1      36.410 -27.487  25.311  1.00  0.00     0.009 C 
HETATM   31  C16 UNL     1      35.890 -27.681  22.904  1.00  0.00     0.009 C 
HETATM   32  C13 UNL     1      37.743 -26.941  24.931  1.00  0.00    -0.013 C 
HETATM   33  C14 UNL     1      38.226 -27.435  23.579  1.00  0.00     0.009 C 
HETATM   34  C18 UNL     1      37.752 -25.407  24.889  1.00  0.00     0.016 C 
HETATM   35  C15 UNL     1      37.188 -26.992  22.576  1.00  0.00    -0.013 C 
HETATM   36  C17 UNL     1      37.078 -25.516  22.572  1.00  0.00     0.016 C 
ENDBRANCH  23  27
ENDBRANCH   5  23
TORSDOF 9
ENDMDL
MODEL 4
REMARK VINA RESULT: -7.044721232      2.063      5.431
REMARK  9 active torsions:
REMARK  status: ('A' for Active; 'I' for Inactive)
REMARK    1  A    between atoms: C2_2  and  C3_3 
REMARK    2  A    between atoms: C3_3  and  N1_4 
REMARK    3  A    between atoms: C3_3  and  C19_24 
REMARK       I    between atoms: N1_4  and  C4_6 
REMARK       I    between atoms: C4_6  and  N2_8 
REMARK    4  A    between atoms: N2_8  and  C5_10 
REMARK    5  A    between atoms: C5_10  and  C6_11 
REMARK    6  A    between atoms: C5_10  and  C9_14 
REMARK       I    between atoms: C19_24  and  N3_26 
REMARK    7  A    between atoms: N3_26  and  C20_28 
REMARK    8  A    between atoms: C20_28  and  C21_29 
REMARK    9  A    between atoms: C20_28  and  C23_34 
REMARK       I    between atoms: C21_29  and  N4_31 
ROOT
HETATM    1  N1  UNL     1      38.213 -18.909  27.637  1.00  0.00    -0.330 N 
ATOM      2  H1  UNL     1      37.238 -18.832  27.925  1.00  0.00     0.165 HD
HETATM    3  C4  UNL     1      38.503 -19.515  26.387  1.00  0.00     0.317 C 
HETATM    4  O1  UNL     1      39.704 -19.703  26.088  1.00  0.00    -0.247 OA
HETATM    5  N2  UNL     1      37.453 -19.886  25.506  1.00  0.00    -0.337 N 
ATOM      6  H2  UNL     1      36.478 -19.712  25.750  1.00  0.00     0.164 HD
ENDROOT
BRANCH   1   7
HETATM    7  C3  UNL     1      39.215 -18.405  28.507  1.00  0.00     0.178 C 
BRANCH   7   8
HETATM    8  C2  UNL     1      38.667 -17.155  29.197  1.00  0.00     0.030 C 
HETATM    9  C1  UNL     1      37.152 -17.218  29.133  1.00  0.00     0.007 C 
ENDBRANCH   7   8
BRANCH   7  10
HETATM   10  C19 UNL     1      39.814 -19.325  29.491  1.00  0.00     0.241 C 
HETATM   11  O2  UNL     1      39.917 -19.034  30.686  1.00  0.00    -0.271 OA
HETATM   12  N3  UNL     1      40.285 -20.584  29.032  1.00  0.00    -0.346 N 
ATOM     13  H3  UNL     1      40.158 -20.760  28.035  1.00  0.00     0.163 HD
BRANCH  12  14
HETATM   14  C20 UNL     1      40.918 -21.653  29.772  1.00  0.00     0.180 C 
BRANCH  14  15
HETATM   15  C21 UNL     1      42.305 -21.319  30.012  1.00  0.00     0.240 C 
HETATM   16  O3  UNL     1      42.921 -20.429  29.322  1.00  0.00    -0.271 OA
HETATM   17  N4  UNL     1      43.075 -21.940  31.010  1.00  0.00    -0.364 N 
HETATM   18  C22 UNL     1      44.488 -21.613  31.261  1.00  0.00     0.149 C 
ATOM     19  H4  UNL     1      42.633 -22.654  31.589  1.00  0.00     0.161 HD
ENDBRANCH  14  15
BRANCH  14  20
HETATM   20  C23 UNL     1      40.800 -22.958  28.990  1.00  0.00     0.009 C 
HETATM   21  C24 UNL     1      40.160 -24.010  29.903  1.00  0.00     0.012 C 
HETATM   22  C25 UNL     1      39.801 -22.824  27.843  1.00  0.00     0.012 C 
ENDBRANCH  14  20
ENDBRANCH  12  14
ENDBRANCH   7  10
ENDBRANCH   1   7
BRANCH   5  23
HETATM   23  C5  UNL     1      37.817 -20.540  24.209  1.00  0.00     0.098 C 
BRANCH  23  24
HETATM   24  C6  UNL     1      37.508 -19.541  23.171  1.00  0.00     0.001 C 
HETATM   25  C7  UNL     1      38.703 -18.771  22.616  1.00  0.00     0.011 C 
HETATM   26  C8  UNL     1      36.325 -18.661  23.357  1.00  0.00     0.011 C 
ENDBRANCH  23  24
BRANCH  23  27
HETATM   27  C9  UNL     1      37.331 -21.901  24.217  1.00  0.00    -0.018 C 
HETATM   28  C10 UNL     1      36.761 -22.351  22.871  1.00  0.00     0.016 C 
HETATM   29  C11 UNL     1      36.450 -23.803  22.812  1.00  0.00    -0.013 C 
HETATM   30  C12 UNL     1      35.477 -24.100  23.936  1.00  0.00     0.009 C 
HETATM   31  C16 UNL     1      37.693 -24.651  22.994  1.00  0.00     0.009 C 
HETATM   32  C13 UNL     1      36.153 -23.808  25.232  1.00  0.00    -0.013 C 
HETATM   33  C14 UNL     1      37.437 -24.594  25.423  1.00  0.00     0.009 C 
HETATM   34  C18 UNL     1      36.498 -22.321  25.385  1.00  0.00     0.016 C 
HETATM   35  C15 UNL     1      38.341 -24.206  24.278  1.00  0.00    -0.013 C 
HETATM   36  C17 UNL     1      38.620 -22.754  24.315  1.00  0.00     0.016 C 
ENDBRANCH  23  27
ENDBRANCH   5  23
TORSDOF 9
ENDMDL
MODEL 5
REMARK VINA RESULT: -6.965102282      3.122      6.359
REMARK  9 active torsions:
REMARK  status: ('A' for Active; 'I' for Inactive)
REMARK    1  A    between atoms: C2_2  and  C3_3 
REMARK    2  A    between atoms: C3_3  and  N1_4 
REMARK    3  A    between atoms: C3_3  and  C19_24 
REMARK       I    between atoms: N1_4  and  C4_6 
REMARK       I    between atoms: C4_6  and  N2_8 
REMARK    4  A    between atoms: N2_8  and  C5_10 
REMARK    5  A    between atoms: C5_10  and  C6_11 
REMARK    6  A    between atoms: C5_10  and  C9_14 
REMARK       I    between atoms: C19_24  and  N3_26 
REMARK    7  A    between atoms: N3_26  and  C20_28 
REMARK    8  A    between atoms: C20_28  and  C21_29 
REMARK    9  A    between atoms: C20_28  and  C23_34 
REMARK       I    between atoms: C21_29  and  N4_31 
ROOT
HETATM    1  N1  UNL     1      40.494 -22.326  28.228  1.00  0.00    -0.330 N 
ATOM      2  H1  UNL     1      41.139 -22.541  27.468  1.00  0.00     0.165 HD
HETATM    3  C4  UNL     1      39.373 -21.501  27.949  1.00  0.00     0.317 C 
HETATM    4  O1  UNL     1      38.645 -21.153  28.906  1.00  0.00    -0.247 OA
HETATM    5  N2  UNL     1      39.090 -21.096  26.618  1.00  0.00    -0.337 N 
ATOM      6  H2  UNL     1      39.678 -21.400  25.841  1.00  0.00     0.164 HD
ENDROOT
BRANCH   1   7
HETATM    7  C3  UNL     1      40.762 -22.865  29.514  1.00  0.00     0.178 C 
BRANCH   7   8
HETATM    8  C2  UNL     1      41.329 -24.273  29.335  1.00  0.00     0.030 C 
HETATM    9  C1  UNL     1      40.706 -25.160  30.398  1.00  0.00     0.007 C 
ENDBRANCH   7   8
BRANCH   7  10
HETATM   10  C19 UNL     1      41.596 -22.078  30.441  1.00  0.00     0.241 C 
HETATM   11  O2  UNL     1      41.109 -21.279  31.246  1.00  0.00    -0.271 OA
HETATM   12  N3  UNL     1      43.004 -22.257  30.393  1.00  0.00    -0.346 N 
ATOM     13  H3  UNL     1      43.333 -22.940  29.712  1.00  0.00     0.163 HD
BRANCH  12  14
HETATM   14  C20 UNL     1      44.038 -21.611  31.171  1.00  0.00     0.180 C 
BRANCH  14  15
HETATM   15  C21 UNL     1      44.841 -20.773  30.307  1.00  0.00     0.240 C 
HETATM   16  O3  UNL     1      45.356 -19.670  30.715  1.00  0.00    -0.271 OA
HETATM   17  N4  UNL     1      45.112 -21.099  28.968  1.00  0.00    -0.364 N 
HETATM   18  C22 UNL     1      45.923 -20.253  28.077  1.00  0.00     0.149 C 
ATOM     19  H4  UNL     1      44.728 -21.967  28.593  1.00  0.00     0.161 HD
ENDBRANCH  14  15
BRANCH  14  20
HETATM   20  C23 UNL     1      44.899 -22.668  31.856  1.00  0.00     0.009 C 
HETATM   21  C24 UNL     1      44.746 -23.986  31.089  1.00  0.00     0.012 C 
HETATM   22  C25 UNL     1      46.385 -22.343  31.716  1.00  0.00     0.012 C 
ENDBRANCH  14  20
ENDBRANCH  12  14
ENDBRANCH   7  10
ENDBRANCH   1   7
BRANCH   5  23
HETATM   23  C5  UNL     1      37.905 -20.211  26.386  1.00  0.00     0.098 C 
BRANCH  23  24
HETATM   24  C6  UNL     1      37.048 -20.950  25.443  1.00  0.00     0.001 C 
HETATM   25  C7  UNL     1      35.981 -21.839  26.076  1.00  0.00     0.011 C 
HETATM   26  C8  UNL     1      37.677 -21.600  24.264  1.00  0.00     0.011 C 
ENDBRANCH  23  24
BRANCH  23  27
HETATM   27  C9  UNL     1      38.364 -18.853  26.195  1.00  0.00    -0.018 C 
HETATM   28  C10 UNL     1      37.587 -18.093  25.121  1.00  0.00     0.016 C 
HETATM   29  C11 UNL     1      37.912 -16.644  25.063  1.00  0.00    -0.013 C 
HETATM   30  C12 UNL     1      39.406 -16.529  24.830  1.00  0.00     0.009 C 
HETATM   31  C16 UNL     1      37.555 -15.936  26.354  1.00  0.00     0.009 C 
HETATM   32  C13 UNL     1      40.111 -17.131  25.997  1.00  0.00    -0.013 C 
HETATM   33  C14 UNL     1      39.731 -16.488  27.318  1.00  0.00     0.009 C 
HETATM   34  C18 UNL     1      39.842 -18.636  26.124  1.00  0.00     0.016 C 
HETATM   35  C15 UNL     1      38.241 -16.684  27.466  1.00  0.00    -0.013 C 
HETATM   36  C17 UNL     1      37.913 -18.126  27.486  1.00  0.00     0.016 C 
ENDBRANCH  23  27
ENDBRANCH   5  23
TORSDOF 9
ENDMDL
