MODEL 1
REMARK VINA RESULT: -7.710373196      0.000      0.000
REMARK  10 active torsions:
REMARK  status: ('A' for Active; 'I' for Inactive)
REMARK    1  A    between atoms: C10_12  and  C11_13 
REMARK    2  A    between atoms: C11_13  and  C12_14 
REMARK    3  A    between atoms: C13_17  and  O1_18 
REMARK    4  A    between atoms: C15_21  and  C16_22 
REMARK    5  A    between atoms: C17_23  and  C18_24 
REMARK    6  A    between atoms: C19_25  and  C20_26 
REMARK    7  A    between atoms: C20_26  and  S1_27 
REMARK    8  A    between atoms: S1_27  and  N3_30 
REMARK    9  A    between atoms: N3_30  and  C21_32 
REMARK   10  A    between atoms: C21_32  and  C22_33 
ROOT
HETATM    1  C12 UNL     1      37.766 -14.712  27.355  1.00  0.00     0.046 A 
HETATM    2  N2  UNL     1      37.013 -13.809  26.711  1.00  0.00    -0.336 N 
ATOM      3  H2  UNL     1      37.147 -13.538  25.737  1.00  0.00     0.168 HD
HETATM    4  C13 UNL     1      36.071 -13.312  27.500  1.00  0.00     0.141 A 
HETATM    5  C14 UNL     1      36.215 -13.926  28.737  1.00  0.00     0.069 A 
HETATM    6  C15 UNL     1      37.255 -14.789  28.661  1.00  0.00    -0.005 A 
ENDROOT
BRANCH   6   7
HETATM    7  C16 UNL     1      37.802 -15.663  29.657  1.00  0.00     0.014 C 
HETATM    8  C17 UNL     1      37.870 -16.944  29.780  1.00  0.00     0.001 C 
BRANCH   8   9
HETATM    9  C18 UNL     1      37.418 -18.034  28.959  1.00  0.00    -0.003 C 
HETATM   10  C19 UNL     1      38.216 -18.844  28.281  1.00  0.00    -0.010 C 
BRANCH  10  11
HETATM   11  C20 UNL     1      39.673 -18.825  28.207  1.00  0.00     0.190 C 
BRANCH  11  12
HETATM   12  S1  UNL     1      40.324 -20.073  29.326  1.00  0.00     0.233 S 
HETATM   13  O2  UNL     1      41.821 -20.115  29.042  1.00  0.00    -0.205 OA
HETATM   14  O3  UNL     1      40.182 -19.642  30.749  1.00  0.00    -0.205 OA
BRANCH  12  15
HETATM   15  N3  UNL     1      39.683 -21.583  28.984  1.00  0.00    -0.298 N 
ATOM     16  H3  UNL     1      39.054 -22.053  29.635  1.00  0.00     0.177 HD
BRANCH  15  17
HETATM   17  C21 UNL     1      40.049 -22.177  27.760  1.00  0.00     0.076 C 
BRANCH  17  18
HETATM   18  C22 UNL     1      39.128 -21.974  26.617  1.00  0.00     0.016 C 
HETATM   19  C23 UNL     1      38.536 -23.206  26.037  1.00  0.00     0.015 C 
HETATM   20  C24 UNL     1      39.950 -21.313  25.500  1.00  0.00     0.015 C 
ENDBRANCH  17  18
ENDBRANCH  15  17
ENDBRANCH  12  15
ENDBRANCH  11  12
ENDBRANCH  10  11
ENDBRANCH   8   9
ENDBRANCH   6   7
BRANCH   1  21
HETATM   21  C11 UNL     1      38.903 -15.418  26.797  1.00  0.00     0.060 C 
BRANCH  21  22
HETATM   22  C10 UNL     1      38.893 -16.160  25.718  1.00  0.00     0.040 A 
HETATM   23  C2  UNL     1      39.699 -16.074  24.613  1.00  0.00    -0.033 A 
HETATM   24  C1  UNL     1      40.802 -15.157  24.260  1.00  0.00     0.050 C 
HETATM   25  C3  UNL     1      39.306 -17.089  23.737  1.00  0.00     0.038 A 
HETATM   26  C4  UNL     1      38.271 -17.779  24.313  1.00  0.00     0.035 A 
HETATM   27  C5  UNL     1      37.640 -18.821  23.761  1.00  0.00    -0.053 C 
HETATM   28  N1  UNL     1      38.040 -17.209  25.495  1.00  0.00    -0.356 N 
HETATM   29  C6  UNL     1      37.933 -19.421  22.445  1.00  0.00     0.036 C 
HETATM   30  C9  UNL     1      36.516 -19.599  24.347  1.00  0.00     0.036 C 
HETATM   31  C7  UNL     1      37.610 -20.883  22.614  1.00  0.00     0.005 C 
HETATM   32  C8  UNL     1      36.636 -20.986  23.759  1.00  0.00     0.005 C 
ATOM     33  H1  UNL     1      37.319 -17.514  26.149  1.00  0.00     0.166 HD
ENDBRANCH  21  22
ENDBRANCH   1  21
BRANCH   4  34
HETATM   34  O1  UNL     1      35.114 -12.363  27.181  1.00  0.00    -0.346 OA
ATOM     35  H1  UNL     1      35.048 -11.473  27.507  1.00  0.00     0.219 HD
ENDBRANCH   4  34
TORSDOF 10
ENDMDL
MODEL 2
REMARK VINA RESULT: -7.534887514      1.649      2.250
REMARK  10 active torsions:
REMARK  status: ('A' for Active; 'I' for Inactive)
REMARK    1  A    between atoms: C10_12  and  C11_13 
REMARK    2  A    between atoms: C11_13  and  C12_14 
REMARK    3  A    between atoms: C13_17  and  O1_18 
REMARK    4  A    between atoms: C15_21  and  C16_22 
REMARK    5  A    between atoms: C17_23  and  C18_24 
REMARK    6  A    between atoms: C19_25  and  C20_26 
REMARK    7  A    between atoms: C20_26  and  S1_27 
REMARK    8  A    between atoms: S1_27  and  N3_30 
REMARK    9  A    between atoms: N3_30  and  C21_32 
REMARK   10  A    between atoms: C21_32  and  C22_33 
ROOT
HETATM    1  C12 UNL     1      37.618 -15.714  26.984  1.00  0.00     0.046 A 
HETATM    2  N2  UNL     1      37.498 -14.478  26.479  1.00  0.00    -0.336 N 
ATOM      3  H2  UNL     1      37.974 -14.152  25.638  1.00  0.00     0.168 HD
HETATM    4  C13 UNL     1      36.683 -13.731  27.212  1.00  0.00     0.141 A 
HETATM    5  C14 UNL     1      36.242 -14.527  28.261  1.00  0.00     0.069 A 
HETATM    6  C15 UNL     1      36.810 -15.748  28.132  1.00  0.00    -0.005 A 
ENDROOT
BRANCH   6   7
HETATM    7  C16 UNL     1      36.673 -16.919  28.949  1.00  0.00     0.014 C 
HETATM    8  C17 UNL     1      37.509 -17.669  29.580  1.00  0.00     0.001 C 
BRANCH   8   9
HETATM    9  C18 UNL     1      38.939 -17.639  29.725  1.00  0.00    -0.003 C 
HETATM   10  C19 UNL     1      39.755 -18.597  29.316  1.00  0.00    -0.010 C 
BRANCH  10  11
HETATM   11  C20 UNL     1      39.416 -19.852  28.654  1.00  0.00     0.190 C 
BRANCH  11  12
HETATM   12  S1  UNL     1      40.439 -21.162  29.340  1.00  0.00     0.233 S 
HETATM   13  O2  UNL     1      40.780 -20.699  30.750  1.00  0.00    -0.205 OA
HETATM   14  O3  UNL     1      39.657 -22.426  29.493  1.00  0.00    -0.205 OA
BRANCH  12  15
HETATM   15  N3  UNL     1      41.868 -21.323  28.480  1.00  0.00    -0.298 N 
ATOM     16  H3  UNL     1      42.767 -21.408  28.955  1.00  0.00     0.177 HD
BRANCH  15  17
HETATM   17  C21 UNL     1      41.778 -21.336  27.075  1.00  0.00     0.076 C 
BRANCH  17  18
HETATM   18  C22 UNL     1      42.307 -20.149  26.361  1.00  0.00     0.016 C 
HETATM   19  C23 UNL     1      41.345 -19.446  25.475  1.00  0.00     0.015 C 
HETATM   20  C24 UNL     1      43.448 -20.649  25.461  1.00  0.00     0.015 C 
ENDBRANCH  17  18
ENDBRANCH  15  17
ENDBRANCH  12  15
ENDBRANCH  11  12
ENDBRANCH  10  11
ENDBRANCH   8   9
ENDBRANCH   6   7
BRANCH   1  21
HETATM   21  C11 UNL     1      38.458 -16.768  26.450  1.00  0.00     0.060 C 
BRANCH  21  22
HETATM   22  C10 UNL     1      38.089 -17.683  25.589  1.00  0.00     0.040 A 
HETATM   23  C2  UNL     1      38.279 -17.707  24.232  1.00  0.00    -0.033 A 
HETATM   24  C1  UNL     1      38.926 -16.756  23.305  1.00  0.00     0.050 C 
HETATM   25  C3  UNL     1      37.715 -18.894  23.758  1.00  0.00     0.038 A 
HETATM   26  C4  UNL     1      37.190 -19.577  24.824  1.00  0.00     0.035 A 
HETATM   27  C5  UNL     1      36.568 -20.760  24.749  1.00  0.00    -0.053 C 
HETATM   28  N1  UNL     1      37.424 -18.838  25.907  1.00  0.00    -0.356 N 
HETATM   29  C6  UNL     1      36.333 -21.544  23.523  1.00  0.00     0.036 C 
HETATM   30  C9  UNL     1      35.985 -21.536  25.875  1.00  0.00     0.036 C 
HETATM   31  C7  UNL     1      36.380 -22.981  23.976  1.00  0.00     0.005 C 
HETATM   32  C8  UNL     1      36.064 -22.984  25.450  1.00  0.00     0.005 C 
ATOM     33  H1  UNL     1      37.143 -19.098  26.853  1.00  0.00     0.166 HD
ENDBRANCH  21  22
ENDBRANCH   1  21
BRANCH   4  34
HETATM   34  O1  UNL     1      36.323 -12.411  26.997  1.00  0.00    -0.346 OA
ATOM     35  H1  UNL     1      36.221 -11.724  27.646  1.00  0.00     0.219 HD
ENDBRANCH   4  34
TORSDOF 10
ENDMDL
MODEL 3
REMARK VINA RESULT: -7.495610709      3.829      7.311
REMARK  10 active torsions:
REMARK  status: ('A' for Active; 'I' for Inactive)
REMARK    1  A    between atoms: C10_12  and  C11_13 
REMARK    2  A    between atoms: C11_13  and  C12_14 
REMARK    3  A    between atoms: C13_17  and  O1_18 
REMARK    4  A    between atoms: C15_21  and  C16_22 
REMARK    5  A    between atoms: C17_23  and  C18_24 
REMARK    6  A    between atoms: C19_25  and  C20_26 
REMARK    7  A    between atoms: C20_26  and  S1_27 
REMARK    8  A    between atoms: S1_27  and  N3_30 
REMARK    9  A    between atoms: N3_30  and  C21_32 
REMARK   10  A    between atoms: C21_32  and  C22_33 
ROOT
HETATM    1  C12 UNL     1      39.024 -21.000  27.935  1.00  0.00     0.046 A 
HETATM    2  N2  UNL     1      39.572 -20.888  29.154  1.00  0.00    -0.336 N 
ATOM      3  H2  UNL     1      39.195 -20.308  29.902  1.00  0.00     0.168 HD
HETATM    4  C13 UNL     1      40.667 -21.628  29.263  1.00  0.00     0.141 A 
HETATM    5  C14 UNL     1      40.849 -22.262  28.041  1.00  0.00     0.069 A 
HETATM    6  C15 UNL     1      39.845 -21.884  27.216  1.00  0.00    -0.005 A 
ENDROOT
BRANCH   6   7
HETATM    7  C16 UNL     1      39.577 -22.261  25.859  1.00  0.00     0.014 C 
HETATM    8  C17 UNL     1      38.800 -23.132  25.312  1.00  0.00     0.001 C 
BRANCH   8   9
HETATM    9  C18 UNL     1      37.875 -24.095  25.846  1.00  0.00    -0.003 C 
HETATM   10  C19 UNL     1      37.005 -24.780  25.122  1.00  0.00    -0.010 C 
BRANCH  10  11
HETATM   11  C20 UNL     1      36.785 -24.726  23.681  1.00  0.00     0.190 C 
BRANCH  11  12
HETATM   12  S1  UNL     1      35.031 -24.947  23.355  1.00  0.00     0.233 S 
HETATM   13  O2  UNL     1      34.966 -25.905  22.172  1.00  0.00    -0.205 OA
HETATM   14  O3  UNL     1      34.359 -25.644  24.493  1.00  0.00    -0.205 OA
BRANCH  12  15
HETATM   15  N3  UNL     1      34.315 -23.501  22.900  1.00  0.00    -0.298 N 
ATOM     16  H3  UNL     1      33.301 -23.406  22.841  1.00  0.00     0.177 HD
BRANCH  15  17
HETATM   17  C21 UNL     1      35.171 -22.424  22.600  1.00  0.00     0.076 C 
BRANCH  17  18
HETATM   18  C22 UNL     1      34.928 -21.156  23.327  1.00  0.00     0.016 C 
HETATM   19  C23 UNL     1      35.361 -19.918  22.629  1.00  0.00     0.015 C 
HETATM   20  C24 UNL     1      35.740 -21.232  24.629  1.00  0.00     0.015 C 
ENDBRANCH  17  18
ENDBRANCH  15  17
ENDBRANCH  12  15
ENDBRANCH  11  12
ENDBRANCH  10  11
ENDBRANCH   8   9
ENDBRANCH   6   7
BRANCH   1  21
HETATM   21  C11 UNL     1      37.843 -20.298  27.471  1.00  0.00     0.060 C 
BRANCH  21  22
HETATM   22  C10 UNL     1      37.778 -19.029  27.157  1.00  0.00     0.040 A 
HETATM   23  C2  UNL     1      38.134 -18.418  25.983  1.00  0.00    -0.033 A 
HETATM   24  C1  UNL     1      38.698 -18.946  24.723  1.00  0.00     0.050 C 
HETATM   25  C3  UNL     1      37.870 -17.055  26.131  1.00  0.00     0.038 A 
HETATM   26  C4  UNL     1      37.358 -16.849  27.385  1.00  0.00     0.035 A 
HETATM   27  C5  UNL     1      36.988 -15.662  27.880  1.00  0.00    -0.053 C 
HETATM   28  N1  UNL     1      37.311 -18.039  27.982  1.00  0.00    -0.356 N 
HETATM   29  C6  UNL     1      37.057 -14.366  27.179  1.00  0.00     0.036 C 
HETATM   30  C9  UNL     1      36.429 -15.391  29.231  1.00  0.00     0.036 C 
HETATM   31  C7  UNL     1      35.894 -13.577  27.723  1.00  0.00     0.005 C 
HETATM   32  C8  UNL     1      35.557 -14.167  29.069  1.00  0.00     0.005 C 
ATOM     33  H1  UNL     1      36.972 -18.194  28.931  1.00  0.00     0.166 HD
ENDBRANCH  21  22
ENDBRANCH   1  21
BRANCH   4  34
HETATM   34  O1  UNL     1      41.491 -21.761  30.368  1.00  0.00    -0.346 OA
ATOM     35  H1  UNL     1      42.440 -21.816  30.382  1.00  0.00     0.219 HD
ENDBRANCH   4  34
TORSDOF 10
ENDMDL
MODEL 4
REMARK VINA RESULT: -7.420473897      2.318      3.283
REMARK  10 active torsions:
REMARK  status: ('A' for Active; 'I' for Inactive)
REMARK    1  A    between atoms: C10_12  and  C11_13 
REMARK    2  A    between atoms: C11_13  and  C12_14 
REMARK    3  A    between atoms: C13_17  and  O1_18 
REMARK    4  A    between atoms: C15_21  and  C16_22 
REMARK    5  A    between atoms: C17_23  and  C18_24 
REMARK    6  A    between atoms: C19_25  and  C20_26 
REMARK    7  A    between atoms: C20_26  and  S1_27 
REMARK    8  A    between atoms: S1_27  and  N3_30 
REMARK    9  A    between atoms: N3_30  and  C21_32 
REMARK   10  A    between atoms: C21_32  and  C22_33 
ROOT
HETATM    1  C12 UNL     1      37.457 -16.014  26.632  1.00  0.00     0.046 A 
HETATM    2  N2  UNL     1      37.477 -14.702  26.353  1.00  0.00    -0.336 N 
ATOM      3  H2  UNL     1      37.564 -14.316  25.412  1.00  0.00     0.168 HD
HETATM    4  C13 UNL     1      37.371 -13.970  27.453  1.00  0.00     0.141 A 
HETATM    5  C14 UNL     1      37.276 -14.855  28.518  1.00  0.00     0.069 A 
HETATM    6  C15 UNL     1      37.328 -16.115  28.027  1.00  0.00    -0.005 A 
ENDROOT
BRANCH   6   7
HETATM    7  C16 UNL     1      37.263 -17.374  28.710  1.00  0.00     0.014 C 
HETATM    8  C17 UNL     1      38.148 -18.237  29.074  1.00  0.00     0.001 C 
BRANCH   8   9
HETATM    9  C18 UNL     1      39.578 -18.293  28.941  1.00  0.00    -0.003 C 
HETATM   10  C19 UNL     1      40.270 -19.403  28.741  1.00  0.00    -0.010 C 
BRANCH  10  11
HETATM   11  C20 UNL     1      39.773 -20.769  28.615  1.00  0.00     0.190 C 
BRANCH  11  12
HETATM   12  S1  UNL     1      40.669 -21.819  29.767  1.00  0.00     0.233 S 
HETATM   13  O2  UNL     1      40.824 -20.979  31.029  1.00  0.00    -0.205 OA
HETATM   14  O3  UNL     1      39.851 -23.007  30.155  1.00  0.00    -0.205 OA
BRANCH  12  15
HETATM   15  N3  UNL     1      42.199 -22.182  29.187  1.00  0.00    -0.298 N 
ATOM     16  H3  UNL     1      42.333 -22.828  28.410  1.00  0.00     0.177 HD
BRANCH  15  17
HETATM   17  C21 UNL     1      43.293 -21.558  29.818  1.00  0.00     0.076 C 
BRANCH  17  18
HETATM   18  C22 UNL     1      43.948 -20.452  29.080  1.00  0.00     0.016 C 
HETATM   19  C23 UNL     1      44.267 -20.726  27.656  1.00  0.00     0.015 C 
HETATM   20  C24 UNL     1      45.285 -20.182  29.786  1.00  0.00     0.015 C 
ENDBRANCH  17  18
ENDBRANCH  15  17
ENDBRANCH  12  15
ENDBRANCH  11  12
ENDBRANCH  10  11
ENDBRANCH   8   9
ENDBRANCH   6   7
BRANCH   1  21
HETATM   21  C11 UNL     1      37.589 -17.086  25.666  1.00  0.00     0.060 C 
BRANCH  21  22
HETATM   22  C10 UNL     1      38.674 -17.779  25.430  1.00  0.00     0.040 A 
HETATM   23  C2  UNL     1      39.944 -17.323  25.188  1.00  0.00    -0.033 A 
HETATM   24  C1  UNL     1      40.509 -15.960  25.103  1.00  0.00     0.050 C 
HETATM   25  C3  UNL     1      40.757 -18.445  25.004  1.00  0.00     0.038 A 
HETATM   26  C4  UNL     1      39.979 -19.566  25.135  1.00  0.00     0.035 A 
HETATM   27  C5  UNL     1      40.419 -20.825  25.022  1.00  0.00    -0.053 C 
HETATM   28  N1  UNL     1      38.740 -19.147  25.389  1.00  0.00    -0.356 N 
HETATM   29  C6  UNL     1      41.805 -21.241  24.741  1.00  0.00     0.036 C 
HETATM   30  C9  UNL     1      39.615 -22.068  25.156  1.00  0.00     0.036 C 
HETATM   31  C7  UNL     1      41.964 -22.550  25.470  1.00  0.00     0.005 C 
HETATM   32  C8  UNL     1      40.580 -23.121  25.648  1.00  0.00     0.005 C 
ATOM     33  H1  UNL     1      37.942 -19.766  25.533  1.00  0.00     0.166 HD
ENDBRANCH  21  22
ENDBRANCH   1  21
BRANCH   4  34
HETATM   34  O1  UNL     1      37.355 -12.588  27.551  1.00  0.00    -0.346 OA
ATOM     35  H1  UNL     1      37.282 -12.063  28.340  1.00  0.00     0.219 HD
ENDBRANCH   4  34
TORSDOF 10
ENDMDL
MODEL 5
REMARK VINA RESULT: -7.405727512      1.597      2.182
REMARK  10 active torsions:
REMARK  status: ('A' for Active; 'I' for Inactive)
REMARK    1  A    between atoms: C10_12  and  C11_13 
REMARK    2  A    between atoms: C11_13  and  C12_14 
REMARK    3  A    between atoms: C13_17  and  O1_18 
REMARK    4  A    between atoms: C15_21  and  C16_22 
REMARK    5  A    between atoms: C17_23  and  C18_24 
REMARK    6  A    between atoms: C19_25  and  C20_26 
REMARK    7  A    between atoms: C20_26  and  S1_27 
REMARK    8  A    between atoms: S1_27  and  N3_30 
REMARK    9  A    between atoms: N3_30  and  C21_32 
REMARK   10  A    between atoms: C21_32  and  C22_33 
ROOT
HETATM    1  C12 UNL     1      37.755 -14.748  27.305  1.00  0.00     0.046 A 
HETATM    2  N2  UNL     1      37.019 -13.808  26.694  1.00  0.00    -0.336 N 
ATOM      3  H2  UNL     1      37.152 -13.512  25.727  1.00  0.00     0.168 HD
HETATM    4  C13 UNL     1      36.097 -13.311  27.507  1.00  0.00     0.141 A 
HETATM    5  C14 UNL     1      36.237 -13.964  28.724  1.00  0.00     0.069 A 
HETATM    6  C15 UNL     1      37.254 -14.850  28.613  1.00  0.00    -0.005 A 
ENDROOT
BRANCH   6   7
HETATM    7  C16 UNL     1      37.789 -15.766  29.578  1.00  0.00     0.014 C 
HETATM    8  C17 UNL     1      37.850 -17.051  29.649  1.00  0.00     0.001 C 
BRANCH   8   9
HETATM    9  C18 UNL     1      37.402 -18.105  28.781  1.00  0.00    -0.003 C 
HETATM   10  C19 UNL     1      38.203 -18.903  28.094  1.00  0.00    -0.010 C 
BRANCH  10  11
HETATM   11  C20 UNL     1      39.661 -18.904  28.053  1.00  0.00     0.190 C 
BRANCH  11  12
HETATM   12  S1  UNL     1      40.270 -20.181  29.162  1.00  0.00     0.233 S 
HETATM   13  O2  UNL     1      40.154 -19.580  30.558  1.00  0.00    -0.205 OA
HETATM   14  O3  UNL     1      39.373 -21.375  29.147  1.00  0.00    -0.205 OA
BRANCH  12  15
HETATM   15  N3  UNL     1      41.886 -20.516  28.868  1.00  0.00    -0.298 N 
ATOM     16  H3  UNL     1      42.543 -19.778  28.613  1.00  0.00     0.177 HD
BRANCH  15  17
HETATM   17  C21 UNL     1      42.298 -21.857  28.987  1.00  0.00     0.076 C 
BRANCH  17  18
HETATM   18  C22 UNL     1      42.639 -22.333  30.349  1.00  0.00     0.016 C 
HETATM   19  C23 UNL     1      43.882 -21.772  30.937  1.00  0.00     0.015 C 
HETATM   20  C24 UNL     1      42.848 -23.851  30.246  1.00  0.00     0.015 C 
ENDBRANCH  17  18
ENDBRANCH  15  17
ENDBRANCH  12  15
ENDBRANCH  11  12
ENDBRANCH  10  11
ENDBRANCH   8   9
ENDBRANCH   6   7
BRANCH   1  21
HETATM   21  C11 UNL     1      38.870 -15.465  26.715  1.00  0.00     0.060 C 
BRANCH  21  22
HETATM   22  C10 UNL     1      38.866 -16.071  25.555  1.00  0.00     0.040 A 
HETATM   23  C2  UNL     1      39.738 -15.923  24.509  1.00  0.00    -0.033 A 
HETATM   24  C1  UNL     1      40.927 -15.064  24.324  1.00  0.00     0.050 C 
HETATM   25  C3  UNL     1      39.321 -16.791  23.497  1.00  0.00     0.038 A 
HETATM   26  C4  UNL     1      38.206 -17.457  23.935  1.00  0.00     0.035 A 
HETATM   27  C5  UNL     1      37.530 -18.372  23.230  1.00  0.00    -0.053 C 
HETATM   28  N1  UNL     1      37.950 -17.013  25.164  1.00  0.00    -0.356 N 
HETATM   29  C6  UNL     1      37.853 -18.834  21.867  1.00  0.00     0.036 C 
HETATM   30  C9  UNL     1      36.319 -19.117  23.661  1.00  0.00     0.036 C 
HETATM   31  C7  UNL     1      37.411 -20.275  21.839  1.00  0.00     0.005 C 
HETATM   32  C8  UNL     1      36.367 -20.431  22.916  1.00  0.00     0.005 C 
ATOM     33  H1  UNL     1      37.172 -17.333  25.741  1.00  0.00     0.166 HD
ENDBRANCH  21  22
ENDBRANCH   1  21
BRANCH   4  34
HETATM   34  O1  UNL     1      35.160 -12.330  27.224  1.00  0.00    -0.346 OA
ATOM     35  H1  UNL     1      34.614 -11.855  27.839  1.00  0.00     0.219 HD
ENDBRANCH   4  34
TORSDOF 10
ENDMDL
