MODEL 1
REMARK VINA RESULT: -9.209686510      0.000      0.000
REMARK  8 active torsions:
REMARK  status: ('A' for Active; 'I' for Inactive)
REMARK    1  A    between atoms: N1_1  and  C1_4 
REMARK    2  A    between atoms: C2_9  and  C3_10 
REMARK       I    between atoms: C3_10  and  N4_12 
REMARK    3  A    between atoms: N4_12  and  N5_14 
REMARK    4  A    between atoms: C4_16  and  C5_17 
REMARK    5  A    between atoms: C5_17  and  C6_19 
REMARK       I    between atoms: C6_19  and  N6_21 
REMARK    6  A    between atoms: N6_21  and  C7_23 
REMARK    7  A    between atoms: C11_27  and  N7_28 
REMARK    8  A    between atoms: C12_31  and  N8_32 
ROOT
HETATM    1  N5  UNL     1      -8.285 -85.545  92.049  1.00  0.00    -0.305 N 
ATOM      2  H5  UNL     1      -8.223 -84.527  92.031  1.00  0.00     0.186 HD
HETATM    3  C4  UNL     1      -7.185 -86.177  92.174  1.00  0.00     0.167 C 
ENDROOT
BRANCH   1   4
HETATM    4  N4  UNL     1      -9.553 -86.085  91.935  1.00  0.00    -0.265 N 
HETATM    5  C3  UNL     1     -10.440 -86.014  93.027  1.00  0.00     0.291 C 
HETATM    6  O1  UNL     1     -10.102 -85.467  94.101  1.00  0.00    -0.264 OA
ATOM      7  H4  UNL     1      -9.843 -86.532  91.066  1.00  0.00     0.190 HD
BRANCH   5   8
HETATM    8  C2  UNL     1     -11.780 -86.590  92.897  1.00  0.00     0.160 A 
HETATM    9  N3  UNL     1     -12.874 -85.788  92.853  1.00  0.00    -0.278 N 
HETATM   10  N2  UNL     1     -14.090 -86.286  92.733  1.00  0.00    -0.132 N 
ATOM     11  H3  UNL     1     -12.754 -84.777  92.913  1.00  0.00     0.188 HD
HETATM   12  C1  UNL     1     -14.291 -87.623  92.649  1.00  0.00     0.691 A 
ATOM     13  H2  UNL     1     -14.891 -85.655  92.702  1.00  0.00     0.205 HD
HETATM   14  N10 UNL     1     -13.251 -88.474  92.687  1.00  0.00    -0.175 N 
HETATM   15  C13 UNL     1     -12.008 -87.949  92.809  1.00  0.00     0.165 A 
ATOM     16  H10 UNL     1     -13.393 -89.482  92.625  1.00  0.00     0.185 HD
HETATM   17  N9  UNL     1     -10.882 -88.809  92.855  1.00  0.00    -0.079 NA
BRANCH  12  18
HETATM   18  N1  UNL     1     -15.506 -88.090  92.529  1.00  0.00    -0.233 N 
ATOM     19  H12 UNL     1     -16.082 -87.806  91.736  1.00  0.00     0.174 HD
ATOM     20  H11 UNL     1     -15.872 -88.735  93.229  1.00  0.00     0.174 HD
ENDBRANCH  12  18
ENDBRANCH   5   8
ENDBRANCH   1   4
BRANCH   3  21
HETATM   21  C5  UNL     1      -5.941 -85.463  92.281  1.00  0.00     0.256 C 
HETATM   22  O2  UNL     1      -5.951 -84.200  92.322  1.00  0.00    -0.281 OA
BRANCH  21  23
HETATM   23  C6  UNL     1      -4.689 -86.200  92.340  1.00  0.00     0.297 C 
HETATM   24  O3  UNL     1      -4.732 -87.397  92.649  1.00  0.00    -0.264 OA
HETATM   25  N6  UNL     1      -3.488 -85.543  92.049  1.00  0.00    -0.318 N 
ATOM     26  H6  UNL     1      -3.577 -84.557  91.805  1.00  0.00     0.169 HD
BRANCH  25  27
HETATM   27  C7  UNL     1      -2.183 -86.046  92.044  1.00  0.00     0.070 A 
HETATM   28  C8  UNL     1      -1.415 -86.221  93.153  1.00  0.00     0.032 A 
HETATM   29  C9  UNL     1      -0.111 -86.731  93.041  1.00  0.00     0.005 A 
HETATM   30  C10 UNL     1       0.445 -87.070  91.841  1.00  0.00     0.039 A 
HETATM   31  C11 UNL     1      -0.358 -86.882  90.708  1.00  0.00     0.138 A 
HETATM   32  C12 UNL     1      -1.632 -86.387  90.800  1.00  0.00     0.162 A 
BRANCH  31  33
HETATM   33  N7  UNL     1       0.213 -87.234  89.440  1.00  0.00    -0.113 N 
HETATM   34  O4  UNL     1      -0.107 -88.325  88.884  1.00  0.00    -0.532 OA
HETATM   35  O5  UNL     1       1.097 -86.357  88.873  1.00  0.00    -0.532 OA
ENDBRANCH  31  33
BRANCH  32  36
HETATM   36  N8  UNL     1      -2.387 -86.245  89.607  1.00  0.00    -0.111 N 
HETATM   37  O6  UNL     1      -2.287 -85.269  88.843  1.00  0.00    -0.532 OA
HETATM   38  O7  UNL     1      -3.278 -87.242  89.287  1.00  0.00    -0.532 OA
ENDBRANCH  32  36
ENDBRANCH  25  27
ENDBRANCH  21  23
ENDBRANCH   3  21
TORSDOF 8
ENDMDL
MODEL 2
REMARK VINA RESULT: -8.542107999      2.385     10.085
REMARK  8 active torsions:
REMARK  status: ('A' for Active; 'I' for Inactive)
REMARK    1  A    between atoms: N1_1  and  C1_4 
REMARK    2  A    between atoms: C2_9  and  C3_10 
REMARK       I    between atoms: C3_10  and  N4_12 
REMARK    3  A    between atoms: N4_12  and  N5_14 
REMARK    4  A    between atoms: C4_16  and  C5_17 
REMARK    5  A    between atoms: C5_17  and  C6_19 
REMARK       I    between atoms: C6_19  and  N6_21 
REMARK    6  A    between atoms: N6_21  and  C7_23 
REMARK    7  A    between atoms: C11_27  and  N7_28 
REMARK    8  A    between atoms: C12_31  and  N8_32 
ROOT
HETATM    1  N5  UNL     1      -4.422 -85.648  90.965  1.00  0.00    -0.305 N 
ATOM      2  H5  UNL     1      -5.227 -85.915  90.399  1.00  0.00     0.186 HD
HETATM    3  C4  UNL     1      -4.672 -85.012  92.041  1.00  0.00     0.167 C 
ENDROOT
BRANCH   1   4
HETATM    4  N4  UNL     1      -3.180 -86.015  90.478  1.00  0.00    -0.265 N 
HETATM    5  C3  UNL     1      -3.028 -87.253  89.823  1.00  0.00     0.291 C 
HETATM    6  O1  UNL     1      -4.000 -88.027  89.670  1.00  0.00    -0.264 OA
ATOM      7  H4  UNL     1      -2.380 -85.393  90.594  1.00  0.00     0.190 HD
BRANCH   5   8
HETATM    8  C2  UNL     1      -1.710 -87.633  89.313  1.00  0.00     0.160 A 
HETATM    9  N3  UNL     1      -1.555 -88.019  88.020  1.00  0.00    -0.278 N 
HETATM   10  N2  UNL     1      -0.375 -88.363  87.539  1.00  0.00    -0.132 N 
ATOM     11  H3  UNL     1      -2.369 -88.043  87.407  1.00  0.00     0.188 HD
HETATM   12  C1  UNL     1       0.730 -88.343  88.322  1.00  0.00     0.691 A 
ATOM     13  H2  UNL     1      -0.294 -88.648  86.563  1.00  0.00     0.205 HD
HETATM   14  N10 UNL     1       0.647 -87.971  89.612  1.00  0.00    -0.175 N 
HETATM   15  C13 UNL     1      -0.570 -87.619  90.092  1.00  0.00     0.165 A 
ATOM     16  H10 UNL     1       1.473 -87.954  90.209  1.00  0.00     0.185 HD
HETATM   17  N9  UNL     1      -0.705 -87.222  91.447  1.00  0.00    -0.079 NA
BRANCH  12  18
HETATM   18  N1  UNL     1       1.887 -88.687  87.821  1.00  0.00    -0.233 N 
ATOM     19  H12 UNL     1       2.022 -88.680  86.809  1.00  0.00     0.174 HD
ATOM     20  H11 UNL     1       2.647 -88.961  88.443  1.00  0.00     0.174 HD
ENDBRANCH  12  18
ENDBRANCH   5   8
ENDBRANCH   1   4
BRANCH   3  21
HETATM   21  C5  UNL     1      -6.028 -84.704  92.408  1.00  0.00     0.256 C 
HETATM   22  O2  UNL     1      -6.254 -83.771  93.230  1.00  0.00    -0.281 OA
BRANCH  21  23
HETATM   23  C6  UNL     1      -7.122 -85.468  91.830  1.00  0.00     0.297 C 
HETATM   24  O3  UNL     1      -7.677 -85.018  90.819  1.00  0.00    -0.264 OA
HETATM   25  N6  UNL     1      -7.512 -86.673  92.425  1.00  0.00    -0.318 N 
ATOM     26  H6  UNL     1      -6.981 -86.943  93.253  1.00  0.00     0.169 HD
BRANCH  25  27
HETATM   27  C7  UNL     1      -8.525 -87.560  92.048  1.00  0.00     0.070 A 
HETATM   28  C8  UNL     1      -8.409 -88.500  91.071  1.00  0.00     0.032 A 
HETATM   29  C9  UNL     1      -9.489 -89.343  90.764  1.00  0.00     0.005 A 
HETATM   30  C10 UNL     1     -10.688 -89.267  91.413  1.00  0.00     0.039 A 
HETATM   31  C11 UNL     1     -10.792 -88.294  92.416  1.00  0.00     0.138 A 
HETATM   32  C12 UNL     1      -9.748 -87.465  92.727  1.00  0.00     0.162 A 
BRANCH  31  33
HETATM   33  N7  UNL     1     -12.046 -88.203  93.106  1.00  0.00    -0.113 N 
HETATM   34  O4  UNL     1     -12.500 -89.208  93.725  1.00  0.00    -0.532 OA
HETATM   35  O5  UNL     1     -12.712 -87.008  93.066  1.00  0.00    -0.532 OA
ENDBRANCH  31  33
BRANCH  32  36
HETATM   36  N8  UNL     1      -9.929 -86.518  93.769  1.00  0.00    -0.111 N 
HETATM   37  O6  UNL     1     -10.147 -85.310  93.569  1.00  0.00    -0.532 OA
HETATM   38  O7  UNL     1      -9.851 -86.965  95.066  1.00  0.00    -0.532 OA
ENDBRANCH  32  36
ENDBRANCH  25  27
ENDBRANCH  21  23
ENDBRANCH   3  21
TORSDOF 8
ENDMDL
MODEL 3
REMARK VINA RESULT: -8.419860233      3.196     10.111
REMARK  8 active torsions:
REMARK  status: ('A' for Active; 'I' for Inactive)
REMARK    1  A    between atoms: N1_1  and  C1_4 
REMARK    2  A    between atoms: C2_9  and  C3_10 
REMARK       I    between atoms: C3_10  and  N4_12 
REMARK    3  A    between atoms: N4_12  and  N5_14 
REMARK    4  A    between atoms: C4_16  and  C5_17 
REMARK    5  A    between atoms: C5_17  and  C6_19 
REMARK       I    between atoms: C6_19  and  N6_21 
REMARK    6  A    between atoms: N6_21  and  C7_23 
REMARK    7  A    between atoms: C11_27  and  N7_28 
REMARK    8  A    between atoms: C12_31  and  N8_32 
ROOT
HETATM    1  N5  UNL     1      -2.222 -86.780  89.903  1.00  0.00    -0.305 N 
ATOM      2  H5  UNL     1      -1.691 -87.087  90.718  1.00  0.00     0.186 HD
HETATM    3  C4  UNL     1      -3.267 -86.089  90.135  1.00  0.00     0.167 C 
ENDROOT
BRANCH   1   4
HETATM    4  N4  UNL     1      -1.727 -87.161  88.669  1.00  0.00    -0.265 N 
HETATM    5  C3  UNL     1      -2.020 -88.444  88.167  1.00  0.00     0.291 C 
HETATM    6  O1  UNL     1      -2.725 -89.248  88.818  1.00  0.00    -0.264 OA
ATOM      7  H4  UNL     1      -1.153 -86.516  88.126  1.00  0.00     0.190 HD
BRANCH   5   8
HETATM    8  C2  UNL     1      -1.490 -88.838  86.861  1.00  0.00     0.160 A 
HETATM    9  N3  UNL     1      -2.325 -89.036  85.808  1.00  0.00    -0.278 N 
HETATM   10  N2  UNL     1      -1.868 -89.388  84.622  1.00  0.00    -0.132 N 
ATOM     11  H3  UNL     1      -3.329 -88.909  85.938  1.00  0.00     0.188 HD
HETATM   12  C1  UNL     1      -0.542 -89.566  84.409  1.00  0.00     0.691 A 
ATOM     13  H2  UNL     1      -2.523 -89.529  83.852  1.00  0.00     0.205 HD
HETATM   14  N10 UNL     1       0.340 -89.386  85.409  1.00  0.00    -0.175 N 
HETATM   15  C13 UNL     1      -0.143 -89.023  86.622  1.00  0.00     0.165 A 
ATOM     16  H10 UNL     1       1.339 -89.518  85.258  1.00  0.00     0.185 HD
HETATM   17  N9  UNL     1       0.750 -88.825  87.704  1.00  0.00    -0.079 NA
BRANCH  12  18
HETATM   18  N1  UNL     1      -0.116 -89.914  83.224  1.00  0.00    -0.233 N 
ATOM     19  H12 UNL     1      -0.693 -90.515  82.635  1.00  0.00     0.174 HD
ATOM     20  H11 UNL     1       0.791 -89.583  82.894  1.00  0.00     0.174 HD
ENDBRANCH  12  18
ENDBRANCH   5   8
ENDBRANCH   1   4
BRANCH   3  21
HETATM   21  C5  UNL     1      -3.650 -85.777  91.487  1.00  0.00     0.256 C 
HETATM   22  O2  UNL     1      -2.789 -85.851  92.409  1.00  0.00    -0.281 OA
BRANCH  21  23
HETATM   23  C6  UNL     1      -5.018 -85.381  91.776  1.00  0.00     0.297 C 
HETATM   24  O3  UNL     1      -5.210 -84.262  92.270  1.00  0.00    -0.264 OA
HETATM   25  N6  UNL     1      -6.066 -86.263  91.491  1.00  0.00    -0.318 N 
ATOM     26  H6  UNL     1      -5.788 -87.156  91.084  1.00  0.00     0.169 HD
BRANCH  25  27
HETATM   27  C7  UNL     1      -7.441 -86.097  91.684  1.00  0.00     0.070 A 
HETATM   28  C8  UNL     1      -8.247 -85.328  90.902  1.00  0.00     0.032 A 
HETATM   29  C9  UNL     1      -9.619 -85.224  91.182  1.00  0.00     0.005 A 
HETATM   30  C10 UNL     1     -10.206 -85.871  92.231  1.00  0.00     0.039 A 
HETATM   31  C11 UNL     1      -9.363 -86.658  93.027  1.00  0.00     0.138 A 
HETATM   32  C12 UNL     1      -8.024 -86.771  92.766  1.00  0.00     0.162 A 
BRANCH  31  33
HETATM   33  N7  UNL     1      -9.967 -87.344  94.132  1.00  0.00    -0.113 N 
HETATM   34  O4  UNL     1      -9.980 -86.807  95.278  1.00  0.00    -0.532 OA
HETATM   35  O5  UNL     1     -10.516 -88.575  93.897  1.00  0.00    -0.532 OA
ENDBRANCH  31  33
BRANCH  32  36
HETATM   36  N8  UNL     1      -7.242 -87.603  93.610  1.00  0.00    -0.111 N 
HETATM   37  O6  UNL     1      -6.515 -87.168  94.520  1.00  0.00    -0.532 OA
HETATM   38  O7  UNL     1      -7.293 -88.960  93.401  1.00  0.00    -0.532 OA
ENDBRANCH  32  36
ENDBRANCH  25  27
ENDBRANCH  21  23
ENDBRANCH   3  21
TORSDOF 8
ENDMDL
MODEL 4
REMARK VINA RESULT: -8.341693640      0.643      1.414
REMARK  8 active torsions:
REMARK  status: ('A' for Active; 'I' for Inactive)
REMARK    1  A    between atoms: N1_1  and  C1_4 
REMARK    2  A    between atoms: C2_9  and  C3_10 
REMARK       I    between atoms: C3_10  and  N4_12 
REMARK    3  A    between atoms: N4_12  and  N5_14 
REMARK    4  A    between atoms: C4_16  and  C5_17 
REMARK    5  A    between atoms: C5_17  and  C6_19 
REMARK       I    between atoms: C6_19  and  N6_21 
REMARK    6  A    between atoms: N6_21  and  C7_23 
REMARK    7  A    between atoms: C11_27  and  N7_28 
REMARK    8  A    between atoms: C12_31  and  N8_32 
ROOT
HETATM    1  N5  UNL     1      -8.286 -85.797  92.492  1.00  0.00    -0.305 N 
ATOM      2  H5  UNL     1      -8.249 -85.022  93.154  1.00  0.00     0.186 HD
HETATM    3  C4  UNL     1      -7.177 -86.147  91.968  1.00  0.00     0.167 C 
ENDROOT
BRANCH   1   4
HETATM    4  N4  UNL     1      -9.532 -86.351  92.262  1.00  0.00    -0.265 N 
HETATM    5  C3  UNL     1     -10.206 -87.008  93.310  1.00  0.00     0.291 C 
HETATM    6  O1  UNL     1      -9.697 -87.098  94.450  1.00  0.00    -0.264 OA
ATOM      7  H4  UNL     1      -9.961 -86.284  91.339  1.00  0.00     0.190 HD
BRANCH   5   8
HETATM    8  C2  UNL     1     -11.524 -87.592  93.056  1.00  0.00     0.160 A 
HETATM    9  N3  UNL     1     -11.654 -88.920  92.808  1.00  0.00    -0.278 N 
HETATM   10  N2  UNL     1     -12.833 -89.468  92.580  1.00  0.00    -0.132 N 
ATOM     11  H3  UNL     1     -10.821 -89.509  92.799  1.00  0.00     0.188 HD
HETATM   12  C1  UNL     1     -13.962 -88.719  92.585  1.00  0.00     0.691 A 
ATOM     13  H2  UNL     1     -12.895 -90.469  92.398  1.00  0.00     0.205 HD
HETATM   14  N10 UNL     1     -13.904 -87.397  92.823  1.00  0.00    -0.175 N 
HETATM   15  C13 UNL     1     -12.687 -86.849  93.057  1.00  0.00     0.165 A 
ATOM     16  H10 UNL     1     -14.749 -86.826  92.828  1.00  0.00     0.185 HD
HETATM   17  N9  UNL     1     -12.579 -85.458  93.310  1.00  0.00    -0.079 NA
BRANCH  12  18
HETATM   18  N1  UNL     1     -15.117 -89.287  92.357  1.00  0.00    -0.233 N 
ATOM     19  H12 UNL     1     -15.654 -89.671  93.135  1.00  0.00     0.174 HD
ATOM     20  H11 UNL     1     -15.475 -89.342  91.404  1.00  0.00     0.174 HD
ENDBRANCH  12  18
ENDBRANCH   5   8
ENDBRANCH   1   4
BRANCH   3  21
HETATM   21  C5  UNL     1      -5.959 -85.464  92.315  1.00  0.00     0.256 C 
HETATM   22  O2  UNL     1      -5.990 -84.225  92.562  1.00  0.00    -0.281 OA
BRANCH  21  23
HETATM   23  C6  UNL     1      -4.710 -86.205  92.377  1.00  0.00     0.297 C 
HETATM   24  O3  UNL     1      -4.753 -87.394  92.718  1.00  0.00    -0.264 OA
HETATM   25  N6  UNL     1      -3.510 -85.562  92.053  1.00  0.00    -0.318 N 
ATOM     26  H6  UNL     1      -3.598 -84.581  91.785  1.00  0.00     0.169 HD
BRANCH  25  27
HETATM   27  C7  UNL     1      -2.208 -86.070  92.044  1.00  0.00     0.070 A 
HETATM   28  C8  UNL     1      -1.453 -86.290  93.154  1.00  0.00     0.032 A 
HETATM   29  C9  UNL     1      -0.150 -86.801  93.038  1.00  0.00     0.005 A 
HETATM   30  C10 UNL     1       0.418 -87.098  91.832  1.00  0.00     0.039 A 
HETATM   31  C11 UNL     1      -0.372 -86.865  90.698  1.00  0.00     0.138 A 
HETATM   32  C12 UNL     1      -1.644 -86.368  90.795  1.00  0.00     0.162 A 
BRANCH  31  33
HETATM   33  N7  UNL     1       0.212 -87.173  89.425  1.00  0.00    -0.113 N 
HETATM   34  O4  UNL     1       1.052 -86.380  88.907  1.00  0.00    -0.532 OA
HETATM   35  O5  UNL     1      -0.169 -88.335  88.811  1.00  0.00    -0.532 OA
ENDBRANCH  31  33
BRANCH  32  36
HETATM   36  N8  UNL     1      -2.384 -86.178  89.599  1.00  0.00    -0.111 N 
HETATM   37  O6  UNL     1      -2.259 -85.184  88.864  1.00  0.00    -0.532 OA
HETATM   38  O7  UNL     1      -3.291 -87.148  89.244  1.00  0.00    -0.532 OA
ENDBRANCH  32  36
ENDBRANCH  25  27
ENDBRANCH  21  23
ENDBRANCH   3  21
TORSDOF 8
ENDMDL
MODEL 5
REMARK VINA RESULT: -8.277947482      1.667      2.218
REMARK  8 active torsions:
REMARK  status: ('A' for Active; 'I' for Inactive)
REMARK    1  A    between atoms: N1_1  and  C1_4 
REMARK    2  A    between atoms: C2_9  and  C3_10 
REMARK       I    between atoms: C3_10  and  N4_12 
REMARK    3  A    between atoms: N4_12  and  N5_14 
REMARK    4  A    between atoms: C4_16  and  C5_17 
REMARK    5  A    between atoms: C5_17  and  C6_19 
REMARK       I    between atoms: C6_19  and  N6_21 
REMARK    6  A    between atoms: N6_21  and  C7_23 
REMARK    7  A    between atoms: C11_27  and  N7_28 
REMARK    8  A    between atoms: C12_31  and  N8_32 
ROOT
HETATM    1  N5  UNL     1      -8.333 -86.633  92.773  1.00  0.00    -0.305 N 
ATOM      2  H5  UNL     1      -7.970 -87.087  93.611  1.00  0.00     0.186 HD
HETATM    3  C4  UNL     1      -7.502 -85.939  92.100  1.00  0.00     0.167 C 
ENDROOT
BRANCH   1   4
HETATM    4  N4  UNL     1      -9.672 -86.839  92.494  1.00  0.00    -0.265 N 
HETATM    5  C3  UNL     1     -10.637 -86.584  93.487  1.00  0.00     0.291 C 
HETATM    6  O1  UNL     1     -10.305 -86.170  94.621  1.00  0.00    -0.264 OA
ATOM      7  H4  UNL     1      -9.958 -87.174  91.574  1.00  0.00     0.190 HD
BRANCH   5   8
HETATM    8  C2  UNL     1     -12.051 -86.807  93.183  1.00  0.00     0.160 A 
HETATM    9  N3  UNL     1     -12.875 -85.759  92.923  1.00  0.00    -0.278 N 
HETATM   10  N2  UNL     1     -14.152 -85.938  92.643  1.00  0.00    -0.132 N 
ATOM     11  H3  UNL     1     -12.497 -84.812  92.944  1.00  0.00     0.188 HD
HETATM   12  C1  UNL     1     -14.690 -87.180  92.605  1.00  0.00     0.691 A 
ATOM     13  H2  UNL     1     -14.743 -85.129  92.452  1.00  0.00     0.205 HD
HETATM   14  N10 UNL     1     -13.930 -88.262  92.853  1.00  0.00    -0.175 N 
HETATM   15  C13 UNL     1     -12.621 -88.064  93.138  1.00  0.00     0.165 A 
ATOM     16  H10 UNL     1     -14.327 -89.201  92.828  1.00  0.00     0.185 HD
HETATM   17  N9  UNL     1     -11.783 -89.175  93.408  1.00  0.00    -0.079 NA
BRANCH  12  18
HETATM   18  N1  UNL     1     -15.958 -87.330  92.324  1.00  0.00    -0.233 N 
ATOM     19  H12 UNL     1     -16.473 -86.564  91.890  1.00  0.00     0.174 HD
ATOM     20  H11 UNL     1     -16.424 -88.211  92.540  1.00  0.00     0.174 HD
ENDBRANCH  12  18
ENDBRANCH   5   8
ENDBRANCH   1   4
BRANCH   3  21
HETATM   21  C5  UNL     1      -6.134 -85.823  92.528  1.00  0.00     0.256 C 
HETATM   22  O2  UNL     1      -5.876 -85.691  93.758  1.00  0.00    -0.281 OA
BRANCH  21  23
HETATM   23  C6  UNL     1      -5.065 -85.857  91.543  1.00  0.00     0.297 C 
HETATM   24  O3  UNL     1      -4.828 -84.824  90.903  1.00  0.00    -0.264 OA
HETATM   25  N6  UNL     1      -4.344 -87.041  91.349  1.00  0.00    -0.318 N 
ATOM     26  H6  UNL     1      -4.628 -87.826  91.934  1.00  0.00     0.169 HD
BRANCH  25  27
HETATM   27  C7  UNL     1      -3.290 -87.301  90.468  1.00  0.00     0.070 A 
HETATM   28  C8  UNL     1      -3.414 -87.953  89.280  1.00  0.00     0.032 A 
HETATM   29  C9  UNL     1      -2.290 -88.169  88.466  1.00  0.00     0.005 A 
HETATM   30  C10 UNL     1      -1.040 -87.745  88.814  1.00  0.00     0.039 A 
HETATM   31  C11 UNL     1      -0.928 -87.076  90.040  1.00  0.00     0.138 A 
HETATM   32  C12 UNL     1      -2.014 -86.857  90.844  1.00  0.00     0.162 A 
BRANCH  31  33
HETATM   33  N7  UNL     1       0.380 -86.626  90.418  1.00  0.00    -0.113 N 
HETATM   34  O4  UNL     1       0.974 -85.753  89.720  1.00  0.00    -0.532 OA
HETATM   35  O5  UNL     1       0.944 -87.169  91.541  1.00  0.00    -0.532 OA
ENDBRANCH  31  33
BRANCH  32  36
HETATM   36  N8  UNL     1      -1.819 -86.155  92.062  1.00  0.00    -0.111 N 
HETATM   37  O6  UNL     1      -1.591 -84.934  92.121  1.00  0.00    -0.532 OA
HETATM   38  O7  UNL     1      -1.882 -86.870  93.234  1.00  0.00    -0.532 OA
ENDBRANCH  32  36
ENDBRANCH  25  27
ENDBRANCH  21  23
ENDBRANCH   3  21
TORSDOF 8
ENDMDL
