MODEL 1
REMARK VINA RESULT: -7.948568370      0.000      0.000
REMARK  5 active torsions:
REMARK  status: ('A' for Active; 'I' for Inactive)
REMARK    1  A    between atoms: N1_1  and  N2_4 
REMARK       I    between atoms: N2_4  and  C1_6 
REMARK    2  A    between atoms: C1_6  and  C2_8 
REMARK    3  A    between atoms: C3_11  and  N4_12 
REMARK       I    between atoms: N4_12  and  C4_14 
REMARK       I    between atoms: C4_14  and  N5_15 
REMARK       I    between atoms: C4_14  and  N6_19 
REMARK    4  A    between atoms: C6_27  and  N8_28 
REMARK    5  A    between atoms: N9_30  and  N10_32 
ROOT
HETATM    1  C2  UNL     1     -40.861  -6.434  23.490  1.00  0.00     0.152 A 
HETATM    2  N3  UNL     1     -41.491  -7.301  22.679  1.00  0.00    -0.184 N 
ATOM      3  H3  UNL     1     -41.384  -7.178  21.671  1.00  0.00     0.184 HD
HETATM    4  C3  UNL     1     -42.246  -8.311  23.109  1.00  0.00     0.684 A 
HETATM    5  N7  UNL     1     -42.401  -8.491  24.427  1.00  0.00    -0.154 N 
ATOM      6  H7  UNL     1     -42.978  -9.263  24.761  1.00  0.00     0.187 HD
HETATM    7  C5  UNL     1     -41.804  -7.664  25.332  1.00  0.00     0.290 A 
HETATM    8  O2  UNL     1     -41.981  -7.875  26.564  1.00  0.00    -0.265 OA
HETATM    9  C6  UNL     1     -41.036  -6.639  24.846  1.00  0.00     0.151 A 
ENDROOT
BRANCH   4  10
HETATM   10  N4  UNL     1     -42.830  -9.119  22.303  1.00  0.00    -0.173 N 
HETATM   11  C4  UNL     1     -44.227  -9.172  22.044  1.00  0.00     0.494 C 
HETATM   12  N5  UNL     1     -44.541 -10.435  21.403  1.00  0.00    -0.032 N 
HETATM   13  N6  UNL     1     -44.739  -8.077  21.264  1.00  0.00    -0.032 N 
ATOM     14  H53 UNL     1     -43.985 -10.593  20.564  1.00  0.00     0.278 HD
ATOM     15  H52 UNL     1     -44.216 -11.237  21.944  1.00  0.00     0.278 HD
ATOM     16  H51 UNL     1     -45.543 -10.473  21.218  1.00  0.00     0.278 HD
ATOM     17  H63 UNL     1     -44.495  -7.189  21.700  1.00  0.00     0.278 HD
ATOM     18  H62 UNL     1     -44.221  -7.994  20.389  1.00  0.00     0.278 HD
ATOM     19  H61 UNL     1     -45.741  -8.115  21.078  1.00  0.00     0.278 HD
ATOM     20  H4  UNL     1     -42.240  -9.783  21.802  1.00  0.00     0.181 HD
ENDBRANCH   4  10
BRANCH   1  21
HETATM   21  C1  UNL     1     -40.035  -5.329  23.010  1.00  0.00     0.289 C 
HETATM   22  N2  UNL     1     -40.415  -4.521  21.908  1.00  0.00    -0.271 N 
ATOM     23  H2  UNL     1     -41.293  -4.707  21.423  1.00  0.00     0.189 HD
HETATM   24  O1  UNL     1     -38.946  -5.102  23.612  1.00  0.00    -0.264 OA
BRANCH  22  25
HETATM   25  N1  UNL     1     -39.605  -3.486  21.485  1.00  0.00    -0.342 N 
ATOM     26  H12 UNL     1     -39.709  -2.571  21.923  1.00  0.00     0.176 HD
ATOM     27  H11 UNL     1     -38.915  -3.636  20.748  1.00  0.00     0.176 HD
ENDBRANCH  22  25
ENDBRANCH   1  21
BRANCH   9  28
HETATM   28  N8  UNL     1     -40.390  -5.747  25.780  1.00  0.00    -0.279 N 
HETATM   29  N9  UNL     1     -39.439  -6.251  26.452  1.00  0.00    -0.243 N 
ATOM     30  H9  UNL     1     -39.170  -7.226  26.322  1.00  0.00     0.208 HD
ATOM     31  H8  UNL     1     -40.679  -4.775  25.892  1.00  0.00     0.189 HD
BRANCH  29  32
HETATM   32  N10 UNL     1     -38.771  -5.446  27.373  1.00  0.00    -0.286 N 
HETATM   33  C7  UNL     1     -37.528  -5.811  28.026  1.00  0.00     0.173 C 
HETATM   34  C8  UNL     1     -37.114  -4.502  28.666  1.00  0.00     0.255 C 
HETATM   35  N11 UNL     1     -38.398  -3.962  29.090  1.00  0.00    -0.056 N 
HETATM   36  C9  UNL     1     -39.172  -4.118  27.848  1.00  0.00     0.375 C 
ATOM     37 2H11 UNL     1     -38.805  -4.390  29.922  1.00  0.00     0.279 HD
ATOM     38 1H11 UNL     1     -38.375  -3.021  29.482  1.00  0.00     0.279 HD
ENDBRANCH  29  32
ENDBRANCH   9  28
TORSDOF 5
ENDMDL
MODEL 2
REMARK VINA RESULT: -7.901208174      1.660      6.808
REMARK  5 active torsions:
REMARK  status: ('A' for Active; 'I' for Inactive)
REMARK    1  A    between atoms: N1_1  and  N2_4 
REMARK       I    between atoms: N2_4  and  C1_6 
REMARK    2  A    between atoms: C1_6  and  C2_8 
REMARK    3  A    between atoms: C3_11  and  N4_12 
REMARK       I    between atoms: N4_12  and  C4_14 
REMARK       I    between atoms: C4_14  and  N5_15 
REMARK       I    between atoms: C4_14  and  N6_19 
REMARK    4  A    between atoms: C6_27  and  N8_28 
REMARK    5  A    between atoms: N9_30  and  N10_32 
ROOT
HETATM    1  C2  UNL     1     -40.907  -6.461  24.394  1.00  0.00     0.152 A 
HETATM    2  N3  UNL     1     -40.274  -5.558  25.163  1.00  0.00    -0.184 N 
ATOM      3  H3  UNL     1     -39.975  -4.685  24.728  1.00  0.00     0.184 HD
HETATM    4  C3  UNL     1     -40.013  -5.733  26.458  1.00  0.00     0.684 A 
HETATM    5  N7  UNL     1     -40.395  -6.872  27.049  1.00  0.00    -0.154 N 
ATOM      6  H7  UNL     1     -40.197  -7.011  28.040  1.00  0.00     0.187 HD
HETATM    7  C5  UNL     1     -41.043  -7.851  26.355  1.00  0.00     0.290 A 
HETATM    8  O2  UNL     1     -41.382  -8.907  26.958  1.00  0.00    -0.265 OA
HETATM    9  C6  UNL     1     -41.291  -7.629  25.027  1.00  0.00     0.151 A 
ENDROOT
BRANCH   4  10
HETATM   10  N4  UNL     1     -39.407  -4.846  27.158  1.00  0.00    -0.173 N 
HETATM   11  C4  UNL     1     -38.546  -5.101  28.260  1.00  0.00     0.494 C 
HETATM   12  N5  UNL     1     -38.377  -3.877  29.021  1.00  0.00    -0.032 N 
HETATM   13  N6  UNL     1     -37.264  -5.651  27.911  1.00  0.00    -0.032 N 
ATOM     14  H53 UNL     1     -38.049  -3.104  28.443  1.00  0.00     0.278 HD
ATOM     15  H52 UNL     1     -39.268  -3.473  29.309  1.00  0.00     0.278 HD
ATOM     16  H51 UNL     1     -37.759  -4.060  29.811  1.00  0.00     0.278 HD
ATOM     17  H63 UNL     1     -37.383  -6.497  27.353  1.00  0.00     0.278 HD
ATOM     18  H62 UNL     1     -36.797  -5.054  27.228  1.00  0.00     0.278 HD
ATOM     19  H61 UNL     1     -36.646  -5.834  28.701  1.00  0.00     0.278 HD
ATOM     20  H4  UNL     1     -39.557  -3.871  26.902  1.00  0.00     0.181 HD
ENDBRANCH   4  10
BRANCH   1  21
HETATM   21  C1  UNL     1     -41.189  -6.261  22.975  1.00  0.00     0.289 C 
HETATM   22  N2  UNL     1     -42.386  -5.651  22.519  1.00  0.00    -0.271 N 
ATOM     23  H2  UNL     1     -43.082  -5.336  23.195  1.00  0.00     0.189 HD
HETATM   24  O1  UNL     1     -40.325  -6.654  22.141  1.00  0.00    -0.264 OA
BRANCH  22  25
HETATM   25  N1  UNL     1     -42.616  -5.481  21.168  1.00  0.00    -0.342 N 
ATOM     26  H12 UNL     1     -41.981  -4.888  20.633  1.00  0.00     0.176 HD
ATOM     27  H11 UNL     1     -43.406  -5.942  20.716  1.00  0.00     0.176 HD
ENDBRANCH  22  25
ENDBRANCH   1  21
BRANCH   9  28
HETATM   28  N8  UNL     1     -41.976  -8.647  24.265  1.00  0.00    -0.279 N 
HETATM   29  N9  UNL     1     -43.230  -8.716  24.445  1.00  0.00    -0.243 N 
ATOM     30  H9  UNL     1     -43.698  -8.082  25.092  1.00  0.00     0.208 HD
ATOM     31  H8  UNL     1     -41.485  -9.270  23.623  1.00  0.00     0.189 HD
BRANCH  29  32
HETATM   32  N10 UNL     1     -43.955  -9.676  23.741  1.00  0.00    -0.286 N 
HETATM   33  C7  UNL     1     -44.185 -11.031  24.207  1.00  0.00     0.173 C 
HETATM   34  C8  UNL     1     -45.236 -11.523  23.235  1.00  0.00     0.255 C 
HETATM   35  N11 UNL     1     -44.798 -10.906  21.990  1.00  0.00    -0.056 N 
HETATM   36  C9  UNL     1     -44.608  -9.517  22.438  1.00  0.00     0.375 C 
ATOM     37 2H11 UNL     1     -43.992 -11.341  21.540  1.00  0.00     0.279 HD
ATOM     38 1H11 UNL     1     -45.419 -11.032  21.191  1.00  0.00     0.279 HD
ENDBRANCH  29  32
ENDBRANCH   9  28
TORSDOF 5
ENDMDL
MODEL 3
REMARK VINA RESULT: -7.774460395      1.365      6.741
REMARK  5 active torsions:
REMARK  status: ('A' for Active; 'I' for Inactive)
REMARK    1  A    between atoms: N1_1  and  N2_4 
REMARK       I    between atoms: N2_4  and  C1_6 
REMARK    2  A    between atoms: C1_6  and  C2_8 
REMARK    3  A    between atoms: C3_11  and  N4_12 
REMARK       I    between atoms: N4_12  and  C4_14 
REMARK       I    between atoms: C4_14  and  N5_15 
REMARK       I    between atoms: C4_14  and  N6_19 
REMARK    4  A    between atoms: C6_27  and  N8_28 
REMARK    5  A    between atoms: N9_30  and  N10_32 
ROOT
HETATM    1  C2  UNL     1     -40.590  -5.993  24.786  1.00  0.00     0.152 A 
HETATM    2  N3  UNL     1     -39.969  -5.334  25.779  1.00  0.00    -0.184 N 
ATOM      3  H3  UNL     1     -39.593  -4.407  25.577  1.00  0.00     0.184 HD
HETATM    4  C3  UNL     1     -39.814  -5.816  27.011  1.00  0.00     0.684 A 
HETATM    5  N7  UNL     1     -40.299  -7.032  27.298  1.00  0.00    -0.154 N 
ATOM      6  H7  UNL     1     -40.182  -7.406  28.240  1.00  0.00     0.187 HD
HETATM    7  C5  UNL     1     -40.944  -7.781  26.359  1.00  0.00     0.290 A 
HETATM    8  O2  UNL     1     -41.382  -8.920  26.679  1.00  0.00    -0.265 OA
HETATM    9  C6  UNL     1     -41.081  -7.245  25.106  1.00  0.00     0.151 A 
ENDROOT
BRANCH   4  10
HETATM   10  N4  UNL     1     -39.216  -5.157  27.933  1.00  0.00    -0.173 N 
HETATM   11  C4  UNL     1     -37.823  -4.883  27.992  1.00  0.00     0.494 C 
HETATM   12  N5  UNL     1     -37.478  -4.473  29.340  1.00  0.00    -0.032 N 
HETATM   13  N6  UNL     1     -37.358  -3.909  27.041  1.00  0.00    -0.032 N 
ATOM     14  H53 UNL     1     -38.041  -3.687  29.663  1.00  0.00     0.278 HD
ATOM     15  H52 UNL     1     -37.769  -5.156  30.040  1.00  0.00     0.278 HD
ATOM     16  H51 UNL     1     -36.478  -4.276  29.382  1.00  0.00     0.278 HD
ATOM     17  H63 UNL     1     -37.624  -4.183  26.096  1.00  0.00     0.278 HD
ATOM     18  H62 UNL     1     -37.892  -3.044  27.131  1.00  0.00     0.278 HD
ATOM     19  H61 UNL     1     -36.358  -3.713  27.083  1.00  0.00     0.278 HD
ATOM     20  H4  UNL     1     -39.792  -4.796  28.693  1.00  0.00     0.181 HD
ENDBRANCH   4  10
BRANCH   1  21
HETATM   21  C1  UNL     1     -40.756  -5.456  23.437  1.00  0.00     0.289 C 
HETATM   22  N2  UNL     1     -39.792  -4.606  22.836  1.00  0.00    -0.271 N 
ATOM     23  H2  UNL     1     -38.950  -4.352  23.351  1.00  0.00     0.189 HD
HETATM   24  O1  UNL     1     -41.801  -5.773  22.801  1.00  0.00    -0.264 OA
BRANCH  22  25
HETATM   25  N1  UNL     1     -39.987  -4.120  21.558  1.00  0.00    -0.342 N 
ATOM     26  H12 UNL     1     -39.652  -3.182  21.333  1.00  0.00     0.176 HD
ATOM     27  H11 UNL     1     -40.458  -4.689  20.854  1.00  0.00     0.176 HD
ENDBRANCH  22  25
ENDBRANCH   1  21
BRANCH   9  28
HETATM   28  N8  UNL     1     -41.760  -8.014  24.088  1.00  0.00    -0.279 N 
HETATM   29  N9  UNL     1     -42.922  -8.423  24.395  1.00  0.00    -0.243 N 
ATOM     30  H9  UNL     1     -43.325  -8.209  25.307  1.00  0.00     0.208 HD
ATOM     31  H8  UNL     1     -41.335  -8.214  23.183  1.00  0.00     0.189 HD
BRANCH  29  32
HETATM   32  N10 UNL     1     -43.636  -9.170  23.460  1.00  0.00    -0.286 N 
HETATM   33  C7  UNL     1     -43.962 -10.575  23.614  1.00  0.00     0.173 C 
HETATM   34  C8  UNL     1     -44.959 -10.791  22.495  1.00  0.00     0.255 C 
HETATM   35  N11 UNL     1     -44.401  -9.958  21.439  1.00  0.00    -0.056 N 
HETATM   36  C9  UNL     1     -44.181  -8.706  22.180  1.00  0.00     0.375 C 
ATOM     37 2H11 UNL     1     -43.584 -10.338  20.960  1.00  0.00     0.279 HD
ATOM     38 1H11 UNL     1     -44.965  -9.878  20.593  1.00  0.00     0.279 HD
ENDBRANCH  29  32
ENDBRANCH   9  28
TORSDOF 5
ENDMDL
MODEL 4
REMARK VINA RESULT: -7.322023256      2.327      3.170
REMARK  5 active torsions:
REMARK  status: ('A' for Active; 'I' for Inactive)
REMARK    1  A    between atoms: N1_1  and  N2_4 
REMARK       I    between atoms: N2_4  and  C1_6 
REMARK    2  A    between atoms: C1_6  and  C2_8 
REMARK    3  A    between atoms: C3_11  and  N4_12 
REMARK       I    between atoms: N4_12  and  C4_14 
REMARK       I    between atoms: C4_14  and  N5_15 
REMARK       I    between atoms: C4_14  and  N6_19 
REMARK    4  A    between atoms: C6_27  and  N8_28 
REMARK    5  A    between atoms: N9_30  and  N10_32 
ROOT
HETATM    1  C2  UNL     1     -42.520  -7.653  22.313  1.00  0.00     0.152 A 
HETATM    2  N3  UNL     1     -43.461  -7.712  21.355  1.00  0.00    -0.184 N 
ATOM      3  H3  UNL     1     -43.332  -7.138  20.521  1.00  0.00     0.184 HD
HETATM    4  C3  UNL     1     -44.552  -8.473  21.427  1.00  0.00     0.684 A 
HETATM    5  N7  UNL     1     -44.744  -9.233  22.514  1.00  0.00    -0.154 N 
ATOM      6  H7  UNL     1     -45.578  -9.817  22.573  1.00  0.00     0.187 HD
HETATM    7  C5  UNL     1     -43.848  -9.243  23.541  1.00  0.00     0.290 A 
HETATM    8  O2  UNL     1     -44.073  -9.976  24.543  1.00  0.00    -0.265 OA
HETATM    9  C6  UNL     1     -42.739  -8.446  23.425  1.00  0.00     0.151 A 
ENDROOT
BRANCH   4  10
HETATM   10  N4  UNL     1     -45.428  -8.502  20.491  1.00  0.00    -0.173 N 
HETATM   11  C4  UNL     1     -46.660  -7.795  20.480  1.00  0.00     0.494 C 
HETATM   12  N5  UNL     1     -47.530  -8.374  19.475  1.00  0.00    -0.032 N 
HETATM   13  N6  UNL     1     -46.541  -6.376  20.276  1.00  0.00    -0.032 N 
ATOM     14  H53 UNL     1     -47.093  -8.405  18.555  1.00  0.00     0.278 HD
ATOM     15  H52 UNL     1     -47.660  -9.378  19.605  1.00  0.00     0.278 HD
ATOM     16  H51 UNL     1     -48.414  -7.866  19.467  1.00  0.00     0.278 HD
ATOM     17  H63 UNL     1     -45.908  -5.972  20.967  1.00  0.00     0.278 HD
ATOM     18  H62 UNL     1     -46.016  -6.185  19.423  1.00  0.00     0.278 HD
ATOM     19  H61 UNL     1     -47.425  -5.868  20.269  1.00  0.00     0.278 HD
ATOM     20  H4  UNL     1     -45.221  -9.087  19.682  1.00  0.00     0.181 HD
ENDBRANCH   4  10
BRANCH   1  21
HETATM   21  C1  UNL     1     -41.326  -6.817  22.226  1.00  0.00     0.289 C 
HETATM   22  N2  UNL     1     -41.323  -5.456  22.628  1.00  0.00    -0.271 N 
ATOM     23  H2  UNL     1     -42.177  -5.034  22.992  1.00  0.00     0.189 HD
HETATM   24  O1  UNL     1     -40.269  -7.342  21.774  1.00  0.00    -0.264 OA
BRANCH  22  25
HETATM   25  N1  UNL     1     -40.173  -4.699  22.529  1.00  0.00    -0.342 N 
ATOM     26  H12 UNL     1     -40.041  -4.111  21.705  1.00  0.00     0.176 HD
ATOM     27  H11 UNL     1     -39.469  -4.727  23.268  1.00  0.00     0.176 HD
ENDBRANCH  22  25
ENDBRANCH   1  21
BRANCH   9  28
HETATM   28  N8  UNL     1     -41.771  -8.435  24.497  1.00  0.00    -0.279 N 
HETATM   29  N9  UNL     1     -42.025  -7.645  25.456  1.00  0.00    -0.243 N 
ATOM     30  H9  UNL     1     -42.865  -7.066  25.445  1.00  0.00     0.208 HD
ATOM     31  H8  UNL     1     -40.938  -9.024  24.484  1.00  0.00     0.189 HD
BRANCH  29  32
HETATM   32  N10 UNL     1     -41.133  -7.583  26.526  1.00  0.00    -0.286 N 
HETATM   33  C7  UNL     1     -40.178  -6.511  26.731  1.00  0.00     0.173 C 
HETATM   34  C8  UNL     1     -39.695  -6.786  28.140  1.00  0.00     0.255 C 
HETATM   35  N11 UNL     1     -39.653  -8.242  28.157  1.00  0.00    -0.056 N 
HETATM   36  C9  UNL     1     -40.987  -8.551  27.617  1.00  0.00     0.375 C 
ATOM     37 2H11 UNL     1     -38.867  -8.668  27.666  1.00  0.00     0.279 HD
ATOM     38 1H11 UNL     1     -39.431  -8.668  29.057  1.00  0.00     0.279 HD
ENDBRANCH  29  32
ENDBRANCH   9  28
TORSDOF 5
ENDMDL
MODEL 5
REMARK VINA RESULT: -7.277657318      2.824      7.178
REMARK  5 active torsions:
REMARK  status: ('A' for Active; 'I' for Inactive)
REMARK    1  A    between atoms: N1_1  and  N2_4 
REMARK       I    between atoms: N2_4  and  C1_6 
REMARK    2  A    between atoms: C1_6  and  C2_8 
REMARK    3  A    between atoms: C3_11  and  N4_12 
REMARK       I    between atoms: N4_12  and  C4_14 
REMARK       I    between atoms: C4_14  and  N5_15 
REMARK       I    between atoms: C4_14  and  N6_19 
REMARK    4  A    between atoms: C6_27  and  N8_28 
REMARK    5  A    between atoms: N9_30  and  N10_32 
ROOT
HETATM    1  C2  UNL     1     -42.107  -7.584  23.410  1.00  0.00     0.152 A 
HETATM    2  N3  UNL     1     -41.401  -7.791  24.534  1.00  0.00    -0.184 N 
ATOM      3  H3  UNL     1     -40.683  -7.110  24.781  1.00  0.00     0.184 HD
HETATM    4  C3  UNL     1     -41.581  -8.832  25.346  1.00  0.00     0.684 A 
HETATM    5  N7  UNL     1     -42.517  -9.740  25.040  1.00  0.00    -0.154 N 
ATOM      6  H7  UNL     1     -42.658 -10.539  25.659  1.00  0.00     0.187 HD
HETATM    7  C5  UNL     1     -43.285  -9.620  23.920  1.00  0.00     0.290 A 
HETATM    8  O2  UNL     1     -44.153 -10.502  23.676  1.00  0.00    -0.265 OA
HETATM    9  C6  UNL     1     -43.067  -8.534  23.115  1.00  0.00     0.151 A 
ENDROOT
BRANCH   4  10
HETATM   10  N4  UNL     1     -40.887  -8.995  26.412  1.00  0.00    -0.173 N 
HETATM   11  C4  UNL     1     -40.620  -8.002  27.392  1.00  0.00     0.494 C 
HETATM   12  N5  UNL     1     -39.508  -8.436  28.216  1.00  0.00    -0.032 N 
HETATM   13  N6  UNL     1     -41.744  -7.650  28.219  1.00  0.00    -0.032 N 
ATOM     14  H53 UNL     1     -39.667  -9.355  28.628  1.00  0.00     0.278 HD
ATOM     15  H52 UNL     1     -38.682  -8.668  27.663  1.00  0.00     0.278 HD
ATOM     16  H51 UNL     1     -39.317  -7.723  28.920  1.00  0.00     0.278 HD
ATOM     17  H63 UNL     1     -42.535  -7.370  27.639  1.00  0.00     0.278 HD
ATOM     18  H62 UNL     1     -42.134  -8.485  28.658  1.00  0.00     0.278 HD
ATOM     19  H61 UNL     1     -41.553  -6.937  28.922  1.00  0.00     0.278 HD
ATOM     20  H4  UNL     1     -40.491  -9.921  26.570  1.00  0.00     0.181 HD
ENDBRANCH   4  10
BRANCH   1  21
HETATM   21  C1  UNL     1     -41.903  -6.439  22.525  1.00  0.00     0.289 C 
HETATM   22  N2  UNL     1     -40.653  -5.778  22.415  1.00  0.00    -0.271 N 
ATOM     23  H2  UNL     1     -39.859  -6.103  22.968  1.00  0.00     0.189 HD
HETATM   24  O1  UNL     1     -42.889  -6.040  21.842  1.00  0.00    -0.264 OA
BRANCH  22  25
HETATM   25  N1  UNL     1     -40.502  -4.699  21.567  1.00  0.00    -0.342 N 
ATOM     26  H12 UNL     1     -40.432  -3.764  21.969  1.00  0.00     0.176 HD
ATOM     27  H11 UNL     1     -40.462  -4.837  20.557  1.00  0.00     0.176 HD
ENDBRANCH  22  25
ENDBRANCH   1  21
BRANCH   9  28
HETATM   28  N8  UNL     1     -43.865  -8.379  21.921  1.00  0.00    -0.279 N 
HETATM   29  N9  UNL     1     -45.122  -8.403  22.095  1.00  0.00    -0.243 N 
ATOM     30  H9  UNL     1     -45.515  -8.526  23.027  1.00  0.00     0.208 HD
ATOM     31  H8  UNL     1     -43.447  -8.257  20.999  1.00  0.00     0.189 HD
BRANCH  29  32
HETATM   32  N10 UNL     1     -45.953  -8.258  20.986  1.00  0.00    -0.286 N 
HETATM   33  C7  UNL     1     -46.069  -9.233  19.918  1.00  0.00     0.173 C 
HETATM   34  C8  UNL     1     -47.279  -8.729  19.161  1.00  0.00     0.255 C 
HETATM   35  N11 UNL     1     -47.097  -7.286  19.243  1.00  0.00    -0.056 N 
HETATM   36  C9  UNL     1     -46.846  -7.134  20.685  1.00  0.00     0.375 C 
ATOM     37 2H11 UNL     1     -46.385  -6.893  18.626  1.00  0.00     0.279 HD
ATOM     38 1H11 UNL     1     -47.857  -6.721  18.865  1.00  0.00     0.279 HD
ENDBRANCH  29  32
ENDBRANCH   9  28
TORSDOF 5
ENDMDL
