MODEL 1
REMARK VINA RESULT: -6.556201855      0.000      0.000
REMARK  6 active torsions:
REMARK  status: ('A' for Active; 'I' for Inactive)
REMARK    1  A    between atoms: N3_4  and  N4_6 
REMARK    2  A    between atoms: N4_6  and  C2_8 
REMARK    3  A    between atoms: C5_11  and  C6_12 
REMARK    4  A    between atoms: C6_12  and  C7_13 
REMARK    5  A    between atoms: C7_13  and  N5_14 
REMARK    6  A    between atoms: N5_14  and  C8_16 
ROOT
HETATM    1  C2  UNL     1      22.162  -3.185  10.441  1.00  0.00     0.048 A 
HETATM    2  C3  UNL     1      22.315  -4.165   9.483  1.00  0.00     0.031 A 
HETATM    3  C4  UNL     1      23.414  -5.000   9.485  1.00  0.00     0.009 A 
HETATM    4  C5  UNL     1      24.411  -4.903  10.431  1.00  0.00    -0.057 A 
HETATM    5  C9  UNL     1      24.258  -3.924  11.389  1.00  0.00     0.009 A 
HETATM    6  C10 UNL     1      23.160  -3.090  11.388  1.00  0.00     0.031 A 
ENDROOT
BRANCH   1   7
HETATM    7  N4  UNL     1      21.027  -2.322  10.443  1.00  0.00    -0.299 N 
ATOM      8  H4  UNL     1      21.107  -1.371  10.083  1.00  0.00     0.187 HD
BRANCH   7   9
HETATM    9  N3  UNL     1      19.820  -2.775  10.933  1.00  0.00    -0.276 N 
HETATM   10  C1  UNL     1      19.438  -2.776  12.140  1.00  0.00     0.215 C 
HETATM   11  N1  UNL     1      20.278  -2.273  13.177  1.00  0.00    -0.065 NA
HETATM   12  N2  UNL     1      18.136  -3.299  12.430  1.00  0.00    -0.065 NA
ATOM     13  H3  UNL     1      19.164  -3.150  10.248  1.00  0.00     0.189 HD
ENDBRANCH   7   9
ENDBRANCH   1   7
BRANCH   4  14
HETATM   14  C6  UNL     1      25.603  -5.815  10.424  1.00  0.00     0.058 C 
BRANCH  14  15
HETATM   15  C7  UNL     1      25.528  -6.850  11.495  1.00  0.00     0.126 C 
BRANCH  15  16
HETATM   16  N5  UNL     1      24.331  -7.614  11.353  1.00  0.00    -0.368 N 
ATOM     17  H5  UNL     1      23.534  -7.358  11.936  1.00  0.00     0.161 HD
BRANCH  16  18
HETATM   18  C8  UNL     1      24.172  -8.692  10.468  1.00  0.00     0.348 C 
HETATM   19  O1  UNL     1      23.123  -8.900   9.813  1.00  0.00    -0.284 OA
ENDBRANCH  16  18
ENDBRANCH  15  16
ENDBRANCH  14  15
ENDBRANCH   4  14
TORSDOF 6
ENDMDL
MODEL 2
REMARK VINA RESULT: -6.501299191      0.620      1.519
REMARK  6 active torsions:
REMARK  status: ('A' for Active; 'I' for Inactive)
REMARK    1  A    between atoms: N3_4  and  N4_6 
REMARK    2  A    between atoms: N4_6  and  C2_8 
REMARK    3  A    between atoms: C5_11  and  C6_12 
REMARK    4  A    between atoms: C6_12  and  C7_13 
REMARK    5  A    between atoms: C7_13  and  N5_14 
REMARK    6  A    between atoms: N5_14  and  C8_16 
ROOT
HETATM    1  C2  UNL     1      21.920  -3.248  10.603  1.00  0.00     0.048 A 
HETATM    2  C3  UNL     1      22.909  -3.177  11.561  1.00  0.00     0.031 A 
HETATM    3  C4  UNL     1      24.053  -3.943  11.464  1.00  0.00     0.009 A 
HETATM    4  C5  UNL     1      24.272  -4.812  10.418  1.00  0.00    -0.057 A 
HETATM    5  C9  UNL     1      23.283  -4.883   9.459  1.00  0.00     0.009 A 
HETATM    6  C10 UNL     1      22.140  -4.119   9.556  1.00  0.00     0.031 A 
ENDROOT
BRANCH   1   7
HETATM    7  N4  UNL     1      20.738  -2.458  10.699  1.00  0.00    -0.299 N 
ATOM      8  H4  UNL     1      20.467  -1.847   9.927  1.00  0.00     0.187 HD
BRANCH   7   9
HETATM    9  N3  UNL     1      19.960  -2.519  11.835  1.00  0.00    -0.276 N 
HETATM   10  C1  UNL     1      18.713  -2.726  11.897  1.00  0.00     0.215 C 
HETATM   11  N1  UNL     1      17.942  -2.931  10.714  1.00  0.00    -0.065 NA
HETATM   12  N2  UNL     1      18.100  -2.748  13.192  1.00  0.00    -0.065 NA
ATOM     13  H3  UNL     1      20.442  -2.383  12.723  1.00  0.00     0.189 HD
ENDBRANCH   7   9
ENDBRANCH   1   7
BRANCH   4  14
HETATM   14  C6  UNL     1      25.519  -5.641  10.323  1.00  0.00     0.058 C 
BRANCH  14  15
HETATM   15  C7  UNL     1      25.572  -6.702  11.370  1.00  0.00     0.126 C 
BRANCH  15  16
HETATM   16  N5  UNL     1      24.395  -7.507  11.311  1.00  0.00    -0.368 N 
ATOM     17  H5  UNL     1      23.596  -7.220  11.878  1.00  0.00     0.161 HD
BRANCH  16  18
HETATM   18  C8  UNL     1      24.257  -8.664  10.530  1.00  0.00     0.348 C 
HETATM   19  O1  UNL     1      23.299  -8.858   9.744  1.00  0.00    -0.284 OA
ENDBRANCH  16  18
ENDBRANCH  15  16
ENDBRANCH  14  15
ENDBRANCH   4  14
TORSDOF 6
ENDMDL
MODEL 3
REMARK VINA RESULT: -6.191543906      1.193      1.589
REMARK  6 active torsions:
REMARK  status: ('A' for Active; 'I' for Inactive)
REMARK    1  A    between atoms: N3_4  and  N4_6 
REMARK    2  A    between atoms: N4_6  and  C2_8 
REMARK    3  A    between atoms: C5_11  and  C6_12 
REMARK    4  A    between atoms: C6_12  and  C7_13 
REMARK    5  A    between atoms: C7_13  and  N5_14 
REMARK    6  A    between atoms: N5_14  and  C8_16 
ROOT
HETATM    1  C2  UNL     1      21.762  -3.265  11.271  1.00  0.00     0.048 A 
HETATM    2  C3  UNL     1      22.989  -2.833  10.813  1.00  0.00     0.031 A 
HETATM    3  C4  UNL     1      24.069  -3.689  10.750  1.00  0.00     0.009 A 
HETATM    4  C5  UNL     1      23.986  -5.010  11.135  1.00  0.00    -0.057 A 
HETATM    5  C9  UNL     1      22.759  -5.442  11.593  1.00  0.00     0.009 A 
HETATM    6  C10 UNL     1      21.680  -4.587  11.657  1.00  0.00     0.031 A 
ENDROOT
BRANCH   1   7
HETATM    7  N4  UNL     1      20.643  -2.384  11.337  1.00  0.00    -0.299 N 
ATOM      8  H4  UNL     1      20.519  -1.661  10.627  1.00  0.00     0.187 HD
BRANCH   7   9
HETATM    9  N3  UNL     1      19.728  -2.509  12.361  1.00  0.00    -0.276 N 
HETATM   10  C1  UNL     1      18.489  -2.741  12.253  1.00  0.00     0.215 C 
HETATM   11  N1  UNL     1      17.881  -2.908  10.973  1.00  0.00    -0.065 NA
HETATM   12  N2  UNL     1      17.716  -2.831  13.457  1.00  0.00    -0.065 NA
ATOM     13  H3  UNL     1      20.090  -2.402  13.308  1.00  0.00     0.189 HD
ENDBRANCH   7   9
ENDBRANCH   1   7
BRANCH   4  14
HETATM   14  C6  UNL     1      25.167  -5.933  11.063  1.00  0.00     0.058 C 
BRANCH  14  15
HETATM   15  C7  UNL     1      24.788  -7.354  11.314  1.00  0.00     0.126 C 
BRANCH  15  16
HETATM   16  N5  UNL     1      24.313  -7.953  10.108  1.00  0.00    -0.368 N 
ATOM     17  H5  UNL     1      24.796  -7.719   9.241  1.00  0.00     0.161 HD
BRANCH  16  18
HETATM   18  C8  UNL     1      23.228  -8.840  10.032  1.00  0.00     0.348 C 
HETATM   19  O1  UNL     1      22.042  -8.468   9.865  1.00  0.00    -0.284 OA
ENDBRANCH  16  18
ENDBRANCH  15  16
ENDBRANCH  14  15
ENDBRANCH   4  14
TORSDOF 6
ENDMDL
MODEL 4
REMARK VINA RESULT: -6.175017681      1.180      1.471
REMARK  6 active torsions:
REMARK  status: ('A' for Active; 'I' for Inactive)
REMARK    1  A    between atoms: N3_4  and  N4_6 
REMARK    2  A    between atoms: N4_6  and  C2_8 
REMARK    3  A    between atoms: C5_11  and  C6_12 
REMARK    4  A    between atoms: C6_12  and  C7_13 
REMARK    5  A    between atoms: C7_13  and  N5_14 
REMARK    6  A    between atoms: N5_14  and  C8_16 
ROOT
HETATM    1  C2  UNL     1      21.728  -3.263  11.212  1.00  0.00     0.048 A 
HETATM    2  C3  UNL     1      21.679  -4.566  11.660  1.00  0.00     0.031 A 
HETATM    3  C4  UNL     1      22.776  -5.397  11.558  1.00  0.00     0.009 A 
HETATM    4  C5  UNL     1      23.969  -4.980  11.008  1.00  0.00    -0.057 A 
HETATM    5  C9  UNL     1      24.018  -3.676  10.560  1.00  0.00     0.009 A 
HETATM    6  C10 UNL     1      22.922  -2.845  10.662  1.00  0.00     0.031 A 
ENDROOT
BRANCH   1   7
HETATM    7  N4  UNL     1      20.598  -2.400  11.317  1.00  0.00    -0.299 N 
ATOM      8  H4  UNL     1      20.436  -1.681  10.612  1.00  0.00     0.187 HD
BRANCH   7   9
HETATM    9  N3  UNL     1      19.723  -2.540  12.374  1.00  0.00    -0.276 N 
HETATM   10  C1  UNL     1      18.482  -2.780  12.311  1.00  0.00     0.215 C 
HETATM   11  N1  UNL     1      17.827  -2.942  11.054  1.00  0.00    -0.065 NA
HETATM   12  N2  UNL     1      17.756  -2.885  13.542  1.00  0.00    -0.065 NA
ATOM     13  H3  UNL     1      20.119  -2.438  13.308  1.00  0.00     0.189 HD
ENDBRANCH   7   9
ENDBRANCH   1   7
BRANCH   4  14
HETATM   14  C6  UNL     1      25.156  -5.892  10.901  1.00  0.00     0.058 C 
BRANCH  14  15
HETATM   15  C7  UNL     1      24.823  -7.296  11.281  1.00  0.00     0.126 C 
BRANCH  15  16
HETATM   16  N5  UNL     1      24.330  -8.006  10.145  1.00  0.00    -0.368 N 
ATOM     17  H5  UNL     1      24.826  -7.889   9.262  1.00  0.00     0.161 HD
BRANCH  16  18
HETATM   18  C8  UNL     1      23.212  -8.855  10.159  1.00  0.00     0.348 C 
HETATM   19  O1  UNL     1      22.057  -8.481   9.846  1.00  0.00    -0.284 OA
ENDBRANCH  16  18
ENDBRANCH  15  16
ENDBRANCH  14  15
ENDBRANCH   4  14
TORSDOF 6
ENDMDL
MODEL 5
REMARK VINA RESULT: -6.115408533      1.819      2.174
REMARK  6 active torsions:
REMARK  status: ('A' for Active; 'I' for Inactive)
REMARK    1  A    between atoms: N3_4  and  N4_6 
REMARK    2  A    between atoms: N4_6  and  C2_8 
REMARK    3  A    between atoms: C5_11  and  C6_12 
REMARK    4  A    between atoms: C6_12  and  C7_13 
REMARK    5  A    between atoms: C7_13  and  N5_14 
REMARK    6  A    between atoms: N5_14  and  C8_16 
ROOT
HETATM    1  C2  UNL     1      21.778  -3.490  11.105  1.00  0.00     0.048 A 
HETATM    2  C3  UNL     1      21.858  -4.642  11.860  1.00  0.00     0.031 A 
HETATM    3  C4  UNL     1      22.592  -5.728  11.428  1.00  0.00     0.009 A 
HETATM    4  C5  UNL     1      23.279  -5.726  10.234  1.00  0.00    -0.057 A 
HETATM    5  C9  UNL     1      23.199  -4.574   9.479  1.00  0.00     0.009 A 
HETATM    6  C10 UNL     1      22.466  -3.489   9.909  1.00  0.00     0.031 A 
ENDROOT
BRANCH   1   7
HETATM    7  N4  UNL     1      21.022  -2.365  11.548  1.00  0.00    -0.299 N 
ATOM      8  H4  UNL     1      21.488  -1.477  11.733  1.00  0.00     0.187 HD
BRANCH   7   9
HETATM    9  N3  UNL     1      19.659  -2.479  11.726  1.00  0.00    -0.276 N 
HETATM   10  C1  UNL     1      19.034  -2.527  12.825  1.00  0.00     0.215 C 
HETATM   11  N1  UNL     1      19.729  -2.462  14.069  1.00  0.00    -0.065 NA
HETATM   12  N2  UNL     1      17.607  -2.649  12.780  1.00  0.00    -0.065 NA
ATOM     13  H3  UNL     1      19.094  -2.531  10.879  1.00  0.00     0.189 HD
ENDBRANCH   7   9
ENDBRANCH   1   7
BRANCH   4  14
HETATM   14  C6  UNL     1      24.073  -6.913   9.773  1.00  0.00     0.058 C 
BRANCH  14  15
HETATM   15  C7  UNL     1      24.482  -7.791  10.907  1.00  0.00     0.126 C 
BRANCH  15  16
HETATM   16  N5  UNL     1      25.824  -7.496  11.295  1.00  0.00    -0.368 N 
ATOM     17  H5  UNL     1      26.547  -8.172  11.048  1.00  0.00     0.161 HD
BRANCH  16  18
HETATM   18  C8  UNL     1      26.218  -6.343  11.991  1.00  0.00     0.348 C 
HETATM   19  O1  UNL     1      26.801  -5.374  11.449  1.00  0.00    -0.284 OA
ENDBRANCH  16  18
ENDBRANCH  15  16
ENDBRANCH  14  15
ENDBRANCH   4  14
TORSDOF 6
ENDMDL
