MODEL 1
REMARK VINA RESULT: -6.438788880      0.000      0.000
REMARK  5 active torsions:
REMARK  status: ('A' for Active; 'I' for Inactive)
REMARK    1  A    between atoms: C2_2  and  C3_3 
REMARK    2  A    between atoms: C3_3  and  N1_4 
REMARK       I    between atoms: N1_4  and  C4_6 
REMARK    3  A    between atoms: N3_8  and  N4_10 
REMARK    4  A    between atoms: N4_10  and  C5_11 
REMARK    5  A    between atoms: C5_11  and  C6_12 
ROOT
HETATM    1  N1  UNL     1      23.353  -5.997  10.290  1.00  0.00    -0.359 N 
ATOM      2  H1  UNL     1      23.018  -6.217   9.352  1.00  0.00     0.162 HD
HETATM    3  C4  UNL     1      22.854  -4.861  11.004  1.00  0.00     0.213 C 
HETATM    4  N2  UNL     1      23.769  -4.187  11.848  1.00  0.00    -0.061 NA
HETATM    5  N3  UNL     1      21.634  -4.465  10.896  1.00  0.00    -0.207 N 
ATOM      6  H3  UNL     1      21.081  -5.039  10.259  1.00  0.00     0.204 HD
ENDROOT
BRANCH   5   7
HETATM    7  N4  UNL     1      20.968  -3.508  11.416  1.00  0.00    -0.332 NA
BRANCH   7   8
HETATM    8  C5  UNL     1      20.325  -2.564  11.707  1.00  0.00     0.260 C 
BRANCH   8   9
HETATM    9  C6  UNL     1      19.107  -2.612  12.548  1.00  0.00     0.168 A 
HETATM   10  N5  UNL     1      18.440  -3.507  13.306  1.00  0.00    -0.268 N 
HETATM   11  N6  UNL     1      17.512  -2.629  13.633  1.00  0.00    -0.239 N 
ATOM     12  H5  UNL     1      18.595  -4.488  13.539  1.00  0.00     0.190 HD
HETATM   13  N7  UNL     1      18.149  -1.741  12.898  1.00  0.00    -0.268 N 
ATOM     14  H6  UNL     1      16.667  -2.635  14.206  1.00  0.00     0.208 HD
ATOM     15  H7  UNL     1      17.978  -0.760  12.678  1.00  0.00     0.190 HD
ENDBRANCH   8   9
ENDBRANCH   7   8
ENDBRANCH   5   7
BRANCH   1  16
HETATM   16  C3  UNL     1      24.360  -6.836  10.948  1.00  0.00     0.148 C 
BRANCH  16  17
HETATM   17  C2  UNL     1      23.996  -8.255  10.707  1.00  0.00    -0.018 C 
HETATM   18  C1  UNL     1      22.942  -8.538   9.976  1.00  0.00     0.008 C 
ENDBRANCH  16  17
ENDBRANCH   1  16
TORSDOF 5
ENDMDL
MODEL 2
REMARK VINA RESULT: -6.282840850      1.327      1.683
REMARK  5 active torsions:
REMARK  status: ('A' for Active; 'I' for Inactive)
REMARK    1  A    between atoms: C2_2  and  C3_3 
REMARK    2  A    between atoms: C3_3  and  N1_4 
REMARK       I    between atoms: N1_4  and  C4_6 
REMARK    3  A    between atoms: N3_8  and  N4_10 
REMARK    4  A    between atoms: N4_10  and  C5_11 
REMARK    5  A    between atoms: C5_11  and  C6_12 
ROOT
HETATM    1  N1  UNL     1      23.402  -5.191  10.495  1.00  0.00    -0.359 N 
ATOM      2  H1  UNL     1      24.163  -4.513  10.515  1.00  0.00     0.162 HD
HETATM    3  C4  UNL     1      22.151  -4.915  11.135  1.00  0.00     0.213 C 
HETATM    4  N2  UNL     1      21.479  -6.014  11.721  1.00  0.00    -0.061 NA
HETATM    5  N3  UNL     1      21.650  -3.730  11.177  1.00  0.00    -0.207 N 
ATOM      6  H3  UNL     1      22.232  -3.031  10.716  1.00  0.00     0.204 HD
ENDROOT
BRANCH   5   7
HETATM    7  N4  UNL     1      20.579  -3.242  11.673  1.00  0.00    -0.332 NA
BRANCH   7   8
HETATM    8  C5  UNL     1      19.632  -2.906  12.290  1.00  0.00     0.260 C 
BRANCH   8   9
HETATM    9  C6  UNL     1      18.394  -2.364  11.688  1.00  0.00     0.168 A 
HETATM   10  N5  UNL     1      17.728  -2.434  10.515  1.00  0.00    -0.268 N 
HETATM   11  N6  UNL     1      16.771  -1.634  10.942  1.00  0.00    -0.239 N 
ATOM     12  H5  UNL     1      17.900  -2.920   9.636  1.00  0.00     0.190 HD
HETATM   13  N7  UNL     1      17.405  -1.554  12.094  1.00  0.00    -0.268 N 
ATOM     14  H6  UNL     1      15.912  -1.246  10.551  1.00  0.00     0.208 HD
ATOM     15  H7  UNL     1      17.216  -1.060  12.966  1.00  0.00     0.190 HD
ENDBRANCH   8   9
ENDBRANCH   7   8
ENDBRANCH   5   7
BRANCH   1  16
HETATM   16  C3  UNL     1      23.554  -6.479   9.810  1.00  0.00     0.148 C 
BRANCH  16  17
HETATM   17  C2  UNL     1      24.211  -7.419  10.753  1.00  0.00    -0.018 C 
HETATM   18  C1  UNL     1      23.974  -8.706  10.655  1.00  0.00     0.008 C 
ENDBRANCH  16  17
ENDBRANCH   1  16
TORSDOF 5
ENDMDL
MODEL 3
REMARK VINA RESULT: -6.261486558      1.276      1.548
REMARK  5 active torsions:
REMARK  status: ('A' for Active; 'I' for Inactive)
REMARK    1  A    between atoms: C2_2  and  C3_3 
REMARK    2  A    between atoms: C3_3  and  N1_4 
REMARK       I    between atoms: N1_4  and  C4_6 
REMARK    3  A    between atoms: N3_8  and  N4_10 
REMARK    4  A    between atoms: N4_10  and  C5_11 
REMARK    5  A    between atoms: C5_11  and  C6_12 
ROOT
HETATM    1  N1  UNL     1      23.398  -4.818   9.886  1.00  0.00    -0.359 N 
ATOM      2  H1  UNL     1      23.023  -4.963   8.948  1.00  0.00     0.162 HD
HETATM    3  C4  UNL     1      22.720  -3.980  10.829  1.00  0.00     0.213 C 
HETATM    4  N2  UNL     1      23.533  -3.237  11.719  1.00  0.00    -0.061 NA
HETATM    5  N3  UNL     1      21.436  -3.903  10.879  1.00  0.00    -0.207 N 
ATOM      6  H3  UNL     1      20.972  -4.490  10.186  1.00  0.00     0.204 HD
ENDROOT
BRANCH   5   7
HETATM    7  N4  UNL     1      20.620  -3.248  11.611  1.00  0.00    -0.332 NA
BRANCH   7   8
HETATM    8  C5  UNL     1      19.742  -2.798  12.257  1.00  0.00     0.260 C 
BRANCH   8   9
HETATM    9  C6  UNL     1      18.457  -2.320  11.699  1.00  0.00     0.168 A 
HETATM   10  N5  UNL     1      17.748  -2.437  10.556  1.00  0.00    -0.268 N 
HETATM   11  N6  UNL     1      16.774  -1.674  11.012  1.00  0.00    -0.239 N 
ATOM     12  H5  UNL     1      17.906  -2.929   9.677  1.00  0.00     0.190 HD
HETATM   13  N7  UNL     1      17.451  -1.548  12.135  1.00  0.00    -0.268 N 
ATOM     14  H6  UNL     1      15.884  -1.330  10.652  1.00  0.00     0.208 HD
ATOM     15  H7  UNL     1      17.276  -1.050  13.007  1.00  0.00     0.190 HD
ENDBRANCH   8   9
ENDBRANCH   7   8
ENDBRANCH   5   7
BRANCH   1  16
HETATM   16  C3  UNL     1      24.646  -5.461  10.309  1.00  0.00     0.148 C 
BRANCH  16  17
HETATM   17  C2  UNL     1      24.290  -6.689  11.063  1.00  0.00    -0.018 C 
HETATM   18  C1  UNL     1      23.829  -7.735  10.417  1.00  0.00     0.008 C 
ENDBRANCH  16  17
ENDBRANCH   1  16
TORSDOF 5
ENDMDL
MODEL 4
REMARK VINA RESULT: -6.094247820      1.958      2.478
REMARK  5 active torsions:
REMARK  status: ('A' for Active; 'I' for Inactive)
REMARK    1  A    between atoms: C2_2  and  C3_3 
REMARK    2  A    between atoms: C3_3  and  N1_4 
REMARK       I    between atoms: N1_4  and  C4_6 
REMARK    3  A    between atoms: N3_8  and  N4_10 
REMARK    4  A    between atoms: N4_10  and  C5_11 
REMARK    5  A    between atoms: C5_11  and  C6_12 
ROOT
HETATM    1  N1  UNL     1      24.665  -7.049  10.993  1.00  0.00    -0.359 N 
ATOM      2  H1  UNL     1      25.665  -6.943  10.823  1.00  0.00     0.162 HD
HETATM    3  C4  UNL     1      23.837  -5.912  11.256  1.00  0.00     0.213 C 
HETATM    4  N2  UNL     1      22.764  -6.101  12.161  1.00  0.00    -0.061 NA
HETATM    5  N3  UNL     1      24.043  -4.769  10.700  1.00  0.00    -0.207 N 
ATOM      6  H3  UNL     1      24.844  -4.770  10.068  1.00  0.00     0.204 HD
ENDROOT
BRANCH   5   7
HETATM    7  N4  UNL     1      23.459  -3.636  10.769  1.00  0.00    -0.332 NA
BRANCH   7   8
HETATM    8  C5  UNL     1      22.835  -2.663  10.999  1.00  0.00     0.260 C 
BRANCH   8   9
HETATM    9  C6  UNL     1      21.372  -2.547  10.808  1.00  0.00     0.168 A 
HETATM   10  N5  UNL     1      20.480  -2.588   9.795  1.00  0.00    -0.268 N 
HETATM   11  N6  UNL     1      19.459  -2.389  10.605  1.00  0.00    -0.239 N 
ATOM     12  H5  UNL     1      20.565  -2.723   8.787  1.00  0.00     0.190 HD
HETATM   13  N7  UNL     1      20.313  -2.346  11.607  1.00  0.00    -0.268 N 
ATOM     14  H6  UNL     1      18.447  -2.305  10.501  1.00  0.00     0.208 HD
ATOM     15  H7  UNL     1      20.208  -2.211  12.612  1.00  0.00     0.190 HD
ENDBRANCH   8   9
ENDBRANCH   7   8
ENDBRANCH   5   7
BRANCH   1  16
HETATM   16  C3  UNL     1      24.032  -8.372  10.975  1.00  0.00     0.148 C 
BRANCH  16  17
HETATM   17  C2  UNL     1      23.358  -8.534   9.662  1.00  0.00    -0.018 C 
HETATM   18  C1  UNL     1      22.047  -8.510   9.599  1.00  0.00     0.008 C 
ENDBRANCH  16  17
ENDBRANCH   1  16
TORSDOF 5
ENDMDL
MODEL 5
REMARK VINA RESULT: -6.035187812      2.668      6.219
REMARK  5 active torsions:
REMARK  status: ('A' for Active; 'I' for Inactive)
REMARK    1  A    between atoms: C2_2  and  C3_3 
REMARK    2  A    between atoms: C3_3  and  N1_4 
REMARK       I    between atoms: N1_4  and  C4_6 
REMARK    3  A    between atoms: N3_8  and  N4_10 
REMARK    4  A    between atoms: N4_10  and  C5_11 
REMARK    5  A    between atoms: C5_11  and  C6_12 
ROOT
HETATM    1  N1  UNL     1      18.320  -2.135  13.966  1.00  0.00    -0.359 N 
ATOM      2  H1  UNL     1      18.667  -1.371  14.546  1.00  0.00     0.162 HD
HETATM    3  C4  UNL     1      18.868  -2.381  12.666  1.00  0.00     0.213 C 
HETATM    4  N2  UNL     1      17.972  -2.855  11.677  1.00  0.00    -0.061 NA
HETATM    5  N3  UNL     1      20.113  -2.190  12.399  1.00  0.00    -0.207 N 
ATOM      6  H3  UNL     1      20.647  -1.851  13.199  1.00  0.00     0.204 HD
ENDROOT
BRANCH   5   7
HETATM    7  N4  UNL     1      20.822  -2.335  11.347  1.00  0.00    -0.332 NA
BRANCH   7   8
HETATM    8  C5  UNL     1      21.426  -2.662  10.389  1.00  0.00     0.260 C 
BRANCH   8   9
HETATM    9  C6  UNL     1      22.797  -3.219  10.419  1.00  0.00     0.168 A 
HETATM   10  N5  UNL     1      24.029  -2.845  10.822  1.00  0.00    -0.268 N 
HETATM   11  N6  UNL     1      24.568  -3.986  10.437  1.00  0.00    -0.239 N 
ATOM     12  H5  UNL     1      24.402  -2.001  11.258  1.00  0.00     0.190 HD
HETATM   13  N7  UNL     1      23.373  -4.369  10.038  1.00  0.00    -0.268 N 
ATOM     14  H6  UNL     1      25.503  -4.394  10.445  1.00  0.00     0.208 HD
ATOM     15  H7  UNL     1      23.019  -5.221   9.603  1.00  0.00     0.190 HD
ENDBRANCH   8   9
ENDBRANCH   7   8
ENDBRANCH   5   7
BRANCH   1  16
HETATM   16  C3  UNL     1      17.245  -3.014  14.438  1.00  0.00     0.148 C 
BRANCH  16  17
HETATM   17  C2  UNL     1      17.847  -4.013  15.356  1.00  0.00    -0.018 C 
HETATM   18  C1  UNL     1      18.057  -5.238  14.934  1.00  0.00     0.008 C 
ENDBRANCH  16  17
ENDBRANCH   1  16
TORSDOF 5
ENDMDL
