MODEL 1
REMARK VINA RESULT: -6.755803062      0.000      0.000
REMARK  4 active torsions:
REMARK  status: ('A' for Active; 'I' for Inactive)
REMARK    1  A    between atoms: C2_2  and  C3_3 
REMARK    2  A    between atoms: C3_3  and  N1_4 
REMARK       I    between atoms: N1_4  and  C4_6 
REMARK       I    between atoms: C4_6  and  N3_10 
REMARK    3  A    between atoms: N3_10  and  N4_12 
REMARK    4  A    between atoms: C5_14  and  C6_15 
ROOT
HETATM    1  N1  UNL     1      23.361  -5.288  10.722  1.00  0.00    -0.201 N 
ATOM      2  H1  UNL     1      22.548  -5.829  11.017  1.00  0.00     0.183 HD
HETATM    3  C4  UNL     1      23.163  -3.915  10.529  1.00  0.00     0.690 C 
HETATM    4  N2  UNL     1      23.930  -3.045  11.053  1.00  0.00    -0.233 N 
ATOM      5  H21 UNL     1      23.785  -2.045  10.913  1.00  0.00     0.174 HD
ATOM      6  H22 UNL     1      24.692  -3.404  11.629  1.00  0.00     0.174 HD
HETATM    7  N3  UNL     1      22.084  -3.408   9.716  1.00  0.00    -0.133 N 
ATOM      8  H3  UNL     1      22.222  -3.361   8.706  1.00  0.00     0.205 HD
ENDROOT
BRANCH   7   9
HETATM    9  N4  UNL     1      20.877  -2.982  10.230  1.00  0.00    -0.295 N 
HETATM   10  C5  UNL     1      20.447  -3.143  11.422  1.00  0.00     0.138 C 
ATOM     11  H4  UNL     1      20.260  -2.486   9.587  1.00  0.00     0.186 HD
BRANCH  10  12
HETATM   12  C6  UNL     1      19.126  -2.627  11.817  1.00  0.00     0.065 A 
HETATM   13  C7  UNL     1      18.732  -2.351  13.080  1.00  0.00     0.119 A 
HETATM   14  N5  UNL     1      17.456  -1.901  12.996  1.00  0.00    -0.360 N 
HETATM   15  C8  UNL     1      17.078  -1.904  11.709  1.00  0.00     0.180 A 
ATOM     16  H5  UNL     1      16.877  -1.608  13.783  1.00  0.00     0.166 HD
HETATM   17  N6  UNL     1      18.117  -2.354  10.977  1.00  0.00    -0.350 N 
ATOM     18  H6  UNL     1      18.132  -2.467   9.963  1.00  0.00     0.166 HD
ENDBRANCH  10  12
ENDBRANCH   7   9
BRANCH   1  19
HETATM   19  C3  UNL     1      24.557  -5.997  10.554  1.00  0.00     0.105 C 
BRANCH  19  20
HETATM   20  C2  UNL     1      24.650  -7.419  10.827  1.00  0.00     0.007 C 
HETATM   21  C1  UNL     1      23.908  -8.429  10.498  1.00  0.00     0.012 C 
ENDBRANCH  19  20
ENDBRANCH   1  19
TORSDOF 4
ENDMDL
MODEL 2
REMARK VINA RESULT: -6.326873295      1.936      6.650
REMARK  4 active torsions:
REMARK  status: ('A' for Active; 'I' for Inactive)
REMARK    1  A    between atoms: C2_2  and  C3_3 
REMARK    2  A    between atoms: C3_3  and  N1_4 
REMARK       I    between atoms: N1_4  and  C4_6 
REMARK       I    between atoms: C4_6  and  N3_10 
REMARK    3  A    between atoms: N3_10  and  N4_12 
REMARK    4  A    between atoms: C5_14  and  C6_15 
ROOT
HETATM    1  N1  UNL     1      18.343  -3.225  13.249  1.00  0.00    -0.201 N 
ATOM      2  H1  UNL     1      18.929  -4.008  13.540  1.00  0.00     0.183 HD
HETATM    3  C4  UNL     1      18.695  -2.593  12.049  1.00  0.00     0.690 C 
HETATM    4  N2  UNL     1      17.841  -2.374  11.131  1.00  0.00    -0.233 N 
ATOM      5  H21 UNL     1      18.097  -1.914  10.257  1.00  0.00     0.174 HD
ATOM      6  H22 UNL     1      16.889  -2.692  11.314  1.00  0.00     0.174 HD
HETATM    7  N3  UNL     1      20.041  -2.144  11.790  1.00  0.00    -0.133 N 
ATOM      8  H3  UNL     1      20.326  -1.237  12.159  1.00  0.00     0.205 HD
ENDROOT
BRANCH   7   9
HETATM    9  N4  UNL     1      20.963  -2.875  11.071  1.00  0.00    -0.295 N 
HETATM   10  C5  UNL     1      22.234  -2.739  11.083  1.00  0.00     0.138 C 
ATOM     11  H4  UNL     1      20.590  -3.604  10.462  1.00  0.00     0.186 HD
BRANCH  10  12
HETATM   12  C6  UNL     1      23.087  -3.603  10.250  1.00  0.00     0.065 A 
HETATM   13  C7  UNL     1      24.122  -4.351  10.693  1.00  0.00     0.119 A 
HETATM   14  N5  UNL     1      24.629  -4.988   9.608  1.00  0.00    -0.360 N 
HETATM   15  C8  UNL     1      23.919  -4.635   8.526  1.00  0.00     0.180 A 
ATOM     16  H5  UNL     1      25.420  -5.630   9.614  1.00  0.00     0.166 HD
HETATM   17  N6  UNL     1      22.960  -3.775   8.927  1.00  0.00    -0.350 N 
ATOM     18  H6  UNL     1      22.262  -3.333   8.328  1.00  0.00     0.166 HD
ENDBRANCH  10  12
ENDBRANCH   7   9
BRANCH   1  19
HETATM   19  C3  UNL     1      17.273  -2.898  14.091  1.00  0.00     0.105 C 
BRANCH  19  20
HETATM   20  C2  UNL     1      17.041  -3.595  15.342  1.00  0.00     0.007 C 
HETATM   21  C1  UNL     1      15.973  -3.817  16.041  1.00  0.00     0.012 C 
ENDBRANCH  19  20
ENDBRANCH   1  19
TORSDOF 4
ENDMDL
MODEL 3
REMARK VINA RESULT: -6.094286941      1.848      2.641
REMARK  4 active torsions:
REMARK  status: ('A' for Active; 'I' for Inactive)
REMARK    1  A    between atoms: C2_2  and  C3_3 
REMARK    2  A    between atoms: C3_3  and  N1_4 
REMARK       I    between atoms: N1_4  and  C4_6 
REMARK       I    between atoms: C4_6  and  N3_10 
REMARK    3  A    between atoms: N3_10  and  N4_12 
REMARK    4  A    between atoms: C5_14  and  C6_15 
ROOT
HETATM    1  N1  UNL     1      21.866  -4.375  10.527  1.00  0.00    -0.201 N 
ATOM      2  H1  UNL     1      21.285  -5.044  11.033  1.00  0.00     0.183 HD
HETATM    3  C4  UNL     1      21.794  -3.040  10.946  1.00  0.00     0.690 C 
HETATM    4  N2  UNL     1      22.838  -2.357  11.192  1.00  0.00    -0.233 N 
ATOM      5  H21 UNL     1      22.786  -1.385  11.498  1.00  0.00     0.174 HD
ATOM      6  H22 UNL     1      23.731  -2.838  11.076  1.00  0.00     0.174 HD
HETATM    7  N3  UNL     1      20.532  -2.361  11.111  1.00  0.00    -0.133 N 
ATOM      8  H3  UNL     1      20.093  -1.952  10.286  1.00  0.00     0.205 HD
ENDROOT
BRANCH   7   9
HETATM    9  N4  UNL     1      19.887  -2.233  12.324  1.00  0.00    -0.295 N 
HETATM   10  C5  UNL     1      18.983  -3.000  12.800  1.00  0.00     0.138 C 
ATOM     11  H4  UNL     1      20.162  -1.440  12.903  1.00  0.00     0.186 HD
BRANCH  10  12
HETATM   12  C6  UNL     1      18.389  -2.725  14.119  1.00  0.00     0.065 A 
HETATM   13  C7  UNL     1      17.132  -3.046  14.500  1.00  0.00     0.119 A 
HETATM   14  N5  UNL     1      16.996  -2.618  15.779  1.00  0.00    -0.360 N 
HETATM   15  C8  UNL     1      18.145  -2.046  16.171  1.00  0.00     0.180 A 
ATOM     16  H5  UNL     1      16.157  -2.715  16.351  1.00  0.00     0.166 HD
HETATM   17  N6  UNL     1      19.010  -2.114  15.138  1.00  0.00    -0.350 N 
ATOM     18  H6  UNL     1      19.967  -1.763  15.134  1.00  0.00     0.166 HD
ENDBRANCH  10  12
ENDBRANCH   7   9
BRANCH   1  19
HETATM   19  C3  UNL     1      22.651  -4.890   9.488  1.00  0.00     0.105 C 
BRANCH  19  20
HETATM   20  C2  UNL     1      23.925  -5.537   9.738  1.00  0.00     0.007 C 
HETATM   21  C1  UNL     1      24.352  -6.301  10.693  1.00  0.00     0.012 C 
ENDBRANCH  19  20
ENDBRANCH   1  19
TORSDOF 4
ENDMDL
MODEL 4
REMARK VINA RESULT: -6.085237967      0.747      1.037
REMARK  4 active torsions:
REMARK  status: ('A' for Active; 'I' for Inactive)
REMARK    1  A    between atoms: C2_2  and  C3_3 
REMARK    2  A    between atoms: C3_3  and  N1_4 
REMARK       I    between atoms: N1_4  and  C4_6 
REMARK       I    between atoms: C4_6  and  N3_10 
REMARK    3  A    between atoms: N3_10  and  N4_12 
REMARK    4  A    between atoms: C5_14  and  C6_15 
ROOT
HETATM    1  N1  UNL     1      23.247  -5.070  10.638  1.00  0.00    -0.201 N 
ATOM      2  H1  UNL     1      22.442  -5.619  10.941  1.00  0.00     0.183 HD
HETATM    3  C4  UNL     1      23.013  -3.717  10.363  1.00  0.00     0.690 C 
HETATM    4  N2  UNL     1      23.738  -2.796  10.858  1.00  0.00    -0.233 N 
ATOM      5  H21 UNL     1      23.568  -1.810  10.658  1.00  0.00     0.174 HD
ATOM      6  H22 UNL     1      24.494  -3.098  11.474  1.00  0.00     0.174 HD
HETATM    7  N3  UNL     1      21.944  -3.290   9.493  1.00  0.00    -0.133 N 
ATOM      8  H3  UNL     1      22.111  -3.295   8.486  1.00  0.00     0.205 HD
ENDROOT
BRANCH   7   9
HETATM    9  N4  UNL     1      20.710  -2.875   9.948  1.00  0.00    -0.295 N 
HETATM   10  C5  UNL     1      20.241  -3.005  11.129  1.00  0.00     0.138 C 
ATOM     11  H4  UNL     1      20.107  -2.414   9.267  1.00  0.00     0.186 HD
BRANCH  10  12
HETATM   12  C6  UNL     1      18.895  -2.506  11.458  1.00  0.00     0.065 A 
HETATM   13  C7  UNL     1      17.837  -2.477  10.617  1.00  0.00     0.119 A 
HETATM   14  N5  UNL     1      16.803  -1.947  11.316  1.00  0.00    -0.360 N 
HETATM   15  C8  UNL     1      17.221  -1.658  12.557  1.00  0.00     0.180 A 
ATOM     16  H5  UNL     1      15.861  -1.794  10.957  1.00  0.00     0.166 HD
HETATM   17  N6  UNL     1      18.521  -2.006  12.645  1.00  0.00    -0.350 N 
ATOM     18  H6  UNL     1      19.115  -1.906  13.468  1.00  0.00     0.166 HD
ENDBRANCH  10  12
ENDBRANCH   7   9
BRANCH   1  19
HETATM   19  C3  UNL     1      24.467  -5.750  10.544  1.00  0.00     0.105 C 
BRANCH  19  20
HETATM   20  C2  UNL     1      24.600  -7.144  10.921  1.00  0.00     0.007 C 
HETATM   21  C1  UNL     1      23.959  -8.216  10.572  1.00  0.00     0.012 C 
ENDBRANCH  19  20
ENDBRANCH   1  19
TORSDOF 4
ENDMDL
MODEL 5
REMARK VINA RESULT: -5.936629184      1.601      6.562
REMARK  4 active torsions:
REMARK  status: ('A' for Active; 'I' for Inactive)
REMARK    1  A    between atoms: C2_2  and  C3_3 
REMARK    2  A    between atoms: C3_3  and  N1_4 
REMARK       I    between atoms: N1_4  and  C4_6 
REMARK       I    between atoms: C4_6  and  N3_10 
REMARK    3  A    between atoms: N3_10  and  N4_12 
REMARK    4  A    between atoms: C5_14  and  C6_15 
ROOT
HETATM    1  N1  UNL     1      19.668  -2.972  12.119  1.00  0.00    -0.201 N 
ATOM      2  H1  UNL     1      19.647  -3.862  12.618  1.00  0.00     0.183 HD
HETATM    3  C4  UNL     1      20.647  -2.835  11.126  1.00  0.00     0.690 C 
HETATM    4  N2  UNL     1      20.361  -2.431   9.953  1.00  0.00    -0.233 N 
ATOM      5  H21 UNL     1      21.073  -2.331   9.230  1.00  0.00     0.174 HD
ATOM      6  H22 UNL     1      19.379  -2.220   9.775  1.00  0.00     0.174 HD
HETATM    7  N3  UNL     1      22.035  -3.134  11.377  1.00  0.00    -0.133 N 
ATOM      8  H3  UNL     1      22.613  -2.414  11.812  1.00  0.00     0.205 HD
ENDROOT
BRANCH   7   9
HETATM    9  N4  UNL     1      22.625  -4.340  11.062  1.00  0.00    -0.295 N 
HETATM   10  C5  UNL     1      22.187  -5.508  11.339  1.00  0.00     0.138 C 
ATOM     11  H4  UNL     1      23.507  -4.295  10.552  1.00  0.00     0.186 HD
BRANCH  10  12
HETATM   12  C6  UNL     1      22.940  -6.706  10.931  1.00  0.00     0.065 A 
HETATM   13  C7  UNL     1      24.247  -6.941  11.185  1.00  0.00     0.119 A 
HETATM   14  N5  UNL     1      24.536  -8.148  10.639  1.00  0.00    -0.360 N 
HETATM   15  C8  UNL     1      23.428  -8.639  10.062  1.00  0.00     0.180 A 
ATOM     16  H5  UNL     1      25.445  -8.607  10.663  1.00  0.00     0.166 HD
HETATM   17  N6  UNL     1      22.438  -7.743  10.245  1.00  0.00    -0.350 N 
ATOM     18  H6  UNL     1      21.476  -7.837   9.918  1.00  0.00     0.166 HD
ENDBRANCH  10  12
ENDBRANCH   7   9
BRANCH   1  19
HETATM   19  C3  UNL     1      18.716  -2.019  12.499  1.00  0.00     0.105 C 
BRANCH  19  20
HETATM   20  C2  UNL     1      17.369  -2.024  11.961  1.00  0.00     0.007 C 
HETATM   21  C1  UNL     1      16.892  -2.276  10.782  1.00  0.00     0.012 C 
ENDBRANCH  19  20
ENDBRANCH   1  19
TORSDOF 4
ENDMDL
