MODEL 1
REMARK VINA RESULT: -7.860264637      0.000      0.000
REMARK  3 active torsions:
REMARK  status: ('A' for Active; 'I' for Inactive)
REMARK    1  A    between atoms: C4_6  and  C5_7 
REMARK    2  A    between atoms: C5_7  and  C6_11 
REMARK       I    between atoms: C6_11  and  N3_13 
REMARK    3  A    between atoms: N3_13  and  C7_15 
ROOT
HETATM    1  C6  UNL     1      21.709  -2.981  11.271  1.00  0.00     0.288 C 
HETATM    2  O1  UNL     1      20.855  -2.936  10.350  1.00  0.00    -0.265 OA
HETATM    3  N3  UNL     1      21.401  -2.338  12.541  1.00  0.00    -0.153 N 
ATOM      4  H3  UNL     1      22.067  -1.722  13.008  1.00  0.00     0.187 HD
ENDROOT
BRANCH   1   5
HETATM    5  C5  UNL     1      22.991  -3.625  11.182  1.00  0.00     0.122 C 
HETATM    6  N2  UNL     1      24.052  -2.939  10.941  1.00  0.00    -0.393 N 
ATOM      7  H22 UNL     1      24.962  -3.396  10.878  1.00  0.00     0.156 HD
ATOM      8  H21 UNL     1      23.958  -1.931  10.816  1.00  0.00     0.156 HD
BRANCH   5   9
HETATM    9  C4  UNL     1      23.127  -5.064  11.361  1.00  0.00     0.064 A 
HETATM   10  N1  UNL     1      22.637  -5.890  12.297  1.00  0.00    -0.363 N 
HETATM   11  C3  UNL     1      23.009  -7.167  12.085  1.00  0.00     0.095 A 
ATOM     12  H1  UNL     1      22.052  -5.587  13.076  1.00  0.00     0.165 HD
HETATM   13  C2  UNL     1      23.783  -7.208  10.959  1.00  0.00    -0.044 A 
HETATM   14  C1  UNL     1      24.412  -8.403  10.350  1.00  0.00     0.049 C 
HETATM   15  C9  UNL     1      23.862  -5.917  10.505  1.00  0.00     0.040 A 
ENDBRANCH   5   9
ENDBRANCH   1   5
BRANCH   3  16
HETATM   16  C7  UNL     1      20.220  -2.594  13.050  1.00  0.00     0.700 A 
HETATM   17  N4  UNL     1      19.855  -3.646  13.804  1.00  0.00    -0.185 N 
HETATM   18  C8  UNL     1      18.542  -3.494  14.102  1.00  0.00     0.215 A 
ATOM     19  H4  UNL     1      20.456  -4.417  14.097  1.00  0.00     0.185 HD
HETATM   20  N5  UNL     1      18.090  -2.363  13.543  1.00  0.00    -0.281 N 
HETATM   21  N6  UNL     1      19.126  -1.841  12.915  1.00  0.00    -0.131 N 
ATOM     22  H5  UNL     1      17.144  -1.985  13.592  1.00  0.00     0.188 HD
ATOM     23  H6  UNL     1      19.096  -0.967  12.389  1.00  0.00     0.205 HD
ENDBRANCH   3  16
TORSDOF 3
ENDMDL
MODEL 2
REMARK VINA RESULT: -7.636943973      1.157      1.228
REMARK  3 active torsions:
REMARK  status: ('A' for Active; 'I' for Inactive)
REMARK    1  A    between atoms: C4_6  and  C5_7 
REMARK    2  A    between atoms: C5_7  and  C6_11 
REMARK       I    between atoms: C6_11  and  N3_13 
REMARK    3  A    between atoms: N3_13  and  C7_15 
ROOT
HETATM    1  C6  UNL     1      22.517  -3.517  10.907  1.00  0.00     0.288 C 
HETATM    2  O1  UNL     1      21.889  -3.728   9.839  1.00  0.00    -0.265 OA
HETATM    3  N3  UNL     1      22.036  -2.479  11.808  1.00  0.00    -0.153 N 
ATOM      4  H3  UNL     1      22.663  -1.783  12.212  1.00  0.00     0.187 HD
ENDROOT
BRANCH   1   5
HETATM    5  C5  UNL     1      23.695  -4.226  11.330  1.00  0.00     0.122 C 
HETATM    6  N2  UNL     1      24.812  -3.606  11.480  1.00  0.00    -0.393 N 
ATOM      7  H22 UNL     1      25.648  -4.109  11.780  1.00  0.00     0.156 HD
ATOM      8  H21 UNL     1      24.838  -2.604  11.291  1.00  0.00     0.156 HD
BRANCH   5   9
HETATM    9  C4  UNL     1      23.659  -5.657  11.600  1.00  0.00     0.064 A 
HETATM   10  N1  UNL     1      22.799  -6.403  12.309  1.00  0.00    -0.363 N 
HETATM   11  C3  UNL     1      23.140  -7.706  12.302  1.00  0.00     0.095 A 
ATOM     12  H1  UNL     1      21.985  -6.028  12.796  1.00  0.00     0.165 HD
HETATM   13  C2  UNL     1      24.277  -7.849  11.557  1.00  0.00    -0.044 A 
HETATM   14  C1  UNL     1      25.010  -9.105  11.277  1.00  0.00     0.049 C 
HETATM   15  C9  UNL     1      24.605  -6.592  11.120  1.00  0.00     0.040 A 
ENDBRANCH   5   9
ENDBRANCH   1   5
BRANCH   3  16
HETATM   16  C7  UNL     1      20.751  -2.489  12.071  1.00  0.00     0.700 A 
HETATM   17  N4  UNL     1      20.154  -2.484  13.276  1.00  0.00    -0.185 N 
HETATM   18  C8  UNL     1      18.816  -2.499  13.064  1.00  0.00     0.215 A 
ATOM     19  H4  UNL     1      20.621  -2.471  14.182  1.00  0.00     0.185 HD
HETATM   20  N5  UNL     1      18.577  -2.514  11.745  1.00  0.00    -0.281 N 
HETATM   21  N6  UNL     1      19.765  -2.507  11.171  1.00  0.00    -0.131 N 
ATOM     22  H5  UNL     1      17.668  -2.528  11.281  1.00  0.00     0.188 HD
ATOM     23  H6  UNL     1      19.913  -2.514  10.162  1.00  0.00     0.205 HD
ENDBRANCH   3  16
TORSDOF 3
ENDMDL
MODEL 3
REMARK VINA RESULT: -7.545439885      2.167      5.764
REMARK  3 active torsions:
REMARK  status: ('A' for Active; 'I' for Inactive)
REMARK    1  A    between atoms: C4_6  and  C5_7 
REMARK    2  A    between atoms: C5_7  and  C6_11 
REMARK       I    between atoms: C6_11  and  N3_13 
REMARK    3  A    between atoms: N3_13  and  C7_15 
ROOT
HETATM    1  C6  UNL     1      21.028  -2.444  12.081  1.00  0.00     0.288 C 
HETATM    2  O1  UNL     1      21.886  -2.085  12.926  1.00  0.00    -0.265 OA
HETATM    3  N3  UNL     1      21.431  -2.571  10.687  1.00  0.00    -0.153 N 
ATOM      4  H3  UNL     1      20.879  -2.171   9.928  1.00  0.00     0.187 HD
ENDROOT
BRANCH   1   5
HETATM    5  C5  UNL     1      19.653  -2.747  12.372  1.00  0.00     0.122 C 
HETATM    6  N2  UNL     1      18.730  -2.485  11.516  1.00  0.00    -0.393 N 
ATOM      7  H22 UNL     1      17.754  -2.700  11.723  1.00  0.00     0.156 HD
ATOM      8  H21 UNL     1      19.000  -2.057  10.630  1.00  0.00     0.156 HD
BRANCH   5   9
HETATM    9  C4  UNL     1      19.267  -3.358  13.637  1.00  0.00     0.064 A 
HETATM   10  N1  UNL     1      19.888  -4.259  14.412  1.00  0.00    -0.363 N 
HETATM   11  C3  UNL     1      19.170  -4.556  15.513  1.00  0.00     0.095 A 
ATOM     12  H1  UNL     1      20.795  -4.670  14.194  1.00  0.00     0.165 HD
HETATM   13  C2  UNL     1      18.015  -3.826  15.482  1.00  0.00    -0.044 A 
HETATM   14  C1  UNL     1      16.927  -3.833  16.488  1.00  0.00     0.049 C 
HETATM   15  C9  UNL     1      18.064  -3.084  14.330  1.00  0.00     0.040 A 
ENDBRANCH   5   9
ENDBRANCH   1   5
BRANCH   3  16
HETATM   16  C7  UNL     1      22.543  -3.229  10.462  1.00  0.00     0.700 A 
HETATM   17  N4  UNL     1      22.733  -4.275   9.638  1.00  0.00    -0.185 N 
HETATM   18  C8  UNL     1      24.038  -4.628   9.727  1.00  0.00     0.215 A 
ATOM     19  H4  UNL     1      22.025  -4.720   9.053  1.00  0.00     0.185 HD
HETATM   20  N5  UNL     1      24.658  -3.816  10.595  1.00  0.00    -0.281 N 
HETATM   21  N6  UNL     1      23.729  -2.981  11.022  1.00  0.00    -0.131 N 
ATOM     22  H5  UNL     1      25.640  -3.838  10.869  1.00  0.00     0.188 HD
ATOM     23  H6  UNL     1      23.897  -2.236  11.698  1.00  0.00     0.205 HD
ENDBRANCH   3  16
TORSDOF 3
ENDMDL
MODEL 4
REMARK VINA RESULT: -7.528134667      1.369      1.506
REMARK  3 active torsions:
REMARK  status: ('A' for Active; 'I' for Inactive)
REMARK    1  A    between atoms: C4_6  and  C5_7 
REMARK    2  A    between atoms: C5_7  and  C6_11 
REMARK       I    between atoms: C6_11  and  N3_13 
REMARK    3  A    between atoms: N3_13  and  C7_15 
ROOT
HETATM    1  C6  UNL     1      22.145  -3.132  11.271  1.00  0.00     0.288 C 
HETATM    2  O1  UNL     1      22.222  -1.901  11.034  1.00  0.00    -0.265 OA
HETATM    3  N3  UNL     1      21.459  -3.569  12.480  1.00  0.00    -0.153 N 
ATOM      4  H3  UNL     1      21.865  -4.262  13.109  1.00  0.00     0.187 HD
ENDROOT
BRANCH   1   5
HETATM    5  C5  UNL     1      22.684  -4.173  10.439  1.00  0.00     0.122 C 
HETATM    6  N2  UNL     1      22.522  -4.140   9.163  1.00  0.00    -0.393 N 
ATOM      7  H22 UNL     1      22.904  -4.879   8.572  1.00  0.00     0.156 HD
ATOM      8  H21 UNL     1      22.002  -3.359   8.762  1.00  0.00     0.156 HD
BRANCH   5   9
HETATM    9  C4  UNL     1      23.426  -5.289  11.010  1.00  0.00     0.064 A 
HETATM   10  N1  UNL     1      24.448  -5.321  11.877  1.00  0.00    -0.363 N 
HETATM   11  C3  UNL     1      24.841  -6.582  12.145  1.00  0.00     0.095 A 
ATOM     12  H1  UNL     1      24.878  -4.490  12.284  1.00  0.00     0.165 HD
HETATM   13  C2  UNL     1      24.051  -7.439  11.430  1.00  0.00    -0.044 A 
HETATM   14  C1  UNL     1      24.125  -8.918  11.415  1.00  0.00     0.049 C 
HETATM   15  C9  UNL     1      23.176  -6.652  10.728  1.00  0.00     0.040 A 
ENDBRANCH   5   9
ENDBRANCH   1   5
BRANCH   3  16
HETATM   16  C7  UNL     1      20.291  -3.022  12.714  1.00  0.00     0.700 A 
HETATM   17  N4  UNL     1      19.375  -2.612  11.819  1.00  0.00    -0.185 N 
HETATM   18  C8  UNL     1      18.325  -2.112  12.514  1.00  0.00     0.215 A 
ATOM     19  H4  UNL     1      19.455  -2.667  10.803  1.00  0.00     0.185 HD
HETATM   20  N5  UNL     1      18.578  -2.207  13.827  1.00  0.00    -0.281 N 
HETATM   21  N6  UNL     1      19.773  -2.761  13.916  1.00  0.00    -0.131 N 
ATOM     22  H5  UNL     1      17.975  -1.913  14.595  1.00  0.00     0.188 HD
ATOM     23  H6  UNL     1      20.243  -2.965  14.798  1.00  0.00     0.205 HD
ENDBRANCH   3  16
TORSDOF 3
ENDMDL
MODEL 5
REMARK VINA RESULT: -7.438539272      1.102      1.242
REMARK  3 active torsions:
REMARK  status: ('A' for Active; 'I' for Inactive)
REMARK    1  A    between atoms: C4_6  and  C5_7 
REMARK    2  A    between atoms: C5_7  and  C6_11 
REMARK       I    between atoms: C6_11  and  N3_13 
REMARK    3  A    between atoms: N3_13  and  C7_15 
ROOT
HETATM    1  C6  UNL     1      22.077  -3.092  11.145  1.00  0.00     0.288 C 
HETATM    2  O1  UNL     1      21.377  -3.346  10.133  1.00  0.00    -0.265 OA
HETATM    3  N3  UNL     1      21.506  -2.266  12.200  1.00  0.00    -0.153 N 
ATOM      4  H3  UNL     1      22.018  -1.485  12.610  1.00  0.00     0.187 HD
ENDROOT
BRANCH   1   5
HETATM    5  C5  UNL     1      23.422  -3.553  11.360  1.00  0.00     0.122 C 
HETATM    6  N2  UNL     1      24.302  -2.780  11.892  1.00  0.00    -0.393 N 
ATOM      7  H22 UNL     1      25.256  -3.108  12.044  1.00  0.00     0.156 HD
ATOM      8  H21 UNL     1      24.019  -1.836  12.155  1.00  0.00     0.156 HD
BRANCH   5   9
HETATM    9  C4  UNL     1      23.826  -4.902  10.985  1.00  0.00     0.064 A 
HETATM   10  N1  UNL     1      24.937  -5.361  10.392  1.00  0.00    -0.363 N 
HETATM   11  C3  UNL     1      24.905  -6.698  10.229  1.00  0.00     0.095 A 
ATOM     12  H1  UNL     1      25.714  -4.768  10.099  1.00  0.00     0.165 HD
HETATM   13  C2  UNL     1      23.723  -7.164  10.733  1.00  0.00    -0.044 A 
HETATM   14  C1  UNL     1      23.258  -8.570  10.767  1.00  0.00     0.049 C 
HETATM   15  C9  UNL     1      23.050  -6.065  11.202  1.00  0.00     0.040 A 
ENDBRANCH   5   9
ENDBRANCH   1   5
BRANCH   3  16
HETATM   16  C7  UNL     1      20.297  -2.584  12.595  1.00  0.00     0.700 A 
HETATM   17  N4  UNL     1      19.937  -3.232  13.718  1.00  0.00    -0.185 N 
HETATM   18  C8  UNL     1      18.586  -3.338  13.707  1.00  0.00     0.215 A 
ATOM     19  H4  UNL     1      20.565  -3.579  14.443  1.00  0.00     0.185 HD
HETATM   20  N5  UNL     1      18.106  -2.766  12.594  1.00  0.00    -0.281 N 
HETATM   21  N6  UNL     1      19.163  -2.319  11.943  1.00  0.00    -0.131 N 
ATOM     22  H5  UNL     1      17.129  -2.691  12.311  1.00  0.00     0.188 HD
ATOM     23  H6  UNL     1      19.119  -1.829  11.049  1.00  0.00     0.205 HD
ENDBRANCH   3  16
TORSDOF 3
ENDMDL
