MODEL 1
REMARK VINA RESULT: -6.463595347      0.000      0.000
REMARK  3 active torsions:
REMARK  status: ('A' for Active; 'I' for Inactive)
REMARK    1  A    between atoms: N1_1  and  C1_5 
REMARK    2  A    between atoms: C1_5  and  C2_6 
REMARK    3  A    between atoms: C4_8  and  C5_9 
ROOT
HETATM    1  C2  UNL     1      -1.106  -4.626  14.637  1.00  0.00    -0.031 A 
HETATM    2  C3  UNL     1      -0.234  -3.790  13.990  1.00  0.00     0.027 A 
HETATM    3  C4  UNL     1       0.549  -4.191  12.925  1.00  0.00     0.059 A 
HETATM    4  C6  UNL     1       0.437  -5.487  12.507  1.00  0.00     0.079 A 
HETATM    5  N3  UNL     1       1.011  -6.223  11.541  1.00  0.00    -0.296 N 
ATOM      6  H3  UNL     1       1.711  -5.870  10.889  1.00  0.00     0.187 HD
HETATM    7  N4  UNL     1       0.552  -7.467  11.543  1.00  0.00    -0.265 N 
ATOM      8  H4  UNL     1       0.845  -8.199  10.896  1.00  0.00     0.190 HD
HETATM    9  C7  UNL     1      -0.357  -7.621  12.520  1.00  0.00     0.272 A 
HETATM   10  O2  UNL     1      -0.988  -8.668  12.802  1.00  0.00    -0.266 OA
HETATM   11  C8  UNL     1      -0.432  -6.384  13.126  1.00  0.00     0.063 A 
HETATM   12  C9  UNL     1      -1.184  -5.922  14.183  1.00  0.00     0.028 A 
ENDROOT
BRANCH   1  13
HETATM   13  C1  UNL     1      -1.957  -4.227  15.781  1.00  0.00     0.268 C 
BRANCH  13  14
HETATM   14  N1  UNL     1      -1.658  -4.985  16.977  1.00  0.00    -0.075 N 
ATOM     15  H13 UNL     1      -0.935  -5.682  16.800  1.00  0.00     0.274 HD
ATOM     16  H12 UNL     1      -1.166  -4.411  17.662  1.00  0.00     0.274 HD
ATOM     17  H11 UNL     1      -2.490  -5.411  17.382  1.00  0.00     0.274 HD
ENDBRANCH  13  14
ENDBRANCH   1  13
BRANCH   3  18
HETATM   18  C5  UNL     1       1.440  -3.262  12.294  1.00  0.00     0.267 C 
HETATM   19  N2  UNL     1       2.432  -3.636  11.400  1.00  0.00    -0.057 NA
HETATM   20  O1  UNL     1       1.330  -2.014  12.558  1.00  0.00    -0.271 OA
ENDBRANCH   3  18
TORSDOF 3
ENDMDL
MODEL 2
REMARK VINA RESULT: -6.020334920      2.387      3.692
REMARK  3 active torsions:
REMARK  status: ('A' for Active; 'I' for Inactive)
REMARK    1  A    between atoms: N1_1  and  C1_5 
REMARK    2  A    between atoms: C1_5  and  C2_6 
REMARK    3  A    between atoms: C4_8  and  C5_9 
ROOT
HETATM    1  C2  UNL     1      -0.227  -7.312  13.118  1.00  0.00    -0.031 A 
HETATM    2  C3  UNL     1       0.667  -6.728  12.260  1.00  0.00     0.027 A 
HETATM    3  C4  UNL     1       0.908  -5.367  12.231  1.00  0.00     0.059 A 
HETATM    4  C6  UNL     1       0.215  -4.580  13.107  1.00  0.00     0.079 A 
HETATM    5  N3  UNL     1       0.176  -3.264  13.371  1.00  0.00    -0.296 N 
ATOM      6  H3  UNL     1       0.738  -2.564  12.887  1.00  0.00     0.187 HD
HETATM    7  N4  UNL     1      -0.685  -2.990  14.341  1.00  0.00    -0.265 N 
ATOM      8  H4  UNL     1      -0.877  -2.057  14.706  1.00  0.00     0.190 HD
HETATM    9  C7  UNL     1      -1.269  -4.121  14.772  1.00  0.00     0.272 A 
HETATM   10  O2  UNL     1      -2.131  -4.225  15.678  1.00  0.00    -0.266 OA
HETATM   11  C8  UNL     1      -0.707  -5.119  14.003  1.00  0.00     0.063 A 
HETATM   12  C9  UNL     1      -0.902  -6.482  13.981  1.00  0.00     0.028 A 
ENDROOT
BRANCH   1  13
HETATM   13  C1  UNL     1      -0.508  -8.765  13.172  1.00  0.00     0.268 C 
BRANCH  13  14
HETATM   14  N1  UNL     1      -1.861  -9.077  12.767  1.00  0.00    -0.075 N 
ATOM     15  H13 UNL     1      -2.462  -9.231  13.577  1.00  0.00     0.274 HD
ATOM     16  H12 UNL     1      -2.326  -8.258  12.375  1.00  0.00     0.274 HD
ATOM     17  H11 UNL     1      -1.900  -9.866  12.123  1.00  0.00     0.274 HD
ENDBRANCH  13  14
ENDBRANCH   1  13
BRANCH   3  18
HETATM   18  C5  UNL     1       1.858  -4.822  11.307  1.00  0.00     0.267 C 
HETATM   19  N2  UNL     1       2.346  -3.526  11.382  1.00  0.00    -0.057 NA
HETATM   20  O1  UNL     1       2.292  -5.556  10.352  1.00  0.00    -0.271 OA
ENDBRANCH   3  18
TORSDOF 3
ENDMDL
MODEL 3
REMARK VINA RESULT: -5.844683676      5.535      7.412
REMARK  3 active torsions:
REMARK  status: ('A' for Active; 'I' for Inactive)
REMARK    1  A    between atoms: N1_1  and  C1_5 
REMARK    2  A    between atoms: C1_5  and  C2_6 
REMARK    3  A    between atoms: C4_8  and  C5_9 
ROOT
HETATM    1  C2  UNL     1       3.701  -2.946   6.558  1.00  0.00    -0.031 A 
HETATM    2  C3  UNL     1       3.823  -2.804   7.915  1.00  0.00     0.027 A 
HETATM    3  C4  UNL     1       3.556  -3.823   8.809  1.00  0.00     0.059 A 
HETATM    4  C6  UNL     1       3.153  -5.025   8.300  1.00  0.00     0.079 A 
HETATM    5  N3  UNL     1       2.814  -6.212   8.830  1.00  0.00    -0.296 N 
ATOM      6  H3  UNL     1       2.807  -6.414   9.830  1.00  0.00     0.187 HD
HETATM    7  N4  UNL     1       2.489  -7.087   7.888  1.00  0.00    -0.265 N 
ATOM      8  H4  UNL     1       2.200  -8.050   8.060  1.00  0.00     0.190 HD
HETATM    9  C7  UNL     1       2.595  -6.520   6.675  1.00  0.00     0.272 A 
HETATM   10  O2  UNL     1       2.363  -7.062   5.568  1.00  0.00    -0.266 OA
HETATM   11  C8  UNL     1       3.011  -5.229   6.929  1.00  0.00     0.063 A 
HETATM   12  C9  UNL     1       3.292  -4.173   6.091  1.00  0.00     0.028 A 
ENDROOT
BRANCH   1  13
HETATM   13  C1  UNL     1       3.977  -1.874   5.575  1.00  0.00     0.268 C 
BRANCH  13  14
HETATM   14  N1  UNL     1       4.824  -0.836   6.121  1.00  0.00    -0.075 N 
ATOM     15  H13 UNL     1       5.638  -1.233   6.590  1.00  0.00     0.274 HD
ATOM     16  H12 UNL     1       5.299  -0.321   5.380  1.00  0.00     0.274 HD
ATOM     17  H11 UNL     1       4.313  -0.205   6.738  1.00  0.00     0.274 HD
ENDBRANCH  13  14
ENDBRANCH   1  13
BRANCH   3  18
HETATM   18  C5  UNL     1       3.705  -3.605  10.218  1.00  0.00     0.267 C 
HETATM   19  N2  UNL     1       2.686  -3.800  11.137  1.00  0.00    -0.057 NA
HETATM   20  O1  UNL     1       4.834  -3.207  10.671  1.00  0.00    -0.271 OA
ENDBRANCH   3  18
TORSDOF 3
ENDMDL
MODEL 4
REMARK VINA RESULT: -5.843674462      2.538      3.851
REMARK  3 active torsions:
REMARK  status: ('A' for Active; 'I' for Inactive)
REMARK    1  A    between atoms: N1_1  and  C1_5 
REMARK    2  A    between atoms: C1_5  and  C2_6 
REMARK    3  A    between atoms: C4_8  and  C5_9 
ROOT
HETATM    1  C2  UNL     1      -0.507  -7.398  13.112  1.00  0.00    -0.031 A 
HETATM    2  C3  UNL     1       0.402  -7.334  12.089  1.00  0.00     0.027 A 
HETATM    3  C4  UNL     1       0.985  -6.154  11.667  1.00  0.00     0.059 A 
HETATM    4  C6  UNL     1       0.628  -5.004  12.313  1.00  0.00     0.079 A 
HETATM    5  N3  UNL     1       0.966  -3.709  12.196  1.00  0.00    -0.296 N 
ATOM      6  H3  UNL     1       1.630  -3.348  11.512  1.00  0.00     0.187 HD
HETATM    7  N4  UNL     1       0.325  -2.960  13.083  1.00  0.00    -0.265 N 
ATOM      8  H4  UNL     1       0.428  -1.949  13.178  1.00  0.00     0.190 HD
HETATM    9  C7  UNL     1      -0.478  -3.726  13.839  1.00  0.00     0.272 A 
HETATM   10  O2  UNL     1      -1.225  -3.343  14.772  1.00  0.00    -0.266 OA
HETATM   11  C8  UNL     1      -0.291  -5.006  13.361  1.00  0.00     0.063 A 
HETATM   12  C9  UNL     1      -0.836  -6.216  13.732  1.00  0.00     0.028 A 
ENDROOT
BRANCH   1  13
HETATM   13  C1  UNL     1      -1.149  -8.645  13.585  1.00  0.00     0.268 C 
BRANCH  13  14
HETATM   14  N1  UNL     1      -1.642  -9.456  12.493  1.00  0.00    -0.075 N 
ATOM     15  H13 UNL     1      -0.941  -9.549  11.758  1.00  0.00     0.274 HD
ATOM     16  H12 UNL     1      -1.720 -10.435  12.768  1.00  0.00     0.274 HD
ATOM     17  H11 UNL     1      -2.524  -9.107  12.120  1.00  0.00     0.274 HD
ENDBRANCH  13  14
ENDBRANCH   1  13
BRANCH   3  18
HETATM   18  C5  UNL     1       1.929  -6.160  10.590  1.00  0.00     0.267 C 
HETATM   19  N2  UNL     1       2.152  -7.256   9.770  1.00  0.00    -0.057 NA
HETATM   20  O1  UNL     1       2.616  -5.105  10.356  1.00  0.00    -0.271 OA
ENDBRANCH   3  18
TORSDOF 3
ENDMDL
MODEL 5
REMARK VINA RESULT: -5.837859882      2.122      5.296
REMARK  3 active torsions:
REMARK  status: ('A' for Active; 'I' for Inactive)
REMARK    1  A    between atoms: N1_1  and  C1_5 
REMARK    2  A    between atoms: C1_5  and  C2_6 
REMARK    3  A    between atoms: C4_8  and  C5_9 
ROOT
HETATM    1  C2  UNL     1       1.393  -6.187  11.218  1.00  0.00    -0.031 A 
HETATM    2  C3  UNL     1       0.694  -7.207  11.809  1.00  0.00     0.027 A 
HETATM    3  C4  UNL     1      -0.158  -7.019  12.880  1.00  0.00     0.059 A 
HETATM    4  C6  UNL     1      -0.301  -5.749  13.363  1.00  0.00     0.079 A 
HETATM    5  N3  UNL     1      -1.011  -5.187  14.355  1.00  0.00    -0.296 N 
ATOM      6  H3  UNL     1      -1.633  -5.701  14.978  1.00  0.00     0.187 HD
HETATM    7  N4  UNL     1      -0.800  -3.880  14.420  1.00  0.00    -0.265 N 
ATOM      8  H4  UNL     1      -1.236  -3.251  15.095  1.00  0.00     0.190 HD
HETATM    9  C7  UNL     1       0.069  -3.504  13.467  1.00  0.00     0.272 A 
HETATM   10  O2  UNL     1       0.488  -2.342  13.247  1.00  0.00    -0.266 OA
HETATM   11  C8  UNL     1       0.384  -4.671  12.803  1.00  0.00     0.063 A 
HETATM   12  C9  UNL     1       1.218  -4.926  11.737  1.00  0.00     0.028 A 
ENDROOT
BRANCH   1  13
HETATM   13  C1  UNL     1       2.313  -6.356  10.070  1.00  0.00     0.268 C 
BRANCH  13  14
HETATM   14  N1  UNL     1       2.137  -7.631   9.410  1.00  0.00    -0.075 N 
ATOM     15  H13 UNL     1       1.863  -8.356  10.074  1.00  0.00     0.274 HD
ATOM     16  H12 UNL     1       1.304  -7.629   8.821  1.00  0.00     0.274 HD
ATOM     17  H11 UNL     1       2.962  -7.909   8.880  1.00  0.00     0.274 HD
ENDBRANCH  13  14
ENDBRANCH   1  13
BRANCH   3  18
HETATM   18  C5  UNL     1      -0.858  -8.132  13.449  1.00  0.00     0.267 C 
HETATM   19  N2  UNL     1      -1.549  -9.071  12.698  1.00  0.00    -0.057 NA
HETATM   20  O1  UNL     1      -0.859  -8.285  14.720  1.00  0.00    -0.271 OA
ENDBRANCH   3  18
TORSDOF 3
ENDMDL
