MODEL 1
REMARK VINA RESULT: -5.724793964      0.000      0.000
REMARK  4 active torsions:
REMARK  status: ('A' for Active; 'I' for Inactive)
REMARK    1  A    between atoms: O1_2  and  S1_3 
REMARK    2  A    between atoms: S1_3  and  N1_5 
REMARK    3  A    between atoms: S1_3  and  C2_10 
REMARK    4  A    between atoms: N1_5  and  N2_7 
ROOT
HETATM    1  C2  UNL     1      -7.644  12.680  48.892  1.00  0.00     0.194 A 
HETATM    2  N3  UNL     1      -6.837  12.874  47.808  1.00  0.00    -0.283 N 
ATOM      3  H3  UNL     1      -7.140  12.506  46.907  1.00  0.00     0.188 HD
HETATM    4  N4  UNL     1      -5.685  13.515  47.869  1.00  0.00    -0.250 N 
ATOM      5  H4  UNL     1      -5.106  13.642  47.039  1.00  0.00     0.192 HD
HETATM    6  C3  UNL     1      -5.301  13.994  49.065  1.00  0.00     0.340 A 
HETATM    7  O3  UNL     1      -4.191  14.611  49.123  1.00  0.00    -0.245 OA
HETATM    8  N5  UNL     1      -6.064  13.823  50.154  1.00  0.00    -0.291 N 
ATOM      9  H5  UNL     1      -5.739  14.201  51.044  1.00  0.00     0.172 HD
HETATM   10  C4  UNL     1      -7.260  13.163  50.118  1.00  0.00     0.144 A 
HETATM   11  N6  UNL     1      -7.905  13.035  51.217  1.00  0.00    -0.383 N 
ATOM     12  H61 UNL     1      -7.620  13.394  52.128  1.00  0.00     0.157 HD
ATOM     13  H62 UNL     1      -8.798  12.542  51.190  1.00  0.00     0.157 HD
ENDROOT
BRANCH   1  14
HETATM   14  S1  UNL     1      -9.139  11.810  48.678  1.00  0.00     0.212 S 
HETATM   15  O2  UNL     1      -9.371  10.937  49.865  1.00  0.00    -0.213 OA
BRANCH  14  16
HETATM   16  O1  UNL     1      -9.216  11.010  47.215  1.00  0.00    -0.290 OA
HETATM   17  C1  UNL     1     -10.032   9.889  47.273  1.00  0.00     0.224 C 
ENDBRANCH  14  16
BRANCH  14  18
HETATM   18  N1  UNL     1     -10.324  12.886  48.748  1.00  0.00    -0.240 N 
ATOM     19  H1  UNL     1     -11.149  12.755  49.335  1.00  0.00     0.198 HD
BRANCH  18  20
HETATM   20  N2  UNL     1     -10.147  14.013  47.949  1.00  0.00    -0.336 N 
ATOM     21  H22 UNL     1      -9.441  14.040  47.213  1.00  0.00     0.177 HD
ATOM     22  H21 UNL     1     -10.771  14.793  48.157  1.00  0.00     0.177 HD
ENDBRANCH  18  20
ENDBRANCH  14  18
ENDBRANCH   1  14
TORSDOF 4
ENDMDL
MODEL 2
REMARK VINA RESULT: -5.428711040      2.110      2.857
REMARK  4 active torsions:
REMARK  status: ('A' for Active; 'I' for Inactive)
REMARK    1  A    between atoms: O1_2  and  S1_3 
REMARK    2  A    between atoms: S1_3  and  N1_5 
REMARK    3  A    between atoms: S1_3  and  C2_10 
REMARK    4  A    between atoms: N1_5  and  N2_7 
ROOT
HETATM    1  C2  UNL     1      -7.795  12.848  49.343  1.00  0.00     0.194 A 
HETATM    2  N3  UNL     1      -8.208  12.991  50.636  1.00  0.00    -0.283 N 
ATOM      3  H3  UNL     1      -9.069  12.528  50.924  1.00  0.00     0.188 HD
HETATM    4  N4  UNL     1      -7.547  13.699  51.533  1.00  0.00    -0.250 N 
ATOM      5  H4  UNL     1      -7.885  13.786  52.491  1.00  0.00     0.192 HD
HETATM    6  C3  UNL     1      -6.414  14.304  51.136  1.00  0.00     0.340 A 
HETATM    7  O3  UNL     1      -5.777  14.985  52.001  1.00  0.00    -0.245 OA
HETATM    8  N5  UNL     1      -5.975  14.189  49.876  1.00  0.00    -0.291 N 
ATOM      9  H5  UNL     1      -5.111  14.662  49.613  1.00  0.00     0.172 HD
HETATM   10  C4  UNL     1      -6.641  13.462  48.928  1.00  0.00     0.144 A 
HETATM   11  N6  UNL     1      -6.150  13.431  47.745  1.00  0.00    -0.383 N 
ATOM     12  H61 UNL     1      -5.291  13.888  47.437  1.00  0.00     0.157 HD
ATOM     13  H62 UNL     1      -6.647  12.888  47.038  1.00  0.00     0.157 HD
ENDROOT
BRANCH   1  14
HETATM   14  S1  UNL     1      -8.763  11.889  48.256  1.00  0.00     0.212 S 
HETATM   15  O2  UNL     1      -7.866  11.182  47.298  1.00  0.00    -0.213 OA
BRANCH  14  16
HETATM   16  O1  UNL     1      -9.981  12.770  47.530  1.00  0.00    -0.290 OA
HETATM   17  C1  UNL     1     -10.209  13.979  48.173  1.00  0.00     0.224 C 
ENDBRANCH  14  16
BRANCH  14  18
HETATM   18  N1  UNL     1      -9.417  10.710  49.121  1.00  0.00    -0.240 N 
ATOM     19  H1  UNL     1      -9.166  10.542  50.096  1.00  0.00     0.198 HD
BRANCH  18  20
HETATM   20  N2  UNL     1     -10.353   9.931  48.445  1.00  0.00    -0.336 N 
ATOM     21  H22 UNL     1     -11.337  10.197  48.399  1.00  0.00     0.177 HD
ATOM     22  H21 UNL     1      -9.979   9.088  48.007  1.00  0.00     0.177 HD
ENDBRANCH  18  20
ENDBRANCH  14  18
ENDBRANCH   1  14
TORSDOF 4
ENDMDL
MODEL 3
REMARK VINA RESULT: -5.426921169      1.979      3.011
REMARK  4 active torsions:
REMARK  status: ('A' for Active; 'I' for Inactive)
REMARK    1  A    between atoms: O1_2  and  S1_3 
REMARK    2  A    between atoms: S1_3  and  N1_5 
REMARK    3  A    between atoms: S1_3  and  C2_10 
REMARK    4  A    between atoms: N1_5  and  N2_7 
ROOT
HETATM    1  C2  UNL     1      -7.581  13.191  50.371  1.00  0.00     0.194 A 
HETATM    2  N3  UNL     1      -6.716  13.825  51.215  1.00  0.00    -0.283 N 
ATOM      3  H3  UNL     1      -6.989  13.942  52.190  1.00  0.00     0.188 HD
HETATM    4  N4  UNL     1      -5.543  14.293  50.832  1.00  0.00    -0.250 N 
ATOM      5  H4  UNL     1      -4.920  14.762  51.490  1.00  0.00     0.192 HD
HETATM    6  C3  UNL     1      -5.199  14.131  49.542  1.00  0.00     0.340 A 
HETATM    7  O3  UNL     1      -4.069  14.582  49.174  1.00  0.00    -0.245 OA
HETATM    8  N5  UNL     1      -6.020  13.516  48.681  1.00  0.00    -0.291 N 
ATOM      9  H5  UNL     1      -5.724  13.411  47.711  1.00  0.00     0.172 HD
HETATM   10  C4  UNL     1      -7.240  13.022  49.053  1.00  0.00     0.144 A 
HETATM   11  N6  UNL     1      -7.960  12.468  48.150  1.00  0.00    -0.383 N 
ATOM     12  H61 UNL     1      -7.706  12.343  47.170  1.00  0.00     0.157 HD
ATOM     13  H62 UNL     1      -8.871  12.100  48.427  1.00  0.00     0.157 HD
ENDROOT
BRANCH   1  14
HETATM   14  S1  UNL     1      -9.103  12.624  51.002  1.00  0.00     0.212 S 
HETATM   15  O2  UNL     1      -9.291  11.196  50.616  1.00  0.00    -0.213 OA
BRANCH  14  16
HETATM   16  O1  UNL     1     -10.382  13.617  50.593  1.00  0.00    -0.290 OA
HETATM   17  C1  UNL     1     -11.257  13.006  49.706  1.00  0.00     0.224 C 
ENDBRANCH  14  16
BRANCH  14  18
HETATM   18  N1  UNL     1      -8.966  12.581  52.598  1.00  0.00    -0.240 N 
ATOM     19  H1  UNL     1      -8.304  11.968  53.074  1.00  0.00     0.198 HD
BRANCH  18  20
HETATM   20  N2  UNL     1      -9.817  13.443  53.287  1.00  0.00    -0.336 N 
ATOM     21  H22 UNL     1     -10.773  13.176  53.520  1.00  0.00     0.177 HD
ATOM     22  H21 UNL     1      -9.410  14.346  53.533  1.00  0.00     0.177 HD
ENDBRANCH  18  20
ENDBRANCH  14  18
ENDBRANCH   1  14
TORSDOF 4
ENDMDL
MODEL 4
REMARK VINA RESULT: -5.414788170      2.588      5.124
REMARK  4 active torsions:
REMARK  status: ('A' for Active; 'I' for Inactive)
REMARK    1  A    between atoms: O1_2  and  S1_3 
REMARK    2  A    between atoms: S1_3  and  N1_5 
REMARK    3  A    between atoms: S1_3  and  C2_10 
REMARK    4  A    between atoms: N1_5  and  N2_7 
ROOT
HETATM    1  C2  UNL     1      -8.332  12.618  50.877  1.00  0.00     0.194 A 
HETATM    2  N3  UNL     1      -8.599  12.479  52.209  1.00  0.00    -0.283 N 
ATOM      3  H3  UNL     1      -8.182  13.145  52.859  1.00  0.00     0.188 HD
HETATM    4  N4  UNL     1      -9.370  11.525  52.697  1.00  0.00    -0.250 N 
ATOM      5  H4  UNL     1      -9.548  11.450  53.699  1.00  0.00     0.192 HD
HETATM    6  C3  UNL     1      -9.911  10.655  51.826  1.00  0.00     0.340 A 
HETATM    7  O3  UNL     1     -10.654   9.737  52.297  1.00  0.00    -0.245 OA
HETATM    8  N5  UNL     1      -9.673  10.757  50.512  1.00  0.00    -0.291 N 
ATOM      9  H5  UNL     1     -10.102  10.078  49.883  1.00  0.00     0.172 HD
HETATM   10  C4  UNL     1      -8.878  11.735  49.981  1.00  0.00     0.144 A 
HETATM   11  N6  UNL     1      -8.697  11.734  48.713  1.00  0.00    -0.383 N 
ATOM     12  H61 UNL     1      -9.103  11.077  48.047  1.00  0.00     0.157 HD
ATOM     13  H62 UNL     1      -8.103  12.463  48.317  1.00  0.00     0.157 HD
ENDROOT
BRANCH   1  14
HETATM   14  S1  UNL     1      -7.292  13.918  50.363  1.00  0.00     0.212 S 
HETATM   15  O2  UNL     1      -7.944  15.221  50.682  1.00  0.00    -0.213 OA
BRANCH  14  16
HETATM   16  O1  UNL     1      -6.809  13.767  48.772  1.00  0.00    -0.290 OA
HETATM   17  C1  UNL     1      -5.428  13.700  48.648  1.00  0.00     0.224 C 
ENDBRANCH  14  16
BRANCH  14  18
HETATM   18  N1  UNL     1      -5.998  13.889  51.306  1.00  0.00    -0.240 N 
ATOM     19  H1  UNL     1      -5.428  13.051  51.429  1.00  0.00     0.198 HD
BRANCH  18  20
HETATM   20  N2  UNL     1      -5.708  15.091  51.948  1.00  0.00    -0.336 N 
ATOM     21  H22 UNL     1      -4.848  15.218  52.483  1.00  0.00     0.177 HD
ATOM     22  H21 UNL     1      -6.413  15.821  51.838  1.00  0.00     0.177 HD
ENDBRANCH  18  20
ENDBRANCH  14  18
ENDBRANCH   1  14
TORSDOF 4
ENDMDL
MODEL 5
REMARK VINA RESULT: -5.376420073      2.721      4.012
REMARK  4 active torsions:
REMARK  status: ('A' for Active; 'I' for Inactive)
REMARK    1  A    between atoms: O1_2  and  S1_3 
REMARK    2  A    between atoms: S1_3  and  N1_5 
REMARK    3  A    between atoms: S1_3  and  C2_10 
REMARK    4  A    between atoms: N1_5  and  N2_7 
ROOT
HETATM    1  C2  UNL     1      -7.712  13.756  51.357  1.00  0.00     0.194 A 
HETATM    2  N3  UNL     1      -6.862  14.579  52.037  1.00  0.00    -0.283 N 
ATOM      3  H3  UNL     1      -7.155  14.935  52.946  1.00  0.00     0.188 HD
HETATM    4  N4  UNL     1      -5.679  14.939  51.575  1.00  0.00    -0.250 N 
ATOM      5  H4  UNL     1      -5.068  15.557  52.110  1.00  0.00     0.192 HD
HETATM    6  C3  UNL     1      -5.307  14.461  50.375  1.00  0.00     0.340 A 
HETATM    7  O3  UNL     1      -4.167  14.807  49.931  1.00  0.00    -0.245 OA
HETATM    8  N5  UNL     1      -6.113  13.651  49.675  1.00  0.00    -0.291 N 
ATOM      9  H5  UNL     1      -5.797  13.309  48.768  1.00  0.00     0.172 HD
HETATM   10  C4  UNL     1      -7.343  13.265  50.130  1.00  0.00     0.144 A 
HETATM   11  N6  UNL     1      -8.047  12.504  49.377  1.00  0.00    -0.383 N 
ATOM     12  H61 UNL     1      -7.772  12.139  48.465  1.00  0.00     0.157 HD
ATOM     13  H62 UNL     1      -8.965  12.216  49.717  1.00  0.00     0.157 HD
ENDROOT
BRANCH   1  14
HETATM   14  S1  UNL     1      -9.251  13.362  52.075  1.00  0.00     0.212 S 
HETATM   15  O2  UNL     1     -10.288  13.301  51.006  1.00  0.00    -0.213 OA
BRANCH  14  16
HETATM   16  O1  UNL     1      -9.642  14.366  53.351  1.00  0.00    -0.290 OA
HETATM   17  C1  UNL     1     -10.891  14.075  53.882  1.00  0.00     0.224 C 
ENDBRANCH  14  16
BRANCH  14  18
HETATM   18  N1  UNL     1      -9.151  11.855  52.609  1.00  0.00    -0.240 N 
ATOM     19  H1  UNL     1      -8.620  11.603  53.443  1.00  0.00     0.198 HD
BRANCH  18  20
HETATM   20  N2  UNL     1      -9.843  10.914  51.850  1.00  0.00    -0.336 N 
ATOM     21  H22 UNL     1     -10.111  10.008  52.236  1.00  0.00     0.177 HD
ATOM     22  H21 UNL     1     -10.054  11.200  50.894  1.00  0.00     0.177 HD
ENDBRANCH  18  20
ENDBRANCH  14  18
ENDBRANCH   1  14
TORSDOF 4
ENDMDL
