MODEL 1
REMARK VINA RESULT: -5.325286617      0.000      0.000
REMARK  5 active torsions:
REMARK  status: ('A' for Active; 'I' for Inactive)
REMARK    1  A    between atoms: C2_2  and  O1_3 
REMARK    2  A    between atoms: O1_3  and  N1_4 
REMARK    3  A    between atoms: N1_4  and  C4_6 
REMARK       I    between atoms: N2_7  and  C5_9 
REMARK       I    between atoms: C5_9  and  N4_14 
REMARK    4  A    between atoms: N3_10  and  O2_12 
REMARK    5  A    between atoms: N4_14  and  C6_16 
ROOT
HETATM    1  C4  UNL     1     -19.527  12.823 -20.558  1.00  0.00     0.224 C 
HETATM    2  N2  UNL     1     -20.649  12.658 -21.093  1.00  0.00    -0.184 N 
ATOM      3  H2  UNL     1     -21.177  13.461 -21.435  1.00  0.00     0.185 HD
HETATM    4  C5  UNL     1     -21.185  11.336 -21.220  1.00  0.00     0.701 C 
HETATM    5  N3  UNL     1     -20.582  10.348 -21.705  1.00  0.00    -0.099 N 
ATOM      6  H3  UNL     1     -21.083   9.460 -21.710  1.00  0.00     0.213 HD
HETATM    7  N4  UNL     1     -22.511  11.244 -20.675  1.00  0.00    -0.186 N 
ATOM      8  H4  UNL     1     -22.802  11.851 -19.909  1.00  0.00     0.181 HD
ENDROOT
BRANCH   5   9
HETATM    9  O2  UNL     1     -19.348  10.346 -22.213  1.00  0.00    -0.276 OA
ATOM     10  H2  UNL     1     -19.066  10.790 -23.003  1.00  0.00     0.245 HD
ENDBRANCH   5   9
BRANCH   7  11
HETATM   11  C6  UNL     1     -23.403  10.297 -21.223  1.00  0.00     0.193 C 
HETATM   12  C7  UNL     1     -24.621   9.965 -20.378  1.00  0.00     0.100 C 
HETATM   13  C8  UNL     1     -24.212   8.590 -20.803  1.00  0.00     0.135 C 
HETATM   14  C9  UNL     1     -24.714   8.204 -22.186  1.00  0.00     0.085 C 
HETATM   15  O3  UNL     1     -22.902   8.988 -20.982  1.00  0.00    -0.349 OA
HETATM   16  C10 UNL     1     -24.545   9.384 -23.072  1.00  0.00     0.036 C 
HETATM   17 CL1  UNL     1     -25.202   9.472 -24.708  1.00  0.00    -0.087 Cl
HETATM   18  C11 UNL     1     -23.893  10.464 -22.598  1.00  0.00     0.085 C 
HETATM   19 CL2  UNL     1     -23.735  11.928 -23.502  1.00  0.00    -0.082 Cl
ENDBRANCH   7  11
BRANCH   1  20
HETATM   20  N1  UNL     1     -19.095  14.202 -20.429  1.00  0.00    -0.258 N 
HETATM   21  C3  UNL     1     -20.162  15.169 -20.100  1.00  0.00     0.186 C 
BRANCH  20  22
HETATM   22  O1  UNL     1     -17.818  14.479 -20.474  1.00  0.00    -0.278 OA
BRANCH  22  23
HETATM   23  C2  UNL     1     -17.580  15.589 -21.317  1.00  0.00     0.197 C 
HETATM   24  C1  UNL     1     -17.285  16.722 -20.357  1.00  0.00     0.036 C 
ENDBRANCH  22  23
ENDBRANCH  20  22
ENDBRANCH   1  20
TORSDOF 5
ENDMDL
MODEL 2
REMARK VINA RESULT: -5.072710852      6.147      9.304
REMARK  5 active torsions:
REMARK  status: ('A' for Active; 'I' for Inactive)
REMARK    1  A    between atoms: C2_2  and  O1_3 
REMARK    2  A    between atoms: O1_3  and  N1_4 
REMARK    3  A    between atoms: N1_4  and  C4_6 
REMARK       I    between atoms: N2_7  and  C5_9 
REMARK       I    between atoms: C5_9  and  N4_14 
REMARK    4  A    between atoms: N3_10  and  O2_12 
REMARK    5  A    between atoms: N4_14  and  C6_16 
ROOT
HETATM    1  C4  UNL     1     -19.688  16.223 -20.052  1.00  0.00     0.224 C 
HETATM    2  N2  UNL     1     -19.560  17.083 -19.149  1.00  0.00    -0.184 N 
ATOM      3  H2  UNL     1     -18.639  17.465 -18.932  1.00  0.00     0.185 HD
HETATM    4  C5  UNL     1     -20.712  17.524 -18.423  1.00  0.00     0.701 C 
HETATM    5  N3  UNL     1     -21.786  17.926 -18.933  1.00  0.00    -0.099 N 
ATOM      6  H3  UNL     1     -22.532  18.189 -18.289  1.00  0.00     0.213 HD
HETATM    7  N4  UNL     1     -20.522  17.413 -17.004  1.00  0.00    -0.186 N 
ATOM      8  H4  UNL     1     -19.906  16.699 -16.615  1.00  0.00     0.181 HD
ENDROOT
BRANCH   5   9
HETATM    9  O2  UNL     1     -22.047  18.041 -20.237  1.00  0.00    -0.276 OA
ATOM     10  H2  UNL     1     -21.646  18.657 -20.838  1.00  0.00     0.245 HD
ENDBRANCH   5   9
BRANCH   7  11
HETATM   11  C6  UNL     1     -21.206  18.314 -16.157  1.00  0.00     0.193 C 
HETATM   12  C7  UNL     1     -22.342  17.723 -15.340  1.00  0.00     0.100 C 
HETATM   13  C8  UNL     1     -22.989  18.984 -15.820  1.00  0.00     0.135 C 
HETATM   14  C9  UNL     1     -22.643  20.205 -14.982  1.00  0.00     0.085 C 
HETATM   15  O3  UNL     1     -22.159  19.042 -16.921  1.00  0.00    -0.349 OA
HETATM   16  C10 UNL     1     -21.194  20.137 -14.664  1.00  0.00     0.036 C 
HETATM   17 CL1  UNL     1     -20.398  21.223 -13.522  1.00  0.00    -0.087 Cl
HETATM   18  C11 UNL     1     -20.447  19.175 -15.240  1.00  0.00     0.085 C 
HETATM   19 CL2  UNL     1     -18.779  18.935 -14.859  1.00  0.00    -0.082 Cl
ENDBRANCH   7  11
BRANCH   1  20
HETATM   20  N1  UNL     1     -18.457  15.804 -20.694  1.00  0.00    -0.258 N 
HETATM   21  C3  UNL     1     -17.310  16.717 -20.514  1.00  0.00     0.186 C 
BRANCH  20  22
HETATM   22  O1  UNL     1     -18.396  14.624 -21.254  1.00  0.00    -0.278 OA
BRANCH  22  23
HETATM   23  C2  UNL     1     -18.822  13.623 -20.350  1.00  0.00     0.197 C 
HETATM   24  C1  UNL     1     -19.574  12.638 -21.221  1.00  0.00     0.036 C 
ENDBRANCH  22  23
ENDBRANCH  20  22
ENDBRANCH   1  20
TORSDOF 5
ENDMDL
MODEL 3
REMARK VINA RESULT: -5.054924346     10.704     12.203
REMARK  5 active torsions:
REMARK  status: ('A' for Active; 'I' for Inactive)
REMARK    1  A    between atoms: C2_2  and  O1_3 
REMARK    2  A    between atoms: O1_3  and  N1_4 
REMARK    3  A    between atoms: N1_4  and  C4_6 
REMARK       I    between atoms: N2_7  and  C5_9 
REMARK       I    between atoms: C5_9  and  N4_14 
REMARK    4  A    between atoms: N3_10  and  O2_12 
REMARK    5  A    between atoms: N4_14  and  C6_16 
ROOT
HETATM    1  C4  UNL     1     -15.814  15.067 -12.433  1.00  0.00     0.224 C 
HETATM    2  N2  UNL     1     -16.880  15.685 -12.201  1.00  0.00    -0.184 N 
ATOM      3  H2  UNL     1     -17.543  15.325 -11.515  1.00  0.00     0.185 HD
HETATM    4  C5  UNL     1     -17.161  16.900 -12.906  1.00  0.00     0.701 C 
HETATM    5  N3  UNL     1     -16.380  17.876 -13.017  1.00  0.00    -0.099 N 
ATOM      6  H3  UNL     1     -16.709  18.668 -13.570  1.00  0.00     0.213 HD
HETATM    7  N4  UNL     1     -18.453  16.865 -13.531  1.00  0.00    -0.186 N 
ATOM      8  H4  UNL     1     -18.860  15.981 -13.837  1.00  0.00     0.181 HD
ENDROOT
BRANCH   5   9
HETATM    9  O2  UNL     1     -15.162  17.979 -12.484  1.00  0.00    -0.276 OA
ATOM     10  H2  UNL     1     -14.596  18.740 -12.516  1.00  0.00     0.245 HD
ENDBRANCH   5   9
BRANCH   7  11
HETATM   11  C6  UNL     1     -19.149  18.081 -13.714  1.00  0.00     0.193 C 
HETATM   12  C7  UNL     1     -20.319  18.037 -14.682  1.00  0.00     0.100 C 
HETATM   13  C8  UNL     1     -19.664  19.309 -15.117  1.00  0.00     0.135 C 
HETATM   14  C9  UNL     1     -20.045  20.513 -14.268  1.00  0.00     0.085 C 
HETATM   15  O3  UNL     1     -18.438  18.892 -14.641  1.00  0.00    -0.349 OA
HETATM   16  C10 UNL     1     -20.051  20.078 -12.848  1.00  0.00     0.036 C 
HETATM   17 CL1  UNL     1     -20.657  21.081 -11.528  1.00  0.00    -0.087 Cl
HETATM   18  C11 UNL     1     -19.613  18.840 -12.546  1.00  0.00     0.085 C 
HETATM   19 CL2  UNL     1     -19.679  18.193 -10.945  1.00  0.00    -0.082 Cl
ENDBRANCH   7  11
BRANCH   1  20
HETATM   20  N1  UNL     1     -15.645  13.823 -11.707  1.00  0.00    -0.258 N 
HETATM   21  C3  UNL     1     -16.009  13.873 -10.276  1.00  0.00     0.186 C 
BRANCH  20  22
HETATM   22  O1  UNL     1     -15.325  12.738 -12.362  1.00  0.00    -0.278 OA
BRANCH  22  23
HETATM   23  C2  UNL     1     -16.487  12.048 -12.778  1.00  0.00     0.197 C 
HETATM   24  C1  UNL     1     -16.396  10.713 -12.070  1.00  0.00     0.036 C 
ENDBRANCH  22  23
ENDBRANCH  20  22
ENDBRANCH   1  20
TORSDOF 5
ENDMDL
MODEL 4
REMARK VINA RESULT: -5.024184638     10.066     11.525
REMARK  5 active torsions:
REMARK  status: ('A' for Active; 'I' for Inactive)
REMARK    1  A    between atoms: C2_2  and  O1_3 
REMARK    2  A    between atoms: O1_3  and  N1_4 
REMARK    3  A    between atoms: N1_4  and  C4_6 
REMARK       I    between atoms: N2_7  and  C5_9 
REMARK       I    between atoms: C5_9  and  N4_14 
REMARK    4  A    between atoms: N3_10  and  O2_12 
REMARK    5  A    between atoms: N4_14  and  C6_16 
ROOT
HETATM    1  C4  UNL     1     -18.333  18.540 -13.930  1.00  0.00     0.224 C 
HETATM    2  N2  UNL     1     -17.944  17.356 -14.068  1.00  0.00    -0.184 N 
ATOM      3  H2  UNL     1     -18.159  16.841 -14.922  1.00  0.00     0.185 HD
HETATM    4  C5  UNL     1     -17.196  16.730 -13.020  1.00  0.00     0.701 C 
HETATM    5  N3  UNL     1     -16.182  17.212 -12.459  1.00  0.00    -0.099 N 
ATOM      6  H3  UNL     1     -15.764  16.661 -11.709  1.00  0.00     0.213 HD
HETATM    7  N4  UNL     1     -17.772  15.472 -12.632  1.00  0.00    -0.186 N 
ATOM      8  H4  UNL     1     -18.774  15.309 -12.724  1.00  0.00     0.181 HD
ENDROOT
BRANCH   5   9
HETATM    9  O2  UNL     1     -15.598  18.377 -12.747  1.00  0.00    -0.276 OA
ATOM     10  H2  UNL     1     -14.666  18.558 -12.730  1.00  0.00     0.245 HD
ENDBRANCH   5   9
BRANCH   7  11
HETATM   11  C6  UNL     1     -16.921  14.467 -12.122  1.00  0.00     0.193 C 
HETATM   12  C7  UNL     1     -16.334  14.729 -10.746  1.00  0.00     0.100 C 
HETATM   13  C8  UNL     1     -15.118  14.231 -11.461  1.00  0.00     0.135 C 
HETATM   14  C9  UNL     1     -15.025  12.714 -11.523  1.00  0.00     0.085 C 
HETATM   15  O3  UNL     1     -15.623  14.623 -12.684  1.00  0.00    -0.349 OA
HETATM   16  C10 UNL     1     -16.383  12.192 -11.824  1.00  0.00     0.036 C 
HETATM   17 CL1  UNL     1     -16.799  10.478 -11.764  1.00  0.00    -0.087 Cl
HETATM   18  C11 UNL     1     -17.364  13.067 -12.118  1.00  0.00     0.085 C 
HETATM   19 CL2  UNL     1     -19.002  12.579 -12.375  1.00  0.00    -0.082 Cl
ENDBRANCH   7  11
BRANCH   1  20
HETATM   20  N1  UNL     1     -19.126  19.066 -15.024  1.00  0.00    -0.258 N 
HETATM   21  C3  UNL     1     -19.538  18.075 -16.039  1.00  0.00     0.186 C 
BRANCH  20  22
HETATM   22  O1  UNL     1     -19.531  20.309 -14.981  1.00  0.00    -0.278 OA
BRANCH  22  23
HETATM   23  C2  UNL     1     -20.199  20.571 -13.762  1.00  0.00     0.197 C 
HETATM   24  C1  UNL     1     -21.666  20.546 -14.135  1.00  0.00     0.036 C 
ENDBRANCH  22  23
ENDBRANCH  20  22
ENDBRANCH   1  20
TORSDOF 5
ENDMDL
MODEL 5
REMARK VINA RESULT: -4.972930642      7.630     10.630
REMARK  5 active torsions:
REMARK  status: ('A' for Active; 'I' for Inactive)
REMARK    1  A    between atoms: C2_2  and  O1_3 
REMARK    2  A    between atoms: O1_3  and  N1_4 
REMARK    3  A    between atoms: N1_4  and  C4_6 
REMARK       I    between atoms: N2_7  and  C5_9 
REMARK       I    between atoms: C5_9  and  N4_14 
REMARK    4  A    between atoms: N3_10  and  O2_12 
REMARK    5  A    between atoms: N4_14  and  C6_16 
ROOT
HETATM    1  C4  UNL     1     -19.669  16.908 -18.149  1.00  0.00     0.224 C 
HETATM    2  N2  UNL     1     -19.335  17.775 -17.307  1.00  0.00    -0.184 N 
ATOM      3  H2  UNL     1     -18.772  18.576 -17.592  1.00  0.00     0.185 HD
HETATM    4  C5  UNL     1     -19.748  17.635 -15.943  1.00  0.00     0.701 C 
HETATM    5  N3  UNL     1     -20.922  17.418 -15.555  1.00  0.00    -0.099 N 
ATOM      6  H3  UNL     1     -21.064  17.318 -14.550  1.00  0.00     0.213 HD
HETATM    7  N4  UNL     1     -18.637  17.725 -15.038  1.00  0.00    -0.186 N 
ATOM      8  H4  UNL     1     -17.703  17.436 -15.330  1.00  0.00     0.181 HD
ENDROOT
BRANCH   5   9
HETATM    9  O2  UNL     1     -22.002  17.304 -16.331  1.00  0.00    -0.276 OA
ATOM     10  H2  UNL     1     -22.831  16.911 -16.086  1.00  0.00     0.245 HD
ENDBRANCH   5   9
BRANCH   7  11
HETATM   11  C6  UNL     1     -18.864  18.221 -13.735  1.00  0.00     0.193 C 
HETATM   12  C7  UNL     1     -17.677  18.170 -12.789  1.00  0.00     0.100 C 
HETATM   13  C8  UNL     1     -18.757  17.664 -11.886  1.00  0.00     0.135 C 
HETATM   14  C9  UNL     1     -19.583  18.769 -11.244  1.00  0.00     0.085 C 
HETATM   15  O3  UNL     1     -19.504  17.217 -12.957  1.00  0.00    -0.349 OA
HETATM   16  C10 UNL     1     -19.844  19.797 -12.283  1.00  0.00     0.036 C 
HETATM   17 CL1  UNL     1     -20.570  21.368 -11.933  1.00  0.00    -0.087 Cl
HETATM   18  C11 UNL     1     -19.475  19.545 -13.554  1.00  0.00     0.085 C 
HETATM   19 CL2  UNL     1     -19.631  20.711 -14.819  1.00  0.00    -0.082 Cl
ENDBRANCH   7  11
BRANCH   1  20
HETATM   20  N1  UNL     1     -19.159  17.113 -19.491  1.00  0.00    -0.258 N 
HETATM   21  C3  UNL     1     -20.119  17.701 -20.447  1.00  0.00     0.186 C 
BRANCH  20  22
HETATM   22  O1  UNL     1     -17.891  16.903 -19.732  1.00  0.00    -0.278 OA
BRANCH  22  23
HETATM   23  C2  UNL     1     -17.716  16.361 -21.026  1.00  0.00     0.197 C 
HETATM   24  C1  UNL     1     -18.014  14.887 -20.851  1.00  0.00     0.036 C 
ENDBRANCH  22  23
ENDBRANCH  20  22
ENDBRANCH   1  20
TORSDOF 5
ENDMDL
