MODEL 1
REMARK VINA RESULT: -4.881175691      0.000      0.000
REMARK  4 active torsions:
REMARK  status: ('A' for Active; 'I' for Inactive)
REMARK    1  A    between atoms: N1_1  and  N2_4 
REMARK    2  A    between atoms: N2_4  and  C1_6 
REMARK    3  A    between atoms: C1_6  and  N3_8 
REMARK    4  A    between atoms: C2_10  and  C3_11 
ROOT
HETATM    1  C1  UNL     1      76.947  87.052  16.878  1.00  0.00     0.190 C 
HETATM    2  S1  UNL     1      77.945  85.881  17.388  1.00  0.00    -0.039 SA
ENDROOT
BRANCH   1   3
HETATM    3  N2  UNL     1      76.438  87.017  15.568  1.00  0.00    -0.283 N 
ATOM      4  H2  UNL     1      76.877  87.582  14.841  1.00  0.00     0.188 HD
BRANCH   3   5
HETATM    5  N1  UNL     1      75.335  86.215  15.250  1.00  0.00    -0.343 N 
ATOM      6  H12 UNL     1      75.344  85.236  15.535  1.00  0.00     0.176 HD
ATOM      7  H11 UNL     1      74.539  86.602  14.744  1.00  0.00     0.176 HD
ENDBRANCH   3   5
ENDBRANCH   1   3
BRANCH   1   8
HETATM    8  N3  UNL     1      76.596  88.098  17.755  1.00  0.00    -0.337 N 
HETATM    9  C2  UNL     1      76.628  87.984  19.042  1.00  0.00     0.161 C 
ATOM     10  H3  UNL     1      76.302  88.989  17.354  1.00  0.00     0.167 HD
BRANCH   9  11
HETATM   11  C3  UNL     1      76.267  89.062  19.936  1.00  0.00     0.270 C 
HETATM   12  N4  UNL     1      77.221  89.661  20.778  1.00  0.00    -0.057 NA
HETATM   13  O1  UNL     1      75.094  89.474  19.969  1.00  0.00    -0.270 OA
ENDBRANCH   9  11
ENDBRANCH   1   8
TORSDOF 4
ENDMDL
MODEL 2
REMARK VINA RESULT: -4.836621935      1.684      2.209
REMARK  4 active torsions:
REMARK  status: ('A' for Active; 'I' for Inactive)
REMARK    1  A    between atoms: N1_1  and  N2_4 
REMARK    2  A    between atoms: N2_4  and  C1_6 
REMARK    3  A    between atoms: C1_6  and  N3_8 
REMARK    4  A    between atoms: C2_10  and  C3_11 
ROOT
HETATM    1  C1  UNL     1      77.804  87.001  17.403  1.00  0.00     0.190 C 
HETATM    2  S1  UNL     1      76.962  85.835  16.655  1.00  0.00    -0.039 SA
ENDROOT
BRANCH   1   3
HETATM    3  N2  UNL     1      79.209  86.966  17.393  1.00  0.00    -0.283 N 
ATOM      4  H2  UNL     1      79.692  86.068  17.415  1.00  0.00     0.188 HD
BRANCH   3   5
HETATM    5  N1  UNL     1      79.953  88.152  17.354  1.00  0.00    -0.343 N 
ATOM      6  H12 UNL     1      80.187  88.553  16.447  1.00  0.00     0.176 HD
ATOM      7  H11 UNL     1      80.256  88.605  18.216  1.00  0.00     0.176 HD
ENDBRANCH   3   5
ENDBRANCH   1   3
BRANCH   1   8
HETATM    8  N3  UNL     1      77.118  88.043  18.058  1.00  0.00    -0.337 N 
HETATM    9  C2  UNL     1      76.962  88.093  19.340  1.00  0.00     0.161 C 
ATOM     10  H3  UNL     1      76.724  88.796  17.493  1.00  0.00     0.167 HD
BRANCH   9  11
HETATM   11  C3  UNL     1      76.257  89.166  20.007  1.00  0.00     0.270 C 
HETATM   12  N4  UNL     1      76.905  89.993  20.943  1.00  0.00    -0.057 NA
HETATM   13  O1  UNL     1      75.057  89.369  19.754  1.00  0.00    -0.270 OA
ENDBRANCH   9  11
ENDBRANCH   1   8
TORSDOF 4
ENDMDL
MODEL 3
REMARK VINA RESULT: -4.792533616      3.823      4.634
REMARK  4 active torsions:
REMARK  status: ('A' for Active; 'I' for Inactive)
REMARK    1  A    between atoms: N1_1  and  N2_4 
REMARK    2  A    between atoms: N2_4  and  C1_6 
REMARK    3  A    between atoms: C1_6  and  N3_8 
REMARK    4  A    between atoms: C2_10  and  C3_11 
ROOT
HETATM    1  C1  UNL     1      78.233  88.413  19.550  1.00  0.00     0.190 C 
HETATM    2  S1  UNL     1      77.159  89.212  20.464  1.00  0.00    -0.039 SA
ENDROOT
BRANCH   1   3
HETATM    3  N2  UNL     1      78.892  89.077  18.501  1.00  0.00    -0.283 N 
ATOM      4  H2  UNL     1      78.724  90.071  18.349  1.00  0.00     0.188 HD
BRANCH   3   5
HETATM    5  N1  UNL     1      79.776  88.388  17.662  1.00  0.00    -0.343 N 
ATOM      6  H12 UNL     1      80.738  88.251  17.971  1.00  0.00     0.176 HD
ATOM      7  H11 UNL     1      79.465  88.029  16.759  1.00  0.00     0.176 HD
ENDBRANCH   3   5
ENDBRANCH   1   3
BRANCH   1   8
HETATM    8  N3  UNL     1      78.499  87.055  19.817  1.00  0.00    -0.337 N 
HETATM    9  C2  UNL     1      77.713  86.095  19.455  1.00  0.00     0.161 C 
ATOM     10  H3  UNL     1      79.354  86.817  20.320  1.00  0.00     0.167 HD
BRANCH   9  11
HETATM   11  C3  UNL     1      77.992  84.702  19.731  1.00  0.00     0.270 C 
HETATM   12  N4  UNL     1      78.163  83.772  18.690  1.00  0.00    -0.057 NA
HETATM   13  O1  UNL     1      78.085  84.311  20.908  1.00  0.00    -0.270 OA
ENDBRANCH   9  11
ENDBRANCH   1   8
TORSDOF 4
ENDMDL
MODEL 4
REMARK VINA RESULT: -4.791241572      3.953      4.599
REMARK  4 active torsions:
REMARK  status: ('A' for Active; 'I' for Inactive)
REMARK    1  A    between atoms: N1_1  and  N2_4 
REMARK    2  A    between atoms: N2_4  and  C1_6 
REMARK    3  A    between atoms: C1_6  and  N3_8 
REMARK    4  A    between atoms: C2_10  and  C3_11 
ROOT
HETATM    1  C1  UNL     1      78.198  88.422  19.584  1.00  0.00     0.190 C 
HETATM    2  S1  UNL     1      77.123  89.188  20.525  1.00  0.00    -0.039 SA
ENDROOT
BRANCH   1   3
HETATM    3  N2  UNL     1      78.845  89.119  18.550  1.00  0.00    -0.283 N 
ATOM      4  H2  UNL     1      78.678  90.118  18.432  1.00  0.00     0.188 HD
BRANCH   3   5
HETATM    5  N1  UNL     1      79.718  88.456  17.677  1.00  0.00    -0.343 N 
ATOM      6  H12 UNL     1      80.120  87.567  17.971  1.00  0.00     0.176 HD
ATOM      7  H11 UNL     1      79.946  88.855  16.767  1.00  0.00     0.176 HD
ENDBRANCH   3   5
ENDBRANCH   1   3
BRANCH   1   8
HETATM    8  N3  UNL     1      78.476  87.059  19.813  1.00  0.00    -0.337 N 
HETATM    9  C2  UNL     1      77.733  86.101  19.367  1.00  0.00     0.161 C 
ATOM     10  H3  UNL     1      79.304  86.818  20.357  1.00  0.00     0.167 HD
BRANCH   9  11
HETATM   11  C3  UNL     1      78.024  84.704  19.604  1.00  0.00     0.270 C 
HETATM   12  N4  UNL     1      78.080  84.182  20.909  1.00  0.00    -0.057 NA
HETATM   13  O1  UNL     1      78.230  83.942  18.643  1.00  0.00    -0.270 OA
ENDBRANCH   9  11
ENDBRANCH   1   8
TORSDOF 4
ENDMDL
MODEL 5
REMARK VINA RESULT: -4.684109120      3.622      4.480
REMARK  4 active torsions:
REMARK  status: ('A' for Active; 'I' for Inactive)
REMARK    1  A    between atoms: N1_1  and  N2_4 
REMARK    2  A    between atoms: N2_4  and  C1_6 
REMARK    3  A    between atoms: C1_6  and  N3_8 
REMARK    4  A    between atoms: C2_10  and  C3_11 
ROOT
HETATM    1  C1  UNL     1      77.558  87.778  19.034  1.00  0.00     0.190 C 
HETATM    2  S1  UNL     1      78.962  88.567  18.856  1.00  0.00    -0.039 SA
ENDROOT
BRANCH   1   3
HETATM    3  N2  UNL     1      76.370  88.345  18.542  1.00  0.00    -0.283 N 
ATOM      4  H2  UNL     1      76.050  88.110  17.602  1.00  0.00     0.188 HD
BRANCH   3   5
HETATM    5  N1  UNL     1      75.620  89.229  19.327  1.00  0.00    -0.343 N 
ATOM      6  H12 UNL     1      75.775  89.240  20.335  1.00  0.00     0.176 HD
ATOM      7  H11 UNL     1      74.932  89.850  18.901  1.00  0.00     0.176 HD
ENDBRANCH   3   5
ENDBRANCH   1   3
BRANCH   1   8
HETATM    8  N3  UNL     1      77.539  86.527  19.682  1.00  0.00    -0.337 N 
HETATM    9  C2  UNL     1      78.117  85.474  19.206  1.00  0.00     0.161 C 
ATOM     10  H3  UNL     1      77.044  86.448  20.571  1.00  0.00     0.167 HD
BRANCH   9  11
HETATM   11  C3  UNL     1      78.095  84.192  19.876  1.00  0.00     0.270 C 
HETATM   12  N4  UNL     1      78.338  82.998  19.175  1.00  0.00    -0.057 NA
HETATM   13  O1  UNL     1      77.857  84.135  21.096  1.00  0.00    -0.270 OA
ENDBRANCH   9  11
ENDBRANCH   1   8
TORSDOF 4
ENDMDL
