MODEL 1
REMARK VINA RESULT: -5.401522187      0.000      0.000
REMARK  4 active torsions:
REMARK  status: ('A' for Active; 'I' for Inactive)
REMARK    1  A    between atoms: N1_2  and  N2_4 
REMARK       I    between atoms: C2_6  and  N4_8 
REMARK    2  A    between atoms: N4_8  and  S1_10 
REMARK    3  A    between atoms: S1_10  and  N5_11 
REMARK    4  A    between atoms: S1_10  and  N6_15 
ROOT
HETATM    1  N2  UNL     1      76.446  87.935  15.218  1.00  0.00    -0.278 N 
ATOM      2  H2  UNL     1      76.182  88.915  15.114  1.00  0.00     0.189 HD
HETATM    3  C2  UNL     1      77.074  87.567  16.277  1.00  0.00     0.216 C 
HETATM    4  N3  UNL     1      77.430  86.199  16.395  1.00  0.00    -0.061 NA
HETATM    5  N4  UNL     1      77.389  88.535  17.284  1.00  0.00    -0.257 N 
ATOM      6  H4  UNL     1      76.731  89.259  17.573  1.00  0.00     0.181 HD
ENDROOT
BRANCH   5   7
HETATM    7  S1  UNL     1      78.837  88.397  17.917  1.00  0.00     0.194 S 
HETATM    8  O1  UNL     1      79.811  88.542  16.777  1.00  0.00    -0.206 OA
BRANCH   7   9
HETATM    9  N5  UNL     1      79.069  89.678  19.019  1.00  0.00    -0.328 N 
ATOM     10  H52 UNL     1      79.709  90.461  18.880  1.00  0.00     0.168 HD
ATOM     11  H51 UNL     1      78.464  89.523  19.825  1.00  0.00     0.168 HD
ENDBRANCH   7   9
BRANCH   7  12
HETATM   12  N6  UNL     1      78.971  86.859  18.572  1.00  0.00    -0.324 N 
HETATM   13  C3  UNL     1      78.328  86.602  19.791  1.00  0.00     0.159 C 
ATOM     14  H6  UNL     1      79.505  86.131  18.098  1.00  0.00     0.171 HD
ENDBRANCH   7  12
ENDBRANCH   5   7
BRANCH   1  15
HETATM   15  N1  UNL     1      76.120  87.044  14.220  1.00  0.00    -0.338 N 
HETATM   16  C1  UNL     1      75.048  87.437  13.298  1.00  0.00     0.167 C 
ATOM     17  H1  UNL     1      76.602  86.150  14.125  1.00  0.00     0.179 HD
ENDBRANCH   1  15
TORSDOF 4
ENDMDL
MODEL 2
REMARK VINA RESULT: -5.392241391      2.193      2.472
REMARK  4 active torsions:
REMARK  status: ('A' for Active; 'I' for Inactive)
REMARK    1  A    between atoms: N1_2  and  N2_4 
REMARK       I    between atoms: C2_6  and  N4_8 
REMARK    2  A    between atoms: N4_8  and  S1_10 
REMARK    3  A    between atoms: S1_10  and  N5_11 
REMARK    4  A    between atoms: S1_10  and  N6_15 
ROOT
HETATM    1  N2  UNL     1      76.585  87.174  16.142  1.00  0.00    -0.278 N 
ATOM      2  H2  UNL     1      75.944  86.416  16.374  1.00  0.00     0.189 HD
HETATM    3  C2  UNL     1      77.527  87.469  16.965  1.00  0.00     0.216 C 
HETATM    4  N3  UNL     1      78.404  88.529  16.617  1.00  0.00    -0.061 NA
HETATM    5  N4  UNL     1      77.657  86.731  18.185  1.00  0.00    -0.257 N 
ATOM      6  H4  UNL     1      77.540  85.718  18.228  1.00  0.00     0.181 HD
ENDROOT
BRANCH   5   7
HETATM    7  S1  UNL     1      77.997  87.605  19.464  1.00  0.00     0.194 S 
HETATM    8  O1  UNL     1      77.575  86.788  20.657  1.00  0.00    -0.206 OA
BRANCH   7   9
HETATM    9  N5  UNL     1      79.684  87.847  19.520  1.00  0.00    -0.328 N 
ATOM     10  H52 UNL     1      80.180  88.618  19.073  1.00  0.00     0.168 HD
ATOM     11  H51 UNL     1      80.100  87.096  20.071  1.00  0.00     0.168 HD
ENDBRANCH   7   9
BRANCH   7  12
HETATM   12  N6  UNL     1      77.076  89.005  19.394  1.00  0.00    -0.324 N 
HETATM   13  C3  UNL     1      77.117  89.878  20.491  1.00  0.00     0.159 C 
ATOM     14  H6  UNL     1      76.504  89.216  18.578  1.00  0.00     0.171 HD
ENDBRANCH   7  12
ENDBRANCH   5   7
BRANCH   1  15
HETATM   15  N1  UNL     1      76.417  87.854  14.957  1.00  0.00    -0.338 N 
HETATM   16  C1  UNL     1      75.691  87.159  13.887  1.00  0.00     0.167 C 
ATOM     17  H1  UNL     1      76.780  88.798  14.827  1.00  0.00     0.179 HD
ENDBRANCH   1  15
TORSDOF 4
ENDMDL
MODEL 3
REMARK VINA RESULT: -5.311703594      2.039      2.453
REMARK  4 active torsions:
REMARK  status: ('A' for Active; 'I' for Inactive)
REMARK    1  A    between atoms: N1_2  and  N2_4 
REMARK       I    between atoms: C2_6  and  N4_8 
REMARK    2  A    between atoms: N4_8  and  S1_10 
REMARK    3  A    between atoms: S1_10  and  N5_11 
REMARK    4  A    between atoms: S1_10  and  N6_15 
ROOT
HETATM    1  N2  UNL     1      76.554  86.752  17.208  1.00  0.00    -0.278 N 
ATOM      2  H2  UNL     1      75.676  87.124  17.569  1.00  0.00     0.189 HD
HETATM    3  C2  UNL     1      77.632  86.928  17.886  1.00  0.00     0.216 C 
HETATM    4  N3  UNL     1      78.839  86.401  17.360  1.00  0.00    -0.061 NA
HETATM    5  N4  UNL     1      77.578  87.639  19.127  1.00  0.00    -0.257 N 
ATOM      6  H4  UNL     1      76.828  87.504  19.805  1.00  0.00     0.181 HD
ENDROOT
BRANCH   5   7
HETATM    7  S1  UNL     1      78.772  88.655  19.370  1.00  0.00     0.194 S 
HETATM    8  O1  UNL     1      79.868  87.865  20.036  1.00  0.00    -0.206 OA
BRANCH   7   9
HETATM    9  N5  UNL     1      79.324  89.212  17.855  1.00  0.00    -0.328 N 
ATOM     10  H52 UNL     1      78.820  89.106  16.974  1.00  0.00     0.168 HD
ATOM     11  H51 UNL     1      80.230  89.661  17.987  1.00  0.00     0.168 HD
ENDBRANCH   7   9
BRANCH   7  12
HETATM   12  N6  UNL     1      78.232  89.850  20.417  1.00  0.00    -0.324 N 
HETATM   13  C3  UNL     1      76.850  89.967  20.627  1.00  0.00     0.159 C 
ATOM     14  H6  UNL     1      78.888  90.472  20.886  1.00  0.00     0.171 HD
ENDBRANCH   7  12
ENDBRANCH   5   7
BRANCH   1  15
HETATM   15  N1  UNL     1      76.552  86.076  16.009  1.00  0.00    -0.338 N 
HETATM   16  C1  UNL     1      76.222  86.849  14.807  1.00  0.00     0.167 C 
ATOM     17  H1  UNL     1      76.771  85.080  15.958  1.00  0.00     0.179 HD
ENDBRANCH   1  15
TORSDOF 4
ENDMDL
MODEL 4
REMARK VINA RESULT: -5.311443766      2.061      2.491
REMARK  4 active torsions:
REMARK  status: ('A' for Active; 'I' for Inactive)
REMARK    1  A    between atoms: N1_2  and  N2_4 
REMARK       I    between atoms: C2_6  and  N4_8 
REMARK    2  A    between atoms: N4_8  and  S1_10 
REMARK    3  A    between atoms: S1_10  and  N5_11 
REMARK    4  A    between atoms: S1_10  and  N6_15 
ROOT
HETATM    1  N2  UNL     1      76.730  86.040  17.136  1.00  0.00    -0.278 N 
ATOM      2  H2  UNL     1      76.668  85.334  17.869  1.00  0.00     0.189 HD
HETATM    3  C2  UNL     1      77.575  87.000  17.264  1.00  0.00     0.216 C 
HETATM    4  N3  UNL     1      77.640  87.968  16.229  1.00  0.00    -0.061 NA
HETATM    5  N4  UNL     1      78.408  87.059  18.427  1.00  0.00    -0.257 N 
ATOM      6  H4  UNL     1      78.846  86.231  18.830  1.00  0.00     0.181 HD
ENDROOT
BRANCH   5   7
HETATM    7  S1  UNL     1      78.598  88.509  19.042  1.00  0.00     0.194 S 
HETATM    8  O1  UNL     1      79.087  88.308  20.452  1.00  0.00    -0.206 OA
BRANCH   7   9
HETATM    9  N5  UNL     1      79.797  89.324  18.144  1.00  0.00    -0.328 N 
ATOM     10  H52 UNL     1      79.646  89.776  17.242  1.00  0.00     0.168 HD
ATOM     11  H51 UNL     1      80.675  89.277  18.661  1.00  0.00     0.168 HD
ENDBRANCH   7   9
BRANCH   7  12
HETATM   12  N6  UNL     1      77.097  89.258  19.075  1.00  0.00    -0.324 N 
HETATM   13  C3  UNL     1      76.147  88.794  19.996  1.00  0.00     0.159 C 
ATOM     14  H6  UNL     1      76.882  90.029  18.443  1.00  0.00     0.171 HD
ENDBRANCH   7  12
ENDBRANCH   5   7
BRANCH   1  15
HETATM   15  N1  UNL     1      75.907  85.938  16.037  1.00  0.00    -0.338 N 
HETATM   16  C1  UNL     1      76.208  84.874  15.074  1.00  0.00     0.167 C 
ATOM     17  H1  UNL     1      75.121  86.575  15.898  1.00  0.00     0.179 HD
ENDBRANCH   1  15
TORSDOF 4
ENDMDL
MODEL 5
REMARK VINA RESULT: -5.104899956      2.350      2.395
REMARK  4 active torsions:
REMARK  status: ('A' for Active; 'I' for Inactive)
REMARK    1  A    between atoms: N1_2  and  N2_4 
REMARK       I    between atoms: C2_6  and  N4_8 
REMARK    2  A    between atoms: N4_8  and  S1_10 
REMARK    3  A    between atoms: S1_10  and  N5_11 
REMARK    4  A    between atoms: S1_10  and  N6_15 
ROOT
HETATM    1  N2  UNL     1      76.945  87.929  16.528  1.00  0.00    -0.278 N 
ATOM      2  H2  UNL     1      77.128  88.845  16.119  1.00  0.00     0.189 HD
HETATM    3  C2  UNL     1      76.811  87.828  17.802  1.00  0.00     0.216 C 
HETATM    4  N3  UNL     1      76.558  86.541  18.342  1.00  0.00    -0.061 NA
HETATM    5  N4  UNL     1      76.920  88.999  18.619  1.00  0.00    -0.257 N 
ATOM      6  H4  UNL     1      76.508  89.893  18.353  1.00  0.00     0.181 HD
ENDROOT
BRANCH   5   7
HETATM    7  S1  UNL     1      77.730  88.801  19.968  1.00  0.00     0.194 S 
HETATM    8  O1  UNL     1      78.146  90.177  20.416  1.00  0.00    -0.206 OA
BRANCH   7   9
HETATM    9  N5  UNL     1      76.682  88.127  21.133  1.00  0.00    -0.328 N 
ATOM     10  H52 UNL     1      76.979  87.571  21.936  1.00  0.00     0.168 HD
ATOM     11  H51 UNL     1      75.724  88.374  20.886  1.00  0.00     0.168 HD
ENDBRANCH   7   9
BRANCH   7  12
HETATM   12  N6  UNL     1      79.096  87.890  19.624  1.00  0.00    -0.324 N 
HETATM   13  C3  UNL     1      80.043  88.429  18.741  1.00  0.00     0.159 C 
ATOM     14  H6  UNL     1      79.233  86.971  20.043  1.00  0.00     0.171 HD
ENDBRANCH   7  12
ENDBRANCH   5   7
BRANCH   1  15
HETATM   15  N1  UNL     1      76.850  86.834  15.698  1.00  0.00    -0.338 N 
HETATM   16  C1  UNL     1      76.113  87.011  14.441  1.00  0.00     0.167 C 
ATOM     17  H1  UNL     1      77.272  85.939  15.946  1.00  0.00     0.179 HD
ENDBRANCH   1  15
TORSDOF 4
ENDMDL
