MODEL 1
REMARK VINA RESULT: -7.449839179      0.000      0.000
REMARK  6 active torsions:
REMARK  status: ('A' for Active; 'I' for Inactive)
REMARK    1  A    between atoms: C2_2  and  O1_3 
REMARK    2  A    between atoms: C2_2  and  C3_5 
REMARK    3  A    between atoms: N3_17  and  C11_18 
REMARK    4  A    between atoms: C11_18  and  C13_20 
REMARK    5  A    between atoms: C13_20  and  O3_21 
REMARK    6  A    between atoms: C13_20  and  C14_23 
ROOT
HETATM    1  C3  UNL     1     -22.195   8.684  -1.548  1.00  0.00     0.217 C 
HETATM    2  N1  UNL     1     -21.475   9.545  -2.508  1.00  0.00    -0.329 N 
HETATM    3  C4  UNL     1     -22.245  10.278  -3.487  1.00  0.00     0.155 C 
HETATM    4  C5  UNL     1     -20.056   9.707  -2.542  1.00  0.00     0.253 C 
HETATM    5  O2  UNL     1     -19.591  10.096  -3.675  1.00  0.00    -0.268 OA
HETATM    6  C6  UNL     1     -19.080   9.495  -1.488  1.00  0.00     0.042 C 
HETATM    7  C7  UNL     1     -17.809   9.533  -1.837  1.00  0.00     0.103 C 
HETATM    8 BR1  UNL     1     -17.299   9.856  -3.664  1.00  0.00    -0.038 Br
HETATM    9  C8  UNL     1     -16.793   9.337  -0.850  1.00  0.00     0.108 C 
HETATM   10  N2  UNL     1     -15.969   9.195  -0.039  1.00  0.00    -0.191 NA
HETATM   11  C9  UNL     1     -19.308   9.238  -0.051  1.00  0.00     0.090 C 
HETATM   12  C10 UNL     1     -20.595   8.509   0.245  1.00  0.00     0.066 C 
HETATM   13  N3  UNL     1     -21.769   9.080  -0.262  1.00  0.00    -0.363 N 
ENDROOT
BRANCH   1  14
HETATM   14  C2  UNL     1     -21.957   7.300  -1.993  1.00  0.00     0.156 C 
HETATM   15  C1  UNL     1     -22.656   7.102  -3.350  1.00  0.00     0.043 C 
BRANCH  14  16
HETATM   16  O1  UNL     1     -22.362   6.272  -1.202  1.00  0.00    -0.392 OA
ATOM     17  H1  UNL     1     -23.262   6.459  -0.962  1.00  0.00     0.210 HD
ENDBRANCH  14  16
ENDBRANCH   1  14
BRANCH  13  18
HETATM   18  C11 UNL     1     -22.783   9.520   0.638  1.00  0.00     0.111 C 
HETATM   19  C12 UNL     1     -23.005   8.505   1.698  1.00  0.00     0.035 C 
BRANCH  18  20
HETATM   20  C13 UNL     1     -22.659  10.932   1.008  1.00  0.00     0.148 C 
BRANCH  20  21
HETATM   21  O3  UNL     1     -22.052  11.598  -0.091  1.00  0.00    -0.393 OA
ATOM     22  H3  UNL     1     -22.527  12.411  -0.220  1.00  0.00     0.210 HD
ENDBRANCH  20  21
BRANCH  20  23
HETATM   23  C14 UNL     1     -23.882  11.715   1.336  1.00  0.00    -0.023 C 
HETATM   24  C15 UNL     1     -24.506  11.356   2.668  1.00  0.00     0.017 C 
HETATM   25  C16 UNL     1     -24.918  11.212   0.300  1.00  0.00     0.017 C 
HETATM   26  C17 UNL     1     -23.786  13.189   1.085  1.00  0.00     0.017 C 
ENDBRANCH  20  23
ENDBRANCH  18  20
ENDBRANCH  13  18
TORSDOF 6
ENDMDL
MODEL 2
REMARK VINA RESULT: -7.173308816      2.304      5.159
REMARK  6 active torsions:
REMARK  status: ('A' for Active; 'I' for Inactive)
REMARK    1  A    between atoms: C2_2  and  O1_3 
REMARK    2  A    between atoms: C2_2  and  C3_5 
REMARK    3  A    between atoms: N3_17  and  C11_18 
REMARK    4  A    between atoms: C11_18  and  C13_20 
REMARK    5  A    between atoms: C13_20  and  O3_21 
REMARK    6  A    between atoms: C13_20  and  C14_23 
ROOT
HETATM    1  C3  UNL     1     -22.541  10.087  -0.045  1.00  0.00     0.217 C 
HETATM    2  N1  UNL     1     -22.139   9.056   0.933  1.00  0.00    -0.329 N 
HETATM    3  C4  UNL     1     -23.137   8.120   1.395  1.00  0.00     0.155 C 
HETATM    4  C5  UNL     1     -20.820   8.915   1.462  1.00  0.00     0.253 C 
HETATM    5  O2  UNL     1     -20.761   8.303   2.591  1.00  0.00    -0.268 OA
HETATM    6  C6  UNL     1     -19.554   9.361   0.909  1.00  0.00     0.042 C 
HETATM    7  C7  UNL     1     -18.496   9.272   1.692  1.00  0.00     0.103 C 
HETATM    8 BR1  UNL     1     -18.652   8.579   3.480  1.00  0.00    -0.038 Br
HETATM    9  C8  UNL     1     -17.216   9.689   1.211  1.00  0.00     0.108 C 
HETATM   10  N2  UNL     1     -16.172  10.013   0.808  1.00  0.00    -0.191 NA
HETATM   11  C9  UNL     1     -19.270   9.911  -0.433  1.00  0.00     0.090 C 
HETATM   12  C10 UNL     1     -20.426  10.665  -1.044  1.00  0.00     0.066 C 
HETATM   13  N3  UNL     1     -21.645   9.979  -1.130  1.00  0.00    -0.363 N 
ENDROOT
BRANCH   1  14
HETATM   14  C2  UNL     1     -22.612  11.351   0.711  1.00  0.00     0.156 C 
HETATM   15  C1  UNL     1     -23.844  11.294   1.632  1.00  0.00     0.043 C 
BRANCH  14  16
HETATM   16  O1  UNL     1     -22.697  12.524   0.031  1.00  0.00    -0.392 OA
ATOM     17  H1  UNL     1     -22.052  13.104   0.419  1.00  0.00     0.210 HD
ENDBRANCH  14  16
ENDBRANCH   1  14
BRANCH  13  18
HETATM   18  C11 UNL     1     -22.219   9.721  -2.408  1.00  0.00     0.111 C 
HETATM   19  C12 UNL     1     -21.829  10.783  -3.369  1.00  0.00     0.035 C 
BRANCH  18  20
HETATM   20  C13 UNL     1     -22.130   8.316  -2.812  1.00  0.00     0.148 C 
BRANCH  20  21
HETATM   21  O3  UNL     1     -23.287   8.033  -3.586  1.00  0.00    -0.393 OA
ATOM     22  H3  UNL     1     -23.122   7.217  -4.045  1.00  0.00     0.210 HD
ENDBRANCH  20  21
BRANCH  20  23
HETATM   23  C14 UNL     1     -20.971   7.859  -3.627  1.00  0.00    -0.023 C 
HETATM   24  C15 UNL     1     -20.607   8.792  -4.763  1.00  0.00     0.017 C 
HETATM   25  C16 UNL     1     -21.515   6.600  -4.349  1.00  0.00     0.017 C 
HETATM   26  C17 UNL     1     -19.793   7.362  -2.845  1.00  0.00     0.017 C 
ENDBRANCH  20  23
ENDBRANCH  18  20
ENDBRANCH  13  18
TORSDOF 6
ENDMDL
MODEL 3
REMARK VINA RESULT: -7.172841608      2.456      4.565
REMARK  6 active torsions:
REMARK  status: ('A' for Active; 'I' for Inactive)
REMARK    1  A    between atoms: C2_2  and  O1_3 
REMARK    2  A    between atoms: C2_2  and  C3_5 
REMARK    3  A    between atoms: N3_17  and  C11_18 
REMARK    4  A    between atoms: C11_18  and  C13_20 
REMARK    5  A    between atoms: C13_20  and  O3_21 
REMARK    6  A    between atoms: C13_20  and  C14_23 
ROOT
HETATM    1  C3  UNL     1     -21.179   9.393   0.194  1.00  0.00     0.217 C 
HETATM    2  N1  UNL     1     -20.297   9.757  -0.933  1.00  0.00    -0.329 N 
HETATM    3  C4  UNL     1     -19.241  10.715  -0.699  1.00  0.00     0.155 C 
HETATM    4  C5  UNL     1     -20.413   9.226  -2.254  1.00  0.00     0.253 C 
HETATM    5  O2  UNL     1     -19.898   9.963  -3.172  1.00  0.00    -0.268 OA
HETATM    6  C6  UNL     1     -21.025   7.986  -2.697  1.00  0.00     0.042 C 
HETATM    7  C7  UNL     1     -21.166   7.823  -3.999  1.00  0.00     0.103 C 
HETATM    8 BR1  UNL     1     -20.580   9.180  -5.229  1.00  0.00    -0.038 Br
HETATM    9  C8  UNL     1     -21.757   6.624  -4.506  1.00  0.00     0.108 C 
HETATM   10  N2  UNL     1     -22.222   5.637  -4.916  1.00  0.00    -0.191 NA
HETATM   11  C9  UNL     1     -21.523   6.856  -1.886  1.00  0.00     0.090 C 
HETATM   12  C10 UNL     1     -22.031   7.256  -0.523  1.00  0.00     0.066 C 
HETATM   13  N3  UNL     1     -21.148   7.985   0.285  1.00  0.00    -0.363 N 
ENDROOT
BRANCH   1  14
HETATM   14  C2  UNL     1     -22.461  10.072  -0.063  1.00  0.00     0.156 C 
HETATM   15  C1  UNL     1     -22.265  11.580   0.178  1.00  0.00     0.043 C 
BRANCH  14  16
HETATM   16  O1  UNL     1     -23.557   9.711   0.654  1.00  0.00    -0.392 OA
ATOM     17  H1  UNL     1     -23.390   8.830   0.969  1.00  0.00     0.210 HD
ENDBRANCH  14  16
ENDBRANCH   1  14
BRANCH  13  18
HETATM   18  C11 UNL     1     -20.712   7.435   1.526  1.00  0.00     0.111 C 
HETATM   19  C12 UNL     1     -19.233   7.506   1.627  1.00  0.00     0.035 C 
BRANCH  18  20
HETATM   20  C13 UNL     1     -21.533   7.848   2.665  1.00  0.00     0.148 C 
BRANCH  20  21
HETATM   21  O3  UNL     1     -22.824   7.286   2.474  1.00  0.00    -0.393 OA
ATOM     22  H3  UNL     1     -23.015   6.760   3.242  1.00  0.00     0.210 HD
ENDBRANCH  20  21
BRANCH  20  23
HETATM   23  C14 UNL     1     -21.121   7.467   4.044  1.00  0.00    -0.023 C 
HETATM   24  C15 UNL     1     -20.377   6.151   4.124  1.00  0.00     0.017 C 
HETATM   25  C16 UNL     1     -22.467   7.168   4.751  1.00  0.00     0.017 C 
HETATM   26  C17 UNL     1     -20.507   8.565   4.858  1.00  0.00     0.017 C 
ENDBRANCH  20  23
ENDBRANCH  18  20
ENDBRANCH  13  18
TORSDOF 6
ENDMDL
MODEL 4
REMARK VINA RESULT: -6.994632125      2.982      4.511
REMARK  6 active torsions:
REMARK  status: ('A' for Active; 'I' for Inactive)
REMARK    1  A    between atoms: C2_2  and  O1_3 
REMARK    2  A    between atoms: C2_2  and  C3_5 
REMARK    3  A    between atoms: N3_17  and  C11_18 
REMARK    4  A    between atoms: C11_18  and  C13_20 
REMARK    5  A    between atoms: C13_20  and  O3_21 
REMARK    6  A    between atoms: C13_20  and  C14_23 
ROOT
HETATM    1  C3  UNL     1     -20.248   8.720  -0.862  1.00  0.00     0.217 C 
HETATM    2  N1  UNL     1     -19.380   9.137   0.258  1.00  0.00    -0.329 N 
HETATM    3  C4  UNL     1     -18.248   9.988  -0.030  1.00  0.00     0.155 C 
HETATM    4  C5  UNL     1     -19.580   8.757   1.620  1.00  0.00     0.253 C 
HETATM    5  O2  UNL     1     -18.524   8.815   2.350  1.00  0.00    -0.268 OA
HETATM    6  C6  UNL     1     -20.794   8.320   2.284  1.00  0.00     0.042 C 
HETATM    7  C7  UNL     1     -20.665   7.845   3.508  1.00  0.00     0.103 C 
HETATM    8 BR1  UNL     1     -18.938   7.747   4.349  1.00  0.00    -0.038 Br
HETATM    9  C8  UNL     1     -21.820   7.399   4.225  1.00  0.00     0.108 C 
HETATM   10  N2  UNL     1     -22.766   7.055   4.811  1.00  0.00    -0.191 NA
HETATM   11  C9  UNL     1     -22.183   8.331   1.780  1.00  0.00     0.090 C 
HETATM   12  C10 UNL     1     -22.294   8.168   0.285  1.00  0.00     0.066 C 
HETATM   13  N3  UNL     1     -21.565   9.073  -0.499  1.00  0.00    -0.363 N 
ENDROOT
BRANCH   1  14
HETATM   14  C2  UNL     1     -19.923   7.305  -1.115  1.00  0.00     0.156 C 
HETATM   15  C1  UNL     1     -20.055   7.042  -2.627  1.00  0.00     0.043 C 
BRANCH  14  16
HETATM   16  O1  UNL     1     -20.649   6.338  -0.495  1.00  0.00    -0.392 OA
ATOM     17  H1  UNL     1     -20.246   6.207   0.355  1.00  0.00     0.210 HD
ENDBRANCH  14  16
ENDBRANCH   1  14
BRANCH  13  18
HETATM   18  C11 UNL     1     -22.255   9.956  -1.379  1.00  0.00     0.111 C 
HETATM   19  C12 UNL     1     -23.380   9.248  -2.039  1.00  0.00     0.035 C 
BRANCH  18  20
HETATM   20  C13 UNL     1     -22.476  11.288  -0.811  1.00  0.00     0.148 C 
BRANCH  20  21
HETATM   21  O3  UNL     1     -21.972  11.262   0.518  1.00  0.00    -0.393 OA
ATOM     22  H3  UNL     1     -21.033  11.399   0.462  1.00  0.00     0.210 HD
ENDBRANCH  20  21
BRANCH  20  23
HETATM   23  C14 UNL     1     -21.855  12.475  -1.460  1.00  0.00    -0.023 C 
HETATM   24  C15 UNL     1     -22.199  13.792  -0.798  1.00  0.00     0.017 C 
HETATM   25  C16 UNL     1     -22.578  12.554  -2.828  1.00  0.00     0.017 C 
HETATM   26  C17 UNL     1     -20.405  12.330  -1.811  1.00  0.00     0.017 C 
ENDBRANCH  20  23
ENDBRANCH  18  20
ENDBRANCH  13  18
TORSDOF 6
ENDMDL
MODEL 5
REMARK VINA RESULT: -6.940197967      2.334      4.572
REMARK  6 active torsions:
REMARK  status: ('A' for Active; 'I' for Inactive)
REMARK    1  A    between atoms: C2_2  and  O1_3 
REMARK    2  A    between atoms: C2_2  and  C3_5 
REMARK    3  A    between atoms: N3_17  and  C11_18 
REMARK    4  A    between atoms: C11_18  and  C13_20 
REMARK    5  A    between atoms: C13_20  and  O3_21 
REMARK    6  A    between atoms: C13_20  and  C14_23 
ROOT
HETATM    1  C3  UNL     1     -21.754  10.230  -0.256  1.00  0.00     0.217 C 
HETATM    2  N1  UNL     1     -20.636  10.306  -1.217  1.00  0.00    -0.329 N 
HETATM    3  C4  UNL     1     -19.534  11.194  -0.923  1.00  0.00     0.155 C 
HETATM    4  C5  UNL     1     -20.563   9.559  -2.432  1.00  0.00     0.253 C 
HETATM    5  O2  UNL     1     -19.795  10.070  -3.327  1.00  0.00    -0.268 OA
HETATM    6  C6  UNL     1     -21.227   8.318  -2.791  1.00  0.00     0.042 C 
HETATM    7  C7  UNL     1     -21.136   7.936  -4.050  1.00  0.00     0.103 C 
HETATM    8 BR1  UNL     1     -20.164   8.992  -5.331  1.00  0.00    -0.038 Br
HETATM    9  C8  UNL     1     -21.763   6.722  -4.473  1.00  0.00     0.108 C 
HETATM   10  N2  UNL     1     -22.260   5.723  -4.809  1.00  0.00    -0.191 NA
HETATM   11  C9  UNL     1     -22.005   7.401  -1.932  1.00  0.00     0.090 C 
HETATM   12  C10 UNL     1     -22.710   8.083  -0.786  1.00  0.00     0.066 C 
HETATM   13  N3  UNL     1     -21.915   8.865   0.062  1.00  0.00    -0.363 N 
ENDROOT
BRANCH   1  14
HETATM   14  C2  UNL     1     -22.870  10.963  -0.879  1.00  0.00     0.156 C 
HETATM   15  C1  UNL     1     -22.876  12.399  -0.323  1.00  0.00     0.043 C 
BRANCH  14  16
HETATM   16  O1  UNL     1     -24.136  10.492  -0.731  1.00  0.00    -0.392 OA
ATOM     17  H1  UNL     1     -24.361  10.072  -1.553  1.00  0.00     0.210 HD
ENDBRANCH  14  16
ENDBRANCH   1  14
BRANCH  13  18
HETATM   18  C11 UNL     1     -21.794   8.511   1.437  1.00  0.00     0.111 C 
HETATM   19  C12 UNL     1     -23.138   8.313   2.036  1.00  0.00     0.035 C 
BRANCH  18  20
HETATM   20  C13 UNL     1     -20.740   7.527   1.694  1.00  0.00     0.148 C 
BRANCH  20  21
HETATM   21  O3  UNL     1     -19.704   7.773   0.754  1.00  0.00    -0.393 OA
ATOM     22  H3  UNL     1     -20.087   7.683  -0.112  1.00  0.00     0.210 HD
ENDBRANCH  20  21
BRANCH  20  23
HETATM   23  C14 UNL     1     -20.081   7.490   3.029  1.00  0.00    -0.023 C 
HETATM   24  C15 UNL     1     -20.387   8.688   3.903  1.00  0.00     0.017 C 
HETATM   25  C16 UNL     1     -18.578   7.659   2.691  1.00  0.00     0.017 C 
HETATM   26  C17 UNL     1     -20.157   6.177   3.746  1.00  0.00     0.017 C 
ENDBRANCH  20  23
ENDBRANCH  18  20
ENDBRANCH  13  18
TORSDOF 6
ENDMDL
