MODEL 1
REMARK VINA RESULT: -8.594941174      0.000      0.000
REMARK  2 active torsions:
REMARK  status: ('A' for Active; 'I' for Inactive)
REMARK    1  A    between atoms: C7_8  and  N1_10 
REMARK    2  A    between atoms: C9_12  and  C10_13 
ROOT
HETATM    1  N1  UNL     1       2.942  67.957 190.804  1.00  0.00    -0.315 N 
HETATM    2  C8  UNL     1       3.557  66.951 191.434  1.00  0.00     0.117 A 
HETATM    3  C9  UNL     1       4.431  67.060 192.490  1.00  0.00     0.107 A 
HETATM    4  C11 UNL     1       4.677  68.346 192.919  1.00  0.00     0.211 A 
HETATM    5  O3  UNL     1       5.442  68.622 193.860  1.00  0.00    -0.286 OA
HETATM    6  C12 UNL     1       4.055  69.435 192.287  1.00  0.00     0.103 A 
HETATM    7  S1  UNL     1       4.069  71.133 192.480  1.00  0.00    -0.049 SA
HETATM    8  C13 UNL     1       2.982  71.541 191.223  1.00  0.00     0.161 A 
HETATM    9  N2  UNL     1       2.520  72.851 190.805  1.00  0.00    -0.074 NA
HETATM   10  N3  UNL     1       2.673  70.372 190.732  1.00  0.00    -0.324 N 
ATOM     11  H3  UNL     1       2.021  70.313 189.949  1.00  0.00     0.169 HD
HETATM   12  C14 UNL     1       3.190  69.264 191.235  1.00  0.00     0.132 A 
ENDROOT
BRANCH   1  13
HETATM   13  C7  UNL     1       2.055  67.784 189.725  1.00  0.00     0.144 C 
HETATM   14  C2  UNL     1       2.595  67.890 188.316  1.00  0.00    -0.000 C 
HETATM   15  C1  UNL     1       3.741  68.681 188.004  1.00  0.00     0.019 C 
HETATM   16  C3  UNL     1       1.272  68.104 187.563  1.00  0.00     0.015 C 
HETATM   17  C6  UNL     1       2.637  66.379 188.291  1.00  0.00     0.042 C 
HETATM   18  C4  UNL     1       0.432  67.037 188.264  1.00  0.00     0.030 C 
HETATM   19  C5  UNL     1       1.501  66.513 189.266  1.00  0.00     0.078 C 
HETATM   20 CL1  UNL     1       1.023  65.236 190.279  1.00  0.00    -0.115 Cl
HETATM   21 CL2  UNL     1       0.703  68.981 189.879  1.00  0.00    -0.092 Cl
ENDBRANCH   1  13
BRANCH   3  22
HETATM   22  C10 UNL     1       5.054  65.916 193.116  1.00  0.00     0.214 C 
HETATM   23  O1  UNL     1       6.066  65.376 192.604  1.00  0.00    -0.644 OA
HETATM   24  O2  UNL     1       4.549  65.393 194.296  1.00  0.00    -0.644 OA
ENDBRANCH   3  22
TORSDOF 2
ENDMDL
MODEL 2
REMARK VINA RESULT: -8.516361770      2.005      2.188
REMARK  2 active torsions:
REMARK  status: ('A' for Active; 'I' for Inactive)
REMARK    1  A    between atoms: C7_8  and  N1_10 
REMARK    2  A    between atoms: C9_12  and  C10_13 
ROOT
HETATM    1  N1  UNL     1       2.675  67.178 190.261  1.00  0.00    -0.315 N 
HETATM    2  C8  UNL     1       3.658  66.726 191.046  1.00  0.00     0.117 A 
HETATM    3  C9  UNL     1       3.902  67.099 192.347  1.00  0.00     0.107 A 
HETATM    4  C11 UNL     1       3.030  68.033 192.864  1.00  0.00     0.211 A 
HETATM    5  O3  UNL     1       3.109  68.479 194.021  1.00  0.00    -0.286 OA
HETATM    6  C12 UNL     1       1.982  68.537 192.076  1.00  0.00     0.103 A 
HETATM    7  S1  UNL     1       0.716  69.663 192.298  1.00  0.00    -0.049 SA
HETATM    8  C13 UNL     1       0.006  69.557 190.745  1.00  0.00     0.161 A 
HETATM    9  N2  UNL     1      -1.147  70.263 190.219  1.00  0.00    -0.074 NA
HETATM   10  N3  UNL     1       0.766  68.679 190.151  1.00  0.00    -0.324 N 
ATOM     11  H3  UNL     1       0.567  68.414 189.185  1.00  0.00     0.169 HD
HETATM   12  C14 UNL     1       1.789  68.126 190.780  1.00  0.00     0.132 A 
ENDROOT
BRANCH   1  13
HETATM   13  C7  UNL     1       2.475  66.757 188.932  1.00  0.00     0.144 C 
HETATM   14  C2  UNL     1       3.144  67.529 187.817  1.00  0.00    -0.000 C 
HETATM   15  C1  UNL     1       3.469  68.913 187.945  1.00  0.00     0.019 C 
HETATM   16  C3  UNL     1       2.296  67.035 186.634  1.00  0.00     0.015 C 
HETATM   17  C6  UNL     1       4.209  66.456 187.806  1.00  0.00     0.042 C 
HETATM   18  C4  UNL     1       2.264  65.546 186.979  1.00  0.00     0.030 C 
HETATM   19  C5  UNL     1       3.084  65.591 188.300  1.00  0.00     0.078 C 
HETATM   20 CL1  UNL     1       3.360  64.100 189.067  1.00  0.00    -0.115 Cl
HETATM   21 CL2  UNL     1       0.695  66.738 188.585  1.00  0.00    -0.092 Cl
ENDBRANCH   1  13
BRANCH   3  22
HETATM   22  C10 UNL     1       4.990  66.559 193.129  1.00  0.00     0.214 C 
HETATM   23  O1  UNL     1       6.177  66.905 192.902  1.00  0.00    -0.644 OA
HETATM   24  O2  UNL     1       4.748  65.651 194.146  1.00  0.00    -0.644 OA
ENDBRANCH   3  22
TORSDOF 2
ENDMDL
MODEL 3
REMARK VINA RESULT: -8.503009033      1.694      1.854
REMARK  2 active torsions:
REMARK  status: ('A' for Active; 'I' for Inactive)
REMARK    1  A    between atoms: C7_8  and  N1_10 
REMARK    2  A    between atoms: C9_12  and  C10_13 
ROOT
HETATM    1  N1  UNL     1       3.588  66.741 190.079  1.00  0.00    -0.315 N 
HETATM    2  C8  UNL     1       4.040  65.985 191.086  1.00  0.00     0.117 A 
HETATM    3  C9  UNL     1       4.563  66.436 192.274  1.00  0.00     0.107 A 
HETATM    4  C11 UNL     1       4.613  67.807 192.413  1.00  0.00     0.211 A 
HETATM    5  O3  UNL     1       5.057  68.378 193.423  1.00  0.00    -0.286 OA
HETATM    6  C12 UNL     1       4.151  68.641 191.382  1.00  0.00     0.103 A 
HETATM    7  S1  UNL     1       4.029  70.327 191.134  1.00  0.00    -0.049 SA
HETATM    8  C13 UNL     1       3.337  70.304 189.569  1.00  0.00     0.161 A 
HETATM    9  N2  UNL     1       2.955  71.420 188.724  1.00  0.00    -0.074 NA
HETATM   10  N3  UNL     1       3.238  69.026 189.327  1.00  0.00    -0.324 N 
ATOM     11  H3  UNL     1       2.846  68.712 188.438  1.00  0.00     0.169 HD
HETATM   12  C14 UNL     1       3.638  68.132 190.214  1.00  0.00     0.132 A 
ENDROOT
BRANCH   1  13
HETATM   13  C7  UNL     1       3.062  66.221 188.881  1.00  0.00     0.144 C 
HETATM   14  C2  UNL     1       4.002  65.977 187.721  1.00  0.00    -0.000 C 
HETATM   15  C1  UNL     1       5.202  66.729 187.550  1.00  0.00     0.019 C 
HETATM   16  C3  UNL     1       2.969  65.888 186.585  1.00  0.00     0.015 C 
HETATM   17  C6  UNL     1       4.022  64.522 188.132  1.00  0.00     0.042 C 
HETATM   18  C4  UNL     1       1.938  64.998 187.279  1.00  0.00     0.030 C 
HETATM   19  C5  UNL     1       2.649  64.839 188.654  1.00  0.00     0.078 C 
HETATM   20 CL1  UNL     1       1.866  63.856 189.798  1.00  0.00    -0.115 Cl
HETATM   21 CL2  UNL     1       1.748  67.322 188.291  1.00  0.00    -0.092 Cl
ENDBRANCH   1  13
BRANCH   3  22
HETATM   22  C10 UNL     1       5.030  65.548 193.315  1.00  0.00     0.214 C 
HETATM   23  O1  UNL     1       6.170  65.026 193.248  1.00  0.00    -0.644 OA
HETATM   24  O2  UNL     1       4.230  65.256 194.408  1.00  0.00    -0.644 OA
ENDBRANCH   3  22
TORSDOF 2
ENDMDL
MODEL 4
REMARK VINA RESULT: -8.263196051      2.527      4.458
REMARK  2 active torsions:
REMARK  status: ('A' for Active; 'I' for Inactive)
REMARK    1  A    between atoms: C7_8  and  N1_10 
REMARK    2  A    between atoms: C9_12  and  C10_13 
ROOT
HETATM    1  N1  UNL     1       2.522  68.140 191.732  1.00  0.00    -0.315 N 
HETATM    2  C8  UNL     1       3.390  67.564 192.570  1.00  0.00     0.117 A 
HETATM    3  C9  UNL     1       3.866  66.276 192.495  1.00  0.00     0.107 A 
HETATM    4  C11 UNL     1       3.382  65.531 191.440  1.00  0.00     0.211 A 
HETATM    5  O3  UNL     1       3.709  64.351 191.227  1.00  0.00    -0.286 OA
HETATM    6  C12 UNL     1       2.469  66.095 190.534  1.00  0.00     0.103 A 
HETATM    7  S1  UNL     1       1.641  65.559 189.139  1.00  0.00    -0.049 SA
HETATM    8  C13 UNL     1       0.782  66.996 188.786  1.00  0.00     0.161 A 
HETATM    9  N2  UNL     1      -0.144  67.262 187.701  1.00  0.00    -0.074 NA
HETATM   10  N3  UNL     1       1.170  67.795 189.741  1.00  0.00    -0.324 N 
ATOM     11  H3  UNL     1       0.806  68.747 189.779  1.00  0.00     0.169 HD
HETATM   12  C14 UNL     1       2.028  67.388 190.662  1.00  0.00     0.132 A 
ENDROOT
BRANCH   1  13
HETATM   13  C7  UNL     1       2.069  69.467 191.861  1.00  0.00     0.144 C 
HETATM   14  C2  UNL     1       2.314  70.195 193.164  1.00  0.00    -0.000 C 
HETATM   15  C1  UNL     1       2.440  69.502 194.404  1.00  0.00     0.019 C 
HETATM   16  C3  UNL     1       1.289  71.330 193.006  1.00  0.00     0.015 C 
HETATM   17  C6  UNL     1       3.498  70.855 192.494  1.00  0.00     0.042 C 
HETATM   18  C4  UNL     1       1.576  71.700 191.551  1.00  0.00     0.030 C 
HETATM   19  C5  UNL     1       2.679  70.645 191.251  1.00  0.00     0.078 C 
HETATM   20 CL1  UNL     1       3.365  70.693 189.697  1.00  0.00    -0.115 Cl
HETATM   21 CL2  UNL     1       0.285  69.511 191.543  1.00  0.00    -0.092 Cl
ENDBRANCH   1  13
BRANCH   3  22
HETATM   22  C10 UNL     1       4.806  65.729 193.445  1.00  0.00     0.214 C 
HETATM   23  O1  UNL     1       6.043  65.812 193.244  1.00  0.00    -0.644 OA
HETATM   24  O2  UNL     1       4.363  65.101 194.599  1.00  0.00    -0.644 OA
ENDBRANCH   3  22
TORSDOF 2
ENDMDL
MODEL 5
REMARK VINA RESULT: -8.248934476      3.115      4.824
REMARK  2 active torsions:
REMARK  status: ('A' for Active; 'I' for Inactive)
REMARK    1  A    between atoms: C7_8  and  N1_10 
REMARK    2  A    between atoms: C9_12  and  C10_13 
ROOT
HETATM    1  N1  UNL     1       2.753  65.875 190.260  1.00  0.00    -0.315 N 
HETATM    2  C8  UNL     1       2.019  66.893 190.722  1.00  0.00     0.117 A 
HETATM    3  C9  UNL     1       2.263  67.626 191.859  1.00  0.00     0.107 A 
HETATM    4  C11 UNL     1       3.381  67.250 192.572  1.00  0.00     0.211 A 
HETATM    5  O3  UNL     1       3.744  67.807 193.623  1.00  0.00    -0.286 OA
HETATM    6  C12 UNL     1       4.183  66.186 192.126  1.00  0.00     0.103 A 
HETATM    7  S1  UNL     1       5.603  65.411 192.674  1.00  0.00    -0.049 SA
HETATM    8  C13 UNL     1       5.754  64.247 191.429  1.00  0.00     0.161 A 
HETATM    9  N2  UNL     1       6.767  63.224 191.253  1.00  0.00    -0.074 NA
HETATM   10  N3  UNL     1       4.724  64.513 190.673  1.00  0.00    -0.324 N 
ATOM     11  H3  UNL     1       4.561  63.958 189.832  1.00  0.00     0.169 HD
HETATM   12  C14 UNL     1       3.888  65.490 190.980  1.00  0.00     0.132 A 
ENDROOT
BRANCH   1  13
HETATM   13  C7  UNL     1       2.453  65.160 189.085  1.00  0.00     0.144 C 
HETATM   14  C2  UNL     1       1.250  64.243 189.081  1.00  0.00    -0.000 C 
HETATM   15  C1  UNL     1       0.762  63.631 190.274  1.00  0.00     0.019 C 
HETATM   16  C3  UNL     1       1.601  63.386 187.853  1.00  0.00     0.015 C 
HETATM   17  C6  UNL     1       0.493  65.351 188.384  1.00  0.00     0.042 C 
HETATM   18  C4  UNL     1       2.045  64.504 186.911  1.00  0.00     0.030 C 
HETATM   19  C5  UNL     1       1.859  65.713 187.872  1.00  0.00     0.078 C 
HETATM   20 CL1  UNL     1       2.206  67.247 187.230  1.00  0.00    -0.115 Cl
HETATM   21 CL2  UNL     1       3.895  64.164 188.620  1.00  0.00    -0.092 Cl
ENDBRANCH   1  13
BRANCH   3  22
HETATM   22  C10 UNL     1       1.417  68.715 192.289  1.00  0.00     0.214 C 
HETATM   23  O1  UNL     1       1.573  69.871 191.824  1.00  0.00    -0.644 OA
HETATM   24  O2  UNL     1       0.414  68.507 193.223  1.00  0.00    -0.644 OA
ENDBRANCH   3  22
TORSDOF 2
ENDMDL
