MODEL 1
REMARK VINA RESULT: -6.447317141      0.000      0.000
REMARK  6 active torsions:
REMARK  status: ('A' for Active; 'I' for Inactive)
REMARK    1  A    between atoms: C3_3  and  C4_4 
REMARK    2  A    between atoms: C4_4  and  N1_5 
REMARK    3  A    between atoms: N1_5  and  C5_6 
REMARK    4  A    between atoms: N1_5  and  C7_8 
REMARK    5  A    between atoms: C10_11  and  O1_12 
REMARK    6  A    between atoms: C11_14  and  O2_15 
ROOT
HETATM    1  C1  UNL     1      51.636  36.257  66.676  1.00  0.00     0.112 C 
HETATM    2  C2  UNL     1      51.856  37.580  66.090  1.00  0.00    -0.109 C 
HETATM    3  C3  UNL     1      52.035  38.692  65.598  1.00  0.00    -0.077 C 
ENDROOT
BRANCH   3   4
HETATM    4  C4  UNL     1      52.287  40.016  65.003  1.00  0.00     0.366 C 
BRANCH   4   5
HETATM    5  N1  UNL     1      52.941  39.768  63.644  1.00  0.00     0.104 N 
BRANCH   5   6
HETATM    6  C5  UNL     1      52.301  40.875  62.940  1.00  0.00     0.269 C 
HETATM    7  C6  UNL     1      51.884  42.109  63.512  1.00  0.00     0.037 C 
ENDBRANCH   5   6
BRANCH   5   8
HETATM    8  C7  UNL     1      54.350  39.971  63.784  1.00  0.00     0.244 C 
HETATM    9  C8  UNL     1      54.782  40.407  65.212  1.00  0.00     0.040 C 
HETATM   10  C9  UNL     1      56.255  40.754  65.056  1.00  0.00     0.036 C 
HETATM   11  C10 UNL     1      57.121  39.793  64.369  1.00  0.00     0.148 C 
HETATM   12  C11 UNL     1      56.485  38.938  63.296  1.00  0.00     0.166 C 
HETATM   13  C12 UNL     1      55.100  38.617  63.769  1.00  0.00     0.157 C 
HETATM   14  C13 UNL     1      54.457  37.481  63.267  1.00  0.00     0.069 C 
HETATM   15  N2  UNL     1      53.949  36.512  62.882  1.00  0.00    -0.197 NA
BRANCH  11  16
HETATM   16  O1  UNL     1      57.849  38.985  65.270  1.00  0.00    -0.393 OA
ATOM     17  H1  UNL     1      58.703  39.348  65.471  1.00  0.00     0.210 HD
ENDBRANCH  11  16
BRANCH  12  18
HETATM   18  O2  UNL     1      56.524  39.494  62.034  1.00  0.00    -0.392 OA
ATOM     19  H2  UNL     1      55.800  39.240  61.475  1.00  0.00     0.210 HD
ENDBRANCH  12  18
ENDBRANCH   5   8
ENDBRANCH   4   5
ENDBRANCH   3   4
TORSDOF 6
ENDMDL
MODEL 2
REMARK VINA RESULT: -5.867889098      2.886      4.841
REMARK  6 active torsions:
REMARK  status: ('A' for Active; 'I' for Inactive)
REMARK    1  A    between atoms: C3_3  and  C4_4 
REMARK    2  A    between atoms: C4_4  and  N1_5 
REMARK    3  A    between atoms: N1_5  and  C5_6 
REMARK    4  A    between atoms: N1_5  and  C7_8 
REMARK    5  A    between atoms: C10_11  and  O1_12 
REMARK    6  A    between atoms: C11_14  and  O2_15 
ROOT
HETATM    1  C1  UNL     1      53.768  35.972  62.128  1.00  0.00     0.112 C 
HETATM    2  C2  UNL     1      54.181  37.277  62.646  1.00  0.00    -0.109 C 
HETATM    3  C3  UNL     1      54.533  38.371  63.081  1.00  0.00    -0.077 C 
ENDROOT
BRANCH   3   4
HETATM    4  C4  UNL     1      54.917  39.693  63.605  1.00  0.00     0.366 C 
BRANCH   4   5
HETATM    5  N1  UNL     1      54.692  39.648  65.116  1.00  0.00     0.104 N 
BRANCH   5   6
HETATM    6  C5  UNL     1      55.988  40.201  65.500  1.00  0.00     0.269 C 
HETATM    7  C6  UNL     1      57.264  39.690  65.134  1.00  0.00     0.037 C 
ENDBRANCH   5   6
BRANCH   5   8
HETATM    8  C7  UNL     1      53.619  40.539  65.434  1.00  0.00     0.244 C 
HETATM    9  C8  UNL     1      53.156  41.416  64.236  1.00  0.00     0.040 C 
HETATM   10  C9  UNL     1      52.179  42.399  64.862  1.00  0.00     0.036 C 
HETATM   11  C10 UNL     1      51.130  41.867  65.735  1.00  0.00     0.148 C 
HETATM   12  C11 UNL     1      51.452  40.609  66.510  1.00  0.00     0.166 C 
HETATM   13  C12 UNL     1      52.296  39.756  65.612  1.00  0.00     0.157 C 
HETATM   14  C13 UNL     1      52.339  38.376  65.830  1.00  0.00     0.069 C 
HETATM   15  N2  UNL     1      52.332  37.227  65.987  1.00  0.00    -0.197 NA
BRANCH  11  16
HETATM   16  O1  UNL     1      49.894  41.725  65.066  1.00  0.00    -0.393 OA
ATOM     17  H1  UNL     1      49.518  42.562  64.820  1.00  0.00     0.210 HD
ENDBRANCH  11  16
BRANCH  12  18
HETATM   18  O2  UNL     1      52.016  40.838  67.748  1.00  0.00    -0.392 OA
ATOM     19  H2  UNL     1      51.893  40.130  68.369  1.00  0.00     0.210 HD
ENDBRANCH  12  18
ENDBRANCH   5   8
ENDBRANCH   4   5
ENDBRANCH   3   4
TORSDOF 6
ENDMDL
MODEL 3
REMARK VINA RESULT: -5.730000633      1.976      2.493
REMARK  6 active torsions:
REMARK  status: ('A' for Active; 'I' for Inactive)
REMARK    1  A    between atoms: C3_3  and  C4_4 
REMARK    2  A    between atoms: C4_4  and  N1_5 
REMARK    3  A    between atoms: N1_5  and  C5_6 
REMARK    4  A    between atoms: N1_5  and  C7_8 
REMARK    5  A    between atoms: C10_11  and  O1_12 
REMARK    6  A    between atoms: C11_14  and  O2_15 
ROOT
HETATM    1  C1  UNL     1      49.966  41.783  68.651  1.00  0.00     0.112 C 
HETATM    2  C2  UNL     1      50.710  41.903  67.396  1.00  0.00    -0.109 C 
HETATM    3  C3  UNL     1      51.330  42.001  66.340  1.00  0.00    -0.077 C 
ENDROOT
BRANCH   3   4
HETATM    4  C4  UNL     1      52.102  42.137  65.093  1.00  0.00     0.366 C 
BRANCH   4   5
HETATM    5  N1  UNL     1      52.283  40.726  64.534  1.00  0.00     0.104 N 
BRANCH   5   6
HETATM    6  C5  UNL     1      51.674  40.978  63.230  1.00  0.00     0.269 C 
HETATM    7  C6  UNL     1      51.342  42.250  62.688  1.00  0.00     0.037 C 
ENDBRANCH   5   6
BRANCH   5   8
HETATM    8  C7  UNL     1      53.686  40.467  64.423  1.00  0.00     0.244 C 
HETATM    9  C8  UNL     1      54.549  41.228  65.468  1.00  0.00     0.040 C 
HETATM   10  C9  UNL     1      55.978  40.960  65.023  1.00  0.00     0.036 C 
HETATM   11  C10 UNL     1      56.361  39.576  64.733  1.00  0.00     0.148 C 
HETATM   12  C11 UNL     1      55.280  38.658  64.209  1.00  0.00     0.166 C 
HETATM   13  C12 UNL     1      54.015  39.038  64.917  1.00  0.00     0.157 C 
HETATM   14  C13 UNL     1      52.989  38.095  65.027  1.00  0.00     0.069 C 
HETATM   15  N2  UNL     1      52.161  37.292  65.155  1.00  0.00    -0.197 NA
BRANCH  11  16
HETATM   16  O1  UNL     1      57.038  38.968  65.813  1.00  0.00    -0.393 OA
ATOM     17  H1  UNL     1      57.970  38.882  65.654  1.00  0.00     0.210 HD
ENDBRANCH  11  16
BRANCH  12  18
HETATM   18  O2  UNL     1      55.165  38.649  62.835  1.00  0.00    -0.392 OA
ATOM     19  H2  UNL     1      55.994  38.593  62.376  1.00  0.00     0.210 HD
ENDBRANCH  12  18
ENDBRANCH   5   8
ENDBRANCH   4   5
ENDBRANCH   3   4
TORSDOF 6
ENDMDL
MODEL 4
REMARK VINA RESULT: -5.589170033      3.028      4.793
REMARK  6 active torsions:
REMARK  status: ('A' for Active; 'I' for Inactive)
REMARK    1  A    between atoms: C3_3  and  C4_4 
REMARK    2  A    between atoms: C4_4  and  N1_5 
REMARK    3  A    between atoms: N1_5  and  C5_6 
REMARK    4  A    between atoms: N1_5  and  C7_8 
REMARK    5  A    between atoms: C10_11  and  O1_12 
REMARK    6  A    between atoms: C11_14  and  O2_15 
ROOT
HETATM    1  C1  UNL     1      52.687  35.008  66.641  1.00  0.00     0.112 C 
HETATM    2  C2  UNL     1      52.930  36.187  65.809  1.00  0.00    -0.109 C 
HETATM    3  C3  UNL     1      53.133  37.174  65.105  1.00  0.00    -0.077 C 
ENDROOT
BRANCH   3   4
HETATM    4  C4  UNL     1      53.385  38.378  64.294  1.00  0.00     0.366 C 
BRANCH   4   5
HETATM    5  N1  UNL     1      53.830  39.473  65.263  1.00  0.00     0.104 N 
BRANCH   5   6
HETATM    6  C5  UNL     1      55.203  39.585  64.779  1.00  0.00     0.269 C 
HETATM    7  C6  UNL     1      56.279  40.240  65.440  1.00  0.00     0.037 C 
ENDBRANCH   5   6
BRANCH   5   8
HETATM    8  C7  UNL     1      53.070  40.652  64.982  1.00  0.00     0.244 C 
HETATM    9  C8  UNL     1      52.541  40.724  63.522  1.00  0.00     0.040 C 
HETATM   10  C9  UNL     1      51.962  42.127  63.415  1.00  0.00     0.036 C 
HETATM   11  C10 UNL     1      51.051  42.578  64.469  1.00  0.00     0.148 C 
HETATM   12  C11 UNL     1      51.269  42.014  65.855  1.00  0.00     0.166 C 
HETATM   13  C12 UNL     1      51.688  40.587  65.676  1.00  0.00     0.157 C 
HETATM   14  C13 UNL     1      51.487  39.683  66.724  1.00  0.00     0.069 C 
HETATM   15  N2  UNL     1      51.274  38.930  67.580  1.00  0.00    -0.197 NA
BRANCH  11  16
HETATM   16  O1  UNL     1      49.694  42.453  64.098  1.00  0.00    -0.393 OA
ATOM     17  H1  UNL     1      49.395  41.551  64.120  1.00  0.00     0.210 HD
ENDBRANCH  11  16
BRANCH  12  18
HETATM   18  O2  UNL     1      52.135  42.752  66.635  1.00  0.00    -0.392 OA
ATOM     19  H2  UNL     1      53.053  42.608  66.438  1.00  0.00     0.210 HD
ENDBRANCH  12  18
ENDBRANCH   5   8
ENDBRANCH   4   5
ENDBRANCH   3   4
TORSDOF 6
ENDMDL
MODEL 5
REMARK VINA RESULT: -5.539989921      3.464      5.174
REMARK  6 active torsions:
REMARK  status: ('A' for Active; 'I' for Inactive)
REMARK    1  A    between atoms: C3_3  and  C4_4 
REMARK    2  A    between atoms: C4_4  and  N1_5 
REMARK    3  A    between atoms: N1_5  and  C5_6 
REMARK    4  A    between atoms: N1_5  and  C7_8 
REMARK    5  A    between atoms: C10_11  and  O1_12 
REMARK    6  A    between atoms: C11_14  and  O2_15 
ROOT
HETATM    1  C1  UNL     1      51.474  40.632  71.700  1.00  0.00     0.112 C 
HETATM    2  C2  UNL     1      51.091  40.866  70.307  1.00  0.00    -0.109 C 
HETATM    3  C3  UNL     1      50.771  41.056  69.135  1.00  0.00    -0.077 C 
ENDROOT
BRANCH   3   4
HETATM    4  C4  UNL     1      50.376  41.322  67.741  1.00  0.00     0.366 C 
BRANCH   4   5
HETATM    5  N1  UNL     1      51.496  40.773  66.857  1.00  0.00     0.104 N 
BRANCH   5   6
HETATM    6  C5  UNL     1      51.215  39.358  67.082  1.00  0.00     0.269 C 
HETATM    7  C6  UNL     1      51.752  38.266  66.346  1.00  0.00     0.037 C 
ENDBRANCH   5   6
BRANCH   5   8
HETATM    8  C7  UNL     1      51.228  41.160  65.506  1.00  0.00     0.244 C 
HETATM    9  C8  UNL     1      50.559  42.557  65.375  1.00  0.00     0.040 C 
HETATM   10  C9  UNL     1      50.193  42.648  63.902  1.00  0.00     0.036 C 
HETATM   11  C10 UNL     1      51.222  42.314  62.915  1.00  0.00     0.148 C 
HETATM   12  C11 UNL     1      52.256  41.287  63.318  1.00  0.00     0.166 C 
HETATM   13  C12 UNL     1      52.543  41.516  64.771  1.00  0.00     0.157 C 
HETATM   14  C13 UNL     1      53.764  41.084  65.299  1.00  0.00     0.069 C 
HETATM   15  N2  UNL     1      54.797  40.765  65.718  1.00  0.00    -0.197 NA
BRANCH  11  16
HETATM   16  O1  UNL     1      51.854  43.461  62.387  1.00  0.00    -0.393 OA
ATOM     17  H1  UNL     1      52.798  43.367  62.345  1.00  0.00     0.210 HD
ENDBRANCH  11  16
BRANCH  12  18
HETATM   18  O2  UNL     1      51.905  39.986  63.021  1.00  0.00    -0.392 OA
ATOM     19  H2  UNL     1      51.465  39.531  63.729  1.00  0.00     0.210 HD
ENDBRANCH  12  18
ENDBRANCH   5   8
ENDBRANCH   4   5
ENDBRANCH   3   4
TORSDOF 6
ENDMDL
