MODEL 1
REMARK VINA RESULT: -7.214170640      0.000      0.000
REMARK  0 active torsions:
REMARK  status: ('A' for Active; 'I' for Inactive)
ROOT
HETATM    1 CL1  UNL     1      37.560 -17.546  -3.747  1.00  0.00    -0.095 Cl
HETATM    2  C1  UNL     1      37.365 -19.298  -3.704  1.00  0.00     0.281 C 
HETATM    3  C2  UNL     1      37.829 -19.984  -4.950  1.00  0.00     0.051 C 
HETATM    4  C3  UNL     1      38.459 -19.076  -5.953  1.00  0.00     0.029 C 
HETATM    5  C4  UNL     1      39.753 -19.637  -6.526  1.00  0.00     0.167 C 
HETATM    6  O1  UNL     1      40.851 -19.323  -5.729  1.00  0.00    -0.389 OA
HETATM    7  C5  UNL     1      41.993 -19.446  -6.523  1.00  0.00     0.193 C 
HETATM    8  C6  UNL     1      43.182 -19.950  -5.747  1.00  0.00     0.193 C 
HETATM    9  O2  UNL     1      44.336 -19.268  -6.165  1.00  0.00    -0.387 OA
HETATM   10  C7  UNL     1      45.091 -18.817  -5.088  1.00  0.00     0.193 C 
HETATM   11  C8  UNL     1      46.007 -19.902  -4.551  1.00  0.00     0.193 C 
HETATM   12  O3  UNL     1      45.944 -19.849  -3.170  1.00  0.00    -0.387 OA
HETATM   13  C9  UNL     1      45.426 -20.998  -2.595  1.00  0.00     0.193 C 
HETATM   14  C10 UNL     1      45.840 -21.020  -1.151  1.00  0.00     0.193 C 
HETATM   15  O4  UNL     1      44.748 -21.122  -0.280  1.00  0.00    -0.388 OA
HETATM   16  C11 UNL     1      45.161 -20.626   0.946  1.00  0.00     0.178 C 
HETATM   17  C12 UNL     1      44.536 -21.365   2.098  1.00  0.00     0.100 C 
HETATM   18  S1  UNL     1      42.820 -20.812   2.376  1.00  0.00    -0.166 SA
HETATM   19  C13 UNL     1      41.725 -22.082   1.745  1.00  0.00     0.084 C 
HETATM   20  C14 UNL     1      40.282 -21.822   2.023  1.00  0.00     0.084 C 
HETATM   21  S2  UNL     1      39.649 -20.464   1.007  1.00  0.00    -0.168 SA
HETATM   22  C15 UNL     1      37.850 -20.656   0.889  1.00  0.00     0.075 C 
HETATM   23  C16 UNL     1      37.468 -21.050  -0.524  1.00  0.00     0.038 C 
HETATM   24  C17 UNL     1      37.260 -19.789  -1.349  1.00  0.00     0.235 C 
HETATM   25  N1  UNL     1      38.065 -19.892  -2.555  1.00  0.00    -0.058 N 
ATOM     26  H11 UNL     1      38.991 -19.484  -2.426  1.00  0.00     0.278 HD
ATOM     27  H12 UNL     1      38.344 -20.855  -2.741  1.00  0.00     0.278 HD
ENDROOT
TORSDOF 0
ENDMDL
MODEL 2
REMARK VINA RESULT: -7.019646989      2.006      2.623
REMARK  0 active torsions:
REMARK  status: ('A' for Active; 'I' for Inactive)
ROOT
HETATM    1 CL1  UNL     1      37.156 -20.516  -2.745  1.00  0.00    -0.095 Cl
HETATM    2  C1  UNL     1      37.767 -22.165  -2.879  1.00  0.00     0.281 C 
HETATM    3  C2  UNL     1      38.030 -22.595  -4.287  1.00  0.00     0.051 C 
HETATM    4  C3  UNL     1      37.823 -21.524  -5.306  1.00  0.00     0.029 C 
HETATM    5  C4  UNL     1      38.953 -21.451  -6.324  1.00  0.00     0.167 C 
HETATM    6  O1  UNL     1      40.003 -20.655  -5.874  1.00  0.00    -0.389 OA
HETATM    7  C5  UNL     1      40.741 -20.266  -6.994  1.00  0.00     0.193 C 
HETATM    8  C6  UNL     1      42.215 -20.157  -6.703  1.00  0.00     0.193 C 
HETATM    9  O2  UNL     1      42.741 -19.036  -7.365  1.00  0.00    -0.387 OA
HETATM   10  C7  UNL     1      43.541 -18.267  -6.527  1.00  0.00     0.193 C 
HETATM   11  C8  UNL     1      44.958 -18.806  -6.452  1.00  0.00     0.193 C 
HETATM   12  O3  UNL     1      45.350 -18.755  -5.127  1.00  0.00    -0.387 OA
HETATM   13  C9  UNL     1      45.611 -20.000  -4.578  1.00  0.00     0.193 C 
HETATM   14  C10 UNL     1      46.456 -19.798  -3.353  1.00  0.00     0.193 C 
HETATM   15  O4  UNL     1      45.883 -20.364  -2.206  1.00  0.00    -0.388 OA
HETATM   16  C11 UNL     1      46.428 -19.706  -1.116  1.00  0.00     0.178 C 
HETATM   17  C12 UNL     1      46.617 -20.620   0.064  1.00  0.00     0.100 C 
HETATM   18  S1  UNL     1      45.039 -20.899   0.935  1.00  0.00    -0.166 SA
HETATM   19  C13 UNL     1      44.461 -22.543   0.513  1.00  0.00     0.084 C 
HETATM   20  C14 UNL     1      43.238 -22.958   1.259  1.00  0.00     0.084 C 
HETATM   21  S2  UNL     1      41.777 -22.059   0.684  1.00  0.00    -0.168 SA
HETATM   22  C15 UNL     1      40.317 -23.048   1.108  1.00  0.00     0.075 C 
HETATM   23  C16 UNL     1      39.691 -23.606  -0.155  1.00  0.00     0.038 C 
HETATM   24  C17 UNL     1      38.690 -22.596  -0.697  1.00  0.00     0.235 C 
HETATM   25  N1  UNL     1      38.998 -22.351  -2.096  1.00  0.00    -0.058 N 
ATOM     26  H11 UNL     1      39.639 -21.564  -2.209  1.00  0.00     0.278 HD
ATOM     27  H12 UNL     1      39.586 -23.086  -2.487  1.00  0.00     0.278 HD
ENDROOT
TORSDOF 0
ENDMDL
MODEL 3
REMARK VINA RESULT: -7.004516137      3.395      6.818
REMARK  0 active torsions:
REMARK  status: ('A' for Active; 'I' for Inactive)
ROOT
HETATM    1 CL1  UNL     1      48.063 -21.831  -2.781  1.00  0.00    -0.095 Cl
HETATM    2  C1  UNL     1      47.812 -20.289  -1.963  1.00  0.00     0.281 C 
HETATM    3  C2  UNL     1      47.737 -19.121  -2.893  1.00  0.00     0.051 C 
HETATM    4  C3  UNL     1      47.788 -19.484  -4.340  1.00  0.00     0.029 C 
HETATM    5  C4  UNL     1      46.737 -18.758  -5.169  1.00  0.00     0.167 C 
HETATM    6  O1  UNL     1      45.519 -19.432  -5.166  1.00  0.00    -0.389 OA
HETATM    7  C5  UNL     1      44.793 -18.989  -6.273  1.00  0.00     0.193 C 
HETATM    8  C6  UNL     1      43.312 -18.930  -6.005  1.00  0.00     0.193 C 
HETATM    9  O2  UNL     1      42.613 -19.375  -7.138  1.00  0.00    -0.387 OA
HETATM   10  C7  UNL     1      41.619 -20.290  -6.809  1.00  0.00     0.193 C 
HETATM   11  C8  UNL     1      40.340 -19.598  -6.374  1.00  0.00     0.193 C 
HETATM   12  O3  UNL     1      39.859 -20.276  -5.269  1.00  0.00    -0.387 OA
HETATM   13  C9  UNL     1      39.822 -19.506  -4.118  1.00  0.00     0.193 C 
HETATM   14  C10 UNL     1      38.874 -20.160  -3.154  1.00  0.00     0.193 C 
HETATM   15  O4  UNL     1      39.472 -20.439  -1.918  1.00  0.00    -0.388 OA
HETATM   16  C11 UNL     1      38.734 -21.453  -1.331  1.00  0.00     0.178 C 
HETATM   17  C12 UNL     1      38.657 -21.309   0.165  1.00  0.00     0.100 C 
HETATM   18  S1  UNL     1      40.198 -21.881   0.956  1.00  0.00    -0.166 SA
HETATM   19  C13 UNL     1      41.126 -20.433   1.463  1.00  0.00     0.084 C 
HETATM   20  C14 UNL     1      42.355 -20.753   2.244  1.00  0.00     0.084 C 
HETATM   21  S2  UNL     1      43.637 -21.476   1.191  1.00  0.00    -0.168 SA
HETATM   22  C15 UNL     1      45.237 -21.203   2.001  1.00  0.00     0.075 C 
HETATM   23  C16 UNL     1      46.046 -20.194   1.211  1.00  0.00     0.038 C 
HETATM   24  C17 UNL     1      46.853 -20.930   0.152  1.00  0.00     0.235 C 
HETATM   25  N1  UNL     1      46.595 -20.307  -1.137  1.00  0.00    -0.058 N 
ATOM     26  H11 UNL     1      45.816 -20.753  -1.622  1.00  0.00     0.278 HD
ATOM     27  H12 UNL     1      46.197 -19.374  -1.031  1.00  0.00     0.278 HD
ENDROOT
TORSDOF 0
ENDMDL
MODEL 4
REMARK VINA RESULT: -6.935485080      3.394      7.531
REMARK  0 active torsions:
REMARK  status: ('A' for Active; 'I' for Inactive)
ROOT
HETATM    1 CL1  UNL     1      40.152 -20.452   2.075  1.00  0.00    -0.095 Cl
HETATM    2  C1  UNL     1      41.049 -21.890   1.590  1.00  0.00     0.281 C 
HETATM    3  C2  UNL     1      40.175 -23.039   1.200  1.00  0.00     0.051 C 
HETATM    4  C3  UNL     1      38.715 -22.728   1.197  1.00  0.00     0.029 C 
HETATM    5  C4  UNL     1      38.004 -23.243  -0.047  1.00  0.00     0.167 C 
HETATM    6  O1  UNL     1      38.079 -22.334  -1.099  1.00  0.00    -0.389 OA
HETATM    7  C5  UNL     1      37.052 -22.644  -1.993  1.00  0.00     0.193 C 
HETATM    8  C6  UNL     1      37.441 -22.393  -3.427  1.00  0.00     0.193 C 
HETATM    9  O2  UNL     1      36.350 -21.840  -4.117  1.00  0.00    -0.387 OA
HETATM   10  C7  UNL     1      36.721 -20.734  -4.874  1.00  0.00     0.193 C 
HETATM   11  C8  UNL     1      37.285 -21.139  -6.222  1.00  0.00     0.193 C 
HETATM   12  O3  UNL     1      38.397 -20.351  -6.459  1.00  0.00    -0.387 OA
HETATM   13  C9  UNL     1      39.577 -21.071  -6.550  1.00  0.00     0.193 C 
HETATM   14  C10 UNL     1      40.588 -20.215  -7.259  1.00  0.00     0.193 C 
HETATM   15  O4  UNL     1      41.759 -20.035  -6.511  1.00  0.00    -0.388 OA
HETATM   16  C11 UNL     1      42.362 -18.878  -6.976  1.00  0.00     0.178 C 
HETATM   17  C12 UNL     1      43.864 -18.969  -6.949  1.00  0.00     0.100 C 
HETATM   18  S1  UNL     1      44.504 -18.706  -5.262  1.00  0.00    -0.166 SA
HETATM   19  C13 UNL     1      44.993 -20.301  -4.605  1.00  0.00     0.084 C 
HETATM   20  C14 UNL     1      45.660 -20.222  -3.273  1.00  0.00     0.084 C 
HETATM   21  S2  UNL     1      44.478 -19.801  -1.968  1.00  0.00    -0.168 SA
HETATM   22  C15 UNL     1      45.167 -20.376  -0.392  1.00  0.00     0.075 C 
HETATM   23  C16 UNL     1      44.356 -21.548   0.125  1.00  0.00     0.038 C 
HETATM   24  C17 UNL     1      43.206 -21.018   0.968  1.00  0.00     0.235 C 
HETATM   25  N1  UNL     1      41.969 -21.604   0.479  1.00  0.00    -0.058 N 
ATOM     26  H11 UNL     1      41.530 -21.019  -0.234  1.00  0.00     0.278 HD
ATOM     27  H12 UNL     1      42.144 -22.433  -0.089  1.00  0.00     0.278 HD
ENDROOT
TORSDOF 0
ENDMDL
MODEL 5
REMARK VINA RESULT: -6.681144319      3.042      6.345
REMARK  0 active torsions:
REMARK  status: ('A' for Active; 'I' for Inactive)
ROOT
HETATM    1 CL1  UNL     1      39.588 -21.601  -6.785  1.00  0.00    -0.095 Cl
HETATM    2  C1  UNL     1      39.983 -19.911  -6.472  1.00  0.00     0.281 C 
HETATM    3  C2  UNL     1      38.848 -19.126  -5.897  1.00  0.00     0.051 C 
HETATM    4  C3  UNL     1      37.628 -19.934  -5.603  1.00  0.00     0.029 C 
HETATM    5  C4  UNL     1      37.034 -19.632  -4.233  1.00  0.00     0.167 C 
HETATM    6  O1  UNL     1      37.634 -20.390  -3.231  1.00  0.00    -0.389 OA
HETATM    7  C5  UNL     1      36.758 -20.412  -2.144  1.00  0.00     0.193 C 
HETATM    8  C6  UNL     1      37.482 -20.421  -0.822  1.00  0.00     0.193 C 
HETATM    9  O2  UNL     1      36.819 -21.283   0.067  1.00  0.00    -0.387 OA
HETATM   10  C7  UNL     1      37.703 -22.138   0.717  1.00  0.00     0.193 C 
HETATM   11  C8  UNL     1      38.334 -21.478   1.929  1.00  0.00     0.193 C 
HETATM   12  O3  UNL     1      39.677 -21.803   1.925  1.00  0.00    -0.387 OA
HETATM   13  C9  UNL     1      40.513 -20.707   1.785  1.00  0.00     0.193 C 
HETATM   14  C10 UNL     1      41.881 -21.104   2.263  1.00  0.00     0.193 C 
HETATM   15  O4  UNL     1      42.869 -20.900   1.291  1.00  0.00    -0.388 OA
HETATM   16  C11 UNL     1      43.926 -21.738   1.607  1.00  0.00     0.178 C 
HETATM   17  C12 UNL     1      45.259 -21.121   1.278  1.00  0.00     0.100 C 
HETATM   18  S1  UNL     1      45.611 -21.240  -0.507  1.00  0.00    -0.166 SA
HETATM   19  C13 UNL     1      45.355 -19.618  -1.227  1.00  0.00     0.084 C 
HETATM   20  C14 UNL     1      45.734 -19.535  -2.667  1.00  0.00     0.084 C 
HETATM   21  S2  UNL     1      44.554 -20.427  -3.712  1.00  0.00    -0.168 SA
HETATM   22  C15 UNL     1      44.670 -19.740  -5.386  1.00  0.00     0.075 C 
HETATM   23  C16 UNL     1      43.408 -18.967  -5.712  1.00  0.00     0.038 C 
HETATM   24  C17 UNL     1      42.386 -19.920  -6.312  1.00  0.00     0.235 C 
HETATM   25  N1  UNL     1      41.141 -19.784  -5.574  1.00  0.00    -0.058 N 
ATOM     26  H11 UNL     1      41.089 -20.442  -4.796  1.00  0.00     0.278 HD
ATOM     27  H12 UNL     1      41.112 -18.914  -5.042  1.00  0.00     0.278 HD
ENDROOT
TORSDOF 0
ENDMDL
