MODEL 1
REMARK VINA RESULT: -8.996408459      0.000      0.000
REMARK  4 active torsions:
REMARK  status: ('A' for Active; 'I' for Inactive)
REMARK    1  A    between atoms: C5_9  and  C6_10 
REMARK    2  A    between atoms: C12_18  and  C13_19 
REMARK    3  A    between atoms: C20_27  and  N4_28 
REMARK    4  A    between atoms: N4_28  and  C21_30 
ROOT
HETATM    1  C1  UNL     1      13.839   8.536 -10.650  1.00  0.00     0.089 C 
HETATM    2  C2  UNL     1      14.974   9.463 -10.896  1.00  0.00     0.079 A 
HETATM    3  N1  UNL     1      16.137   9.315 -10.336  1.00  0.00    -0.343 N 
ATOM      4  H1  UNL     1      16.243   8.524  -9.701  1.00  0.00     0.167 HD
HETATM    5  C3  UNL     1      17.244  10.117 -10.515  1.00  0.00     0.084 A 
HETATM    6  C4  UNL     1      18.353   9.927  -9.637  1.00  0.00     0.089 A 
HETATM    7  N2  UNL     1      18.238   9.060  -8.545  1.00  0.00    -0.338 N 
ATOM      8  H2  UNL     1      17.367   8.615  -8.257  1.00  0.00     0.167 HD
HETATM    9  C5  UNL     1      19.392   8.889  -7.933  1.00  0.00     0.116 A 
HETATM   10  N3  UNL     1      20.267   9.615  -8.597  1.00  0.00    -0.339 N 
ATOM     11  H3  UNL     1      21.256   9.693  -8.360  1.00  0.00     0.167 HD
HETATM   12  C12 UNL     1      19.654  10.261  -9.668  1.00  0.00     0.069 A 
HETATM   13  C19 UNL     1      17.002  11.140 -11.360  1.00  0.00     0.083 A 
HETATM   14 BR1  UNL     1      18.094  12.734 -11.480  1.00  0.00    -0.044 Br
HETATM   15  C20 UNL     1      15.757  11.361 -12.013  1.00  0.00     0.122 A 
HETATM   16  N5  UNL     1      14.773  10.493 -11.746  1.00  0.00    -0.331 N 
ATOM     17  H5  UNL     1      13.862  10.610 -12.191  1.00  0.00     0.168 HD
ENDROOT
BRANCH  12  18
HETATM   18  C13 UNL     1      20.540  10.729 -10.768  1.00  0.00    -0.033 C 
HETATM   19  C14 UNL     1      21.385  11.711 -10.520  1.00  0.00    -0.017 C 
HETATM   20  C15 UNL     1      22.329  12.293 -11.489  1.00  0.00     0.028 C 
HETATM   21  C16 UNL     1      22.678  11.317 -12.596  1.00  0.00     0.004 C 
HETATM   22  C17 UNL     1      21.349  10.805 -13.100  1.00  0.00     0.005 C 
HETATM   23  C18 UNL     1      20.709   9.977 -12.042  1.00  0.00     0.040 C 
ENDBRANCH  12  18
BRANCH   9  24
HETATM   24  C6  UNL     1      19.671   8.054  -6.735  1.00  0.00     0.008 A 
HETATM   25  C7  UNL     1      18.610   7.514  -6.019  1.00  0.00     0.015 A 
HETATM   26  C8  UNL     1      18.837   6.743  -4.911  1.00  0.00     0.001 A 
HETATM   27  C9  UNL     1      20.156   6.527  -4.541  1.00  0.00     0.000 A 
HETATM   28  C10 UNL     1      21.205   7.065  -5.255  1.00  0.00     0.001 A 
HETATM   29  C11 UNL     1      20.982   7.836  -6.361  1.00  0.00     0.015 A 
ENDBRANCH   9  24
BRANCH  15  30
HETATM   30  N4  UNL     1      15.595  12.346 -12.818  1.00  0.00    -0.371 N 
ATOM     31  H4  UNL     1      16.244  13.131 -12.776  1.00  0.00     0.161 HD
BRANCH  30  32
HETATM   32  C21 UNL     1      14.537  12.376 -13.769  1.00  0.00     0.075 C 
HETATM   33  C22 UNL     1      14.991  12.365 -15.193  1.00  0.00     0.031 C 
HETATM   34  C23 UNL     1      13.743  13.676 -13.546  1.00  0.00     0.031 C 
ENDBRANCH  30  32
ENDBRANCH  15  30
TORSDOF 4
ENDMDL
MODEL 2
REMARK VINA RESULT: -8.743360348      0.734      1.158
REMARK  4 active torsions:
REMARK  status: ('A' for Active; 'I' for Inactive)
REMARK    1  A    between atoms: C5_9  and  C6_10 
REMARK    2  A    between atoms: C12_18  and  C13_19 
REMARK    3  A    between atoms: C20_27  and  N4_28 
REMARK    4  A    between atoms: N4_28  and  C21_30 
ROOT
HETATM    1  C1  UNL     1      14.006   9.559 -10.611  1.00  0.00     0.089 C 
HETATM    2  C2  UNL     1      15.288  10.262 -10.876  1.00  0.00     0.079 A 
HETATM    3  N1  UNL     1      16.412   9.907 -10.328  1.00  0.00    -0.343 N 
ATOM      4  H1  UNL     1      16.380   9.115  -9.688  1.00  0.00     0.167 HD
HETATM    5  C3  UNL     1      17.644  10.494 -10.526  1.00  0.00     0.084 A 
HETATM    6  C4  UNL     1      18.711  10.110  -9.658  1.00  0.00     0.089 A 
HETATM    7  N2  UNL     1      18.453   9.284  -8.558  1.00  0.00    -0.338 N 
ATOM      8  H2  UNL     1      17.519   9.007  -8.258  1.00  0.00     0.167 HD
HETATM    9  C5  UNL     1      19.565   8.909  -7.958  1.00  0.00     0.116 A 
HETATM   10  N3  UNL     1      20.548   9.460  -8.637  1.00  0.00    -0.339 N 
ATOM     11  H3  UNL     1      21.538   9.358  -8.412  1.00  0.00     0.167 HD
HETATM   12  C12 UNL     1      20.050  10.202  -9.706  1.00  0.00     0.069 A 
HETATM   13  C19 UNL     1      17.582  11.539 -11.375  1.00  0.00     0.083 A 
HETATM   14 BR1  UNL     1      18.945  12.906 -11.519  1.00  0.00    -0.044 Br
HETATM   15  C20 UNL     1      16.390  11.980 -12.016  1.00  0.00     0.122 A 
HETATM   16  N5  UNL     1      15.267  11.307 -11.732  1.00  0.00    -0.331 N 
ATOM     17  H5  UNL     1      14.388  11.585 -12.168  1.00  0.00     0.168 HD
ENDROOT
BRANCH  12  18
HETATM   18  C13 UNL     1      20.993  10.494 -10.819  1.00  0.00    -0.033 C 
HETATM   19  C14 UNL     1      22.001  11.313 -10.590  1.00  0.00    -0.017 C 
HETATM   20  C15 UNL     1      23.023  11.708 -11.574  1.00  0.00     0.028 C 
HETATM   21  C16 UNL     1      23.181  10.676 -12.674  1.00  0.00     0.004 C 
HETATM   22  C17 UNL     1      21.777  10.403 -13.160  1.00  0.00     0.005 C 
HETATM   23  C18 UNL     1      21.012   9.711 -12.087  1.00  0.00     0.040 C 
ENDBRANCH  12  18
BRANCH   9  24
HETATM   24  C6  UNL     1      19.701   8.045  -6.757  1.00  0.00     0.008 A 
HETATM   25  C7  UNL     1      20.970   7.696  -6.309  1.00  0.00     0.015 A 
HETATM   26  C8  UNL     1      21.125   6.901  -5.206  1.00  0.00     0.001 A 
HETATM   27  C9  UNL     1      19.976   6.463  -4.564  1.00  0.00     0.000 A 
HETATM   28  C10 UNL     1      18.721   6.812  -5.013  1.00  0.00     0.001 A 
HETATM   29  C11 UNL     1      18.562   7.606  -6.114  1.00  0.00     0.015 A 
ENDBRANCH   9  24
BRANCH  15  30
HETATM   30  N4  UNL     1      16.400  12.973 -12.827  1.00  0.00    -0.371 N 
ATOM     31  H4  UNL     1      16.964  13.792 -12.599  1.00  0.00     0.161 HD
BRANCH  30  32
HETATM   32  C21 UNL     1      15.649  12.968 -14.036  1.00  0.00     0.075 C 
HETATM   33  C22 UNL     1      16.464  13.206 -15.266  1.00  0.00     0.031 C 
HETATM   34  C23 UNL     1      14.607  14.096 -13.945  1.00  0.00     0.031 C 
ENDBRANCH  30  32
ENDBRANCH  15  30
TORSDOF 4
ENDMDL
MODEL 3
REMARK VINA RESULT: -8.264783561      1.313      1.524
REMARK  4 active torsions:
REMARK  status: ('A' for Active; 'I' for Inactive)
REMARK    1  A    between atoms: C5_9  and  C6_10 
REMARK    2  A    between atoms: C12_18  and  C13_19 
REMARK    3  A    between atoms: C20_27  and  N4_28 
REMARK    4  A    between atoms: N4_28  and  C21_30 
ROOT
HETATM    1  C1  UNL     1      14.731   9.850 -10.818  1.00  0.00     0.089 C 
HETATM    2  C2  UNL     1      15.977  10.588 -11.153  1.00  0.00     0.079 A 
HETATM    3  N1  UNL     1      17.148  10.225 -10.721  1.00  0.00    -0.343 N 
ATOM      4  H1  UNL     1      17.180   9.400 -10.122  1.00  0.00     0.167 HD
HETATM    5  C3  UNL     1      18.351  10.843 -10.989  1.00  0.00     0.084 A 
HETATM    6  C4  UNL     1      19.492  10.433 -10.235  1.00  0.00     0.089 A 
HETATM    7  N2  UNL     1      19.339   9.548  -9.163  1.00  0.00    -0.338 N 
ATOM      8  H2  UNL     1      18.437   9.239  -8.800  1.00  0.00     0.167 HD
HETATM    9  C5  UNL     1      20.502   9.162  -8.679  1.00  0.00     0.116 A 
HETATM   10  N3  UNL     1      21.417   9.764  -9.407  1.00  0.00    -0.339 N 
ATOM     11  H3  UNL     1      22.424   9.668  -9.272  1.00  0.00     0.167 HD
HETATM   12  C12 UNL     1      20.821  10.551 -10.390  1.00  0.00     0.069 A 
HETATM   13  C19 UNL     1      18.203  11.929 -11.774  1.00  0.00     0.083 A 
HETATM   14 BR1  UNL     1      19.531  13.326 -11.960  1.00  0.00    -0.044 Br
HETATM   15  C20 UNL     1      16.956  12.381 -12.289  1.00  0.00     0.122 A 
HETATM   16  N5  UNL     1      15.870  11.675 -11.948  1.00  0.00    -0.331 N 
ATOM     17  H5  UNL     1      14.954  11.960 -12.293  1.00  0.00     0.168 HD
ENDROOT
BRANCH  12  18
HETATM   18  C13 UNL     1      21.662  10.916 -11.562  1.00  0.00    -0.033 C 
HETATM   19  C14 UNL     1      22.711  11.691 -11.365  1.00  0.00    -0.017 C 
HETATM   20  C15 UNL     1      23.647  12.147 -12.406  1.00  0.00     0.028 C 
HETATM   21  C16 UNL     1      23.670  11.208 -13.598  1.00  0.00     0.004 C 
HETATM   22  C17 UNL     1      22.218  11.007 -13.966  1.00  0.00     0.005 C 
HETATM   23  C18 UNL     1      21.539  10.244 -12.885  1.00  0.00     0.040 C 
ENDBRANCH  12  18
BRANCH   9  24
HETATM   24  C6  UNL     1      20.751   8.239  -7.540  1.00  0.00     0.008 A 
HETATM   25  C7  UNL     1      19.804   8.134  -6.529  1.00  0.00     0.015 A 
HETATM   26  C8  UNL     1      20.008   7.292  -5.468  1.00  0.00     0.001 A 
HETATM   27  C9  UNL     1      21.185   6.560  -5.448  1.00  0.00     0.000 A 
HETATM   28  C10 UNL     1      22.121   6.668  -6.455  1.00  0.00     0.001 A 
HETATM   29  C11 UNL     1      21.921   7.508  -7.515  1.00  0.00     0.015 A 
ENDBRANCH   9  24
BRANCH  15  30
HETATM   30  N4  UNL     1      16.884  13.415 -13.045  1.00  0.00    -0.371 N 
ATOM     31  H4  UNL     1      17.479  14.218 -12.841  1.00  0.00     0.161 HD
BRANCH  30  32
HETATM   32  C21 UNL     1      16.001  13.475 -14.159  1.00  0.00     0.075 C 
HETATM   33  C22 UNL     1      16.686  13.429 -15.487  1.00  0.00     0.031 C 
HETATM   34  C23 UNL     1      15.235  14.807 -14.079  1.00  0.00     0.031 C 
ENDBRANCH  30  32
ENDBRANCH  15  30
TORSDOF 4
ENDMDL
MODEL 4
REMARK VINA RESULT: -8.227635691      2.120      6.071
REMARK  4 active torsions:
REMARK  status: ('A' for Active; 'I' for Inactive)
REMARK    1  A    between atoms: C5_9  and  C6_10 
REMARK    2  A    between atoms: C12_18  and  C13_19 
REMARK    3  A    between atoms: C20_27  and  N4_28 
REMARK    4  A    between atoms: N4_28  and  C21_30 
ROOT
HETATM    1  C1  UNL     1      16.957  13.435 -12.907  1.00  0.00     0.089 C 
HETATM    2  C2  UNL     1      17.249  12.236 -12.079  1.00  0.00     0.079 A 
HETATM    3  N1  UNL     1      18.456  11.799 -11.873  1.00  0.00    -0.343 N 
ATOM      4  H1  UNL     1      19.213  12.317 -12.318  1.00  0.00     0.167 HD
HETATM    5  C3  UNL     1      18.816  10.706 -11.114  1.00  0.00     0.084 A 
HETATM    6  C4  UNL     1      20.167  10.252 -11.200  1.00  0.00     0.089 A 
HETATM    7  N2  UNL     1      21.033  10.814 -12.144  1.00  0.00    -0.338 N 
ATOM      8  H2  UNL     1      20.742  11.472 -12.867  1.00  0.00     0.167 HD
HETATM    9  C5  UNL     1      22.270  10.388 -11.987  1.00  0.00     0.116 A 
HETATM   10  N3  UNL     1      22.243   9.567 -10.959  1.00  0.00    -0.339 N 
ATOM     11  H3  UNL     1      23.055   9.069 -10.593  1.00  0.00     0.167 HD
HETATM   12  C12 UNL     1      20.953   9.471 -10.442  1.00  0.00     0.069 A 
HETATM   13  C19 UNL     1      17.747  10.081 -10.580  1.00  0.00     0.083 A 
HETATM   14 BR1  UNL     1      17.777   8.271  -9.894  1.00  0.00    -0.044 Br
HETATM   15  C20 UNL     1      16.401  10.505 -10.756  1.00  0.00     0.122 A 
HETATM   16  N5  UNL     1      16.204  11.590 -11.516  1.00  0.00    -0.331 N 
ATOM     17  H5  UNL     1      15.256  11.932 -11.672  1.00  0.00     0.168 HD
ENDROOT
BRANCH  12  18
HETATM   18  C13 UNL     1      20.824   8.979  -9.044  1.00  0.00    -0.033 C 
HETATM   19  C14 UNL     1      21.576   7.965  -8.662  1.00  0.00    -0.017 C 
HETATM   20  C15 UNL     1      21.576   7.356  -7.321  1.00  0.00     0.028 C 
HETATM   21  C16 UNL     1      21.097   8.326  -6.258  1.00  0.00     0.004 C 
HETATM   22  C17 UNL     1      19.803   8.890  -6.797  1.00  0.00     0.005 C 
HETATM   23  C18 UNL     1      20.093   9.733  -7.988  1.00  0.00     0.040 C 
ENDBRANCH  12  18
BRANCH   9  24
HETATM   24  C6  UNL     1      23.464  10.748 -12.794  1.00  0.00     0.008 A 
HETATM   25  C7  UNL     1      23.909  12.065 -12.805  1.00  0.00     0.015 A 
HETATM   26  C8  UNL     1      25.006  12.424 -13.541  1.00  0.00     0.001 A 
HETATM   27  C9  UNL     1      25.646  11.429 -14.265  1.00  0.00     0.000 A 
HETATM   28  C10 UNL     1      25.201  10.125 -14.250  1.00  0.00     0.001 A 
HETATM   29  C11 UNL     1      24.105   9.763 -13.518  1.00  0.00     0.015 A 
ENDBRANCH   9  24
BRANCH  15  30
HETATM   30  N4  UNL     1      15.428   9.874 -10.208  1.00  0.00    -0.371 N 
ATOM     31  H4  UNL     1      15.502   9.609  -9.226  1.00  0.00     0.161 HD
BRANCH  30  32
HETATM   32  C21 UNL     1      14.249   9.533 -10.928  1.00  0.00     0.075 C 
HETATM   33  C22 UNL     1      13.151   8.978 -10.079  1.00  0.00     0.031 C 
HETATM   34  C23 UNL     1      14.626   8.455 -11.960  1.00  0.00     0.031 C 
ENDBRANCH  30  32
ENDBRANCH  15  30
TORSDOF 4
ENDMDL
MODEL 5
REMARK VINA RESULT: -8.064070317      3.867      6.708
REMARK  4 active torsions:
REMARK  status: ('A' for Active; 'I' for Inactive)
REMARK    1  A    between atoms: C5_9  and  C6_10 
REMARK    2  A    between atoms: C12_18  and  C13_19 
REMARK    3  A    between atoms: C20_27  and  N4_28 
REMARK    4  A    between atoms: N4_28  and  C21_30 
ROOT
HETATM    1  C1  UNL     1      26.615   9.577 -13.439  1.00  0.00     0.089 C 
HETATM    2  C2  UNL     1      25.238  10.020 -13.781  1.00  0.00     0.079 A 
HETATM    3  N1  UNL     1      24.273  10.054 -12.910  1.00  0.00    -0.343 N 
ATOM      4  H1  UNL     1      24.499   9.750 -11.964  1.00  0.00     0.167 HD
HETATM    5  C3  UNL     1      22.975  10.459 -13.138  1.00  0.00     0.084 A 
HETATM    6  C4  UNL     1      22.010  10.203 -12.118  1.00  0.00     0.089 A 
HETATM    7  N2  UNL     1      22.358   9.430 -11.005  1.00  0.00    -0.338 N 
ATOM      8  H2  UNL     1      23.245   8.934 -10.907  1.00  0.00     0.167 HD
HETATM    9  C5  UNL     1      21.403   9.420 -10.098  1.00  0.00     0.116 A 
HETATM   10  N3  UNL     1      20.436  10.171 -10.580  1.00  0.00    -0.339 N 
ATOM     11  H3  UNL     1      19.551  10.355 -10.107  1.00  0.00     0.167 HD
HETATM   12  C12 UNL     1      20.789  10.681 -11.828  1.00  0.00     0.069 A 
HETATM   13  C19 UNL     1      22.772  10.827 -14.419  1.00  0.00     0.083 A 
HETATM   14 BR1  UNL     1      21.028  10.968 -15.247  1.00  0.00    -0.044 Br
HETATM   15  C20 UNL     1      23.781  10.822 -15.423  1.00  0.00     0.122 A 
HETATM   16  N5  UNL     1      25.000  10.409 -15.052  1.00  0.00    -0.331 N 
ATOM     17  H5  UNL     1      25.755  10.388 -15.736  1.00  0.00     0.168 HD
ENDROOT
BRANCH  12  18
HETATM   18  C13 UNL     1      20.050  11.885 -12.296  1.00  0.00    -0.033 C 
HETATM   19  C14 UNL     1      18.738  11.812 -12.412  1.00  0.00    -0.017 C 
HETATM   20  C15 UNL     1      17.856  12.904 -12.858  1.00  0.00     0.028 C 
HETATM   21  C16 UNL     1      18.474  14.268 -12.613  1.00  0.00     0.004 C 
HETATM   22  C17 UNL     1      19.865  14.178 -13.196  1.00  0.00     0.005 C 
HETATM   23  C18 UNL     1      20.678  13.234 -12.382  1.00  0.00     0.040 C 
ENDBRANCH  12  18
BRANCH   9  24
HETATM   24  C6  UNL     1      21.396   8.710  -8.793  1.00  0.00     0.008 A 
HETATM   25  C7  UNL     1      22.183   7.576  -8.630  1.00  0.00     0.015 A 
HETATM   26  C8  UNL     1      22.196   6.901  -7.438  1.00  0.00     0.001 A 
HETATM   27  C9  UNL     1      21.399   7.393  -6.415  1.00  0.00     0.000 A 
HETATM   28  C10 UNL     1      20.620   8.518  -6.583  1.00  0.00     0.001 A 
HETATM   29  C11 UNL     1      20.605   9.194  -7.771  1.00  0.00     0.015 A 
ENDBRANCH   9  24
BRANCH  15  30
HETATM   30  N4  UNL     1      23.527  11.200 -16.622  1.00  0.00    -0.371 N 
ATOM     31  H4  UNL     1      22.727  11.811 -16.789  1.00  0.00     0.161 HD
BRANCH  30  32
HETATM   32  C21 UNL     1      24.326  10.792 -17.726  1.00  0.00     0.075 C 
HETATM   33  C22 UNL     1      24.983  11.919 -18.457  1.00  0.00     0.031 C 
HETATM   34  C23 UNL     1      23.410  10.064 -18.725  1.00  0.00     0.031 C 
ENDBRANCH  30  32
ENDBRANCH  15  30
TORSDOF 4
ENDMDL
