MODEL 1
REMARK VINA RESULT: -4.721112658      0.000      0.000
REMARK  10 active torsions:
REMARK  status: ('A' for Active; 'I' for Inactive)
REMARK    1  A    between atoms: C2_2  and  O2_4 
REMARK    2  A    between atoms: O2_4  and  C3_5 
REMARK    3  A    between atoms: C3_5  and  C4_6 
REMARK    4  A    between atoms: C4_6  and  C6_8 
REMARK    5  A    between atoms: C6_8  and  C7_9 
REMARK    6  A    between atoms: C7_9  and  O3_11 
REMARK    7  A    between atoms: C7_9  and  C9_13 
REMARK    8  A    between atoms: C9_13  and  C10_15 
REMARK    9  A    between atoms: C12_17  and  C13_18 
REMARK   10  A    between atoms: C13_18  and  C14_19 
ROOT
HETATM    1  C7  UNL     1      36.828  69.866 104.997  1.00  0.00     0.075 C 
HETATM    2  C8  UNL     1      36.504  70.470 103.646  1.00  0.00     0.047 C 
ENDROOT
BRANCH   1   3
HETATM    3  C6  UNL     1      36.493  68.447 105.135  1.00  0.00     0.045 C 
BRANCH   3   4
HETATM    4  C4  UNL     1      35.673  67.771 104.110  1.00  0.00     0.009 C 
HETATM    5  C5  UNL     1      34.478  67.001 104.618  1.00  0.00     0.012 C 
BRANCH   4   6
HETATM    6  C3  UNL     1      36.538  66.722 103.374  1.00  0.00     0.183 C 
BRANCH   6   7
HETATM    7  O2  UNL     1      36.523  67.098 102.013  1.00  0.00    -0.321 OA
BRANCH   7   8
HETATM    8  C2  UNL     1      35.972  66.333 101.012  1.00  0.00     0.254 C 
HETATM    9  C1  UNL     1      34.903  65.362 101.350  1.00  0.00     0.126 C 
HETATM   10  O1  UNL     1      36.383  66.475  99.855  1.00  0.00    -0.266 OA
ENDBRANCH   7   8
ENDBRANCH   6   7
ENDBRANCH   4   6
ENDBRANCH   3   4
ENDBRANCH   1   3
BRANCH   1  11
HETATM   11  O3  UNL     1      38.262  69.927 105.031  1.00  0.00    -0.388 OA
ATOM     12  H3  UNL     1      38.493  70.730 104.579  1.00  0.00     0.210 HD
ENDBRANCH   1  11
BRANCH   1  13
HETATM   13  C9  UNL     1      36.372  70.805 106.065  1.00  0.00     0.144 C 
HETATM   14 CL1  UNL     1      36.473  72.510 105.554  1.00  0.00    -0.117 Cl
BRANCH  13  15
HETATM   15  C10 UNL     1      34.908  70.602 106.406  1.00  0.00    -0.066 C 
HETATM   16  C11 UNL     1      34.586  69.943 107.696  1.00  0.00     0.044 C 
HETATM   17  C12 UNL     1      33.965  71.010 105.558  1.00  0.00    -0.019 C 
BRANCH  17  18
HETATM   18  C13 UNL     1      32.554  70.854 105.812  1.00  0.00     0.054 C 
BRANCH  18  19
HETATM   19  C14 UNL     1      31.861  69.857 105.010  1.00  0.00    -0.021 C 
HETATM   20  C15 UNL     1      31.426  68.678 105.318  1.00  0.00    -0.091 C 
HETATM   21  C16 UNL     1      31.507  67.981 106.614  1.00  0.00     0.042 C 
HETATM   22  C17 UNL     1      30.732  67.899 104.185  1.00  0.00     0.042 C 
ENDBRANCH  18  19
ENDBRANCH  17  18
ENDBRANCH  13  15
ENDBRANCH   1  13
TORSDOF 10
ENDMDL
MODEL 2
REMARK VINA RESULT: -4.503988801      2.704      5.279
REMARK  10 active torsions:
REMARK  status: ('A' for Active; 'I' for Inactive)
REMARK    1  A    between atoms: C2_2  and  O2_4 
REMARK    2  A    between atoms: O2_4  and  C3_5 
REMARK    3  A    between atoms: C3_5  and  C4_6 
REMARK    4  A    between atoms: C4_6  and  C6_8 
REMARK    5  A    between atoms: C6_8  and  C7_9 
REMARK    6  A    between atoms: C7_9  and  O3_11 
REMARK    7  A    between atoms: C7_9  and  C9_13 
REMARK    8  A    between atoms: C9_13  and  C10_15 
REMARK    9  A    between atoms: C12_17  and  C13_18 
REMARK   10  A    between atoms: C13_18  and  C14_19 
ROOT
HETATM    1  C7  UNL     1      35.980  69.521 103.943  1.00  0.00     0.075 C 
HETATM    2  C8  UNL     1      34.887  68.473 104.013  1.00  0.00     0.047 C 
ENDROOT
BRANCH   1   3
HETATM    3  C6  UNL     1      37.305  69.006 103.591  1.00  0.00     0.045 C 
BRANCH   3   4
HETATM    4  C4  UNL     1      37.611  67.570 103.736  1.00  0.00     0.009 C 
HETATM    5  C5  UNL     1      38.800  67.228 104.602  1.00  0.00     0.012 C 
BRANCH   4   6
HETATM    6  C3  UNL     1      37.946  66.976 102.349  1.00  0.00     0.183 C 
BRANCH   6   7
HETATM    7  O2  UNL     1      36.967  65.987 102.106  1.00  0.00    -0.321 OA
BRANCH   7   8
HETATM    8  C2  UNL     1      36.018  66.077 101.116  1.00  0.00     0.254 C 
HETATM    9  C1  UNL     1      34.648  65.573 101.380  1.00  0.00     0.126 C 
HETATM   10  O1  UNL     1      36.332  66.577 100.030  1.00  0.00    -0.266 OA
ENDBRANCH   7   8
ENDBRANCH   6   7
ENDBRANCH   4   6
ENDBRANCH   3   4
ENDBRANCH   1   3
BRANCH   1  11
HETATM   11  O3  UNL     1      35.571  70.325 102.827  1.00  0.00    -0.388 OA
ATOM     12  H3  UNL     1      34.789  69.907 102.485  1.00  0.00     0.210 HD
ENDBRANCH   1  11
BRANCH   1  13
HETATM   13  C9  UNL     1      35.864  70.415 105.133  1.00  0.00     0.144 C 
HETATM   14 CL1  UNL     1      35.181  69.572 106.548  1.00  0.00    -0.117 Cl
BRANCH  13  15
HETATM   15  C10 UNL     1      37.221  70.902 105.605  1.00  0.00    -0.066 C 
HETATM   16  C11 UNL     1      37.807  72.080 104.919  1.00  0.00     0.044 C 
HETATM   17  C12 UNL     1      37.841  70.276 106.604  1.00  0.00    -0.019 C 
BRANCH  17  18
HETATM   18  C13 UNL     1      39.130  70.680 107.110  1.00  0.00     0.054 C 
BRANCH  18  19
HETATM   19  C14 UNL     1      40.287  70.015 106.531  1.00  0.00    -0.021 C 
HETATM   20  C15 UNL     1      41.290  70.490 105.865  1.00  0.00    -0.091 C 
HETATM   21  C16 UNL     1      41.560  71.889 105.489  1.00  0.00     0.042 C 
HETATM   22  C17 UNL     1      42.339  69.462 105.404  1.00  0.00     0.042 C 
ENDBRANCH  18  19
ENDBRANCH  17  18
ENDBRANCH  13  15
ENDBRANCH   1  13
TORSDOF 10
ENDMDL
MODEL 3
REMARK VINA RESULT: -4.469701479      2.758      5.277
REMARK  10 active torsions:
REMARK  status: ('A' for Active; 'I' for Inactive)
REMARK    1  A    between atoms: C2_2  and  O2_4 
REMARK    2  A    between atoms: O2_4  and  C3_5 
REMARK    3  A    between atoms: C3_5  and  C4_6 
REMARK    4  A    between atoms: C4_6  and  C6_8 
REMARK    5  A    between atoms: C6_8  and  C7_9 
REMARK    6  A    between atoms: C7_9  and  O3_11 
REMARK    7  A    between atoms: C7_9  and  C9_13 
REMARK    8  A    between atoms: C9_13  and  C10_15 
REMARK    9  A    between atoms: C12_17  and  C13_18 
REMARK   10  A    between atoms: C13_18  and  C14_19 
ROOT
HETATM    1  C7  UNL     1      36.437  69.965 104.158  1.00  0.00     0.075 C 
HETATM    2  C8  UNL     1      35.337  69.396 105.031  1.00  0.00     0.047 C 
ENDROOT
BRANCH   1   3
HETATM    3  C6  UNL     1      37.614  69.106 104.011  1.00  0.00     0.045 C 
BRANCH   3   4
HETATM    4  C4  UNL     1      37.486  67.640 104.119  1.00  0.00     0.009 C 
HETATM    5  C5  UNL     1      38.533  66.941 104.953  1.00  0.00     0.012 C 
BRANCH   4   6
HETATM    6  C3  UNL     1      37.613  67.010 102.712  1.00  0.00     0.183 C 
BRANCH   6   7
HETATM    7  O2  UNL     1      36.345  67.158 102.109  1.00  0.00    -0.321 OA
BRANCH   7   8
HETATM    8  C2  UNL     1      35.881  66.354 101.094  1.00  0.00     0.254 C 
HETATM    9  C1  UNL     1      34.813  65.367 101.385  1.00  0.00     0.126 C 
HETATM   10  O1  UNL     1      36.368  66.476  99.965  1.00  0.00    -0.266 OA
ENDBRANCH   7   8
ENDBRANCH   6   7
ENDBRANCH   4   6
ENDBRANCH   3   4
ENDBRANCH   1   3
BRANCH   1  11
HETATM   11  O3  UNL     1      35.822  69.999 102.861  1.00  0.00    -0.388 OA
ATOM     12  H3  UNL     1      35.331  69.188 102.791  1.00  0.00     0.210 HD
ENDBRANCH   1  11
BRANCH   1  13
HETATM   13  C9  UNL     1      36.651  71.396 104.526  1.00  0.00     0.144 C 
HETATM   14 CL1  UNL     1      35.311  72.048 105.506  1.00  0.00    -0.117 Cl
BRANCH  13  15
HETATM   15  C10 UNL     1      37.877  71.576 105.401  1.00  0.00    -0.066 C 
HETATM   16  C11 UNL     1      37.721  71.352 106.859  1.00  0.00     0.044 C 
HETATM   17  C12 UNL     1      39.040  71.922 104.852  1.00  0.00    -0.019 C 
BRANCH  17  18
HETATM   18  C13 UNL     1      40.249  72.111 105.616  1.00  0.00     0.054 C 
BRANCH  18  19
HETATM   19  C14 UNL     1      41.308  71.138 105.396  1.00  0.00    -0.021 C 
HETATM   20  C15 UNL     1      41.506  69.970 105.919  1.00  0.00    -0.091 C 
HETATM   21  C16 UNL     1      40.687  69.264 106.920  1.00  0.00     0.042 C 
HETATM   22  C17 UNL     1      42.759  69.218 105.432  1.00  0.00     0.042 C 
ENDBRANCH  18  19
ENDBRANCH  17  18
ENDBRANCH  13  15
ENDBRANCH   1  13
TORSDOF 10
ENDMDL
MODEL 4
REMARK VINA RESULT: -4.428701586      2.937      6.369
REMARK  10 active torsions:
REMARK  status: ('A' for Active; 'I' for Inactive)
REMARK    1  A    between atoms: C2_2  and  O2_4 
REMARK    2  A    between atoms: O2_4  and  C3_5 
REMARK    3  A    between atoms: C3_5  and  C4_6 
REMARK    4  A    between atoms: C4_6  and  C6_8 
REMARK    5  A    between atoms: C6_8  and  C7_9 
REMARK    6  A    between atoms: C7_9  and  O3_11 
REMARK    7  A    between atoms: C7_9  and  C9_13 
REMARK    8  A    between atoms: C9_13  and  C10_15 
REMARK    9  A    between atoms: C12_17  and  C13_18 
REMARK   10  A    between atoms: C13_18  and  C14_19 
ROOT
HETATM    1  C7  UNL     1      33.831  67.084 105.568  1.00  0.00     0.075 C 
HETATM    2  C8  UNL     1      33.286  65.833 106.228  1.00  0.00     0.047 C 
ENDROOT
BRANCH   1   3
HETATM    3  C6  UNL     1      32.918  67.728 104.621  1.00  0.00     0.045 C 
BRANCH   3   4
HETATM    4  C4  UNL     1      31.730  68.456 105.107  1.00  0.00     0.009 C 
HETATM    5  C5  UNL     1      30.458  68.254 104.318  1.00  0.00     0.012 C 
BRANCH   4   6
HETATM    6  C3  UNL     1      32.000  69.977 105.042  1.00  0.00     0.183 C 
BRANCH   6   7
HETATM    7  O2  UNL     1      33.271  70.117 104.444  1.00  0.00    -0.321 OA
BRANCH   7   8
HETATM    8  C2  UNL     1      34.117  71.175 104.680  1.00  0.00     0.254 C 
HETATM    9  C1  UNL     1      35.468  70.911 105.233  1.00  0.00     0.126 C 
HETATM   10  O1  UNL     1      33.728  72.320 104.423  1.00  0.00    -0.266 OA
ENDBRANCH   7   8
ENDBRANCH   6   7
ENDBRANCH   4   6
ENDBRANCH   3   4
ENDBRANCH   1   3
BRANCH   1  11
HETATM   11  O3  UNL     1      33.946  67.995 106.671  1.00  0.00    -0.388 OA
ATOM     12  H3  UNL     1      33.336  67.679 107.327  1.00  0.00     0.210 HD
ENDBRANCH   1  11
BRANCH   1  13
HETATM   13  C9  UNL     1      35.233  66.823 105.128  1.00  0.00     0.144 C 
HETATM   14 CL1  UNL     1      35.838  65.245 105.699  1.00  0.00    -0.117 Cl
BRANCH  13  15
HETATM   15  C10 UNL     1      35.344  66.742 103.617  1.00  0.00    -0.066 C 
HETATM   16  C11 UNL     1      35.965  67.889 102.910  1.00  0.00     0.044 C 
HETATM   17  C12 UNL     1      34.892  65.666 102.974  1.00  0.00    -0.019 C 
BRANCH  17  18
HETATM   18  C13 UNL     1      34.963  65.515 101.541  1.00  0.00     0.054 C 
BRANCH  18  19
HETATM   19  C14 UNL     1      35.947  64.568 101.041  1.00  0.00    -0.021 C 
HETATM   20  C15 UNL     1      37.097  64.761 100.479  1.00  0.00    -0.091 C 
HETATM   21  C16 UNL     1      37.765  66.039 100.174  1.00  0.00     0.042 C 
HETATM   22  C17 UNL     1      37.871  63.492 100.076  1.00  0.00     0.042 C 
ENDBRANCH  18  19
ENDBRANCH  17  18
ENDBRANCH  13  15
ENDBRANCH   1  13
TORSDOF 10
ENDMDL
MODEL 5
REMARK VINA RESULT: -4.375767209      2.578      4.892
REMARK  10 active torsions:
REMARK  status: ('A' for Active; 'I' for Inactive)
REMARK    1  A    between atoms: C2_2  and  O2_4 
REMARK    2  A    between atoms: O2_4  and  C3_5 
REMARK    3  A    between atoms: C3_5  and  C4_6 
REMARK    4  A    between atoms: C4_6  and  C6_8 
REMARK    5  A    between atoms: C6_8  and  C7_9 
REMARK    6  A    between atoms: C7_9  and  O3_11 
REMARK    7  A    between atoms: C7_9  and  C9_13 
REMARK    8  A    between atoms: C9_13  and  C10_15 
REMARK    9  A    between atoms: C12_17  and  C13_18 
REMARK   10  A    between atoms: C13_18  and  C14_19 
ROOT
HETATM    1  C7  UNL     1      36.612  65.914 101.793  1.00  0.00     0.075 C 
HETATM    2  C8  UNL     1      37.074  64.807 100.867  1.00  0.00     0.047 C 
ENDROOT
BRANCH   1   3
HETATM    3  C6  UNL     1      37.431  66.096 102.993  1.00  0.00     0.045 C 
BRANCH   3   4
HETATM    4  C4  UNL     1      38.352  67.244 103.102  1.00  0.00     0.009 C 
HETATM    5  C5  UNL     1      39.725  66.944 103.655  1.00  0.00     0.012 C 
BRANCH   4   6
HETATM    6  C3  UNL     1      37.753  68.290 104.071  1.00  0.00     0.183 C 
BRANCH   6   7
HETATM    7  O2  UNL     1      36.849  69.054 103.302  1.00  0.00    -0.321 OA
BRANCH   7   8
HETATM    8  C2  UNL     1      36.425  70.316 103.647  1.00  0.00     0.254 C 
HETATM    9  C1  UNL     1      35.047  70.737 103.298  1.00  0.00     0.126 C 
HETATM   10  O1  UNL     1      37.207  71.066 104.241  1.00  0.00    -0.266 OA
ENDBRANCH   7   8
ENDBRANCH   6   7
ENDBRANCH   4   6
ENDBRANCH   3   4
ENDBRANCH   1   3
BRANCH   1  11
HETATM   11  O3  UNL     1      36.824  67.093 101.002  1.00  0.00    -0.388 OA
ATOM     12  H3  UNL     1      35.980  67.529 100.965  1.00  0.00     0.210 HD
ENDBRANCH   1  11
BRANCH   1  13
HETATM   13  C9  UNL     1      35.131  65.815 101.959  1.00  0.00     0.144 C 
HETATM   14 CL1  UNL     1      34.500  64.225 101.456  1.00  0.00    -0.117 Cl
BRANCH  13  15
HETATM   15  C10 UNL     1      34.717  65.940 103.413  1.00  0.00    -0.066 C 
HETATM   16  C11 UNL     1      34.905  64.755 104.286  1.00  0.00     0.044 C 
HETATM   17  C12 UNL     1      34.206  67.085 103.862  1.00  0.00    -0.019 C 
BRANCH  17  18
HETATM   18  C13 UNL     1      33.791  67.281 105.230  1.00  0.00     0.054 C 
BRANCH  18  19
HETATM   19  C14 UNL     1      33.259  68.595 105.560  1.00  0.00    -0.021 C 
HETATM   20  C15 UNL     1      32.115  69.136 105.289  1.00  0.00    -0.091 C 
HETATM   21  C16 UNL     1      30.981  68.559 104.545  1.00  0.00     0.042 C 
HETATM   22  C17 UNL     1      31.909  70.570 105.812  1.00  0.00     0.042 C 
ENDBRANCH  18  19
ENDBRANCH  17  18
ENDBRANCH  13  15
ENDBRANCH   1  13
TORSDOF 10
ENDMDL
