MODEL 1
REMARK VINA RESULT: -6.690938848      0.000      0.000
REMARK  7 active torsions:
REMARK  status: ('A' for Active; 'I' for Inactive)
REMARK    1  A    between atoms: O1_2  and  C2_3 
REMARK    2  A    between atoms: C6_7  and  O2_8 
REMARK    3  A    between atoms: C8_10  and  O3_11 
REMARK    4  A    between atoms: C14_18  and  C15_19 
REMARK    5  A    between atoms: C15_19  and  C16_20 
REMARK    6  A    between atoms: C18_22  and  O4_23 
REMARK    7  A    between atoms: C19_25  and  O5_26 
ROOT
HETATM    1  C2  UNL     1      12.196  53.198  88.511  1.00  0.00     0.105 A 
HETATM    2  C3  UNL     1      12.359  52.666  87.210  1.00  0.00     0.054 A 
HETATM    3  C4  UNL     1      11.265  52.504  86.405  1.00  0.00     0.011 A 
HETATM    4  C5  UNL     1      10.031  52.864  86.886  1.00  0.00    -0.008 A 
HETATM    5  C6  UNL     1       9.874  53.381  88.151  1.00  0.00     0.111 A 
HETATM    6  C8  UNL     1      10.953  53.557  88.987  1.00  0.00     0.135 A 
HETATM    7  C10 UNL     1       8.860  52.670  85.995  1.00  0.00     0.070 C 
HETATM    8  C11 UNL     1       9.144  51.392  85.256  1.00  0.00     0.248 C 
HETATM    9  N1  UNL     1      10.312  51.538  84.374  1.00  0.00    -0.044 N 
HETATM   10  C12 UNL     1       9.823  52.618  83.430  1.00  0.00     0.279 C 
HETATM   11  C13 UNL     1      10.227  50.385  83.524  1.00  0.00     0.279 C 
HETATM   12  C14 UNL     1      11.466  51.946  85.002  1.00  0.00     0.147 C 
ENDROOT
BRANCH  12  13
HETATM   13  C15 UNL     1      12.795  51.371  84.942  1.00  0.00     0.050 C 
BRANCH  13  14
HETATM   14  C16 UNL     1      13.653  51.397  83.783  1.00  0.00    -0.025 A 
HETATM   15  C17 UNL     1      13.482  50.523  82.698  1.00  0.00     0.051 A 
HETATM   16  C18 UNL     1      14.304  50.458  81.624  1.00  0.00     0.099 A 
HETATM   17  C19 UNL     1      15.391  51.296  81.570  1.00  0.00     0.099 A 
HETATM   18  C20 UNL     1      15.594  52.168  82.611  1.00  0.00     0.047 A 
HETATM   19  C21 UNL     1      14.737  52.224  83.710  1.00  0.00    -0.049 A 
HETATM   20  C22 UNL     1      15.077  53.301  84.697  1.00  0.00     0.049 C 
BRANCH  16  21
HETATM   21  O4  UNL     1      14.019  49.541  80.613  1.00  0.00    -0.358 OA
ATOM     22  H4  UNL     1      14.725  49.012  80.260  1.00  0.00     0.217 HD
ENDBRANCH  16  21
BRANCH  17  23
HETATM   23  O5  UNL     1      16.225  51.217  80.466  1.00  0.00    -0.358 OA
ATOM     24  H5  UNL     1      17.162  51.163  80.615  1.00  0.00     0.217 HD
ENDBRANCH  17  23
ENDBRANCH  13  14
ENDBRANCH  12  13
BRANCH   1  25
HETATM   25  O1  UNL     1      13.252  53.388  89.375  1.00  0.00    -0.353 OA
HETATM   26  C1  UNL     1      14.032  54.530  89.520  1.00  0.00     0.210 C 
ENDBRANCH   1  25
BRANCH   5  27
HETATM   27  O2  UNL     1       8.614  53.725  88.583  1.00  0.00    -0.352 OA
HETATM   28  C7  UNL     1       7.827  52.690  89.183  1.00  0.00     0.210 C 
ENDBRANCH   5  27
BRANCH   6  29
HETATM   29  O3  UNL     1      10.710  54.083  90.245  1.00  0.00    -0.351 OA
HETATM   30  C9  UNL     1      10.686  53.228  91.377  1.00  0.00     0.210 C 
ENDBRANCH   6  29
TORSDOF 7
ENDMDL
MODEL 2
REMARK VINA RESULT: -6.255180525      6.404     10.289
REMARK  7 active torsions:
REMARK  status: ('A' for Active; 'I' for Inactive)
REMARK    1  A    between atoms: O1_2  and  C2_3 
REMARK    2  A    between atoms: C6_7  and  O2_8 
REMARK    3  A    between atoms: C8_10  and  O3_11 
REMARK    4  A    between atoms: C14_18  and  C15_19 
REMARK    5  A    between atoms: C15_19  and  C16_20 
REMARK    6  A    between atoms: C18_22  and  O4_23 
REMARK    7  A    between atoms: C19_25  and  O5_26 
ROOT
HETATM    1  C2  UNL     1      15.104  51.289  96.919  1.00  0.00     0.105 A 
HETATM    2  C3  UNL     1      14.482  51.953  95.835  1.00  0.00     0.054 A 
HETATM    3  C4  UNL     1      13.547  52.919  96.082  1.00  0.00     0.011 A 
HETATM    4  C5  UNL     1      13.236  53.220  97.385  1.00  0.00    -0.008 A 
HETATM    5  C6  UNL     1      13.840  52.574  98.438  1.00  0.00     0.111 A 
HETATM    6  C8  UNL     1      14.786  51.596  98.224  1.00  0.00     0.135 A 
HETATM    7  C10 UNL     1      12.210  54.266  97.625  1.00  0.00     0.070 C 
HETATM    8  C11 UNL     1      11.198  54.074  96.531  1.00  0.00     0.248 C 
HETATM    9  N1  UNL     1      11.779  54.363  95.212  1.00  0.00    -0.044 N 
HETATM   10  C12 UNL     1      12.137  55.826  95.374  1.00  0.00     0.279 C 
HETATM   11  C13 UNL     1      10.628  54.464  94.362  1.00  0.00     0.279 C 
HETATM   12  C14 UNL     1      12.903  53.633  94.901  1.00  0.00     0.147 C 
ENDROOT
BRANCH  12  13
HETATM   13  C15 UNL     1      13.195  52.864  93.708  1.00  0.00     0.050 C 
BRANCH  13  14
HETATM   14  C16 UNL     1      13.399  53.424  92.395  1.00  0.00    -0.025 A 
HETATM   15  C17 UNL     1      14.378  54.394  92.132  1.00  0.00     0.051 A 
HETATM   16  C18 UNL     1      14.558  55.003  90.936  1.00  0.00     0.099 A 
HETATM   17  C19 UNL     1      13.735  54.664  89.890  1.00  0.00     0.099 A 
HETATM   18  C20 UNL     1      12.763  53.719  90.104  1.00  0.00     0.047 A 
HETATM   19  C21 UNL     1      12.592  53.099  91.342  1.00  0.00    -0.049 A 
HETATM   20  C22 UNL     1      11.538  52.032  91.351  1.00  0.00     0.049 C 
BRANCH  16  21
HETATM   21  O4  UNL     1      15.572  55.952  90.810  1.00  0.00    -0.358 OA
ATOM     22  H4  UNL     1      15.336  56.854  90.629  1.00  0.00     0.217 HD
ENDBRANCH  16  21
BRANCH  17  23
HETATM   23  O5  UNL     1      13.929  55.298  88.672  1.00  0.00    -0.358 OA
ATOM     24  H5  UNL     1      13.792  54.795  87.878  1.00  0.00     0.217 HD
ENDBRANCH  17  23
ENDBRANCH  13  14
ENDBRANCH  12  13
BRANCH   1  25
HETATM   25  O1  UNL     1      16.054  50.306  96.743  1.00  0.00    -0.353 OA
HETATM   26  C1  UNL     1      17.414  50.475  96.516  1.00  0.00     0.210 C 
ENDBRANCH   1  25
BRANCH   5  27
HETATM   27  O2  UNL     1      13.490  52.913  99.723  1.00  0.00    -0.352 OA
HETATM   28  C7  UNL     1      12.465  52.132 100.347  1.00  0.00     0.210 C 
ENDBRANCH   5  27
BRANCH   6  29
HETATM   29  O3  UNL     1      15.347  50.995  99.338  1.00  0.00    -0.351 OA
HETATM   30  C9  UNL     1      16.504  51.557  99.937  1.00  0.00     0.210 C 
ENDBRANCH   6  29
TORSDOF 7
ENDMDL
MODEL 3
REMARK VINA RESULT: -6.111647471      5.326      9.057
REMARK  7 active torsions:
REMARK  status: ('A' for Active; 'I' for Inactive)
REMARK    1  A    between atoms: O1_2  and  C2_3 
REMARK    2  A    between atoms: C6_7  and  O2_8 
REMARK    3  A    between atoms: C8_10  and  O3_11 
REMARK    4  A    between atoms: C14_18  and  C15_19 
REMARK    5  A    between atoms: C15_19  and  C16_20 
REMARK    6  A    between atoms: C18_22  and  O4_23 
REMARK    7  A    between atoms: C19_25  and  O5_26 
ROOT
HETATM    1  C2  UNL     1      11.857  56.295  95.815  1.00  0.00     0.105 A 
HETATM    2  C3  UNL     1      12.347  55.474  94.772  1.00  0.00     0.054 A 
HETATM    3  C4  UNL     1      12.585  54.148  95.011  1.00  0.00     0.011 A 
HETATM    4  C5  UNL     1      12.339  53.649  96.266  1.00  0.00    -0.008 A 
HETATM    5  C6  UNL     1      11.863  54.447  97.279  1.00  0.00     0.111 A 
HETATM    6  C8  UNL     1      11.613  55.785  97.072  1.00  0.00     0.135 A 
HETATM    7  C10 UNL     1      12.614  52.209  96.501  1.00  0.00     0.070 C 
HETATM    8  C11 UNL     1      13.848  51.914  95.695  1.00  0.00     0.248 C 
HETATM    9  N1  UNL     1      13.588  52.053  94.255  1.00  0.00    -0.044 N 
HETATM   10  C12 UNL     1      12.534  50.983  94.052  1.00  0.00     0.279 C 
HETATM   11  C13 UNL     1      14.726  51.421  93.653  1.00  0.00     0.279 C 
HETATM   12  C14 UNL     1      13.096  53.279  93.870  1.00  0.00     0.147 C 
ENDROOT
BRANCH  12  13
HETATM   13  C15 UNL     1      13.556  54.162  92.815  1.00  0.00     0.050 C 
BRANCH  13  14
HETATM   14  C16 UNL     1      13.262  53.995  91.414  1.00  0.00    -0.025 A 
HETATM   15  C17 UNL     1      12.193  53.210  90.955  1.00  0.00     0.051 A 
HETATM   16  C18 UNL     1      11.921  52.962  89.652  1.00  0.00     0.099 A 
HETATM   17  C19 UNL     1      12.738  53.508  88.691  1.00  0.00     0.099 A 
HETATM   18  C20 UNL     1      13.795  54.283  89.097  1.00  0.00     0.047 A 
HETATM   19  C21 UNL     1      14.060  54.531  90.444  1.00  0.00    -0.049 A 
HETATM   20  C22 UNL     1      15.203  55.472  90.680  1.00  0.00     0.049 C 
BRANCH  16  21
HETATM   21  O4  UNL     1      10.825  52.163  89.332  1.00  0.00    -0.358 OA
ATOM     22  H4  UNL     1      10.514  52.148  88.434  1.00  0.00     0.217 HD
ENDBRANCH  16  21
BRANCH  17  23
HETATM   23  O5  UNL     1      12.449  53.244  87.360  1.00  0.00    -0.358 OA
ATOM     24  H5  UNL     1      12.828  52.468  86.965  1.00  0.00     0.217 HD
ENDBRANCH  17  23
ENDBRANCH  13  14
ENDBRANCH  12  13
BRANCH   1  25
HETATM   25  O1  UNL     1      11.596  57.637  95.646  1.00  0.00    -0.353 OA
HETATM   26  C1  UNL     1      12.416  58.707  95.984  1.00  0.00     0.210 C 
ENDBRANCH   1  25
BRANCH   5  27
HETATM   27  O2  UNL     1      11.635  53.895  98.518  1.00  0.00    -0.352 OA
HETATM   28  C7  UNL     1      12.690  53.997  99.480  1.00  0.00     0.210 C 
ENDBRANCH   5  27
BRANCH   6  29
HETATM   29  O3  UNL     1      11.134  56.520  98.144  1.00  0.00    -0.351 OA
HETATM   30  C9  UNL     1       9.740  56.750  98.277  1.00  0.00     0.210 C 
ENDBRANCH   6  29
TORSDOF 7
ENDMDL
MODEL 4
REMARK VINA RESULT: -6.033096012      2.746      4.612
REMARK  7 active torsions:
REMARK  status: ('A' for Active; 'I' for Inactive)
REMARK    1  A    between atoms: O1_2  and  C2_3 
REMARK    2  A    between atoms: C6_7  and  O2_8 
REMARK    3  A    between atoms: C8_10  and  O3_11 
REMARK    4  A    between atoms: C14_18  and  C15_19 
REMARK    5  A    between atoms: C15_19  and  C16_20 
REMARK    6  A    between atoms: C18_22  and  O4_23 
REMARK    7  A    between atoms: C19_25  and  O5_26 
ROOT
HETATM    1  C2  UNL     1       8.828  52.594  84.385  1.00  0.00     0.105 A 
HETATM    2  C3  UNL     1       9.877  51.851  83.792  1.00  0.00     0.054 A 
HETATM    3  C4  UNL     1       9.613  51.048  82.717  1.00  0.00     0.011 A 
HETATM    4  C5  UNL     1       8.328  50.985  82.240  1.00  0.00    -0.008 A 
HETATM    5  C6  UNL     1       7.309  51.707  82.815  1.00  0.00     0.111 A 
HETATM    6  C8  UNL     1       7.540  52.525  83.899  1.00  0.00     0.135 A 
HETATM    7  C10 UNL     1       8.066  50.099  81.077  1.00  0.00     0.070 C 
HETATM    8  C11 UNL     1       8.952  48.904  81.295  1.00  0.00     0.248 C 
HETATM    9  N1  UNL     1      10.373  49.275  81.218  1.00  0.00    -0.044 N 
HETATM   10  C12 UNL     1      10.461  49.767  79.788  1.00  0.00     0.279 C 
HETATM   11  C13 UNL     1      11.036  48.008  81.104  1.00  0.00     0.279 C 
HETATM   12  C14 UNL     1      10.760  50.270  82.085  1.00  0.00     0.147 C 
ENDROOT
BRANCH  12  13
HETATM   13  C15 UNL     1      11.874  50.296  83.012  1.00  0.00     0.050 C 
BRANCH  13  14
HETATM   14  C16 UNL     1      13.205  50.746  82.689  1.00  0.00    -0.025 A 
HETATM   15  C17 UNL     1      13.879  50.338  81.528  1.00  0.00     0.051 A 
HETATM   16  C18 UNL     1      15.154  50.672  81.219  1.00  0.00     0.099 A 
HETATM   17  C19 UNL     1      15.860  51.467  82.089  1.00  0.00     0.099 A 
HETATM   18  C20 UNL     1      15.237  51.890  83.237  1.00  0.00     0.047 A 
HETATM   19  C21 UNL     1      13.922  51.538  83.540  1.00  0.00    -0.049 A 
HETATM   20  C22 UNL     1      13.393  52.170  84.793  1.00  0.00     0.049 C 
BRANCH  16  21
HETATM   21  O4  UNL     1      15.705  50.198  80.029  1.00  0.00    -0.358 OA
ATOM     22  H4  UNL     1      16.594  50.447  79.804  1.00  0.00     0.217 HD
ENDBRANCH  16  21
BRANCH  17  23
HETATM   23  O5  UNL     1      17.165  51.800  81.761  1.00  0.00    -0.358 OA
ATOM     24  H5  UNL     1      17.819  51.784  82.450  1.00  0.00     0.217 HD
ENDBRANCH  17  23
ENDBRANCH  13  14
ENDBRANCH  12  13
BRANCH   1  25
HETATM   25  O1  UNL     1       9.022  53.421  85.469  1.00  0.00    -0.353 OA
HETATM   26  C1  UNL     1       9.982  53.296  86.467  1.00  0.00     0.210 C 
ENDBRANCH   1  25
BRANCH   5  27
HETATM   27  O2  UNL     1       6.039  51.607  82.297  1.00  0.00    -0.352 OA
HETATM   28  C7  UNL     1       5.655  52.580  81.320  1.00  0.00     0.210 C 
ENDBRANCH   5  27
BRANCH   6  29
HETATM   29  O3  UNL     1       6.460  53.218  84.419  1.00  0.00    -0.351 OA
HETATM   30  C9  UNL     1       5.793  52.727  85.571  1.00  0.00     0.210 C 
ENDBRANCH   6  29
TORSDOF 7
ENDMDL
MODEL 5
REMARK VINA RESULT: -5.820750567      6.319      9.980
REMARK  7 active torsions:
REMARK  status: ('A' for Active; 'I' for Inactive)
REMARK    1  A    between atoms: O1_2  and  C2_3 
REMARK    2  A    between atoms: C6_7  and  O2_8 
REMARK    3  A    between atoms: C8_10  and  O3_11 
REMARK    4  A    between atoms: C14_18  and  C15_19 
REMARK    5  A    between atoms: C15_19  and  C16_20 
REMARK    6  A    between atoms: C18_22  and  O4_23 
REMARK    7  A    between atoms: C19_25  and  O5_26 
ROOT
HETATM    1  C2  UNL     1      11.204  56.490  96.618  1.00  0.00     0.105 A 
HETATM    2  C3  UNL     1      11.918  55.664  95.716  1.00  0.00     0.054 A 
HETATM    3  C4  UNL     1      12.040  54.327  95.976  1.00  0.00     0.011 A 
HETATM    4  C5  UNL     1      11.463  53.820  97.113  1.00  0.00    -0.008 A 
HETATM    5  C6  UNL     1      10.769  54.622  97.989  1.00  0.00     0.111 A 
HETATM    6  C8  UNL     1      10.628  55.972  97.758  1.00  0.00     0.135 A 
HETATM    7  C10 UNL     1      11.618  52.367  97.377  1.00  0.00     0.070 C 
HETATM    8  C11 UNL     1      13.007  52.035  96.908  1.00  0.00     0.248 C 
HETATM    9  N1  UNL     1      13.130  52.205  95.452  1.00  0.00    -0.044 N 
HETATM   10  C12 UNL     1      12.128  51.181  94.961  1.00  0.00     0.279 C 
HETATM   11  C13 UNL     1      14.363  51.537  95.148  1.00  0.00     0.279 C 
HETATM   12  C14 UNL     1      12.797  53.455  94.984  1.00  0.00     0.147 C 
ENDROOT
BRANCH  12  13
HETATM   13  C15 UNL     1      13.543  54.333  94.104  1.00  0.00     0.050 C 
BRANCH  13  14
HETATM   14  C16 UNL     1      13.506  54.283  92.664  1.00  0.00    -0.025 A 
HETATM   15  C17 UNL     1      14.642  54.506  91.871  1.00  0.00     0.051 A 
HETATM   16  C18 UNL     1      14.643  54.544  90.517  1.00  0.00     0.099 A 
HETATM   17  C19 UNL     1      13.458  54.353  89.849  1.00  0.00     0.099 A 
HETATM   18  C20 UNL     1      12.322  54.131  90.587  1.00  0.00     0.047 A 
HETATM   19  C21 UNL     1      12.338  54.092  91.981  1.00  0.00    -0.049 A 
HETATM   20  C22 UNL     1      11.016  53.749  92.599  1.00  0.00     0.049 C 
BRANCH  16  21
HETATM   21  O4  UNL     1      15.845  54.776  89.851  1.00  0.00    -0.358 OA
ATOM     22  H4  UNL     1      15.962  54.419  88.978  1.00  0.00     0.217 HD
ENDBRANCH  16  21
BRANCH  17  23
HETATM   23  O5  UNL     1      13.473  54.397  88.464  1.00  0.00    -0.358 OA
ATOM     24  H5  UNL     1      14.021  53.773  88.002  1.00  0.00     0.217 HD
ENDBRANCH  17  23
ENDBRANCH  13  14
ENDBRANCH  12  13
BRANCH   1  25
HETATM   25  O1  UNL     1      11.043  57.843  96.419  1.00  0.00    -0.353 OA
HETATM   26  C1  UNL     1      11.996  58.753  95.978  1.00  0.00     0.210 C 
ENDBRANCH   1  25
BRANCH   5  27
HETATM   27  O2  UNL     1      10.212  54.062  99.115  1.00  0.00    -0.352 OA
HETATM   28  C7  UNL     1      10.992  54.097 100.315  1.00  0.00     0.210 C 
ENDBRANCH   5  27
BRANCH   6  29
HETATM   29  O3  UNL     1       9.915  56.710  98.688  1.00  0.00    -0.351 OA
HETATM   30  C9  UNL     1       8.512  56.866  98.542  1.00  0.00     0.210 C 
ENDBRANCH   6  29
TORSDOF 7
ENDMDL
