MODEL 1
REMARK VINA RESULT: -7.859796190      0.000      0.000
REMARK  5 active torsions:
REMARK  status: ('A' for Active; 'I' for Inactive)
REMARK    1  A    between atoms: O1_2  and  C2_3 
REMARK    2  A    between atoms: C5_6  and  S1_7 
REMARK    3  A    between atoms: S1_7  and  N1_10 
REMARK    4  A    between atoms: N1_10  and  C7_12 
REMARK    5  A    between atoms: N3_18  and  C11_20 
ROOT
HETATM    1  C7  UNL     1      11.673  53.745  89.478  1.00  0.00     0.049 A 
HETATM    2  C8  UNL     1      10.395  53.646  89.996  1.00  0.00     0.047 A 
HETATM    3  C9  UNL     1       9.374  53.181  89.192  1.00  0.00     0.092 A 
HETATM    4  N2  UNL     1       9.568  52.810  87.896  1.00  0.00    -0.352 N 
ATOM      5  H2  UNL     1       8.791  52.470  87.328  1.00  0.00     0.166 HD
HETATM    6  C10 UNL     1      10.804  52.901  87.382  1.00  0.00     0.107 A 
HETATM    7  N3  UNL     1      10.972  52.547  86.158  1.00  0.00    -0.342 N 
ATOM      8  H3  UNL     1      10.156  52.216  85.643  1.00  0.00     0.167 HD
HETATM    9  C18 UNL     1      11.834  53.363  88.168  1.00  0.00     0.078 A 
ENDROOT
BRANCH   1  10
HETATM   10  N1  UNL     1      12.714  54.224  90.317  1.00  0.00    -0.276 N 
HETATM   11  C6  UNL     1      13.436  55.401  89.874  1.00  0.00     0.170 C 
BRANCH  10  12
HETATM   12  S1  UNL     1      13.145  53.482  91.809  1.00  0.00     0.264 S 
HETATM   13  O2  UNL     1      12.808  52.000  91.799  1.00  0.00    -0.200 OA
HETATM   14  O3  UNL     1      14.639  53.585  91.946  1.00  0.00    -0.200 OA
BRANCH  12  15
HETATM   15  C5  UNL     1      12.319  54.288  93.122  1.00  0.00     0.080 A 
HETATM   16  C4  UNL     1      10.991  54.009  93.439  1.00  0.00     0.028 A 
HETATM   17  C3  UNL     1      10.337  54.645  94.478  1.00  0.00     0.038 A 
HETATM   18  C2  UNL     1      10.999  55.594  95.245  1.00  0.00     0.068 A 
HETATM   19  C20 UNL     1      12.319  55.862  94.920  1.00  0.00     0.038 A 
HETATM   20  C19 UNL     1      12.965  55.228  93.886  1.00  0.00     0.028 A 
BRANCH  18  21
HETATM   21  O1  UNL     1      10.424  56.270  96.291  1.00  0.00    -0.356 OA
HETATM   22  C1  UNL     1      10.185  57.645  96.351  1.00  0.00     0.210 C 
ENDBRANCH  18  21
ENDBRANCH  12  15
ENDBRANCH  10  12
ENDBRANCH   1  10
BRANCH   7  23
HETATM   23  C11 UNL     1      12.209  52.585  85.476  1.00  0.00     0.034 A 
HETATM   24  C12 UNL     1      13.154  53.518  85.760  1.00  0.00     0.032 A 
HETATM   25  C13 UNL     1      14.366  53.540  85.078  1.00  0.00     0.034 A 
HETATM   26  C14 UNL     1      14.647  52.610  84.086  1.00  0.00     0.059 A 
HETATM   27  N4  UNL     1      15.700  52.395  83.282  1.00  0.00    -0.300 N 
HETATM   28  C16 UNL     1      13.678  51.670  83.809  1.00  0.00     0.011 A 
HETATM   29  N5  UNL     1      15.420  51.358  82.519  1.00  0.00    -0.311 N 
ATOM     30  H4  UNL     1      16.564  52.937  83.265  1.00  0.00     0.187 HD
HETATM   31  C15 UNL     1      14.186  50.875  82.803  1.00  0.00     0.120 A 
ATOM     32  H5  UNL     1      16.046  50.972  81.812  1.00  0.00     0.186 HD
HETATM   33  C17 UNL     1      12.457  51.645  84.493  1.00  0.00     0.044 A 
ENDBRANCH   7  23
TORSDOF 5
ENDMDL
MODEL 2
REMARK VINA RESULT: -7.770159095      1.666      2.497
REMARK  5 active torsions:
REMARK  status: ('A' for Active; 'I' for Inactive)
REMARK    1  A    between atoms: O1_2  and  C2_3 
REMARK    2  A    between atoms: C5_6  and  S1_7 
REMARK    3  A    between atoms: S1_7  and  N1_10 
REMARK    4  A    between atoms: N1_10  and  C7_12 
REMARK    5  A    between atoms: N3_18  and  C11_20 
ROOT
HETATM    1  C7  UNL     1      12.811  53.701  90.198  1.00  0.00     0.049 A 
HETATM    2  C8  UNL     1      13.328  54.792  90.873  1.00  0.00     0.047 A 
HETATM    3  C9  UNL     1      13.951  55.795  90.159  1.00  0.00     0.092 A 
HETATM    4  N2  UNL     1      14.082  55.762  88.803  1.00  0.00    -0.352 N 
ATOM      5  H2  UNL     1      14.549  56.521  88.306  1.00  0.00     0.166 HD
HETATM    6  C10 UNL     1      13.584  54.709  88.138  1.00  0.00     0.107 A 
HETATM    7  N3  UNL     1      13.715  54.692  86.859  1.00  0.00    -0.342 N 
ATOM      8  H3  UNL     1      14.190  55.480  86.420  1.00  0.00     0.167 HD
HETATM    9  C18 UNL     1      12.961  53.699  88.832  1.00  0.00     0.078 A 
ENDROOT
BRANCH   1  10
HETATM   10  N1  UNL     1      12.172  52.676  90.946  1.00  0.00    -0.276 N 
HETATM   11  C6  UNL     1      11.085  51.965  90.303  1.00  0.00     0.170 C 
BRANCH  10  12
HETATM   12  S1  UNL     1      12.626  52.253  92.551  1.00  0.00     0.264 S 
HETATM   13  O2  UNL     1      11.912  50.991  93.006  1.00  0.00    -0.200 OA
HETATM   14  O3  UNL     1      14.096  51.936  92.533  1.00  0.00    -0.200 OA
BRANCH  12  15
HETATM   15  C5  UNL     1      12.266  53.582  93.629  1.00  0.00     0.080 A 
HETATM   16  C4  UNL     1      10.960  54.007  93.865  1.00  0.00     0.028 A 
HETATM   17  C3  UNL     1      10.673  55.057  94.718  1.00  0.00     0.038 A 
HETATM   18  C2  UNL     1      11.698  55.726  95.372  1.00  0.00     0.068 A 
HETATM   19  C20 UNL     1      12.993  55.294  95.130  1.00  0.00     0.038 A 
HETATM   20  C19 UNL     1      13.272  54.250  94.282  1.00  0.00     0.028 A 
BRANCH  18  21
HETATM   21  O1  UNL     1      11.500  56.775  96.233  1.00  0.00    -0.356 OA
HETATM   22  C1  UNL     1      11.501  58.131  95.893  1.00  0.00     0.210 C 
ENDBRANCH  18  21
ENDBRANCH  12  15
ENDBRANCH  10  12
ENDBRANCH   1  10
BRANCH   7  23
HETATM   23  C11 UNL     1      13.246  53.656  86.020  1.00  0.00     0.034 A 
HETATM   24  C12 UNL     1      11.994  53.145  86.146  1.00  0.00     0.032 A 
HETATM   25  C13 UNL     1      11.549  52.126  85.312  1.00  0.00     0.034 A 
HETATM   26  C14 UNL     1      12.370  51.599  84.323  1.00  0.00     0.059 A 
HETATM   27  N4  UNL     1      12.216  50.639  83.398  1.00  0.00    -0.300 N 
HETATM   28  C16 UNL     1      13.637  52.129  84.208  1.00  0.00     0.011 A 
HETATM   29  N5  UNL     1      13.339  50.554  82.714  1.00  0.00    -0.311 N 
ATOM     30  H4  UNL     1      11.379  50.075  83.250  1.00  0.00     0.187 HD
HETATM   31  C15 UNL     1      14.248  51.450  83.173  1.00  0.00     0.120 A 
ATOM     32  H5  UNL     1      13.503  49.904  81.945  1.00  0.00     0.186 HD
HETATM   33  C17 UNL     1      14.088  53.154  85.046  1.00  0.00     0.044 A 
ENDBRANCH   7  23
TORSDOF 5
ENDMDL
MODEL 3
REMARK VINA RESULT: -7.477900385      4.754      6.763
REMARK  5 active torsions:
REMARK  status: ('A' for Active; 'I' for Inactive)
REMARK    1  A    between atoms: O1_2  and  C2_3 
REMARK    2  A    between atoms: C5_6  and  S1_7 
REMARK    3  A    between atoms: S1_7  and  N1_10 
REMARK    4  A    between atoms: N1_10  and  C7_12 
REMARK    5  A    between atoms: N3_18  and  C11_20 
ROOT
HETATM    1  C7  UNL     1      11.182  50.860  87.746  1.00  0.00     0.049 A 
HETATM    2  C8  UNL     1      10.845  51.702  88.789  1.00  0.00     0.047 A 
HETATM    3  C9  UNL     1      11.231  53.026  88.739  1.00  0.00     0.092 A 
HETATM    4  N2  UNL     1      11.936  53.550  87.698  1.00  0.00    -0.352 N 
ATOM      5  H2  UNL     1      12.206  54.534  87.692  1.00  0.00     0.166 HD
HETATM    6  C10 UNL     1      12.268  52.741  86.680  1.00  0.00     0.107 A 
HETATM    7  N3  UNL     1      12.933  53.249  85.704  1.00  0.00    -0.342 N 
ATOM      8  H3  UNL     1      13.173  54.239  85.757  1.00  0.00     0.167 HD
HETATM    9  C18 UNL     1      11.893  51.419  86.712  1.00  0.00     0.078 A 
ENDROOT
BRANCH   1  10
HETATM   10  N1  UNL     1      10.777  49.499  87.810  1.00  0.00    -0.276 N 
HETATM   11  C6  UNL     1       9.599  49.194  88.598  1.00  0.00     0.170 C 
BRANCH  10  12
HETATM   12  S1  UNL     1      11.610  48.225  87.008  1.00  0.00     0.264 S 
HETATM   13  O2  UNL     1      10.801  46.939  87.038  1.00  0.00    -0.200 OA
HETATM   14  O3  UNL     1      11.746  48.618  85.563  1.00  0.00    -0.200 OA
BRANCH  12  15
HETATM   15  C5  UNL     1      13.170  47.983  87.760  1.00  0.00     0.080 A 
HETATM   16  C4  UNL     1      14.276  47.542  87.037  1.00  0.00     0.028 A 
HETATM   17  C3  UNL     1      15.511  47.352  87.630  1.00  0.00     0.038 A 
HETATM   18  C2  UNL     1      15.682  47.600  88.985  1.00  0.00     0.068 A 
HETATM   19  C20 UNL     1      14.574  48.039  89.693  1.00  0.00     0.038 A 
HETATM   20  C19 UNL     1      13.349  48.227  89.099  1.00  0.00     0.028 A 
BRANCH  18  21
HETATM   21  O1  UNL     1      16.871  47.437  89.649  1.00  0.00    -0.356 OA
HETATM   22  C1  UNL     1      17.433  46.220  90.045  1.00  0.00     0.210 C 
ENDBRANCH  18  21
ENDBRANCH  12  15
ENDBRANCH  10  12
ENDBRANCH   1  10
BRANCH   7  23
HETATM   23  C11 UNL     1      13.356  52.531  84.563  1.00  0.00     0.034 A 
HETATM   24  C12 UNL     1      12.521  51.692  83.896  1.00  0.00     0.032 A 
HETATM   25  C13 UNL     1      12.954  50.992  82.775  1.00  0.00     0.034 A 
HETATM   26  C14 UNL     1      14.253  51.130  82.303  1.00  0.00     0.059 A 
HETATM   27  N4  UNL     1      14.932  50.595  81.275  1.00  0.00    -0.300 N 
HETATM   28  C16 UNL     1      15.087  51.984  82.990  1.00  0.00     0.011 A 
HETATM   29  N5  UNL     1      16.154  51.088  81.300  1.00  0.00    -0.311 N 
ATOM     30  H4  UNL     1      14.567  49.928  80.596  1.00  0.00     0.187 HD
HETATM   31  C15 UNL     1      16.303  51.948  82.337  1.00  0.00     0.120 A 
ATOM     32  H5  UNL     1      16.887  50.854  80.630  1.00  0.00     0.186 HD
HETATM   33  C17 UNL     1      14.655  52.690  84.119  1.00  0.00     0.044 A 
ENDBRANCH   7  23
TORSDOF 5
ENDMDL
MODEL 4
REMARK VINA RESULT: -7.458401962      3.084      6.125
REMARK  5 active torsions:
REMARK  status: ('A' for Active; 'I' for Inactive)
REMARK    1  A    between atoms: O1_2  and  C2_3 
REMARK    2  A    between atoms: C5_6  and  S1_7 
REMARK    3  A    between atoms: S1_7  and  N1_10 
REMARK    4  A    between atoms: N1_10  and  C7_12 
REMARK    5  A    between atoms: N3_18  and  C11_20 
ROOT
HETATM    1  C7  UNL     1      12.189  53.186  89.816  1.00  0.00     0.049 A 
HETATM    2  C8  UNL     1      12.571  54.181  90.696  1.00  0.00     0.047 A 
HETATM    3  C9  UNL     1      13.339  55.231  90.236  1.00  0.00     0.092 A 
HETATM    4  N2  UNL     1      13.742  55.337  88.938  1.00  0.00    -0.352 N 
ATOM      5  H2  UNL     1      14.308  56.128  88.631  1.00  0.00     0.166 HD
HETATM    6  C10 UNL     1      13.375  54.377  88.075  1.00  0.00     0.107 A 
HETATM    7  N3  UNL     1      13.762  54.491  86.855  1.00  0.00    -0.342 N 
ATOM      8  H3  UNL     1      14.326  55.303  86.609  1.00  0.00     0.167 HD
HETATM    9  C18 UNL     1      12.612  53.322  88.516  1.00  0.00     0.078 A 
ENDROOT
BRANCH   1  10
HETATM   10  N1  UNL     1      11.398  52.111  90.304  1.00  0.00    -0.276 N 
HETATM   11  C6  UNL     1       9.961  52.302  90.332  1.00  0.00     0.170 C 
BRANCH  10  12
HETATM   12  S1  UNL     1      12.062  50.620  90.851  1.00  0.00     0.264 S 
HETATM   13  O2  UNL     1      13.291  50.853  91.714  1.00  0.00    -0.200 OA
HETATM   14  O3  UNL     1      11.033  49.966  91.730  1.00  0.00    -0.200 OA
BRANCH  12  15
HETATM   15  C5  UNL     1      12.464  49.620  89.474  1.00  0.00     0.080 A 
HETATM   16  C4  UNL     1      11.861  49.801  88.231  1.00  0.00     0.028 A 
HETATM   17  C3  UNL     1      12.178  49.013  87.140  1.00  0.00     0.038 A 
HETATM   18  C2  UNL     1      13.122  48.002  87.259  1.00  0.00     0.068 A 
HETATM   19  C20 UNL     1      13.715  47.832  88.500  1.00  0.00     0.038 A 
HETATM   20  C19 UNL     1      13.397  48.619  89.581  1.00  0.00     0.028 A 
BRANCH  18  21
HETATM   21  O1  UNL     1      13.494  47.176  86.229  1.00  0.00    -0.356 OA
HETATM   22  C1  UNL     1      14.240  46.000  86.344  1.00  0.00     0.210 C 
ENDBRANCH  18  21
ENDBRANCH  12  15
ENDBRANCH  10  12
ENDBRANCH   1  10
BRANCH   7  23
HETATM   23  C11 UNL     1      13.459  53.566  85.830  1.00  0.00     0.034 A 
HETATM   24  C12 UNL     1      12.217  53.036  85.689  1.00  0.00     0.032 A 
HETATM   25  C13 UNL     1      11.937  52.127  84.674  1.00  0.00     0.034 A 
HETATM   26  C14 UNL     1      12.919  51.733  83.774  1.00  0.00     0.059 A 
HETATM   27  N4  UNL     1      12.939  50.896  82.725  1.00  0.00    -0.300 N 
HETATM   28  C16 UNL     1      14.174  52.280  83.930  1.00  0.00     0.011 A 
HETATM   29  N5  UNL     1      14.158  50.904  82.226  1.00  0.00    -0.311 N 
ATOM     30  H4  UNL     1      12.151  50.350  82.376  1.00  0.00     0.187 HD
HETATM   31  C15 UNL     1      14.959  51.740  82.932  1.00  0.00     0.120 A 
ATOM     32  H5  UNL     1      14.459  50.357  81.419  1.00  0.00     0.186 HD
HETATM   33  C17 UNL     1      14.459  53.195  84.950  1.00  0.00     0.044 A 
ENDBRANCH   7  23
TORSDOF 5
ENDMDL
MODEL 5
REMARK VINA RESULT: -7.457358009      4.272      7.147
REMARK  5 active torsions:
REMARK  status: ('A' for Active; 'I' for Inactive)
REMARK    1  A    between atoms: O1_2  and  C2_3 
REMARK    2  A    between atoms: C5_6  and  S1_7 
REMARK    3  A    between atoms: S1_7  and  N1_10 
REMARK    4  A    between atoms: N1_10  and  C7_12 
REMARK    5  A    between atoms: N3_18  and  C11_20 
ROOT
HETATM    1  C7  UNL     1      11.299  50.712  87.905  1.00  0.00     0.049 A 
HETATM    2  C8  UNL     1      10.388  51.367  88.713  1.00  0.00     0.047 A 
HETATM    3  C9  UNL     1      10.164  52.715  88.523  1.00  0.00     0.092 A 
HETATM    4  N2  UNL     1      10.805  53.441  87.564  1.00  0.00    -0.352 N 
ATOM      5  H2  UNL     1      10.615  54.437  87.450  1.00  0.00     0.166 HD
HETATM    6  C10 UNL     1      11.690  52.816  86.774  1.00  0.00     0.107 A 
HETATM    7  N3  UNL     1      12.287  53.513  85.874  1.00  0.00    -0.342 N 
ATOM      8  H3  UNL     1      12.055  54.504  85.809  1.00  0.00     0.167 HD
HETATM    9  C18 UNL     1      11.928  51.472  86.949  1.00  0.00     0.078 A 
ENDROOT
BRANCH   1  10
HETATM   10  N1  UNL     1      11.520  49.324  88.111  1.00  0.00    -0.276 N 
HETATM   11  C6  UNL     1      10.806  48.402  87.248  1.00  0.00     0.170 C 
BRANCH  10  12
HETATM   12  S1  UNL     1      12.577  48.703  89.319  1.00  0.00     0.264 S 
HETATM   13  O2  UNL     1      13.057  49.807  90.246  1.00  0.00    -0.200 OA
HETATM   14  O3  UNL     1      11.781  47.745  90.162  1.00  0.00    -0.200 OA
BRANCH  12  15
HETATM   15  C5  UNL     1      13.936  47.912  88.554  1.00  0.00     0.080 A 
HETATM   16  C4  UNL     1      15.202  47.897  89.135  1.00  0.00     0.028 A 
HETATM   17  C3  UNL     1      16.278  47.272  88.532  1.00  0.00     0.038 A 
HETATM   18  C2  UNL     1      16.120  46.631  87.311  1.00  0.00     0.068 A 
HETATM   19  C20 UNL     1      14.856  46.653  86.743  1.00  0.00     0.038 A 
HETATM   20  C19 UNL     1      13.790  47.276  87.346  1.00  0.00     0.028 A 
BRANCH  18  21
HETATM   21  O1  UNL     1      17.133  45.988  86.646  1.00  0.00    -0.356 OA
HETATM   22  C1  UNL     1      16.982  44.979  85.691  1.00  0.00     0.210 C 
ENDBRANCH  18  21
ENDBRANCH  12  15
ENDBRANCH  10  12
ENDBRANCH   1  10
BRANCH   7  23
HETATM   23  C11 UNL     1      13.243  53.002  84.967  1.00  0.00     0.034 A 
HETATM   24  C12 UNL     1      14.523  53.454  84.947  1.00  0.00     0.032 A 
HETATM   25  C13 UNL     1      15.450  52.939  84.047  1.00  0.00     0.034 A 
HETATM   26  C14 UNL     1      15.096  51.947  83.142  1.00  0.00     0.059 A 
HETATM   27  N4  UNL     1      15.759  51.280  82.184  1.00  0.00    -0.300 N 
HETATM   28  C16 UNL     1      13.793  51.499  83.176  1.00  0.00     0.011 A 
HETATM   29  N5  UNL     1      14.916  50.437  81.624  1.00  0.00    -0.311 N 
ATOM     30  H4  UNL     1      16.740  51.405  81.934  1.00  0.00     0.187 HD
HETATM   31  C15 UNL     1      13.691  50.531  82.197  1.00  0.00     0.120 A 
ATOM     32  H5  UNL     1      15.153  49.799  80.863  1.00  0.00     0.186 HD
HETATM   33  C17 UNL     1      12.857  52.014  84.080  1.00  0.00     0.044 A 
ENDBRANCH   7  23
TORSDOF 5
ENDMDL
