MODEL 1
REMARK VINA RESULT: -8.681814906      0.000      0.000
REMARK  7 active torsions:
REMARK  status: ('A' for Active; 'I' for Inactive)
REMARK    1  A    between atoms: C4_4  and  O1_5 
REMARK    2  A    between atoms: N1_7  and  C5_8 
REMARK    3  A    between atoms: C5_8  and  C6_9 
REMARK    4  A    between atoms: C6_9  and  C7_10 
REMARK    5  A    between atoms: C7_10  and  C8_11 
REMARK    6  A    between atoms: C8_11  and  C9_12 
REMARK    7  A    between atoms: C22_27  and  O4_28 
ROOT
HETATM    1  C9  UNL     1      13.247 157.522  38.300  1.00  0.00     0.090 C 
HETATM    2  C10 UNL     1      12.184 156.761  38.987  1.00  0.00     0.263 C 
HETATM    3  O2  UNL     1      12.321 156.686  40.226  1.00  0.00    -0.265 OA
HETATM    4  O3  UNL     1      11.044 156.110  38.480  1.00  0.00    -0.313 OA
HETATM    5  C11 UNL     1      10.976 155.941  37.052  1.00  0.00     0.167 C 
HETATM    6  C12 UNL     1      10.141 154.842  36.524  1.00  0.00     0.043 C 
HETATM    7  C13 UNL     1      11.360 154.471  35.656  1.00  0.00     0.029 C 
HETATM    8  C14 UNL     1      11.375 155.140  34.347  1.00  0.00    -0.012 C 
HETATM    9  C15 UNL     1      10.084 155.821  33.944  1.00  0.00     0.010 C 
HETATM   10  C16 UNL     1      12.481 156.141  34.158  1.00  0.00     0.005 C 
HETATM   11  C17 UNL     1      13.723 155.812  34.937  1.00  0.00     0.013 C 
HETATM   12  C18 UNL     1      13.430 155.741  36.449  1.00  0.00    -0.006 C 
HETATM   13  C19 UNL     1      14.569 154.904  37.009  1.00  0.00     0.019 C 
HETATM   14  C20 UNL     1      13.636 157.140  36.949  1.00  0.00     0.006 C 
HETATM   15  C21 UNL     1      15.115 157.498  36.793  1.00  0.00     0.011 C 
HETATM   16  C22 UNL     1      12.175 155.066  36.733  1.00  0.00     0.096 C 
ENDROOT
BRANCH   1  17
HETATM   17  C8  UNL     1      12.695 158.957  38.277  1.00  0.00     0.015 C 
BRANCH  17  18
HETATM   18  C7  UNL     1      13.052 159.750  37.083  1.00  0.00     0.002 C 
BRANCH  18  19
HETATM   19  C6  UNL     1      13.354 161.211  37.455  1.00  0.00     0.020 C 
BRANCH  19  20
HETATM   20  C5  UNL     1      12.811 162.176  36.451  1.00  0.00     0.130 C 
BRANCH  20  21
HETATM   21  N1  UNL     1      13.732 163.267  36.209  1.00  0.00    -0.338 N 
HETATM   22  C4  UNL     1      13.904 163.851  35.012  1.00  0.00     0.142 A 
HETATM   23  C3  UNL     1      14.848 164.861  35.090  1.00  0.00     0.064 A 
HETATM   24  C2  UNL     1      15.246 164.864  36.413  1.00  0.00    -0.042 A 
HETATM   25  C1  UNL     1      16.261 165.787  36.986  1.00  0.00     0.049 C 
HETATM   26  C23 UNL     1      14.555 163.889  37.064  1.00  0.00     0.100 A 
BRANCH  22  27
HETATM   27  O1  UNL     1      13.245 163.519  33.825  1.00  0.00    -0.346 OA
ATOM     28  H1  UNL     1      13.464 162.751  33.311  1.00  0.00     0.219 HD
ENDBRANCH  22  27
ENDBRANCH  20  21
ENDBRANCH  19  20
ENDBRANCH  18  19
ENDBRANCH  17  18
ENDBRANCH   1  17
BRANCH  16  29
HETATM   29  O4  UNL     1      12.292 154.120  37.784  1.00  0.00    -0.386 OA
ATOM     30  H4  UNL     1      13.166 153.751  37.732  1.00  0.00     0.210 HD
ENDBRANCH  16  29
TORSDOF 7
ENDMDL
MODEL 2
REMARK VINA RESULT: -8.548053209      4.055      5.863
REMARK  7 active torsions:
REMARK  status: ('A' for Active; 'I' for Inactive)
REMARK    1  A    between atoms: C4_4  and  O1_5 
REMARK    2  A    between atoms: N1_7  and  C5_8 
REMARK    3  A    between atoms: C5_8  and  C6_9 
REMARK    4  A    between atoms: C6_9  and  C7_10 
REMARK    5  A    between atoms: C7_10  and  C8_11 
REMARK    6  A    between atoms: C8_11  and  C9_12 
REMARK    7  A    between atoms: C22_27  and  O4_28 
ROOT
HETATM    1  C9  UNL     1      11.884 156.929  38.560  1.00  0.00     0.090 C 
HETATM    2  C10 UNL     1      12.696 158.078  38.112  1.00  0.00     0.263 C 
HETATM    3  O2  UNL     1      12.188 159.193  38.353  1.00  0.00    -0.265 OA
HETATM    4  O3  UNL     1      13.945 158.126  37.465  1.00  0.00    -0.313 OA
HETATM    5  C11 UNL     1      14.447 156.886  36.935  1.00  0.00     0.167 C 
HETATM    6  C12 UNL     1      15.417 156.951  35.821  1.00  0.00     0.043 C 
HETATM    7  C13 UNL     1      14.526 155.908  35.119  1.00  0.00     0.029 C 
HETATM    8  C14 UNL     1      14.903 154.518  35.417  1.00  0.00    -0.012 C 
HETATM    9  C15 UNL     1      16.247 154.333  36.091  1.00  0.00     0.010 C 
HETATM   10  C16 UNL     1      13.895 153.744  36.222  1.00  0.00     0.005 C 
HETATM   11  C17 UNL     1      12.479 154.190  35.990  1.00  0.00     0.013 C 
HETATM   12  C18 UNL     1      12.297 155.679  36.347  1.00  0.00    -0.006 C 
HETATM   13  C19 UNL     1      11.052 156.094  35.581  1.00  0.00     0.019 C 
HETATM   14  C20 UNL     1      11.931 155.685  37.802  1.00  0.00     0.006 C 
HETATM   15  C21 UNL     1      10.566 155.014  37.962  1.00  0.00     0.011 C 
HETATM   16  C22 UNL     1      13.414 156.491  35.895  1.00  0.00     0.096 C 
ENDROOT
BRANCH   1  17
HETATM   17  C8  UNL     1      12.398 156.667  39.985  1.00  0.00     0.015 C 
BRANCH  17  18
HETATM   18  C7  UNL     1      11.717 157.431  41.051  1.00  0.00     0.002 C 
BRANCH  18  19
HETATM   19  C6  UNL     1      10.252 157.714  40.682  1.00  0.00     0.020 C 
BRANCH  19  20
HETATM   20  C5  UNL     1       9.466 158.238  41.841  1.00  0.00     0.130 C 
BRANCH  20  21
HETATM   21  N1  UNL     1      10.025 159.473  42.349  1.00  0.00    -0.338 N 
HETATM   22  C4  UNL     1      10.524 159.617  43.587  1.00  0.00     0.142 A 
HETATM   23  C3  UNL     1      10.985 160.908  43.783  1.00  0.00     0.064 A 
HETATM   24  C2  UNL     1      10.738 161.552  42.587  1.00  0.00    -0.042 A 
HETATM   25  C1  UNL     1      11.063 162.976  42.312  1.00  0.00     0.049 C 
HETATM   26  C23 UNL     1      10.156 160.659  41.740  1.00  0.00     0.100 A 
BRANCH  22  27
HETATM   27  O1  UNL     1      10.592 158.629  44.573  1.00  0.00    -0.346 OA
ATOM     28  H1  UNL     1      11.327 158.032  44.655  1.00  0.00     0.219 HD
ENDBRANCH  22  27
ENDBRANCH  20  21
ENDBRANCH  19  20
ENDBRANCH  18  19
ENDBRANCH  17  18
ENDBRANCH   1  17
BRANCH  16  29
HETATM   29  O4  UNL     1      12.993 157.683  35.251  1.00  0.00    -0.386 OA
ATOM     30  H4  UNL     1      12.046 157.719  35.319  1.00  0.00     0.210 HD
ENDBRANCH  16  29
TORSDOF 7
ENDMDL
MODEL 3
REMARK VINA RESULT: -8.350149214      2.589      9.348
REMARK  7 active torsions:
REMARK  status: ('A' for Active; 'I' for Inactive)
REMARK    1  A    between atoms: C4_4  and  O1_5 
REMARK    2  A    between atoms: N1_7  and  C5_8 
REMARK    3  A    between atoms: C5_8  and  C6_9 
REMARK    4  A    between atoms: C6_9  and  C7_10 
REMARK    5  A    between atoms: C7_10  and  C8_11 
REMARK    6  A    between atoms: C8_11  and  C9_12 
REMARK    7  A    between atoms: C22_27  and  O4_28 
ROOT
HETATM    1  C9  UNL     1      13.091 163.151  37.220  1.00  0.00     0.090 C 
HETATM    2  C10 UNL     1      12.733 163.634  38.569  1.00  0.00     0.263 C 
HETATM    3  O2  UNL     1      11.577 163.332  38.934  1.00  0.00    -0.265 OA
HETATM    4  O3  UNL     1      13.474 164.372  39.510  1.00  0.00    -0.313 OA
HETATM    5  C11 UNL     1      14.701 164.965  39.047  1.00  0.00     0.167 C 
HETATM    6  C12 UNL     1      15.217 166.145  39.771  1.00  0.00     0.043 C 
HETATM    7  C13 UNL     1      15.369 166.801  38.384  1.00  0.00     0.029 C 
HETATM    8  C14 UNL     1      16.680 166.563  37.762  1.00  0.00    -0.012 C 
HETATM    9  C15 UNL     1      17.746 165.996  38.677  1.00  0.00     0.010 C 
HETATM   10  C16 UNL     1      16.651 165.701  36.530  1.00  0.00     0.005 C 
HETATM   11  C17 UNL     1      15.371 165.817  35.751  1.00  0.00     0.013 C 
HETATM   12  C18 UNL     1      14.157 165.416  36.612  1.00  0.00    -0.006 C 
HETATM   13  C19 UNL     1      12.977 166.078  35.921  1.00  0.00     0.019 C 
HETATM   14  C20 UNL     1      14.006 163.938  36.403  1.00  0.00     0.006 C 
HETATM   15  C21 UNL     1      13.624 163.691  34.943  1.00  0.00     0.011 C 
HETATM   16  C22 UNL     1      14.251 165.932  37.967  1.00  0.00     0.096 C 
ENDROOT
BRANCH   1  17
HETATM   17  C8  UNL     1      13.719 161.775  37.493  1.00  0.00     0.015 C 
BRANCH  17  18
HETATM   18  C7  UNL     1      12.996 160.626  36.910  1.00  0.00     0.002 C 
BRANCH  18  19
HETATM   19  C6  UNL     1      12.990 159.426  37.873  1.00  0.00     0.020 C 
BRANCH  19  20
HETATM   20  C5  UNL     1      13.486 158.175  37.222  1.00  0.00     0.130 C 
BRANCH  20  21
HETATM   21  N1  UNL     1      12.426 157.201  37.064  1.00  0.00    -0.338 N 
HETATM   22  C4  UNL     1      12.031 156.359  38.033  1.00  0.00     0.142 A 
HETATM   23  C3  UNL     1      11.001 155.548  37.587  1.00  0.00     0.064 A 
HETATM   24  C2  UNL     1      10.786 155.942  36.282  1.00  0.00    -0.042 A 
HETATM   25  C1  UNL     1       9.765 155.350  35.378  1.00  0.00     0.049 C 
HETATM   26  C23 UNL     1      11.663 156.942  35.993  1.00  0.00     0.100 A 
BRANCH  22  27
HETATM   27  O1  UNL     1      12.555 156.279  39.326  1.00  0.00    -0.346 OA
ATOM     28  H1  UNL     1      13.435 155.972  39.508  1.00  0.00     0.219 HD
ENDBRANCH  22  27
ENDBRANCH  20  21
ENDBRANCH  19  20
ENDBRANCH  18  19
ENDBRANCH  17  18
ENDBRANCH   1  17
BRANCH  16  29
HETATM   29  O4  UNL     1      13.037 166.517  38.412  1.00  0.00    -0.386 OA
ATOM     30  H4  UNL     1      12.597 166.865  37.644  1.00  0.00     0.210 HD
ENDBRANCH  16  29
TORSDOF 7
ENDMDL
MODEL 4
REMARK VINA RESULT: -8.314858551      8.878     12.357
REMARK  7 active torsions:
REMARK  status: ('A' for Active; 'I' for Inactive)
REMARK    1  A    between atoms: C4_4  and  O1_5 
REMARK    2  A    between atoms: N1_7  and  C5_8 
REMARK    3  A    between atoms: C5_8  and  C6_9 
REMARK    4  A    between atoms: C6_9  and  C7_10 
REMARK    5  A    between atoms: C7_10  and  C8_11 
REMARK    6  A    between atoms: C8_11  and  C9_12 
REMARK    7  A    between atoms: C22_27  and  O4_28 
ROOT
HETATM    1  C9  UNL     1       3.081 152.769  33.425  1.00  0.00     0.090 C 
HETATM    2  C10 UNL     1       2.401 152.369  32.177  1.00  0.00     0.263 C 
HETATM    3  O2  UNL     1       2.622 153.123  31.205  1.00  0.00    -0.265 OA
HETATM    4  O3  UNL     1       1.550 151.284  31.898  1.00  0.00    -0.313 OA
HETATM    5  C11 UNL     1       1.056 150.542  33.029  1.00  0.00     0.167 C 
HETATM    6  C12 UNL     1      -0.207 149.791  32.866  1.00  0.00     0.043 C 
HETATM    7  C13 UNL     1      -0.651 150.454  34.185  1.00  0.00     0.029 C 
HETATM    8  C14 UNL     1      -0.298 149.677  35.382  1.00  0.00    -0.012 C 
HETATM    9  C15 UNL     1       0.152 148.253  35.129  1.00  0.00     0.010 C 
HETATM   10  C16 UNL     1       0.732 150.314  36.273  1.00  0.00     0.005 C 
HETATM   11  C17 UNL     1       0.704 151.816  36.237  1.00  0.00     0.013 C 
HETATM   12  C18 UNL     1       0.951 152.344  34.809  1.00  0.00    -0.006 C 
HETATM   13  C19 UNL     1       0.372 153.749  34.828  1.00  0.00     0.019 C 
HETATM   14  C20 UNL     1       2.440 152.492  34.705  1.00  0.00     0.006 C 
HETATM   15  C21 UNL     1       2.889 153.587  35.674  1.00  0.00     0.011 C 
HETATM   16  C22 UNL     1       0.246 151.564  33.807  1.00  0.00     0.096 C 
ENDROOT
BRANCH   1  17
HETATM   17  C8  UNL     1       4.416 152.009  33.358  1.00  0.00     0.015 C 
BRANCH  17  18
HETATM   18  C7  UNL     1       5.626 152.856  33.405  1.00  0.00     0.002 C 
BRANCH  18  19
HETATM   19  C6  UNL     1       6.370 152.689  34.740  1.00  0.00     0.020 C 
BRANCH  19  20
HETATM   20  C5  UNL     1       7.743 152.127  34.558  1.00  0.00     0.130 C 
BRANCH  20  21
HETATM   21  N1  UNL     1       8.751 153.166  34.578  1.00  0.00    -0.338 N 
HETATM   22  C4  UNL     1       9.862 153.148  33.825  1.00  0.00     0.142 A 
HETATM   23  C3  UNL     1      10.634 154.273  34.060  1.00  0.00     0.064 A 
HETATM   24  C2  UNL     1       9.927 154.988  35.007  1.00  0.00    -0.042 A 
HETATM   25  C1  UNL     1      10.364 156.287  35.583  1.00  0.00     0.049 C 
HETATM   26  C23 UNL     1       8.794 154.294  35.301  1.00  0.00     0.100 A 
BRANCH  22  27
HETATM   27  O1  UNL     1      10.230 152.152  32.915  1.00  0.00    -0.346 OA
ATOM     28  H1  UNL     1      10.839 151.456  33.130  1.00  0.00     0.219 HD
ENDBRANCH  22  27
ENDBRANCH  20  21
ENDBRANCH  19  20
ENDBRANCH  18  19
ENDBRANCH  17  18
ENDBRANCH   1  17
BRANCH  16  29
HETATM   29  O4  UNL     1      -0.422 152.378  32.856  1.00  0.00    -0.386 OA
ATOM     30  H4  UNL     1      -1.286 152.003  32.724  1.00  0.00     0.210 HD
ENDBRANCH  16  29
TORSDOF 7
ENDMDL
MODEL 5
REMARK VINA RESULT: -8.236815484      2.703      9.298
REMARK  7 active torsions:
REMARK  status: ('A' for Active; 'I' for Inactive)
REMARK    1  A    between atoms: C4_4  and  O1_5 
REMARK    2  A    between atoms: N1_7  and  C5_8 
REMARK    3  A    between atoms: C5_8  and  C6_9 
REMARK    4  A    between atoms: C6_9  and  C7_10 
REMARK    5  A    between atoms: C7_10  and  C8_11 
REMARK    6  A    between atoms: C8_11  and  C9_12 
REMARK    7  A    between atoms: C22_27  and  O4_28 
ROOT
HETATM    1  C9  UNL     1      13.007 163.058  37.293  1.00  0.00     0.090 C 
HETATM    2  C10 UNL     1      12.697 163.583  38.638  1.00  0.00     0.263 C 
HETATM    3  O2  UNL     1      11.564 163.276  39.064  1.00  0.00    -0.265 OA
HETATM    4  O3  UNL     1      13.464 164.368  39.520  1.00  0.00    -0.313 OA
HETATM    5  C11 UNL     1      14.659 164.964  38.983  1.00  0.00     0.167 C 
HETATM    6  C12 UNL     1      15.183 166.179  39.641  1.00  0.00     0.043 C 
HETATM    7  C13 UNL     1      15.264 166.786  38.227  1.00  0.00     0.029 C 
HETATM    8  C14 UNL     1      16.551 166.548  37.558  1.00  0.00    -0.012 C 
HETATM    9  C15 UNL     1      17.665 166.033  38.445  1.00  0.00     0.010 C 
HETATM   10  C16 UNL     1      16.487 165.641  36.359  1.00  0.00     0.005 C 
HETATM   11  C17 UNL     1      15.173 165.707  35.633  1.00  0.00     0.013 C 
HETATM   12  C18 UNL     1      14.004 165.316  36.560  1.00  0.00    -0.006 C 
HETATM   13  C19 UNL     1      12.783 165.932  35.896  1.00  0.00     0.019 C 
HETATM   14  C20 UNL     1      13.872 163.830  36.410  1.00  0.00     0.006 C 
HETATM   15  C21 UNL     1      13.433 163.523  34.977  1.00  0.00     0.011 C 
HETATM   16  C22 UNL     1      14.146 165.884  37.890  1.00  0.00     0.096 C 
ENDROOT
BRANCH   1  17
HETATM   17  C8  UNL     1      13.672 161.703  37.589  1.00  0.00     0.015 C 
BRANCH  17  18
HETATM   18  C7  UNL     1      13.041 160.537  36.937  1.00  0.00     0.002 C 
BRANCH  18  19
HETATM   19  C6  UNL     1      12.817 159.393  37.940  1.00  0.00     0.020 C 
BRANCH  19  20
HETATM   20  C5  UNL     1      13.374 158.094  37.452  1.00  0.00     0.130 C 
BRANCH  20  21
HETATM   21  N1  UNL     1      12.496 156.986  37.765  1.00  0.00    -0.338 N 
HETATM   22  C4  UNL     1      11.718 156.368  36.863  1.00  0.00     0.142 A 
HETATM   23  C3  UNL     1      10.992 155.350  37.457  1.00  0.00     0.064 A 
HETATM   24  C2  UNL     1      11.373 155.378  38.784  1.00  0.00    -0.042 A 
HETATM   25  C1  UNL     1      10.853 154.460  39.831  1.00  0.00     0.049 C 
HETATM   26  C23 UNL     1      12.282 156.378  38.940  1.00  0.00     0.100 A 
BRANCH  22  27
HETATM   27  O1  UNL     1      11.622 156.675  35.503  1.00  0.00    -0.346 OA
ATOM     28  H1  UNL     1      11.432 157.550  35.184  1.00  0.00     0.219 HD
ENDBRANCH  22  27
ENDBRANCH  20  21
ENDBRANCH  19  20
ENDBRANCH  18  19
ENDBRANCH  17  18
ENDBRANCH   1  17
BRANCH  16  29
HETATM   29  O4  UNL     1      12.941 166.464  38.365  1.00  0.00    -0.386 OA
ATOM     30  H4  UNL     1      12.238 165.858  38.158  1.00  0.00     0.210 HD
ENDBRANCH  16  29
TORSDOF 7
ENDMDL
