MODEL 1
REMARK VINA RESULT: -8.453872337      0.000      0.000
REMARK  7 active torsions:
REMARK  status: ('A' for Active; 'I' for Inactive)
REMARK       I    between atoms: C2_5  and  N3_6 
REMARK       I    between atoms: C2_5  and  N5_23 
REMARK    1  A    between atoms: N3_6  and  C3_8 
REMARK    2  A    between atoms: C3_8  and  C4_9 
REMARK    3  A    between atoms: C3_8  and  C5_14 
REMARK    4  A    between atoms: N4_10  and  O1_12 
REMARK    5  A    between atoms: C5_14  and  S1_15 
REMARK    6  A    between atoms: S1_15  and  C6_18 
REMARK    7  A    between atoms: N5_23  and  C10_25 
ROOT
HETATM    1  N1  UNL     1      11.602   3.568   1.616  1.00  0.00    -0.171 NA
HETATM    2  C1  UNL     1      10.891   3.441   2.511  1.00  0.00     0.196 C 
HETATM    3  N2  UNL     1      10.016   3.287   3.604  1.00  0.00    -0.126 N 
ATOM      4  H2  UNL     1      10.001   3.966   4.365  1.00  0.00     0.197 HD
HETATM    5  C2  UNL     1       9.237   2.264   3.615  1.00  0.00     0.683 C 
HETATM    6  N3  UNL     1       8.343   2.074   4.698  1.00  0.00    -0.216 N 
ATOM      7  H3  UNL     1       8.253   1.160   5.142  1.00  0.00     0.178 HD
HETATM    8  N5  UNL     1       9.226   1.296   2.576  1.00  0.00    -0.221 N 
ATOM      9  H5  UNL     1       8.933   1.580   1.642  1.00  0.00     0.178 HD
ENDROOT
BRANCH   6  10
HETATM   10  C3  UNL     1       7.564   3.196   5.159  1.00  0.00     0.154 C 
BRANCH  10  11
HETATM   11  C4  UNL     1       6.560   2.788   6.154  1.00  0.00     0.113 C 
HETATM   12  N4  UNL     1       6.621   3.235   7.344  1.00  0.00    -0.282 N 
ATOM     13  H4  UNL     1       5.925   2.953   8.034  1.00  0.00     0.192 HD
BRANCH  12  14
HETATM   14  O1  UNL     1       7.623   4.094   7.692  1.00  0.00    -0.290 OA
ATOM     15  H1  UNL     1       8.432   3.750   8.051  1.00  0.00     0.244 HD
ENDBRANCH  12  14
ENDBRANCH  10  11
BRANCH  10  16
HETATM   16  C5  UNL     1       6.955   3.851   3.945  1.00  0.00     0.177 C 
BRANCH  16  17
HETATM   17  S1  UNL     1       6.102   5.347   4.372  1.00  0.00     0.184 S 
HETATM   18  O2  UNL     1       4.623   5.152   4.469  1.00  0.00    -0.222 OA
HETATM   19  O3  UNL     1       6.691   5.940   5.618  1.00  0.00    -0.222 OA
BRANCH  17  20
HETATM   20  C6  UNL     1       6.376   6.521   3.078  1.00  0.00     0.099 A 
HETATM   21  C7  UNL     1       5.445   7.076   2.239  1.00  0.00     0.031 A 
HETATM   22  C8  UNL     1       5.880   7.951   1.325  1.00  0.00     0.009 A 
HETATM   23  C9  UNL     1       7.225   8.218   1.305  1.00  0.00     0.051 A 
HETATM   24  S2  UNL     1       7.831   7.241   2.560  1.00  0.00    -0.090 SA
ENDBRANCH  17  20
ENDBRANCH  16  17
ENDBRANCH  10  16
ENDBRANCH   6  10
BRANCH   8  25
HETATM   25  C10 UNL     1       9.620  -0.082   2.800  1.00  0.00     0.099 C 
HETATM   26  C11 UNL     1      10.663  -0.420   1.731  1.00  0.00     0.026 C 
HETATM   27  C12 UNL     1      11.151  -1.835   1.870  1.00  0.00     0.002 C 
HETATM   28  C13 UNL     1      10.350  -2.630   2.859  1.00  0.00     0.000 C 
HETATM   29  C14 UNL     1       8.872  -2.430   2.745  1.00  0.00     0.002 C 
HETATM   30  C15 UNL     1       8.457  -1.005   2.573  1.00  0.00     0.026 C 
ENDBRANCH   8  25
TORSDOF 7
ENDMDL
MODEL 2
REMARK VINA RESULT: -8.261334315      1.421      1.714
REMARK  7 active torsions:
REMARK  status: ('A' for Active; 'I' for Inactive)
REMARK       I    between atoms: C2_5  and  N3_6 
REMARK       I    between atoms: C2_5  and  N5_23 
REMARK    1  A    between atoms: N3_6  and  C3_8 
REMARK    2  A    between atoms: C3_8  and  C4_9 
REMARK    3  A    between atoms: C3_8  and  C5_14 
REMARK    4  A    between atoms: N4_10  and  O1_12 
REMARK    5  A    between atoms: C5_14  and  S1_15 
REMARK    6  A    between atoms: S1_15  and  C6_18 
REMARK    7  A    between atoms: N5_23  and  C10_25 
ROOT
HETATM    1  N1  UNL     1      11.006   3.621   1.950  1.00  0.00    -0.171 NA
HETATM    2  C1  UNL     1      10.211   3.588   2.781  1.00  0.00     0.196 C 
HETATM    3  N2  UNL     1       9.234   3.549   3.795  1.00  0.00    -0.126 N 
ATOM      4  H2  UNL     1       9.246   4.220   4.562  1.00  0.00     0.197 HD
HETATM    5  C2  UNL     1       8.326   2.641   3.724  1.00  0.00     0.683 C 
HETATM    6  N3  UNL     1       7.326   2.569   4.726  1.00  0.00    -0.216 N 
ATOM      7  H3  UNL     1       7.077   1.674   5.147  1.00  0.00     0.178 HD
HETATM    8  N5  UNL     1       8.274   1.688   2.674  1.00  0.00    -0.221 N 
ATOM      9  H5  UNL     1       8.101   2.012   1.723  1.00  0.00     0.178 HD
ENDROOT
BRANCH   6  10
HETATM   10  C3  UNL     1       6.668   3.784   5.139  1.00  0.00     0.154 C 
BRANCH  10  11
HETATM   11  C4  UNL     1       5.556   3.513   6.061  1.00  0.00     0.113 C 
HETATM   12  N4  UNL     1       5.530   4.061   7.210  1.00  0.00    -0.282 N 
ATOM     13  H4  UNL     1       4.758   3.874   7.849  1.00  0.00     0.192 HD
BRANCH  12  14
HETATM   14  O1  UNL     1       6.541   4.900   7.581  1.00  0.00    -0.290 OA
ATOM     15  H1  UNL     1       7.286   5.020   7.005  1.00  0.00     0.244 HD
ENDBRANCH  12  14
ENDBRANCH  10  11
BRANCH  10  16
HETATM   16  C5  UNL     1       6.233   4.506   3.889  1.00  0.00     0.177 C 
BRANCH  16  17
HETATM   17  S1  UNL     1       6.768   6.198   3.895  1.00  0.00     0.184 S 
HETATM   18  O2  UNL     1       6.836   6.769   5.275  1.00  0.00    -0.222 OA
HETATM   19  O3  UNL     1       8.063   6.333   3.149  1.00  0.00    -0.222 OA
BRANCH  17  20
HETATM   20  C6  UNL     1       5.573   7.154   3.008  1.00  0.00     0.099 A 
HETATM   21  C7  UNL     1       5.552   7.433   1.667  1.00  0.00     0.031 A 
HETATM   22  C8  UNL     1       4.544   8.182   1.207  1.00  0.00     0.009 A 
HETATM   23  C9  UNL     1       3.614   8.609   2.120  1.00  0.00     0.051 A 
HETATM   24  S2  UNL     1       4.181   7.950   3.584  1.00  0.00    -0.090 SA
ENDBRANCH  17  20
ENDBRANCH  16  17
ENDBRANCH  10  16
ENDBRANCH   6  10
BRANCH   8  25
HETATM   25  C10 UNL     1       8.458   0.268   2.908  1.00  0.00     0.099 C 
HETATM   26  C11 UNL     1       9.548  -0.199   1.939  1.00  0.00     0.026 C 
HETATM   27  C12 UNL     1       9.830  -1.667   2.098  1.00  0.00     0.002 C 
HETATM   28  C13 UNL     1       8.837  -2.355   2.989  1.00  0.00     0.000 C 
HETATM   29  C14 UNL     1       7.417  -1.959   2.735  1.00  0.00     0.002 C 
HETATM   30  C15 UNL     1       7.211  -0.491   2.551  1.00  0.00     0.026 C 
ENDBRANCH   8  25
TORSDOF 7
ENDMDL
MODEL 3
REMARK VINA RESULT: -7.630495071      1.882      3.102
REMARK  7 active torsions:
REMARK  status: ('A' for Active; 'I' for Inactive)
REMARK       I    between atoms: C2_5  and  N3_6 
REMARK       I    between atoms: C2_5  and  N5_23 
REMARK    1  A    between atoms: N3_6  and  C3_8 
REMARK    2  A    between atoms: C3_8  and  C4_9 
REMARK    3  A    between atoms: C3_8  and  C5_14 
REMARK    4  A    between atoms: N4_10  and  O1_12 
REMARK    5  A    between atoms: C5_14  and  S1_15 
REMARK    6  A    between atoms: S1_15  and  C6_18 
REMARK    7  A    between atoms: N5_23  and  C10_25 
ROOT
HETATM    1  N1  UNL     1       7.186  -1.048   2.781  1.00  0.00    -0.171 NA
HETATM    2  C1  UNL     1       7.162   0.085   2.984  1.00  0.00     0.196 C 
HETATM    3  N2  UNL     1       7.133   1.470   3.235  1.00  0.00    -0.126 N 
ATOM      4  H2  UNL     1       6.250   1.974   3.300  1.00  0.00     0.197 HD
HETATM    5  C2  UNL     1       8.256   2.081   3.381  1.00  0.00     0.683 C 
HETATM    6  N3  UNL     1       8.269   3.475   3.634  1.00  0.00    -0.216 N 
ATOM      7  H3  UNL     1       8.900   4.090   3.121  1.00  0.00     0.178 HD
HETATM    8  N5  UNL     1       9.507   1.416   3.297  1.00  0.00    -0.221 N 
ATOM      9  H5  UNL     1       9.738   0.710   3.996  1.00  0.00     0.178 HD
ENDROOT
BRANCH   6  10
HETATM   10  C3  UNL     1       7.374   4.007   4.632  1.00  0.00     0.154 C 
BRANCH  10  11
HETATM   11  C4  UNL     1       6.874   2.956   5.530  1.00  0.00     0.113 C 
HETATM   12  N4  UNL     1       6.748   3.185   6.776  1.00  0.00    -0.282 N 
ATOM     13  H4  UNL     1       6.400   2.457   7.399  1.00  0.00     0.192 HD
BRANCH  12  14
HETATM   14  O1  UNL     1       7.079   4.413   7.273  1.00  0.00    -0.290 OA
ATOM     15  H1  UNL     1       6.698   5.193   6.889  1.00  0.00     0.244 HD
ENDBRANCH  12  14
ENDBRANCH  10  11
BRANCH  10  16
HETATM   16  C5  UNL     1       6.270   4.732   3.905  1.00  0.00     0.177 C 
BRANCH  16  17
HETATM   17  S1  UNL     1       5.921   6.303   4.652  1.00  0.00     0.184 S 
HETATM   18  O2  UNL     1       5.055   6.178   5.865  1.00  0.00    -0.222 OA
HETATM   19  O3  UNL     1       7.199   7.039   4.927  1.00  0.00    -0.222 OA
BRANCH  17  20
HETATM   20  C6  UNL     1       5.019   7.277   3.483  1.00  0.00     0.099 A 
HETATM   21  C7  UNL     1       3.922   8.063   3.717  1.00  0.00     0.031 A 
HETATM   22  C8  UNL     1       3.397   8.718   2.675  1.00  0.00     0.009 A 
HETATM   23  C9  UNL     1       4.004   8.546   1.457  1.00  0.00     0.051 A 
HETATM   24  S2  UNL     1       5.283   7.479   1.811  1.00  0.00    -0.090 SA
ENDBRANCH  17  20
ENDBRANCH  16  17
ENDBRANCH  10  16
ENDBRANCH   6  10
BRANCH   8  25
HETATM   25  C10 UNL     1      10.470   1.708   2.251  1.00  0.00     0.099 C 
HETATM   26  C11 UNL     1      11.296   0.434   2.048  1.00  0.00     0.026 C 
HETATM   27  C12 UNL     1      12.330   0.619   0.973  1.00  0.00     0.002 C 
HETATM   28  C13 UNL     1      12.454   2.046   0.525  1.00  0.00     0.000 C 
HETATM   29  C14 UNL     1      12.455   3.036   1.647  1.00  0.00     0.002 C 
HETATM   30  C15 UNL     1      11.427   2.775   2.699  1.00  0.00     0.026 C 
ENDBRANCH   8  25
TORSDOF 7
ENDMDL
MODEL 4
REMARK VINA RESULT: -7.618177763      3.562      7.760
REMARK  7 active torsions:
REMARK  status: ('A' for Active; 'I' for Inactive)
REMARK       I    between atoms: C2_5  and  N3_6 
REMARK       I    between atoms: C2_5  and  N5_23 
REMARK    1  A    between atoms: N3_6  and  C3_8 
REMARK    2  A    between atoms: C3_8  and  C4_9 
REMARK    3  A    between atoms: C3_8  and  C5_14 
REMARK    4  A    between atoms: N4_10  and  O1_12 
REMARK    5  A    between atoms: C5_14  and  S1_15 
REMARK    6  A    between atoms: S1_15  and  C6_18 
REMARK    7  A    between atoms: N5_23  and  C10_25 
ROOT
HETATM    1  N1  UNL     1       7.723   2.937   7.366  1.00  0.00    -0.171 NA
HETATM    2  C1  UNL     1       8.291   2.819   6.373  1.00  0.00     0.196 C 
HETATM    3  N2  UNL     1       8.984   2.672   5.156  1.00  0.00    -0.126 N 
ATOM      4  H2  UNL     1       9.965   2.394   5.140  1.00  0.00     0.197 HD
HETATM    5  C2  UNL     1       8.343   2.898   4.064  1.00  0.00     0.683 C 
HETATM    6  N3  UNL     1       9.006   2.761   2.819  1.00  0.00    -0.216 N 
ATOM      7  H3  UNL     1       8.911   3.476   2.099  1.00  0.00     0.178 HD
HETATM    8  N5  UNL     1       6.978   3.286   4.042  1.00  0.00    -0.221 N 
ATOM      9  H5  UNL     1       6.275   2.632   4.385  1.00  0.00     0.178 HD
ENDROOT
BRANCH   6  10
HETATM   10  C3  UNL     1       9.818   1.591   2.590  1.00  0.00     0.154 C 
BRANCH  10  11
HETATM   11  C4  UNL     1      11.018   1.907   1.803  1.00  0.00     0.113 C 
HETATM   12  N4  UNL     1      11.918   2.667   2.286  1.00  0.00    -0.282 N 
ATOM     13  H4  UNL     1      12.751   2.886   1.741  1.00  0.00     0.192 HD
BRANCH  12  14
HETATM   14  O1  UNL     1      11.762   3.186   3.539  1.00  0.00    -0.290 OA
ATOM     15  H1  UNL     1      11.559   4.107   3.644  1.00  0.00     0.244 HD
ENDBRANCH  12  14
ENDBRANCH  10  11
BRANCH  10  16
HETATM   16  C5  UNL     1       8.940   0.556   1.933  1.00  0.00     0.177 C 
BRANCH  16  17
HETATM   17  S1  UNL     1       8.961  -0.977   2.826  1.00  0.00     0.184 S 
HETATM   18  O2  UNL     1       9.557  -0.835   4.190  1.00  0.00    -0.222 OA
HETATM   19  O3  UNL     1       7.586  -1.577   2.855  1.00  0.00    -0.222 OA
BRANCH  17  20
HETATM   20  C6  UNL     1       9.987  -2.113   1.939  1.00  0.00     0.099 A 
HETATM   21  C7  UNL     1       9.861  -3.476   1.868  1.00  0.00     0.031 A 
HETATM   22  C8  UNL     1      10.758  -4.141   1.132  1.00  0.00     0.009 A 
HETATM   23  C9  UNL     1      11.730  -3.401   0.509  1.00  0.00     0.051 A 
HETATM   24  S2  UNL     1      11.357  -1.806   0.973  1.00  0.00    -0.090 SA
ENDBRANCH  17  20
ENDBRANCH  16  17
ENDBRANCH  10  16
ENDBRANCH   6  10
BRANCH   8  25
HETATM   25  C10 UNL     1       6.551   4.582   3.549  1.00  0.00     0.099 C 
HETATM   26  C11 UNL     1       7.667   5.572   3.892  1.00  0.00     0.026 C 
HETATM   27  C12 UNL     1       7.334   6.959   3.418  1.00  0.00     0.002 C 
HETATM   28  C13 UNL     1       5.917   7.083   2.936  1.00  0.00     0.000 C 
HETATM   29  C14 UNL     1       4.915   6.405   3.817  1.00  0.00     0.002 C 
HETATM   30  C15 UNL     1       5.324   5.046   4.281  1.00  0.00     0.026 C 
ENDBRANCH   8  25
TORSDOF 7
ENDMDL
MODEL 5
REMARK VINA RESULT: -7.533064867      2.756      4.616
REMARK  7 active torsions:
REMARK  status: ('A' for Active; 'I' for Inactive)
REMARK       I    between atoms: C2_5  and  N3_6 
REMARK       I    between atoms: C2_5  and  N5_23 
REMARK    1  A    between atoms: N3_6  and  C3_8 
REMARK    2  A    between atoms: C3_8  and  C4_9 
REMARK    3  A    between atoms: C3_8  and  C5_14 
REMARK    4  A    between atoms: N4_10  and  O1_12 
REMARK    5  A    between atoms: C5_14  and  S1_15 
REMARK    6  A    between atoms: S1_15  and  C6_18 
REMARK    7  A    between atoms: N5_23  and  C10_25 
ROOT
HETATM    1  N1  UNL     1       6.939  -1.650   2.658  1.00  0.00    -0.171 NA
HETATM    2  C1  UNL     1       7.068  -0.512   2.772  1.00  0.00     0.196 C 
HETATM    3  N2  UNL     1       7.227   0.880   2.915  1.00  0.00    -0.126 N 
ATOM      4  H2  UNL     1       6.419   1.500   2.957  1.00  0.00     0.197 HD
HETATM    5  C2  UNL     1       8.423   1.347   2.990  1.00  0.00     0.683 C 
HETATM    6  N3  UNL     1       8.624   2.742   3.133  1.00  0.00    -0.216 N 
ATOM      7  H3  UNL     1       9.314   3.229   2.562  1.00  0.00     0.178 HD
HETATM    8  N5  UNL     1       9.575   0.519   2.935  1.00  0.00    -0.221 N 
ATOM      9  H5  UNL     1       9.732  -0.157   3.683  1.00  0.00     0.178 HD
ENDROOT
BRANCH   6  10
HETATM   10  C3  UNL     1       7.835   3.461   4.103  1.00  0.00     0.154 C 
BRANCH  10  11
HETATM   11  C4  UNL     1       7.710   4.883   3.755  1.00  0.00     0.113 C 
HETATM   12  N4  UNL     1       6.564   5.386   3.520  1.00  0.00    -0.282 N 
ATOM     13  H4  UNL     1       6.476   6.373   3.279  1.00  0.00     0.192 HD
BRANCH  12  14
HETATM   14  O1  UNL     1       5.453   4.596   3.592  1.00  0.00    -0.290 OA
ATOM     15  H1  UNL     1       5.463   3.820   4.140  1.00  0.00     0.244 HD
ENDBRANCH  12  14
ENDBRANCH  10  11
BRANCH  10  16
HETATM   16  C5  UNL     1       8.470   3.240   5.453  1.00  0.00     0.177 C 
BRANCH  16  17
HETATM   17  S1  UNL     1       7.375   2.384   6.555  1.00  0.00     0.184 S 
HETATM   18  O2  UNL     1       6.374   1.546   5.828  1.00  0.00    -0.222 OA
HETATM   19  O3  UNL     1       8.165   1.599   7.561  1.00  0.00    -0.222 OA
BRANCH  17  20
HETATM   20  C6  UNL     1       6.460   3.593   7.466  1.00  0.00     0.099 A 
HETATM   21  C7  UNL     1       5.410   4.355   7.026  1.00  0.00     0.031 A 
HETATM   22  C8  UNL     1       4.863   5.214   7.894  1.00  0.00     0.009 A 
HETATM   23  C9  UNL     1       5.402   5.258   9.154  1.00  0.00     0.051 A 
HETATM   24  S2  UNL     1       6.650   4.102   9.081  1.00  0.00    -0.090 SA
ENDBRANCH  17  20
ENDBRANCH  16  17
ENDBRANCH  10  16
ENDBRANCH   6  10
BRANCH   8  25
HETATM   25  C10 UNL     1      10.535   0.602   1.851  1.00  0.00     0.099 C 
HETATM   26  C11 UNL     1      11.156  -0.791   1.708  1.00  0.00     0.026 C 
HETATM   27  C12 UNL     1      12.171  -0.827   0.600  1.00  0.00     0.002 C 
HETATM   28  C13 UNL     1      12.491   0.538   0.062  1.00  0.00     0.000 C 
HETATM   29  C14 UNL     1      12.676   1.580   1.120  1.00  0.00     0.002 C 
HETATM   30  C15 UNL     1      11.655   1.537   2.209  1.00  0.00     0.026 C 
ENDBRANCH   8  25
TORSDOF 7
ENDMDL
