MODEL 1
REMARK VINA RESULT: -6.680066807      0.000      0.000
REMARK  6 active torsions:
REMARK  status: ('A' for Active; 'I' for Inactive)
REMARK    1  A    between atoms: C3_3  and  C4_4 
REMARK       I    between atoms: C4_4  and  N1_6 
REMARK    2  A    between atoms: N1_6  and  N2_8 
REMARK    3  A    between atoms: C11_19  and  C12_20 
REMARK       I    between atoms: C12_20  and  N4_22 
REMARK    4  A    between atoms: N4_22  and  N5_24 
REMARK    5  A    between atoms: C13_26  and  C14_27 
REMARK    6  A    between atoms: C15_28  and  O3_29 
ROOT
HETATM    1  C1  UNL     1     -33.323  -9.063 -11.351  1.00  0.00     0.052 C 
HETATM    2  C2  UNL     1     -32.854  -8.227 -12.552  1.00  0.00    -0.005 A 
HETATM    3  C3  UNL     1     -33.728  -7.881 -13.542  1.00  0.00     0.116 A 
HETATM    4  N3  UNL     1     -33.267  -7.055 -14.489  1.00  0.00    -0.321 N 
ATOM      5  H3  UNL     1     -33.779  -6.693 -15.294  1.00  0.00     0.174 HD
HETATM    6  S1  UNL     1     -31.698  -6.746 -14.079  1.00  0.00    -0.008 SA
HETATM    7  C11 UNL     1     -31.592  -7.713 -12.616  1.00  0.00     0.099 A 
ENDROOT
BRANCH   7   8
HETATM    8  C12 UNL     1     -30.396  -7.832 -11.803  1.00  0.00     0.278 C 
HETATM    9  O2  UNL     1     -29.851  -8.985 -11.738  1.00  0.00    -0.265 OA
HETATM   10  N4  UNL     1     -29.783  -6.825 -11.086  1.00  0.00    -0.266 N 
ATOM     11  H4  UNL     1     -30.193  -5.891 -11.101  1.00  0.00     0.190 HD
BRANCH  10  12
HETATM   12  N5  UNL     1     -28.595  -7.041 -10.325  1.00  0.00    -0.307 N 
HETATM   13  C13 UNL     1     -28.676  -7.441  -9.115  1.00  0.00     0.141 C 
ATOM     14  H5  UNL     1     -27.682  -6.878 -10.748  1.00  0.00     0.186 HD
BRANCH  13  15
HETATM   15  C14 UNL     1     -27.478  -7.677  -8.296  1.00  0.00     0.106 A 
HETATM   16  C15 UNL     1     -26.885  -6.803  -7.412  1.00  0.00     0.173 A 
HETATM   17  N6  UNL     1     -25.827  -7.455  -6.900  1.00  0.00    -0.287 N 
HETATM   18  C16 UNL     1     -25.777  -8.684  -7.450  1.00  0.00     0.328 A 
ATOM     19  H6  UNL     1     -25.174  -7.084  -6.210  1.00  0.00     0.172 HD
HETATM   20  O4  UNL     1     -24.904  -9.579  -7.198  1.00  0.00    -0.246 OA
HETATM   21  N7  UNL     1     -26.790  -8.840  -8.317  1.00  0.00    -0.299 N 
HETATM   22  C17 UNL     1     -27.075 -10.024  -9.107  1.00  0.00     0.161 C 
BRANCH  16  23
HETATM   23  O3  UNL     1     -27.310  -5.502  -7.121  1.00  0.00    -0.344 OA
ATOM     24  H3  UNL     1     -27.837  -5.236  -6.377  1.00  0.00     0.219 HD
ENDBRANCH  16  23
ENDBRANCH  13  15
ENDBRANCH  10  12
ENDBRANCH   7   8
BRANCH   3  25
HETATM   25  C4  UNL     1     -35.115  -8.416 -13.754  1.00  0.00     0.287 C 
HETATM   26  O1  UNL     1     -35.319  -9.307 -14.601  1.00  0.00    -0.264 OA
HETATM   27  N1  UNL     1     -36.160  -7.896 -12.974  1.00  0.00    -0.265 N 
ATOM     28  H1  UNL     1     -35.985  -7.176 -12.273  1.00  0.00     0.190 HD
BRANCH  27  29
HETATM   29  N2  UNL     1     -37.451  -8.395 -13.185  1.00  0.00    -0.306 N 
HETATM   30  C5  UNL     1     -38.103  -9.171 -12.432  1.00  0.00     0.004 C 
HETATM   31  C6  UNL     1     -39.471  -9.561 -12.884  1.00  0.00     0.054 C 
HETATM   32  C10 UNL     1     -37.608  -9.706 -11.153  1.00  0.00     0.054 C 
HETATM   33  C7  UNL     1     -40.151 -10.279 -11.753  1.00  0.00     0.006 C 
HETATM   34  C8  UNL     1     -40.022  -9.445 -10.494  1.00  0.00     0.001 C 
HETATM   35  C9  UNL     1     -38.597  -9.321 -10.054  1.00  0.00     0.006 C 
ATOM     36  H2  UNL     1     -37.916  -8.100 -14.043  1.00  0.00     0.186 HD
ENDBRANCH  27  29
ENDBRANCH   3  25
TORSDOF 6
ENDMDL
MODEL 2
REMARK VINA RESULT: -6.481506442      1.292      1.418
REMARK  6 active torsions:
REMARK  status: ('A' for Active; 'I' for Inactive)
REMARK    1  A    between atoms: C3_3  and  C4_4 
REMARK       I    between atoms: C4_4  and  N1_6 
REMARK    2  A    between atoms: N1_6  and  N2_8 
REMARK    3  A    between atoms: C11_19  and  C12_20 
REMARK       I    between atoms: C12_20  and  N4_22 
REMARK    4  A    between atoms: N4_22  and  N5_24 
REMARK    5  A    between atoms: C13_26  and  C14_27 
REMARK    6  A    between atoms: C15_28  and  O3_29 
ROOT
HETATM    1  C1  UNL     1     -33.439  -9.002 -11.410  1.00  0.00     0.052 C 
HETATM    2  C2  UNL     1     -32.984  -8.057 -12.532  1.00  0.00    -0.005 A 
HETATM    3  C3  UNL     1     -33.865  -7.634 -13.484  1.00  0.00     0.116 A 
HETATM    4  N3  UNL     1     -33.418  -6.721 -14.355  1.00  0.00    -0.321 N 
ATOM      5  H3  UNL     1     -33.937  -6.295 -15.123  1.00  0.00     0.174 HD
HETATM    6  S1  UNL     1     -31.851  -6.431 -13.924  1.00  0.00    -0.008 SA
HETATM    7  C11 UNL     1     -31.728  -7.524 -12.553  1.00  0.00     0.099 A 
ENDROOT
BRANCH   7   8
HETATM    8  C12 UNL     1     -30.528  -7.701 -11.757  1.00  0.00     0.278 C 
HETATM    9  O2  UNL     1     -30.060  -8.886 -11.670  1.00  0.00    -0.265 OA
HETATM   10  N4  UNL     1     -29.836  -6.719 -11.079  1.00  0.00    -0.266 N 
ATOM     11  H4  UNL     1     -30.184  -5.761 -11.112  1.00  0.00     0.190 HD
BRANCH  10  12
HETATM   12  N5  UNL     1     -28.652  -6.994 -10.332  1.00  0.00    -0.307 N 
HETATM   13  C13 UNL     1     -28.736  -7.332  -9.104  1.00  0.00     0.141 C 
ATOM     14  H5  UNL     1     -27.738  -6.921 -10.780  1.00  0.00     0.186 HD
BRANCH  13  15
HETATM   15  C14 UNL     1     -27.541  -7.625  -8.298  1.00  0.00     0.106 A 
HETATM   16  C15 UNL     1     -26.910  -6.788  -7.405  1.00  0.00     0.173 A 
HETATM   17  N6  UNL     1     -25.872  -7.487  -6.912  1.00  0.00    -0.287 N 
HETATM   18  C16 UNL     1     -25.871  -8.707  -7.482  1.00  0.00     0.328 A 
ATOM     19  H6  UNL     1     -25.201  -7.150  -6.222  1.00  0.00     0.172 HD
HETATM   20  O4  UNL     1     -25.030  -9.637  -7.251  1.00  0.00    -0.246 OA
HETATM   21  N7  UNL     1     -26.896  -8.812  -8.343  1.00  0.00    -0.299 N 
HETATM   22  C17 UNL     1     -27.230  -9.972  -9.149  1.00  0.00     0.161 C 
BRANCH  16  23
HETATM   23  O3  UNL     1     -27.285  -5.477  -7.090  1.00  0.00    -0.344 OA
ATOM     24  H3  UNL     1     -27.345  -5.103  -6.219  1.00  0.00     0.219 HD
ENDBRANCH  16  23
ENDBRANCH  13  15
ENDBRANCH  10  12
ENDBRANCH   7   8
BRANCH   3  25
HETATM   25  C4  UNL     1     -35.247  -8.165 -13.740  1.00  0.00     0.287 C 
HETATM   26  O1  UNL     1     -36.244  -7.545 -13.322  1.00  0.00    -0.264 OA
HETATM   27  N1  UNL     1     -35.381  -9.362 -14.463  1.00  0.00    -0.265 N 
ATOM     28  H1  UNL     1     -34.562  -9.859 -14.813  1.00  0.00     0.190 HD
BRANCH  27  29
HETATM   29  N2  UNL     1     -36.672  -9.854 -14.689  1.00  0.00    -0.306 N 
HETATM   30  C5  UNL     1     -37.257 -10.780 -14.061  1.00  0.00     0.004 C 
HETATM   31  C6  UNL     1     -38.644 -11.121 -14.496  1.00  0.00     0.054 C 
HETATM   32  C10 UNL     1     -36.669 -11.532 -12.941  1.00  0.00     0.054 C 
HETATM   33  C7  UNL     1     -39.233 -12.064 -13.485  1.00  0.00     0.006 C 
HETATM   34  C8  UNL     1     -39.039 -11.482 -12.099  1.00  0.00     0.001 C 
HETATM   35  C9  UNL     1     -37.591 -11.397 -11.731  1.00  0.00     0.006 C 
ATOM     36  H2  UNL     1     -37.199  -9.416 -15.444  1.00  0.00     0.186 HD
ENDBRANCH  27  29
ENDBRANCH   3  25
TORSDOF 6
ENDMDL
MODEL 3
REMARK VINA RESULT: -6.424545168      1.635      2.169
REMARK  6 active torsions:
REMARK  status: ('A' for Active; 'I' for Inactive)
REMARK    1  A    between atoms: C3_3  and  C4_4 
REMARK       I    between atoms: C4_4  and  N1_6 
REMARK    2  A    between atoms: N1_6  and  N2_8 
REMARK    3  A    between atoms: C11_19  and  C12_20 
REMARK       I    between atoms: C12_20  and  N4_22 
REMARK    4  A    between atoms: N4_22  and  N5_24 
REMARK    5  A    between atoms: C13_26  and  C14_27 
REMARK    6  A    between atoms: C15_28  and  O3_29 
ROOT
HETATM    1  C1  UNL     1     -33.387  -8.943 -11.421  1.00  0.00     0.052 C 
HETATM    2  C2  UNL     1     -32.921  -8.028 -12.563  1.00  0.00    -0.005 A 
HETATM    3  C3  UNL     1     -33.794  -7.628 -13.534  1.00  0.00     0.116 A 
HETATM    4  N3  UNL     1     -33.337  -6.739 -14.424  1.00  0.00    -0.321 N 
ATOM      5  H3  UNL     1     -33.848  -6.332 -15.207  1.00  0.00     0.174 HD
HETATM    6  S1  UNL     1     -31.773  -6.441 -13.987  1.00  0.00    -0.008 SA
HETATM    7  C11 UNL     1     -31.664  -7.498 -12.588  1.00  0.00     0.099 A 
ENDROOT
BRANCH   7   8
HETATM    8  C12 UNL     1     -30.472  -7.657 -11.777  1.00  0.00     0.278 C 
HETATM    9  O2  UNL     1     -29.978  -8.832 -11.694  1.00  0.00    -0.265 OA
HETATM   10  N4  UNL     1     -29.810  -6.666 -11.080  1.00  0.00    -0.266 N 
ATOM     11  H4  UNL     1     -30.178  -5.716 -11.109  1.00  0.00     0.190 HD
BRANCH  10  12
HETATM   12  N5  UNL     1     -28.630  -6.923 -10.320  1.00  0.00    -0.307 N 
HETATM   13  C13 UNL     1     -28.724  -7.363  -9.125  1.00  0.00     0.141 C 
ATOM     14  H5  UNL     1     -27.712  -6.755 -10.731  1.00  0.00     0.186 HD
BRANCH  13  15
HETATM   15  C14 UNL     1     -27.534  -7.641  -8.307  1.00  0.00     0.106 A 
HETATM   16  C15 UNL     1     -26.918  -6.794  -7.413  1.00  0.00     0.173 A 
HETATM   17  N6  UNL     1     -25.879  -7.481  -6.906  1.00  0.00    -0.287 N 
HETATM   18  C16 UNL     1     -25.861  -8.704  -7.471  1.00  0.00     0.328 A 
ATOM     19  H6  UNL     1     -25.217  -7.136  -6.212  1.00  0.00     0.172 HD
HETATM   20  O4  UNL     1     -25.013  -9.625  -7.229  1.00  0.00    -0.246 OA
HETATM   21  N7  UNL     1     -26.878  -8.822  -8.341  1.00  0.00    -0.299 N 
HETATM   22  C17 UNL     1     -27.193  -9.988  -9.146  1.00  0.00     0.161 C 
BRANCH  16  23
HETATM   23  O3  UNL     1     -27.309  -5.486  -7.106  1.00  0.00    -0.344 OA
ATOM     24  H3  UNL     1     -27.906  -5.224  -6.415  1.00  0.00     0.219 HD
ENDBRANCH  16  23
ENDBRANCH  13  15
ENDBRANCH  10  12
ENDBRANCH   7   8
BRANCH   3  25
HETATM   25  C4  UNL     1     -35.174  -8.163 -13.788  1.00  0.00     0.287 C 
HETATM   26  O1  UNL     1     -35.329  -9.207 -14.449  1.00  0.00    -0.264 OA
HETATM   27  N1  UNL     1     -36.271  -7.465 -13.256  1.00  0.00    -0.265 N 
ATOM     28  H1  UNL     1     -36.137  -6.617 -12.705  1.00  0.00     0.190 HD
BRANCH  27  29
HETATM   29  N2  UNL     1     -37.554  -7.966 -13.506  1.00  0.00    -0.306 N 
HETATM   30  C5  UNL     1     -38.571  -7.314 -13.873  1.00  0.00     0.004 C 
HETATM   31  C6  UNL     1     -39.833  -8.086 -14.075  1.00  0.00     0.054 C 
HETATM   32  C10 UNL     1     -38.590  -5.862 -14.116  1.00  0.00     0.054 C 
HETATM   33  C7  UNL     1     -40.837  -7.178 -14.728  1.00  0.00     0.006 C 
HETATM   34  C8  UNL     1     -40.195  -6.525 -15.936  1.00  0.00     0.001 C 
HETATM   35  C9  UNL     1     -39.072  -5.617 -15.544  1.00  0.00     0.006 C 
ATOM     36  H2  UNL     1     -37.682  -8.969 -13.376  1.00  0.00     0.186 HD
ENDBRANCH  27  29
ENDBRANCH   3  25
TORSDOF 6
ENDMDL
MODEL 4
REMARK VINA RESULT: -6.318603187      4.381      4.808
REMARK  6 active torsions:
REMARK  status: ('A' for Active; 'I' for Inactive)
REMARK    1  A    between atoms: C3_3  and  C4_4 
REMARK       I    between atoms: C4_4  and  N1_6 
REMARK    2  A    between atoms: N1_6  and  N2_8 
REMARK    3  A    between atoms: C11_19  and  C12_20 
REMARK       I    between atoms: C12_20  and  N4_22 
REMARK    4  A    between atoms: N4_22  and  N5_24 
REMARK    5  A    between atoms: C13_26  and  C14_27 
REMARK    6  A    between atoms: C15_28  and  O3_29 
ROOT
HETATM    1  C1  UNL     1     -31.611  -3.672 -13.282  1.00  0.00     0.052 C 
HETATM    2  C2  UNL     1     -31.545  -5.025 -14.007  1.00  0.00    -0.005 A 
HETATM    3  C3  UNL     1     -32.345  -5.278 -15.083  1.00  0.00     0.116 A 
HETATM    4  N3  UNL     1     -32.141  -6.433 -15.726  1.00  0.00    -0.321 N 
ATOM      5  H3  UNL     1     -32.641  -6.780 -16.545  1.00  0.00     0.174 HD
HETATM    6  S1  UNL     1     -30.912  -7.179 -14.914  1.00  0.00    -0.008 SA
HETATM    7  C11 UNL     1     -30.618  -5.969 -13.674  1.00  0.00     0.099 A 
ENDROOT
BRANCH   7   8
HETATM    8  C12 UNL     1     -29.613  -6.096 -12.635  1.00  0.00     0.278 C 
HETATM    9  O2  UNL     1     -28.453  -5.624 -12.890  1.00  0.00    -0.265 OA
HETATM   10  N4  UNL     1     -29.778  -6.675 -11.394  1.00  0.00    -0.266 N 
ATOM     11  H4  UNL     1     -30.686  -7.075 -11.155  1.00  0.00     0.190 HD
BRANCH  10  12
HETATM   12  N5  UNL     1     -28.726  -6.737 -10.432  1.00  0.00    -0.307 N 
HETATM   13  C13 UNL     1     -28.691  -7.691  -9.585  1.00  0.00     0.141 C 
ATOM     14  H5  UNL     1     -28.002  -6.018 -10.422  1.00  0.00     0.186 HD
BRANCH  13  15
HETATM   15  C14 UNL     1     -27.625  -7.793  -8.577  1.00  0.00     0.106 A 
HETATM   16  C15 UNL     1     -27.358  -6.914  -7.551  1.00  0.00     0.173 A 
HETATM   17  N6  UNL     1     -26.300  -7.420  -6.894  1.00  0.00    -0.287 N 
HETATM   18  C16 UNL     1     -25.934  -8.567  -7.497  1.00  0.00     0.328 A 
ATOM     19  H6  UNL     1     -25.851  -7.006  -6.077  1.00  0.00     0.172 HD
HETATM   20  O4  UNL     1     -24.967  -9.320  -7.144  1.00  0.00    -0.246 OA
HETATM   21  N7  UNL     1     -26.742  -8.815  -8.541  1.00  0.00    -0.299 N 
HETATM   22  C17 UNL     1     -26.668  -9.954  -9.437  1.00  0.00     0.161 C 
BRANCH  16  23
HETATM   23  O3  UNL     1     -28.057  -5.736  -7.266  1.00  0.00    -0.344 OA
ATOM     24  H3  UNL     1     -27.688  -4.930  -6.926  1.00  0.00     0.219 HD
ENDBRANCH  16  23
ENDBRANCH  13  15
ENDBRANCH  10  12
ENDBRANCH   7   8
BRANCH   3  25
HETATM   25  C4  UNL     1     -33.511  -4.458 -15.557  1.00  0.00     0.287 C 
HETATM   26  O1  UNL     1     -33.375  -3.669 -16.512  1.00  0.00    -0.264 OA
HETATM   27  N1  UNL     1     -34.747  -4.611 -14.906  1.00  0.00    -0.265 N 
ATOM     28  H1  UNL     1     -34.855  -5.268 -14.134  1.00  0.00     0.190 HD
BRANCH  27  29
HETATM   29  N2  UNL     1     -35.825  -3.837 -15.350  1.00  0.00    -0.306 N 
HETATM   30  C5  UNL     1     -36.397  -2.898 -14.729  1.00  0.00     0.004 C 
HETATM   31  C6  UNL     1     -37.532  -2.221 -15.424  1.00  0.00     0.054 C 
HETATM   32  C10 UNL     1     -36.020  -2.433 -13.384  1.00  0.00     0.054 C 
HETATM   33  C7  UNL     1     -37.908  -1.004 -14.627  1.00  0.00     0.006 C 
HETATM   34  C8  UNL     1     -36.658  -0.196 -14.344  1.00  0.00     0.001 C 
HETATM   35  C9  UNL     1     -35.705  -0.940 -13.461  1.00  0.00     0.006 C 
ATOM     36  H2  UNL     1     -36.189  -4.055 -16.277  1.00  0.00     0.186 HD
ENDBRANCH  27  29
ENDBRANCH   3  25
TORSDOF 6
ENDMDL
MODEL 5
REMARK VINA RESULT: -6.243385249      2.153      2.934
REMARK  6 active torsions:
REMARK  status: ('A' for Active; 'I' for Inactive)
REMARK    1  A    between atoms: C3_3  and  C4_4 
REMARK       I    between atoms: C4_4  and  N1_6 
REMARK    2  A    between atoms: N1_6  and  N2_8 
REMARK    3  A    between atoms: C11_19  and  C12_20 
REMARK       I    between atoms: C12_20  and  N4_22 
REMARK    4  A    between atoms: N4_22  and  N5_24 
REMARK    5  A    between atoms: C13_26  and  C14_27 
REMARK    6  A    between atoms: C15_28  and  O3_29 
ROOT
HETATM    1  C1  UNL     1     -33.429  -8.965 -11.497  1.00  0.00     0.052 C 
HETATM    2  C2  UNL     1     -32.979  -7.974 -12.582  1.00  0.00    -0.005 A 
HETATM    3  C3  UNL     1     -33.861  -7.523 -13.520  1.00  0.00     0.116 A 
HETATM    4  N3  UNL     1     -33.419  -6.575 -14.355  1.00  0.00    -0.321 N 
ATOM      5  H3  UNL     1     -33.939  -6.125 -15.108  1.00  0.00     0.174 HD
HETATM    6  S1  UNL     1     -31.855  -6.289 -13.908  1.00  0.00    -0.008 SA
HETATM    7  C11 UNL     1     -31.728  -7.431 -12.579  1.00  0.00     0.099 A 
ENDROOT
BRANCH   7   8
HETATM    8  C12 UNL     1     -30.529  -7.628 -11.786  1.00  0.00     0.278 C 
HETATM    9  O2  UNL     1     -30.040  -8.808 -11.757  1.00  0.00    -0.265 OA
HETATM   10  N4  UNL     1     -29.858  -6.670 -11.054  1.00  0.00    -0.266 N 
ATOM     11  H4  UNL     1     -30.222  -5.717 -11.041  1.00  0.00     0.190 HD
BRANCH  10  12
HETATM   12  N5  UNL     1     -28.672  -6.963 -10.316  1.00  0.00    -0.307 N 
HETATM   13  C13 UNL     1     -28.753  -7.309  -9.090  1.00  0.00     0.141 C 
ATOM     14  H5  UNL     1     -27.760  -6.895 -10.767  1.00  0.00     0.186 HD
BRANCH  13  15
HETATM   15  C14 UNL     1     -27.558  -7.620  -8.292  1.00  0.00     0.106 A 
HETATM   16  C15 UNL     1     -26.913  -6.796  -7.396  1.00  0.00     0.173 A 
HETATM   17  N6  UNL     1     -25.881  -7.509  -6.913  1.00  0.00    -0.287 N 
HETATM   18  C16 UNL     1     -25.894  -8.725  -7.493  1.00  0.00     0.328 A 
ATOM     19  H6  UNL     1     -25.202  -7.185  -6.224  1.00  0.00     0.172 HD
HETATM   20  O4  UNL     1     -25.061  -9.665  -7.275  1.00  0.00    -0.246 OA
HETATM   21  N7  UNL     1     -26.924  -8.813  -8.350  1.00  0.00    -0.299 N 
HETATM   22  C17 UNL     1     -27.273  -9.963  -9.164  1.00  0.00     0.161 C 
BRANCH  16  23
HETATM   23  O3  UNL     1     -27.275  -5.485  -7.068  1.00  0.00    -0.344 OA
ATOM     24  H3  UNL     1     -27.124  -5.051  -6.237  1.00  0.00     0.219 HD
ENDBRANCH  16  23
ENDBRANCH  13  15
ENDBRANCH  10  12
ENDBRANCH   7   8
BRANCH   3  25
HETATM   25  C4  UNL     1     -35.238  -8.056 -13.801  1.00  0.00     0.287 C 
HETATM   26  O1  UNL     1     -36.239  -7.481 -13.332  1.00  0.00    -0.264 OA
HETATM   27  N1  UNL     1     -35.362  -9.201 -14.604  1.00  0.00    -0.265 N 
ATOM     28  H1  UNL     1     -34.539  -9.660 -14.994  1.00  0.00     0.190 HD
BRANCH  27  29
HETATM   29  N2  UNL     1     -36.648  -9.695 -14.852  1.00  0.00    -0.306 N 
HETATM   30  C5  UNL     1     -37.267  -9.696 -15.952  1.00  0.00     0.004 C 
HETATM   31  C6  UNL     1     -38.638 -10.286 -15.956  1.00  0.00     0.054 C 
HETATM   32  C10 UNL     1     -36.729  -9.162 -17.214  1.00  0.00     0.054 C 
HETATM   33  C7  UNL     1     -39.093 -10.401 -17.384  1.00  0.00     0.006 C 
HETATM   34  C8  UNL     1     -38.012 -11.094 -18.190  1.00  0.00     0.001 C 
HETATM   35  C9  UNL     1     -36.762 -10.273 -18.262  1.00  0.00     0.006 C 
ATOM     36  H2  UNL     1     -37.140 -10.099 -14.055  1.00  0.00     0.186 HD
ENDBRANCH  27  29
ENDBRANCH   3  25
TORSDOF 6
ENDMDL
