MODEL 1
REMARK VINA RESULT: -5.804000202      0.000      0.000
REMARK  8 active torsions:
REMARK  status: ('A' for Active; 'I' for Inactive)
REMARK    1  A    between atoms: C2_6  and  N4_7 
REMARK    2  A    between atoms: C3_11  and  N6_12 
REMARK    3  A    between atoms: N6_12  and  N7_14 
REMARK       I    between atoms: N7_14  and  C4_16 
REMARK       I    between atoms: C4_16  and  N11_30 
REMARK    4  A    between atoms: N8_17  and  N9_19 
REMARK    5  A    between atoms: N9_19  and  C5_21 
REMARK    6  A    between atoms: C5_21  and  C6_22 
REMARK    7  A    between atoms: C6_22  and  N10_23 
REMARK       I    between atoms: N10_23  and  C7_25 
REMARK    8  A    between atoms: C7_25  and  C8_27 
ROOT
HETATM    1  N1  UNL     1      13.715  15.624 -13.216  1.00  0.00    -0.169 NA
HETATM    2  C1  UNL     1      12.782  14.954 -13.292  1.00  0.00     0.221 C 
HETATM    3  N2  UNL     1      11.628  14.145 -13.403  1.00  0.00     0.002 N 
HETATM    4  N3  UNL     1      11.341  13.037 -12.739  1.00  0.00    -0.100 N 
ATOM      5  H3  UNL     1      11.930  12.599 -12.031  1.00  0.00     0.207 HD
HETATM    6  C2  UNL     1      10.149  12.585 -13.146  1.00  0.00     0.728 A 
HETATM    7  N5  UNL     1       9.667  13.435 -14.100  1.00  0.00     0.206 N 
HETATM    8  C3  UNL     1       8.655  13.706 -14.945  1.00  0.00     0.748 A 
HETATM    9  N12 UNL     1       8.994  14.829 -15.589  1.00  0.00    -0.115 N 
ATOM     10  H12 UNL     1       8.422  15.285 -16.299  1.00  0.00     0.206 HD
HETATM   11  N13 UNL     1      10.171  15.268 -15.180  1.00  0.00    -0.114 N 
ATOM     12  H13 UNL     1      10.659  16.101 -15.509  1.00  0.00     0.206 HD
HETATM   13  C14 UNL     1      10.605  14.394 -14.240  1.00  0.00     0.765 A 
ENDROOT
BRANCH   6  14
HETATM   14  N4  UNL     1       9.516  11.534 -12.743  1.00  0.00    -0.232 N 
ATOM     15  H42 UNL     1       9.233  11.383 -11.775  1.00  0.00     0.174 HD
ATOM     16  H41 UNL     1       9.214  10.731 -13.296  1.00  0.00     0.174 HD
ENDBRANCH   6  14
BRANCH   8  17
HETATM   17  N6  UNL     1       7.598  12.974 -15.054  1.00  0.00    -0.115 N 
ATOM     18  H6  UNL     1       7.435  12.211 -14.397  1.00  0.00     0.206 HD
BRANCH  17  19
HETATM   19  N7  UNL     1       6.683  13.228 -16.066  1.00  0.00    -0.116 N 
HETATM   20  C4  UNL     1       5.488  13.957 -15.892  1.00  0.00     0.709 C 
HETATM   21  N8  UNL     1       5.496  15.101 -15.357  1.00  0.00    -0.135 N 
HETATM   22  N11 UNL     1       4.274  13.375 -16.333  1.00  0.00    -0.211 N 
ATOM     23  H8  UNL     1       6.395  15.476 -15.057  1.00  0.00     0.205 HD
HETATM   24  C10 UNL     1       3.838  13.608 -17.678  1.00  0.00     0.167 C 
HETATM   25  C13 UNL     1       3.520  12.563 -15.402  1.00  0.00     0.167 C 
HETATM   26  C11 UNL     1       2.968  12.491 -18.210  1.00  0.00     0.188 C 
HETATM   27  O2  UNL     1       2.098  11.988 -17.262  1.00  0.00    -0.388 OA
HETATM   28  C12 UNL     1       2.743  11.499 -16.145  1.00  0.00     0.188 C 
ATOM     29  H7  UNL     1       6.888  12.864 -16.997  1.00  0.00     0.206 HD
BRANCH  21  30
HETATM   30  N9  UNL     1       4.365  15.889 -15.147  1.00  0.00    -0.321 N 
ATOM     31  H9  UNL     1       3.528  15.440 -14.774  1.00  0.00     0.180 HD
BRANCH  30  32
HETATM   32  C5  UNL     1       4.313  17.285 -15.424  1.00  0.00     0.159 C 
BRANCH  32  33
HETATM   33  C6  UNL     1       5.033  18.145 -14.444  1.00  0.00     0.144 C 
BRANCH  33  34
HETATM   34  N10 UNL     1       6.258  18.630 -15.097  1.00  0.00    -0.356 N 
HETATM   35  C7  UNL     1       7.511  18.028 -14.813  1.00  0.00     0.241 C 
HETATM   36  O1  UNL     1       7.577  17.078 -14.000  1.00  0.00    -0.269 OA
ATOM     37  H10 UNL     1       6.206  19.405 -15.759  1.00  0.00     0.162 HD
BRANCH  35  38
HETATM   38  C8  UNL     1       8.698  18.525 -15.470  1.00  0.00     0.081 C 
HETATM   39  C9  UNL     1       8.867  18.335 -16.755  1.00  0.00     0.061 C 
HETATM   40 BR1  UNL     1      10.405  18.958 -17.691  1.00  0.00    -0.063 Br
ENDBRANCH  35  38
ENDBRANCH  33  34
ENDBRANCH  32  33
ENDBRANCH  30  32
ENDBRANCH  21  30
ENDBRANCH  17  19
ENDBRANCH   8  17
TORSDOF 8
ENDMDL
MODEL 2
REMARK VINA RESULT: -5.767583331      2.944      5.599
REMARK  8 active torsions:
REMARK  status: ('A' for Active; 'I' for Inactive)
REMARK    1  A    between atoms: C2_6  and  N4_7 
REMARK    2  A    between atoms: C3_11  and  N6_12 
REMARK    3  A    between atoms: N6_12  and  N7_14 
REMARK       I    between atoms: N7_14  and  C4_16 
REMARK       I    between atoms: C4_16  and  N11_30 
REMARK    4  A    between atoms: N8_17  and  N9_19 
REMARK    5  A    between atoms: N9_19  and  C5_21 
REMARK    6  A    between atoms: C5_21  and  C6_22 
REMARK    7  A    between atoms: C6_22  and  N10_23 
REMARK       I    between atoms: N10_23  and  C7_25 
REMARK    8  A    between atoms: C7_25  and  C8_27 
ROOT
HETATM    1  N1  UNL     1      10.066   9.413 -14.403  1.00  0.00    -0.169 NA
HETATM    2  C1  UNL     1      10.099  10.528 -14.121  1.00  0.00     0.221 C 
HETATM    3  N2  UNL     1      10.120  11.901 -13.785  1.00  0.00     0.002 N 
HETATM    4  N3  UNL     1      10.982  12.540 -13.010  1.00  0.00    -0.100 N 
ATOM      5  H3  UNL     1      11.777  12.117 -12.532  1.00  0.00     0.207 HD
HETATM    6  C2  UNL     1      10.641  13.833 -12.956  1.00  0.00     0.728 A 
HETATM    7  N5  UNL     1       9.526  14.018 -13.723  1.00  0.00     0.206 N 
HETATM    8  C3  UNL     1       8.618  14.902 -14.176  1.00  0.00     0.748 A 
HETATM    9  N12 UNL     1       7.773  14.209 -14.950  1.00  0.00    -0.115 N 
ATOM     10  H12 UNL     1       6.973  14.610 -15.437  1.00  0.00     0.206 HD
HETATM   11  N13 UNL     1       8.118  12.934 -14.997  1.00  0.00    -0.114 N 
ATOM     12  H13 UNL     1       7.645  12.193 -15.514  1.00  0.00     0.206 HD
HETATM   13  C14 UNL     1       9.223  12.803 -14.225  1.00  0.00     0.765 A 
ENDROOT
BRANCH   6  14
HETATM   14  N4  UNL     1      11.227  14.785 -12.309  1.00  0.00    -0.232 N 
ATOM     15  H42 UNL     1      11.753  15.533 -12.761  1.00  0.00     0.174 HD
ATOM     16  H41 UNL     1      11.256  14.934 -11.300  1.00  0.00     0.174 HD
ENDBRANCH   6  14
BRANCH   8  17
HETATM   17  N6  UNL     1       8.628  16.156 -13.876  1.00  0.00    -0.115 N 
ATOM     18  H6  UNL     1       8.188  16.479 -13.013  1.00  0.00     0.206 HD
BRANCH  17  19
HETATM   19  N7  UNL     1       9.237  17.067 -14.729  1.00  0.00    -0.116 N 
HETATM   20  C4  UNL     1       8.811  17.325 -16.048  1.00  0.00     0.709 C 
HETATM   21  N8  UNL     1       7.607  17.612 -16.300  1.00  0.00    -0.135 N 
HETATM   22  N11 UNL     1       9.769  17.257 -17.090  1.00  0.00    -0.211 N 
ATOM     23  H8  UNL     1       6.957  17.648 -15.515  1.00  0.00     0.205 HD
HETATM   24  C10 UNL     1      10.502  18.438 -17.442  1.00  0.00     0.167 C 
HETATM   25  C13 UNL     1       9.970  15.990 -17.761  1.00  0.00     0.167 C 
HETATM   26  C11 UNL     1      11.855  18.126 -18.039  1.00  0.00     0.188 C 
HETATM   27  O2  UNL     1      11.833  17.032 -18.882  1.00  0.00    -0.388 OA
HETATM   28  C12 UNL     1      11.394  15.881 -18.260  1.00  0.00     0.188 C 
ATOM     29  H7  UNL     1      10.045  17.582 -14.379  1.00  0.00     0.206 HD
BRANCH  21  30
HETATM   30  N9  UNL     1       7.101  17.882 -17.571  1.00  0.00    -0.321 N 
ATOM     31  H9  UNL     1       7.732  18.283 -18.265  1.00  0.00     0.180 HD
BRANCH  30  32
HETATM   32  C5  UNL     1       5.752  17.629 -17.954  1.00  0.00     0.159 C 
BRANCH  32  33
HETATM   33  C6  UNL     1       4.743  17.874 -16.886  1.00  0.00     0.144 C 
BRANCH  33  34
HETATM   34  N10 UNL     1       4.200  16.568 -16.483  1.00  0.00    -0.356 N 
HETATM   35  C7  UNL     1       4.659  15.931 -15.302  1.00  0.00     0.241 C 
HETATM   36  O1  UNL     1       5.534  16.483 -14.595  1.00  0.00    -0.269 OA
ATOM     37  H10 UNL     1       3.488  16.116 -17.058  1.00  0.00     0.162 HD
BRANCH  35  38
HETATM   38  C8  UNL     1       4.108  14.649 -14.929  1.00  0.00     0.081 C 
HETATM   39  C9  UNL     1       4.306  13.602 -15.691  1.00  0.00     0.061 C 
HETATM   40 BR1  UNL     1       3.611  11.879 -15.268  1.00  0.00    -0.063 Br
ENDBRANCH  35  38
ENDBRANCH  33  34
ENDBRANCH  32  33
ENDBRANCH  30  32
ENDBRANCH  21  30
ENDBRANCH  17  19
ENDBRANCH   8  17
TORSDOF 8
ENDMDL
MODEL 3
REMARK VINA RESULT: -5.658403927      1.291      1.537
REMARK  8 active torsions:
REMARK  status: ('A' for Active; 'I' for Inactive)
REMARK    1  A    between atoms: C2_6  and  N4_7 
REMARK    2  A    between atoms: C3_11  and  N6_12 
REMARK    3  A    between atoms: N6_12  and  N7_14 
REMARK       I    between atoms: N7_14  and  C4_16 
REMARK       I    between atoms: C4_16  and  N11_30 
REMARK    4  A    between atoms: N8_17  and  N9_19 
REMARK    5  A    between atoms: N9_19  and  C5_21 
REMARK    6  A    between atoms: C5_21  and  C6_22 
REMARK    7  A    between atoms: C6_22  and  N10_23 
REMARK       I    between atoms: N10_23  and  C7_25 
REMARK    8  A    between atoms: C7_25  and  C8_27 
ROOT
HETATM    1  N1  UNL     1      13.361  15.837 -13.229  1.00  0.00    -0.169 NA
HETATM    2  C1  UNL     1      12.487  15.093 -13.317  1.00  0.00     0.221 C 
HETATM    3  N2  UNL     1      11.404  14.193 -13.442  1.00  0.00     0.002 N 
HETATM    4  N3  UNL     1      11.219  13.046 -12.809  1.00  0.00    -0.100 N 
ATOM      5  H3  UNL     1      11.851  12.638 -12.121  1.00  0.00     0.207 HD
HETATM    6  C2  UNL     1      10.064  12.507 -13.220  1.00  0.00     0.728 A 
HETATM    7  N5  UNL     1       9.501  13.342 -14.142  1.00  0.00     0.206 N 
HETATM    8  C3  UNL     1       8.460  13.551 -14.969  1.00  0.00     0.748 A 
HETATM    9  N12 UNL     1       8.696  14.718 -15.581  1.00  0.00    -0.115 N 
ATOM     10  H12 UNL     1       8.079  15.144 -16.272  1.00  0.00     0.206 HD
HETATM   11  N13 UNL     1       9.837  15.242 -15.170  1.00  0.00    -0.114 N 
ATOM     12  H13 UNL     1      10.249  16.123 -15.478  1.00  0.00     0.206 HD
HETATM   13  C14 UNL     1      10.353  14.380 -14.262  1.00  0.00     0.765 A 
ENDROOT
BRANCH   6  14
HETATM   14  N4  UNL     1       9.527  11.395 -12.843  1.00  0.00    -0.232 N 
ATOM     15  H42 UNL     1       9.406  10.591 -13.459  1.00  0.00     0.174 HD
ATOM     16  H41 UNL     1       9.158  11.154 -11.923  1.00  0.00     0.174 HD
ENDBRANCH   6  14
BRANCH   8  17
HETATM   17  N6  UNL     1       7.467  12.736 -15.090  1.00  0.00    -0.115 N 
ATOM     18  H6  UNL     1       7.467  11.852 -14.582  1.00  0.00     0.206 HD
BRANCH  17  19
HETATM   19  N7  UNL     1       6.399  13.066 -15.913  1.00  0.00    -0.116 N 
HETATM   20  C4  UNL     1       5.074  13.241 -15.463  1.00  0.00     0.709 C 
HETATM   21  N8  UNL     1       4.812  14.014 -14.498  1.00  0.00    -0.135 N 
HETATM   22  N11 UNL     1       4.041  12.529 -16.118  1.00  0.00    -0.211 N 
ATOM     23  H8  UNL     1       5.592  14.504 -14.060  1.00  0.00     0.205 HD
HETATM   24  C10 UNL     1       3.390  13.127 -17.247  1.00  0.00     0.167 C 
HETATM   25  C13 UNL     1       3.681  11.219 -15.619  1.00  0.00     0.167 C 
HETATM   26  C11 UNL     1       2.828  12.101 -18.206  1.00  0.00     0.188 C 
HETATM   27  O2  UNL     1       2.270  11.013 -17.564  1.00  0.00    -0.388 OA
HETATM   28  C12 UNL     1       3.164  10.352 -16.746  1.00  0.00     0.188 C 
ATOM     29  H7  UNL     1       6.585  13.189 -16.909  1.00  0.00     0.206 HD
BRANCH  21  30
HETATM   30  N9  UNL     1       3.534  14.246 -13.989  1.00  0.00    -0.321 N 
ATOM     31  H9  UNL     1       3.039  13.466 -13.557  1.00  0.00     0.180 HD
BRANCH  30  32
HETATM   32  C5  UNL     1       2.883  15.512 -14.039  1.00  0.00     0.159 C 
BRANCH  32  33
HETATM   33  C6  UNL     1       3.106  16.281 -15.295  1.00  0.00     0.144 C 
BRANCH  33  34
HETATM   34  N10 UNL     1       4.006  17.399 -14.975  1.00  0.00    -0.356 N 
HETATM   35  C7  UNL     1       5.366  17.367 -15.381  1.00  0.00     0.241 C 
HETATM   36  O1  UNL     1       5.804  16.380 -16.015  1.00  0.00    -0.269 OA
ATOM     37  H10 UNL     1       3.651  18.204 -14.458  1.00  0.00     0.162 HD
BRANCH  35  38
HETATM   38  C8  UNL     1       6.228  18.479 -15.054  1.00  0.00     0.081 C 
HETATM   39  C9  UNL     1       7.186  18.832 -15.875  1.00  0.00     0.061 C 
HETATM   40 BR1  UNL     1       8.362  20.286 -15.513  1.00  0.00    -0.063 Br
ENDBRANCH  35  38
ENDBRANCH  33  34
ENDBRANCH  32  33
ENDBRANCH  30  32
ENDBRANCH  21  30
ENDBRANCH  17  19
ENDBRANCH   8  17
TORSDOF 8
ENDMDL
MODEL 4
REMARK VINA RESULT: -5.566309612      5.659      8.830
REMARK  8 active torsions:
REMARK  status: ('A' for Active; 'I' for Inactive)
REMARK    1  A    between atoms: C2_6  and  N4_7 
REMARK    2  A    between atoms: C3_11  and  N6_12 
REMARK    3  A    between atoms: N6_12  and  N7_14 
REMARK       I    between atoms: N7_14  and  C4_16 
REMARK       I    between atoms: C4_16  and  N11_30 
REMARK    4  A    between atoms: N8_17  and  N9_19 
REMARK    5  A    between atoms: N9_19  and  C5_21 
REMARK    6  A    between atoms: C5_21  and  C6_22 
REMARK    7  A    between atoms: C6_22  and  N10_23 
REMARK       I    between atoms: N10_23  and  C7_25 
REMARK    8  A    between atoms: C7_25  and  C8_27 
ROOT
HETATM    1  N1  UNL     1       9.352  11.465 -12.490  1.00  0.00    -0.169 NA
HETATM    2  C1  UNL     1      10.001  12.310 -12.924  1.00  0.00     0.221 C 
HETATM    3  N2  UNL     1      10.784  13.349 -13.476  1.00  0.00     0.002 N 
HETATM    4  N3  UNL     1      11.822  13.966 -12.935  1.00  0.00    -0.100 N 
ATOM      5  H3  UNL     1      12.215  13.770 -12.014  1.00  0.00     0.207 HD
HETATM    6  C2  UNL     1      12.274  14.888 -13.793  1.00  0.00     0.728 A 
HETATM    7  N5  UNL     1      11.496  14.854 -14.914  1.00  0.00     0.206 N 
HETATM    8  C3  UNL     1      11.272  15.378 -16.132  1.00  0.00     0.748 A 
HETATM    9  N12 UNL     1      10.217  14.724 -16.635  1.00  0.00    -0.115 N 
ATOM     10  H12 UNL     1       9.808  14.902 -17.551  1.00  0.00     0.206 HD
HETATM   11  N13 UNL     1       9.778  13.816 -15.781  1.00  0.00    -0.114 N 
ATOM     12  H13 UNL     1       8.990  13.183 -15.917  1.00  0.00     0.206 HD
HETATM   13  C14 UNL     1      10.579  13.890 -14.691  1.00  0.00     0.765 A 
ENDROOT
BRANCH   6  14
HETATM   14  N4  UNL     1      13.269  15.698 -13.640  1.00  0.00    -0.232 N 
ATOM     15  H42 UNL     1      13.296  16.429 -12.929  1.00  0.00     0.174 HD
ATOM     16  H41 UNL     1      14.137  15.735 -14.174  1.00  0.00     0.174 HD
ENDBRANCH   6  14
BRANCH   8  17
HETATM   17  N6  UNL     1      11.980  16.327 -16.646  1.00  0.00    -0.115 N 
ATOM     18  H6  UNL     1      12.825  16.647 -16.171  1.00  0.00     0.206 HD
BRANCH  17  19
HETATM   19  N7  UNL     1      11.591  16.909 -17.844  1.00  0.00    -0.116 N 
HETATM   20  C4  UNL     1      12.470  17.197 -18.909  1.00  0.00     0.709 C 
HETATM   21  N8  UNL     1      13.241  16.310 -19.374  1.00  0.00    -0.135 N 
HETATM   22  N11 UNL     1      12.469  18.507 -19.448  1.00  0.00    -0.211 N 
ATOM     23  H8  UNL     1      13.203  15.383 -18.951  1.00  0.00     0.205 HD
HETATM   24  C10 UNL     1      11.580  18.815 -20.528  1.00  0.00     0.167 C 
HETATM   25  C13 UNL     1      13.371  19.487 -18.881  1.00  0.00     0.167 C 
HETATM   26  C11 UNL     1      11.201  20.278 -20.571  1.00  0.00     0.188 C 
HETATM   27  O2  UNL     1      12.254  21.117 -20.262  1.00  0.00    -0.388 OA
HETATM   28  C12 UNL     1      12.786  20.875 -19.012  1.00  0.00     0.188 C 
ATOM     29  H7  UNL     1      10.606  17.145 -17.962  1.00  0.00     0.206 HD
BRANCH  21  30
HETATM   30  N9  UNL     1      14.140  16.507 -20.422  1.00  0.00    -0.321 N 
ATOM     31  H9  UNL     1      13.964  17.276 -21.070  1.00  0.00     0.180 HD
BRANCH  30  32
HETATM   32  C5  UNL     1      15.289  15.694 -20.639  1.00  0.00     0.159 C 
BRANCH  32  33
HETATM   33  C6  UNL     1      15.310  14.976 -21.944  1.00  0.00     0.144 C 
BRANCH  33  34
HETATM   34  N10 UNL     1      15.116  13.545 -21.665  1.00  0.00    -0.356 N 
HETATM   35  C7  UNL     1      13.816  13.029 -21.426  1.00  0.00     0.241 C 
HETATM   36  O1  UNL     1      12.825  13.795 -21.453  1.00  0.00    -0.269 OA
ATOM     37  H10 UNL     1      15.921  12.920 -21.642  1.00  0.00     0.162 HD
BRANCH  35  38
HETATM   38  C8  UNL     1      13.654  11.619 -21.155  1.00  0.00     0.081 C 
HETATM   39  C9  UNL     1      12.900  10.882 -21.932  1.00  0.00     0.061 C 
HETATM   40 BR1  UNL     1      12.637   9.018 -21.639  1.00  0.00    -0.063 Br
ENDBRANCH  35  38
ENDBRANCH  33  34
ENDBRANCH  32  33
ENDBRANCH  30  32
ENDBRANCH  21  30
ENDBRANCH  17  19
ENDBRANCH   8  17
TORSDOF 8
ENDMDL
MODEL 5
REMARK VINA RESULT: -5.559188075      3.087      6.630
REMARK  8 active torsions:
REMARK  status: ('A' for Active; 'I' for Inactive)
REMARK    1  A    between atoms: C2_6  and  N4_7 
REMARK    2  A    between atoms: C3_11  and  N6_12 
REMARK    3  A    between atoms: N6_12  and  N7_14 
REMARK       I    between atoms: N7_14  and  C4_16 
REMARK       I    between atoms: C4_16  and  N11_30 
REMARK    4  A    between atoms: N8_17  and  N9_19 
REMARK    5  A    between atoms: N9_19  and  C5_21 
REMARK    6  A    between atoms: C5_21  and  C6_22 
REMARK    7  A    between atoms: C6_22  and  N10_23 
REMARK       I    between atoms: N10_23  and  C7_25 
REMARK    8  A    between atoms: C7_25  and  C8_27 
ROOT
HETATM    1  N1  UNL     1       3.444   9.727 -17.019  1.00  0.00    -0.169 NA
HETATM    2  C1  UNL     1       4.129  10.652 -17.016  1.00  0.00     0.221 C 
HETATM    3  N2  UNL     1       4.964  11.793 -16.991  1.00  0.00     0.002 N 
HETATM    4  N3  UNL     1       5.831  12.192 -17.908  1.00  0.00    -0.100 N 
ATOM      5  H3  UNL     1       6.023  11.716 -18.789  1.00  0.00     0.207 HD
HETATM    6  C2  UNL     1       6.413  13.322 -17.490  1.00  0.00     0.728 A 
HETATM    7  N5  UNL     1       5.898  13.649 -16.269  1.00  0.00     0.206 N 
HETATM    8  C3  UNL     1       5.916  14.526 -15.249  1.00  0.00     0.748 A 
HETATM    9  N12 UNL     1       5.027  14.079 -14.353  1.00  0.00    -0.115 N 
ATOM     10  H12 UNL     1       4.818  14.537 -13.467  1.00  0.00     0.206 HD
HETATM   11  N13 UNL     1       4.458  12.964 -14.774  1.00  0.00    -0.114 N 
ATOM     12  H13 UNL     1       3.747  12.420 -14.283  1.00  0.00     0.206 HD
HETATM   13  C14 UNL     1       5.000  12.683 -15.982  1.00  0.00     0.765 A 
ENDROOT
BRANCH   6  14
HETATM   14  N4  UNL     1       7.313  14.025 -18.096  1.00  0.00    -0.232 N 
ATOM     15  H42 UNL     1       8.239  13.669 -18.333  1.00  0.00     0.174 HD
ATOM     16  H41 UNL     1       7.246  14.991 -18.415  1.00  0.00     0.174 HD
ENDBRANCH   6  14
BRANCH   8  17
HETATM   17  N6  UNL     1       6.673  15.570 -15.216  1.00  0.00    -0.115 N 
ATOM     18  H6  UNL     1       6.392  16.421 -15.703  1.00  0.00     0.206 HD
BRANCH  17  19
HETATM   19  N7  UNL     1       7.871  15.534 -14.515  1.00  0.00    -0.116 N 
HETATM   20  C4  UNL     1       9.108  15.154 -15.076  1.00  0.00     0.709 C 
HETATM   21  N8  UNL     1       9.531  15.687 -16.141  1.00  0.00    -0.135 N 
HETATM   22  N11 UNL     1       9.869  14.158 -14.417  1.00  0.00    -0.211 N 
ATOM     23  H8  UNL     1       8.945  16.399 -16.577  1.00  0.00     0.205 HD
HETATM   24  C10 UNL     1      10.815  14.552 -13.415  1.00  0.00     0.167 C 
HETATM   25  C13 UNL     1       9.659  12.774 -14.783  1.00  0.00     0.167 C 
HETATM   26  C11 UNL     1      11.057  13.472 -12.386  1.00  0.00     0.188 C 
HETATM   27  O2  UNL     1      11.097  12.205 -12.934  1.00  0.00    -0.388 OA
HETATM   28  C12 UNL     1       9.937  11.870 -13.602  1.00  0.00     0.188 C 
ATOM     29  H7  UNL     1       7.856  15.800 -13.530  1.00  0.00     0.206 HD
BRANCH  21  30
HETATM   30  N9  UNL     1      10.738  15.373 -16.764  1.00  0.00    -0.321 N 
ATOM     31  H9  UNL     1      11.519  15.075 -16.178  1.00  0.00     0.180 HD
BRANCH  30  32
HETATM   32  C5  UNL     1      10.943  15.445 -18.171  1.00  0.00     0.159 C 
BRANCH  32  33
HETATM   33  C6  UNL     1      10.070  16.421 -18.880  1.00  0.00     0.144 C 
BRANCH  33  34
HETATM   34  N10 UNL     1      10.876  17.622 -19.149  1.00  0.00    -0.356 N 
HETATM   35  C7  UNL     1      10.970  18.656 -18.181  1.00  0.00     0.241 C 
HETATM   36  O1  UNL     1      10.363  18.548 -17.091  1.00  0.00    -0.269 OA
ATOM     37  H10 UNL     1      11.370  17.712 -20.036  1.00  0.00     0.162 HD
BRANCH  35  38
HETATM   38  C8  UNL     1      11.769  19.824 -18.471  1.00  0.00     0.081 C 
HETATM   39  C9  UNL     1      12.996  19.689 -18.912  1.00  0.00     0.061 C 
HETATM   40 BR1  UNL     1      14.111  21.180 -19.314  1.00  0.00    -0.063 Br
ENDBRANCH  35  38
ENDBRANCH  33  34
ENDBRANCH  32  33
ENDBRANCH  30  32
ENDBRANCH  21  30
ENDBRANCH  17  19
ENDBRANCH   8  17
TORSDOF 8
ENDMDL
