MODEL 1
REMARK VINA RESULT: -6.619493260      0.000      0.000
REMARK  5 active torsions:
REMARK  status: ('A' for Active; 'I' for Inactive)
REMARK    1  A    between atoms: N1_2  and  C2_4 
REMARK    2  A    between atoms: C9_15  and  N4_16 
REMARK    3  A    between atoms: N4_16  and  N5_18 
REMARK    4  A    between atoms: C10_20  and  C11_21 
REMARK    5  A    between atoms: C16_27  and  O1_28 
ROOT
HETATM    1  C2  UNL     1      12.527  11.272 -19.765  1.00  0.00     0.147 A 
HETATM    2  N2  UNL     1      11.295  11.715 -19.382  1.00  0.00    -0.338 N 
ATOM      3  H2  UNL     1      11.195  12.694 -19.109  1.00  0.00     0.167 HD
HETATM    4  C3  UNL     1      10.214  10.932 -19.346  1.00  0.00     0.060 A 
HETATM    5  C4  UNL     1       8.963  11.411 -18.950  1.00  0.00     0.032 A 
HETATM    6  C5  UNL     1       7.853  10.592 -18.917  1.00  0.00     0.002 A 
HETATM    7  C6  UNL     1       7.975   9.262 -19.284  1.00  0.00     0.002 A 
HETATM    8  C7  UNL     1       9.214   8.796 -19.674  1.00  0.00     0.032 A 
HETATM    9  C8  UNL     1      10.334   9.606 -19.712  1.00  0.00     0.060 A 
HETATM   10  N3  UNL     1      11.541   9.160 -20.090  1.00  0.00    -0.337 N 
ATOM     11  H3  UNL     1      11.636   8.181 -20.360  1.00  0.00     0.168 HD
HETATM   12  C9  UNL     1      12.640   9.952 -20.127  1.00  0.00     0.165 A 
ENDROOT
BRANCH  12  13
HETATM   13  N4  UNL     1      13.771   9.472 -20.497  1.00  0.00    -0.283 N 
ATOM     14  H4  UNL     1      14.474  10.151 -20.787  1.00  0.00     0.188 HD
BRANCH  13  15
HETATM   15  N5  UNL     1      14.144   8.161 -20.547  1.00  0.00    -0.309 N 
HETATM   16  C10 UNL     1      15.371   7.820 -20.714  1.00  0.00     0.122 C 
ATOM     17  H5  UNL     1      13.433   7.435 -20.450  1.00  0.00     0.186 HD
BRANCH  16  18
HETATM   18  C11 UNL     1      15.784   6.422 -20.771  1.00  0.00     0.031 A 
HETATM   19  C12 UNL     1      16.643   6.017 -21.780  1.00  0.00     0.025 A 
HETATM   20 BR1  UNL     1      17.264   7.311 -23.067  1.00  0.00    -0.050 Br
HETATM   21  C13 UNL     1      17.041   4.699 -21.848  1.00  0.00     0.020 A 
HETATM   22  C14 UNL     1      16.572   3.806 -20.906  1.00  0.00     0.004 A 
HETATM   23  C15 UNL     1      15.724   4.225 -19.916  1.00  0.00     0.038 A 
HETATM   24  C16 UNL     1      15.318   5.530 -19.832  1.00  0.00     0.081 A 
BRANCH  24  25
HETATM   25  O1  UNL     1      14.461   5.944 -18.829  1.00  0.00    -0.355 OA
HETATM   26  C17 UNL     1      14.860   6.225 -17.524  1.00  0.00     0.210 C 
ENDBRANCH  24  25
ENDBRANCH  16  18
ENDBRANCH  13  15
ENDBRANCH  12  13
BRANCH   1  27
HETATM   27  N1  UNL     1      13.531  12.083 -19.776  1.00  0.00    -0.378 N 
HETATM   28  C1  UNL     1      13.349  13.458 -20.183  1.00  0.00     0.148 C 
ATOM     29  H1  UNL     1      14.455  11.753 -19.496  1.00  0.00     0.160 HD
ENDBRANCH   1  27
TORSDOF 5
ENDMDL
MODEL 2
REMARK VINA RESULT: -6.575689468      5.195      7.960
REMARK  5 active torsions:
REMARK  status: ('A' for Active; 'I' for Inactive)
REMARK    1  A    between atoms: N1_2  and  C2_4 
REMARK    2  A    between atoms: C9_15  and  N4_16 
REMARK    3  A    between atoms: N4_16  and  N5_18 
REMARK    4  A    between atoms: C10_20  and  C11_21 
REMARK    5  A    between atoms: C16_27  and  O1_28 
ROOT
HETATM    1  C2  UNL     1      19.806  11.195 -20.187  1.00  0.00     0.147 A 
HETATM    2  N2  UNL     1      21.066  11.515 -19.775  1.00  0.00    -0.338 N 
ATOM      3  H2  UNL     1      21.447  12.424 -20.040  1.00  0.00     0.167 HD
HETATM    4  C3  UNL     1      21.826  10.697 -19.043  1.00  0.00     0.060 A 
HETATM    5  C4  UNL     1      23.114  11.049 -18.634  1.00  0.00     0.032 A 
HETATM    6  C5  UNL     1      23.890  10.195 -17.877  1.00  0.00     0.002 A 
HETATM    7  C6  UNL     1      23.386   8.958 -17.511  1.00  0.00     0.002 A 
HETATM    8  C7  UNL     1      22.113   8.616 -17.919  1.00  0.00     0.032 A 
HETATM    9  C8  UNL     1      21.324   9.463 -18.678  1.00  0.00     0.060 A 
HETATM   10  N3  UNL     1      20.086   9.139 -19.078  1.00  0.00    -0.337 N 
ATOM     11  H3  UNL     1      19.711   8.229 -18.811  1.00  0.00     0.168 HD
HETATM   12  C9  UNL     1      19.312   9.967 -19.821  1.00  0.00     0.165 A 
ENDROOT
BRANCH  12  13
HETATM   13  N4  UNL     1      18.134   9.605 -20.176  1.00  0.00    -0.283 N 
ATOM     14  H4  UNL     1      17.600  10.283 -20.720  1.00  0.00     0.188 HD
BRANCH  13  15
HETATM   15  N5  UNL     1      17.510   8.421 -19.912  1.00  0.00    -0.309 N 
HETATM   16  C10 UNL     1      17.104   7.653 -20.858  1.00  0.00     0.122 C 
ATOM     17  H5  UNL     1      17.363   8.139 -18.943  1.00  0.00     0.186 HD
BRANCH  16  18
HETATM   18  C11 UNL     1      16.434   6.385 -20.591  1.00  0.00     0.031 A 
HETATM   19  C12 UNL     1      16.794   5.267 -21.326  1.00  0.00     0.025 A 
HETATM   20 BR1  UNL     1      18.167   5.425 -22.671  1.00  0.00    -0.050 Br
HETATM   21  C13 UNL     1      16.169   4.063 -21.087  1.00  0.00     0.020 A 
HETATM   22  C14 UNL     1      15.192   3.995 -20.114  1.00  0.00     0.004 A 
HETATM   23  C15 UNL     1      14.849   5.110 -19.398  1.00  0.00     0.038 A 
HETATM   24  C16 UNL     1      15.459   6.315 -19.622  1.00  0.00     0.081 A 
BRANCH  24  25
HETATM   25  O1  UNL     1      15.106   7.437 -18.893  1.00  0.00    -0.355 OA
HETATM   26  C17 UNL     1      14.966   7.458 -17.507  1.00  0.00     0.210 C 
ENDBRANCH  24  25
ENDBRANCH  16  18
ENDBRANCH  13  15
ENDBRANCH  12  13
BRANCH   1  27
HETATM   27  N1  UNL     1      19.124  12.033 -20.895  1.00  0.00    -0.378 N 
HETATM   28  C1  UNL     1      19.797  13.094 -21.609  1.00  0.00     0.148 C 
ATOM     29  H1  UNL     1      18.109  11.946 -20.950  1.00  0.00     0.160 HD
ENDBRANCH   1  27
TORSDOF 5
ENDMDL
MODEL 3
REMARK VINA RESULT: -6.474003806      2.777      7.460
REMARK  5 active torsions:
REMARK  status: ('A' for Active; 'I' for Inactive)
REMARK    1  A    between atoms: N1_2  and  C2_4 
REMARK    2  A    between atoms: C9_15  and  N4_16 
REMARK    3  A    between atoms: N4_16  and  N5_18 
REMARK    4  A    between atoms: C10_20  and  C11_21 
REMARK    5  A    between atoms: C16_27  and  O1_28 
ROOT
HETATM    1  C2  UNL     1      14.832   8.268 -21.621  1.00  0.00     0.147 A 
HETATM    2  N2  UNL     1      15.714   7.233 -21.523  1.00  0.00    -0.338 N 
ATOM      3  H2  UNL     1      16.387   7.095 -22.277  1.00  0.00     0.167 HD
HETATM    4  C3  UNL     1      15.739   6.389 -20.487  1.00  0.00     0.060 A 
HETATM    5  C4  UNL     1      16.652   5.335 -20.411  1.00  0.00     0.032 A 
HETATM    6  C5  UNL     1      16.668   4.471 -19.336  1.00  0.00     0.002 A 
HETATM    7  C6  UNL     1      15.760   4.645 -18.305  1.00  0.00     0.002 A 
HETATM    8  C7  UNL     1      14.860   5.688 -18.388  1.00  0.00     0.032 A 
HETATM    9  C8  UNL     1      14.833   6.563 -19.459  1.00  0.00     0.060 A 
HETATM   10  N3  UNL     1      13.962   7.578 -19.546  1.00  0.00    -0.337 N 
ATOM     11  H3  UNL     1      13.291   7.711 -18.791  1.00  0.00     0.168 HD
HETATM   12  C9  UNL     1      13.934   8.436 -20.595  1.00  0.00     0.165 A 
ENDROOT
BRANCH  12  13
HETATM   13  N4  UNL     1      13.078   9.391 -20.628  1.00  0.00    -0.283 N 
ATOM     14  H4  UNL     1      13.335  10.207 -21.183  1.00  0.00     0.188 HD
BRANCH  13  15
HETATM   15  N5  UNL     1      11.865   9.444 -20.006  1.00  0.00    -0.309 N 
HETATM   16  C10 UNL     1      10.849   9.995 -20.567  1.00  0.00     0.122 C 
ATOM     17  H5  UNL     1      11.762   9.038 -19.076  1.00  0.00     0.186 HD
BRANCH  16  18
HETATM   18  C11 UNL     1       9.547  10.061 -19.915  1.00  0.00     0.031 A 
HETATM   19  C12 UNL     1       9.156  11.246 -19.312  1.00  0.00     0.025 A 
HETATM   20 BR1  UNL     1      10.344  12.763 -19.359  1.00  0.00    -0.050 Br
HETATM   21  C13 UNL     1       7.929  11.322 -18.690  1.00  0.00     0.020 A 
HETATM   22  C14 UNL     1       7.110  10.211 -18.680  1.00  0.00     0.004 A 
HETATM   23  C15 UNL     1       7.512   9.049 -19.281  1.00  0.00     0.038 A 
HETATM   24  C16 UNL     1       8.728   8.954 -19.904  1.00  0.00     0.081 A 
BRANCH  24  25
HETATM   25  O1  UNL     1       9.126   7.775 -20.509  1.00  0.00    -0.355 OA
HETATM   26  C17 UNL     1       8.552   7.257 -21.668  1.00  0.00     0.210 C 
ENDBRANCH  24  25
ENDBRANCH  16  18
ENDBRANCH  13  15
ENDBRANCH  12  13
BRANCH   1  27
HETATM   27  N1  UNL     1      14.862   9.047 -22.651  1.00  0.00    -0.378 N 
HETATM   28  C1  UNL     1      15.177   8.511 -23.956  1.00  0.00     0.148 C 
ATOM     29  H1  UNL     1      14.661  10.041 -22.544  1.00  0.00     0.160 HD
ENDBRANCH   1  27
TORSDOF 5
ENDMDL
MODEL 4
REMARK VINA RESULT: -6.452028773      5.505      8.357
REMARK  5 active torsions:
REMARK  status: ('A' for Active; 'I' for Inactive)
REMARK    1  A    between atoms: N1_2  and  C2_4 
REMARK    2  A    between atoms: C9_15  and  N4_16 
REMARK    3  A    between atoms: N4_16  and  N5_18 
REMARK    4  A    between atoms: C10_20  and  C11_21 
REMARK    5  A    between atoms: C16_27  and  O1_28 
ROOT
HETATM    1  C2  UNL     1      19.903  11.187 -20.139  1.00  0.00     0.147 A 
HETATM    2  N2  UNL     1      21.160  11.569 -19.773  1.00  0.00    -0.338 N 
ATOM      3  H2  UNL     1      21.487  12.494 -20.053  1.00  0.00     0.167 HD
HETATM    4  C3  UNL     1      21.984  10.791 -19.067  1.00  0.00     0.060 A 
HETATM    5  C4  UNL     1      23.268  11.205 -18.705  1.00  0.00     0.032 A 
HETATM    6  C5  UNL     1      24.110  10.392 -17.975  1.00  0.00     0.002 A 
HETATM    7  C6  UNL     1      23.679   9.133 -17.589  1.00  0.00     0.002 A 
HETATM    8  C7  UNL     1      22.411   8.730 -17.951  1.00  0.00     0.032 A 
HETATM    9  C8  UNL     1      21.556   9.536 -18.682  1.00  0.00     0.060 A 
HETATM   10  N3  UNL     1      20.321   9.150 -19.037  1.00  0.00    -0.337 N 
ATOM     11  H3  UNL     1      19.999   8.225 -18.756  1.00  0.00     0.168 HD
HETATM   12  C9  UNL     1      19.482   9.938 -19.753  1.00  0.00     0.165 A 
ENDROOT
BRANCH  12  13
HETATM   13  N4  UNL     1      18.311   9.519 -20.066  1.00  0.00    -0.283 N 
ATOM     14  H4  UNL     1      17.626  10.235 -20.304  1.00  0.00     0.188 HD
BRANCH  13  15
HETATM   15  N5  UNL     1      17.873   8.227 -20.117  1.00  0.00    -0.309 N 
HETATM   16  C10 UNL     1      16.621   7.944 -20.103  1.00  0.00     0.122 C 
ATOM     17  H5  UNL     1      18.556   7.471 -20.168  1.00  0.00     0.186 HD
BRANCH  16  18
HETATM   18  C11 UNL     1      16.138   6.569 -20.155  1.00  0.00     0.031 A 
HETATM   19  C12 UNL     1      15.374   6.084 -19.106  1.00  0.00     0.025 A 
HETATM   20 BR1  UNL     1      14.972   7.243 -17.619  1.00  0.00    -0.050 Br
HETATM   21  C13 UNL     1      14.913   4.786 -19.141  1.00  0.00     0.020 A 
HETATM   22  C14 UNL     1      15.224   3.991 -20.226  1.00  0.00     0.004 A 
HETATM   23  C15 UNL     1      15.981   4.487 -21.253  1.00  0.00     0.038 A 
HETATM   24  C16 UNL     1      16.448   5.774 -21.236  1.00  0.00     0.081 A 
BRANCH  24  25
HETATM   25  O1  UNL     1      17.212   6.267 -22.279  1.00  0.00    -0.355 OA
HETATM   26  C17 UNL     1      18.163   5.522 -22.972  1.00  0.00     0.210 C 
ENDBRANCH  24  25
ENDBRANCH  16  18
ENDBRANCH  13  15
ENDBRANCH  12  13
BRANCH   1  27
HETATM   27  N1  UNL     1      19.157  11.989 -20.824  1.00  0.00    -0.378 N 
HETATM   28  C1  UNL     1      19.747  13.110 -21.521  1.00  0.00     0.148 C 
ATOM     29  H1  UNL     1      18.150  11.831 -20.873  1.00  0.00     0.160 HD
ENDBRANCH   1  27
TORSDOF 5
ENDMDL
MODEL 5
REMARK VINA RESULT: -6.438035917      1.618      2.239
REMARK  5 active torsions:
REMARK  status: ('A' for Active; 'I' for Inactive)
REMARK    1  A    between atoms: N1_2  and  C2_4 
REMARK    2  A    between atoms: C9_15  and  N4_16 
REMARK    3  A    between atoms: N4_16  and  N5_18 
REMARK    4  A    between atoms: C10_20  and  C11_21 
REMARK    5  A    between atoms: C16_27  and  O1_28 
ROOT
HETATM    1  C2  UNL     1      12.373  11.351 -19.815  1.00  0.00     0.147 A 
HETATM    2  N2  UNL     1      11.118  11.713 -19.423  1.00  0.00    -0.338 N 
ATOM      3  H2  UNL     1      10.953  12.685 -19.160  1.00  0.00     0.167 HD
HETATM    4  C3  UNL     1      10.094  10.857 -19.364  1.00  0.00     0.060 A 
HETATM    5  C4  UNL     1       8.818  11.254 -18.958  1.00  0.00     0.032 A 
HETATM    6  C5  UNL     1       7.768  10.360 -18.901  1.00  0.00     0.002 A 
HETATM    7  C6  UNL     1       7.978   9.037 -19.253  1.00  0.00     0.002 A 
HETATM    8  C7  UNL     1       9.241   8.652 -19.653  1.00  0.00     0.032 A 
HETATM    9  C8  UNL     1      10.302   9.538 -19.715  1.00  0.00     0.060 A 
HETATM   10  N3  UNL     1      11.533   9.171 -20.103  1.00  0.00    -0.337 N 
ATOM     11  H3  UNL     1      11.692   8.198 -20.363  1.00  0.00     0.168 HD
HETATM   12  C9  UNL     1      12.574  10.037 -20.164  1.00  0.00     0.165 A 
ENDROOT
BRANCH  12  13
HETATM   13  N4  UNL     1      13.731   9.632 -20.542  1.00  0.00    -0.283 N 
ATOM     14  H4  UNL     1      14.418  10.358 -20.742  1.00  0.00     0.188 HD
BRANCH  13  15
HETATM   15  N5  UNL     1      14.150   8.344 -20.708  1.00  0.00    -0.309 N 
HETATM   16  C10 UNL     1      15.205   7.904 -20.123  1.00  0.00     0.122 C 
ATOM     17  H5  UNL     1      13.614   7.718 -21.309  1.00  0.00     0.186 HD
BRANCH  16  18
HETATM   18  C11 UNL     1      15.667   6.531 -20.292  1.00  0.00     0.031 A 
HETATM   19  C12 UNL     1      15.603   5.663 -19.214  1.00  0.00     0.025 A 
HETATM   20 BR1  UNL     1      14.906   6.298 -17.532  1.00  0.00    -0.050 Br
HETATM   21  C13 UNL     1      16.037   4.363 -19.358  1.00  0.00     0.020 A 
HETATM   22  C14 UNL     1      16.529   3.950 -20.580  1.00  0.00     0.004 A 
HETATM   23  C15 UNL     1      16.584   4.822 -21.634  1.00  0.00     0.038 A 
HETATM   24  C16 UNL     1      16.158   6.117 -21.510  1.00  0.00     0.081 A 
BRANCH  24  25
HETATM   25  O1  UNL     1      16.217   6.991 -22.581  1.00  0.00    -0.355 OA
HETATM   26  C17 UNL     1      17.392   7.342 -23.240  1.00  0.00     0.210 C 
ENDBRANCH  24  25
ENDBRANCH  16  18
ENDBRANCH  13  15
ENDBRANCH  12  13
BRANCH   1  27
HETATM   27  N1  UNL     1      13.319  12.229 -19.849  1.00  0.00    -0.378 N 
HETATM   28  C1  UNL     1      12.999  13.635 -19.942  1.00  0.00     0.148 C 
ATOM     29  H1  UNL     1      14.293  11.930 -19.809  1.00  0.00     0.160 HD
ENDBRANCH   1  27
TORSDOF 5
ENDMDL
