MODEL 1
REMARK VINA RESULT: -8.499659093      0.000      0.000
REMARK  10 active torsions:
REMARK  status: ('A' for Active; 'I' for Inactive)
REMARK    1  A    between atoms: C2_2  and  C4_4 
REMARK    2  A    between atoms: C10_10  and  C11_11 
REMARK    3  A    between atoms: C14_17  and  C15_18 
REMARK    4  A    between atoms: C15_18  and  O2_19 
REMARK    5  A    between atoms: C15_18  and  N2_21 
REMARK    6  A    between atoms: N2_21  and  C16_22 
REMARK    7  A    between atoms: N2_21  and  C19_25 
REMARK       I    between atoms: N3_29  and  C23_30 
REMARK       I    between atoms: C23_30  and  N4_32 
REMARK    8  A    between atoms: N4_32  and  C24_34 
REMARK    9  A    between atoms: C24_34  and  C25_35 
REMARK   10  A    between atoms: C25_35  and  C26_36 
ROOT
HETATM    1  C11 UNL     1      31.686 -21.961 -11.204  1.00  0.00     0.123 C 
HETATM    2  C12 UNL     1      30.539 -21.407 -10.418  1.00  0.00     0.050 C 
HETATM    3  C13 UNL     1      31.158 -23.155 -11.977  1.00  0.00     0.251 C 
HETATM    4  O1  UNL     1      31.343 -23.447 -13.147  1.00  0.00    -0.270 OA
HETATM    5  N1  UNL     1      30.333 -24.040 -11.179  1.00  0.00    -0.320 N 
ATOM      6  H1  UNL     1      29.534 -24.499 -11.617  1.00  0.00     0.169 HD
HETATM    7  C14 UNL     1      30.603 -24.289  -9.806  1.00  0.00     0.102 C 
HETATM    8  C22 UNL     1      31.711 -23.588  -9.404  1.00  0.00     0.131 C 
HETATM    9  N3  UNL     1      32.478 -22.730 -10.266  1.00  0.00    -0.289 N 
HETATM   10  C23 UNL     1      33.855 -22.797 -10.074  1.00  0.00     0.323 C 
HETATM   11  O3  UNL     1      34.686 -22.137 -10.744  1.00  0.00    -0.247 OA
HETATM   12  N4  UNL     1      34.435 -23.637  -9.080  1.00  0.00    -0.343 N 
ATOM     13  H4  UNL     1      33.808 -24.196  -8.500  1.00  0.00     0.164 HD
ENDROOT
BRANCH   1  14
HETATM   14  C10 UNL     1      32.311 -21.080 -12.203  1.00  0.00     0.032 C 
HETATM   15  C4  UNL     1      33.223 -19.999 -11.822  1.00  0.00     0.020 C 
HETATM   16  C5  UNL     1      32.630 -18.678 -11.426  1.00  0.00     0.009 C 
HETATM   17  C6  UNL     1      31.662 -17.983 -12.256  1.00  0.00     0.001 C 
HETATM   18  C7  UNL     1      30.263 -18.476 -12.341  1.00  0.00     0.000 C 
HETATM   19  C8  UNL     1      30.125 -19.904 -12.839  1.00  0.00     0.001 C 
HETATM   20  C9  UNL     1      31.405 -20.496 -13.261  1.00  0.00     0.008 C 
BRANCH  15  21
HETATM   21  C2  UNL     1      34.275 -19.709 -12.835  1.00  0.00    -0.088 C 
HETATM   22  C1  UNL     1      34.780 -18.526 -13.071  1.00  0.00     0.014 C 
HETATM   23  C3  UNL     1      34.851 -20.791 -13.702  1.00  0.00     0.043 C 
ENDBRANCH  15  21
ENDBRANCH   1  14
BRANCH   7  24
HETATM   24  C15 UNL     1      29.915 -25.144  -8.906  1.00  0.00     0.167 C 
BRANCH  24  25
HETATM   25  O2  UNL     1      30.449 -26.365  -8.891  1.00  0.00    -0.344 OA
ATOM     26  H2  UNL     1      30.989 -26.497  -8.120  1.00  0.00     0.219 HD
ENDBRANCH  24  25
BRANCH  24  27
HETATM   27  N2  UNL     1      28.826 -25.043  -8.030  1.00  0.00    -0.352 N 
BRANCH  27  28
HETATM   28  C16 UNL     1      27.528 -25.558  -8.296  1.00  0.00     0.078 C 
HETATM   29  C17 UNL     1      27.006 -25.347  -9.711  1.00  0.00     0.032 C 
HETATM   30  C18 UNL     1      27.429 -27.082  -8.000  1.00  0.00     0.032 C 
ENDBRANCH  27  28
BRANCH  27  31
HETATM   31  C19 UNL     1      29.107 -24.310  -6.784  1.00  0.00     0.078 C 
HETATM   32  C20 UNL     1      28.619 -22.929  -6.704  1.00  0.00     0.032 C 
HETATM   33  C21 UNL     1      28.591 -25.108  -5.591  1.00  0.00     0.032 C 
ENDBRANCH  27  31
ENDBRANCH  24  27
ENDBRANCH   7  24
BRANCH  12  34
HETATM   34  C24 UNL     1      35.858 -23.745  -8.843  1.00  0.00     0.125 C 
BRANCH  34  35
HETATM   35  C25 UNL     1      36.407 -24.912  -9.594  1.00  0.00     0.023 C 
BRANCH  35  36
HETATM   36  C26 UNL     1      37.677 -24.535 -10.346  1.00  0.00    -0.021 C 
HETATM   37  C27 UNL     1      38.702 -25.637 -10.296  1.00  0.00     0.009 C 
HETATM   38  C28 UNL     1      37.294 -24.303 -11.787  1.00  0.00     0.009 C 
ENDBRANCH  35  36
ENDBRANCH  34  35
ENDBRANCH  12  34
TORSDOF 10
ENDMDL
MODEL 2
REMARK VINA RESULT: -8.389047250      0.348      1.644
REMARK  10 active torsions:
REMARK  status: ('A' for Active; 'I' for Inactive)
REMARK    1  A    between atoms: C2_2  and  C4_4 
REMARK    2  A    between atoms: C10_10  and  C11_11 
REMARK    3  A    between atoms: C14_17  and  C15_18 
REMARK    4  A    between atoms: C15_18  and  O2_19 
REMARK    5  A    between atoms: C15_18  and  N2_21 
REMARK    6  A    between atoms: N2_21  and  C16_22 
REMARK    7  A    between atoms: N2_21  and  C19_25 
REMARK       I    between atoms: N3_29  and  C23_30 
REMARK       I    between atoms: C23_30  and  N4_32 
REMARK    8  A    between atoms: N4_32  and  C24_34 
REMARK    9  A    between atoms: C24_34  and  C25_35 
REMARK   10  A    between atoms: C25_35  and  C26_36 
ROOT
HETATM    1  C11 UNL     1      31.695 -22.044 -11.131  1.00  0.00     0.123 C 
HETATM    2  C12 UNL     1      30.552 -21.520 -10.319  1.00  0.00     0.050 C 
HETATM    3  C13 UNL     1      31.180 -23.249 -11.896  1.00  0.00     0.251 C 
HETATM    4  O1  UNL     1      31.346 -23.534 -13.071  1.00  0.00    -0.270 OA
HETATM    5  N1  UNL     1      30.393 -24.155 -11.084  1.00  0.00    -0.320 N 
ATOM      6  H1  UNL     1      29.596 -24.632 -11.506  1.00  0.00     0.169 HD
HETATM    7  C14 UNL     1      30.698 -24.401  -9.717  1.00  0.00     0.102 C 
HETATM    8  C22 UNL     1      31.797 -23.675  -9.336  1.00  0.00     0.131 C 
HETATM    9  N3  UNL     1      32.524 -22.797 -10.212  1.00  0.00    -0.289 N 
HETATM   10  C23 UNL     1      33.907 -22.831 -10.050  1.00  0.00     0.323 C 
HETATM   11  O3  UNL     1      34.708 -22.149 -10.736  1.00  0.00    -0.247 OA
HETATM   12  N4  UNL     1      34.527 -23.659  -9.071  1.00  0.00    -0.343 N 
ATOM     13  H4  UNL     1      33.927 -24.235  -8.480  1.00  0.00     0.164 HD
ENDROOT
BRANCH   1  14
HETATM   14  C10 UNL     1      32.277 -21.146 -12.140  1.00  0.00     0.032 C 
HETATM   15  C4  UNL     1      33.179 -20.051 -11.776  1.00  0.00     0.020 C 
HETATM   16  C5  UNL     1      32.573 -18.743 -11.357  1.00  0.00     0.009 C 
HETATM   17  C6  UNL     1      31.571 -18.062 -12.157  1.00  0.00     0.001 C 
HETATM   18  C7  UNL     1      30.179 -18.580 -12.209  1.00  0.00     0.000 C 
HETATM   19  C8  UNL     1      30.054 -20.007 -12.711  1.00  0.00     0.001 C 
HETATM   20  C9  UNL     1      31.333 -20.573 -13.170  1.00  0.00     0.008 C 
BRANCH  15  21
HETATM   21  C2  UNL     1      34.198 -19.735 -12.815  1.00  0.00    -0.088 C 
HETATM   22  C1  UNL     1      34.680 -18.544 -13.052  1.00  0.00     0.014 C 
HETATM   23  C3  UNL     1      34.765 -20.800 -13.708  1.00  0.00     0.043 C 
ENDBRANCH  15  21
ENDBRANCH   1  14
BRANCH   7  24
HETATM   24  C15 UNL     1      30.050 -25.274  -8.805  1.00  0.00     0.167 C 
BRANCH  24  25
HETATM   25  O2  UNL     1      30.836 -26.298  -8.470  1.00  0.00    -0.344 OA
ATOM     26  H2  UNL     1      30.394 -26.893  -7.876  1.00  0.00     0.219 HD
ENDBRANCH  24  25
BRANCH  24  27
HETATM   27  N2  UNL     1      28.806 -25.344  -8.165  1.00  0.00    -0.352 N 
BRANCH  27  28
HETATM   28  C16 UNL     1      28.430 -24.551  -7.047  1.00  0.00     0.078 C 
HETATM   29  C17 UNL     1      29.084 -24.919  -5.721  1.00  0.00     0.032 C 
HETATM   30  C18 UNL     1      28.703 -23.038  -7.281  1.00  0.00     0.032 C 
ENDBRANCH  27  28
BRANCH  27  31
HETATM   31  C19 UNL     1      27.887 -26.353  -8.719  1.00  0.00     0.078 C 
HETATM   32  C20 UNL     1      27.233 -27.250  -7.760  1.00  0.00     0.032 C 
HETATM   33  C21 UNL     1      26.833 -25.669  -9.584  1.00  0.00     0.032 C 
ENDBRANCH  27  31
ENDBRANCH  24  27
ENDBRANCH   7  24
BRANCH  12  34
HETATM   34  C24 UNL     1      35.958 -23.734  -8.865  1.00  0.00     0.125 C 
BRANCH  34  35
HETATM   35  C25 UNL     1      36.511 -24.916  -9.588  1.00  0.00     0.023 C 
BRANCH  35  36
HETATM   36  C26 UNL     1      37.462 -24.488 -10.698  1.00  0.00    -0.021 C 
HETATM   37  C27 UNL     1      38.734 -25.293 -10.684  1.00  0.00     0.009 C 
HETATM   38  C28 UNL     1      36.758 -24.729 -12.011  1.00  0.00     0.009 C 
ENDBRANCH  35  36
ENDBRANCH  34  35
ENDBRANCH  12  34
TORSDOF 10
ENDMDL
MODEL 3
REMARK VINA RESULT: -8.387788752      3.030      4.387
REMARK  10 active torsions:
REMARK  status: ('A' for Active; 'I' for Inactive)
REMARK    1  A    between atoms: C2_2  and  C4_4 
REMARK    2  A    between atoms: C10_10  and  C11_11 
REMARK    3  A    between atoms: C14_17  and  C15_18 
REMARK    4  A    between atoms: C15_18  and  O2_19 
REMARK    5  A    between atoms: C15_18  and  N2_21 
REMARK    6  A    between atoms: N2_21  and  C16_22 
REMARK    7  A    between atoms: N2_21  and  C19_25 
REMARK       I    between atoms: N3_29  and  C23_30 
REMARK       I    between atoms: C23_30  and  N4_32 
REMARK    8  A    between atoms: N4_32  and  C24_34 
REMARK    9  A    between atoms: C24_34  and  C25_35 
REMARK   10  A    between atoms: C25_35  and  C26_36 
ROOT
HETATM    1  C11 UNL     1      34.208 -22.779 -10.118  1.00  0.00     0.123 C 
HETATM    2  C12 UNL     1      32.839 -22.585 -10.689  1.00  0.00     0.050 C 
HETATM    3  C13 UNL     1      34.388 -24.269  -9.893  1.00  0.00     0.251 C 
HETATM    4  O1  UNL     1      35.347 -24.971 -10.168  1.00  0.00    -0.270 OA
HETATM    5  N1  UNL     1      33.244 -24.899  -9.263  1.00  0.00    -0.320 N 
ATOM      6  H1  UNL     1      32.991 -25.849  -9.537  1.00  0.00     0.169 HD
HETATM    7  C14 UNL     1      32.466 -24.235  -8.277  1.00  0.00     0.102 C 
HETATM    8  C22 UNL     1      32.961 -22.978  -8.046  1.00  0.00     0.131 C 
HETATM    9  N3  UNL     1      34.109 -22.429  -8.715  1.00  0.00    -0.289 N 
HETATM   10  C23 UNL     1      34.947 -21.671  -7.903  1.00  0.00     0.323 C 
HETATM   11  O3  UNL     1      36.006 -21.129  -8.304  1.00  0.00    -0.247 OA
HETATM   12  N4  UNL     1      34.658 -21.450  -6.525  1.00  0.00    -0.343 N 
ATOM     13  H4  UNL     1      33.809 -21.864  -6.141  1.00  0.00     0.164 HD
ENDROOT
BRANCH   1  14
HETATM   14  C10 UNL     1      35.353 -22.357 -10.941  1.00  0.00     0.032 C 
HETATM   15  C4  UNL     1      35.573 -20.954 -11.300  1.00  0.00     0.020 C 
HETATM   16  C5  UNL     1      34.856 -20.408 -12.501  1.00  0.00     0.009 C 
HETATM   17  C6  UNL     1      34.899 -21.067 -13.795  1.00  0.00     0.001 C 
HETATM   18  C7  UNL     1      34.128 -22.316 -14.022  1.00  0.00     0.000 C 
HETATM   19  C8  UNL     1      34.483 -23.458 -13.085  1.00  0.00     0.001 C 
HETATM   20  C9  UNL     1      35.617 -23.148 -12.200  1.00  0.00     0.008 C 
BRANCH  15  21
HETATM   21  C2  UNL     1      37.009 -20.588 -11.458  1.00  0.00    -0.088 C 
HETATM   22  C1  UNL     1      38.016 -21.355 -11.135  1.00  0.00     0.014 C 
HETATM   23  C3  UNL     1      37.422 -19.256 -12.014  1.00  0.00     0.043 C 
ENDBRANCH  15  21
ENDBRANCH   1  14
BRANCH   7  24
HETATM   24  C15 UNL     1      31.347 -24.722  -7.552  1.00  0.00     0.167 C 
BRANCH  24  25
HETATM   25  O2  UNL     1      31.727 -25.448  -6.500  1.00  0.00    -0.344 OA
ATOM     26  H2  UNL     1      32.039 -24.895  -5.793  1.00  0.00     0.219 HD
ENDBRANCH  24  25
BRANCH  24  27
HETATM   27  N2  UNL     1      29.951 -24.641  -7.649  1.00  0.00    -0.352 N 
BRANCH  27  28
HETATM   28  C16 UNL     1      29.206 -24.955  -8.818  1.00  0.00     0.078 C 
HETATM   29  C17 UNL     1      29.432 -24.043 -10.016  1.00  0.00     0.032 C 
HETATM   30  C18 UNL     1      29.462 -26.411  -9.304  1.00  0.00     0.032 C 
ENDBRANCH  27  28
BRANCH  27  31
HETATM   31  C19 UNL     1      29.279 -24.157  -6.431  1.00  0.00     0.078 C 
HETATM   32  C20 UNL     1      28.639 -22.840  -6.509  1.00  0.00     0.032 C 
HETATM   33  C21 UNL     1      28.266 -25.194  -5.957  1.00  0.00     0.032 C 
ENDBRANCH  27  31
ENDBRANCH  24  27
ENDBRANCH   7  24
BRANCH  12  34
HETATM   34  C24 UNL     1      35.498 -20.675  -5.638  1.00  0.00     0.125 C 
BRANCH  34  35
HETATM   35  C25 UNL     1      34.648 -19.870  -4.712  1.00  0.00     0.023 C 
BRANCH  35  36
HETATM   36  C26 UNL     1      34.684 -18.392  -5.077  1.00  0.00    -0.021 C 
HETATM   37  C27 UNL     1      34.753 -17.517  -3.853  1.00  0.00     0.009 C 
HETATM   38  C28 UNL     1      35.928 -18.161  -5.900  1.00  0.00     0.009 C 
ENDBRANCH  35  36
ENDBRANCH  34  35
ENDBRANCH  12  34
TORSDOF 10
ENDMDL
MODEL 4
REMARK VINA RESULT: -8.255050362      1.411      2.149
REMARK  10 active torsions:
REMARK  status: ('A' for Active; 'I' for Inactive)
REMARK    1  A    between atoms: C2_2  and  C4_4 
REMARK    2  A    between atoms: C10_10  and  C11_11 
REMARK    3  A    between atoms: C14_17  and  C15_18 
REMARK    4  A    between atoms: C15_18  and  O2_19 
REMARK    5  A    between atoms: C15_18  and  N2_21 
REMARK    6  A    between atoms: N2_21  and  C16_22 
REMARK    7  A    between atoms: N2_21  and  C19_25 
REMARK       I    between atoms: N3_29  and  C23_30 
REMARK       I    between atoms: C23_30  and  N4_32 
REMARK    8  A    between atoms: N4_32  and  C24_34 
REMARK    9  A    between atoms: C24_34  and  C25_35 
REMARK   10  A    between atoms: C25_35  and  C26_36 
ROOT
HETATM    1  C11 UNL     1      31.490 -22.058 -11.263  1.00  0.00     0.123 C 
HETATM    2  C12 UNL     1      30.154 -21.611 -10.759  1.00  0.00     0.050 C 
HETATM    3  C13 UNL     1      31.281 -23.397 -11.945  1.00  0.00     0.251 C 
HETATM    4  O1  UNL     1      31.715 -23.782 -13.019  1.00  0.00    -0.270 OA
HETATM    5  N1  UNL     1      30.452 -24.310 -11.183  1.00  0.00    -0.320 N 
ATOM      6  H1  UNL     1      29.817 -24.934 -11.681  1.00  0.00     0.169 HD
HETATM    7  C14 UNL     1      30.498 -24.364  -9.763  1.00  0.00     0.102 C 
HETATM    8  C22 UNL     1      31.407 -23.457  -9.281  1.00  0.00     0.131 C 
HETATM    9  N3  UNL     1      32.194 -22.588 -10.112  1.00  0.00    -0.289 N 
HETATM   10  C23 UNL     1      33.509 -22.415  -9.688  1.00  0.00     0.323 C 
HETATM   11  O3  UNL     1      34.351 -21.708 -10.295  1.00  0.00    -0.247 OA
HETATM   12  N4  UNL     1      34.006 -23.041  -8.509  1.00  0.00    -0.343 N 
ATOM     13  H4  UNL     1      33.366 -23.626  -7.971  1.00  0.00     0.164 HD
ENDROOT
BRANCH   1  14
HETATM   14  C10 UNL     1      32.162 -21.203 -12.254  1.00  0.00     0.032 C 
HETATM   15  C4  UNL     1      33.113 -20.161 -11.861  1.00  0.00     0.020 C 
HETATM   16  C5  UNL     1      32.570 -18.816 -11.471  1.00  0.00     0.009 C 
HETATM   17  C6  UNL     1      31.640 -18.083 -12.311  1.00  0.00     0.001 C 
HETATM   18  C7  UNL     1      30.223 -18.518 -12.412  1.00  0.00     0.000 C 
HETATM   19  C8  UNL     1      30.032 -19.939 -12.913  1.00  0.00     0.001 C 
HETATM   20  C9  UNL     1      31.292 -20.582 -13.321  1.00  0.00     0.008 C 
BRANCH  15  21
HETATM   21  C2  UNL     1      34.187 -19.912 -12.863  1.00  0.00    -0.088 C 
HETATM   22  C1  UNL     1      34.704 -18.742 -13.130  1.00  0.00     0.014 C 
HETATM   23  C3  UNL     1      34.773 -21.028 -13.678  1.00  0.00     0.043 C 
ENDBRANCH  15  21
ENDBRANCH   1  14
BRANCH   7  24
HETATM   24  C15 UNL     1      29.779 -25.214  -8.883  1.00  0.00     0.167 C 
BRANCH  24  25
HETATM   25  O2  UNL     1      30.265 -26.455  -8.902  1.00  0.00    -0.344 OA
ATOM     26  H2  UNL     1      30.126 -26.894  -8.071  1.00  0.00     0.219 HD
ENDBRANCH  24  25
BRANCH  24  27
HETATM   27  N2  UNL     1      28.698 -25.093  -8.000  1.00  0.00    -0.352 N 
BRANCH  27  28
HETATM   28  C16 UNL     1      27.384 -25.563  -8.267  1.00  0.00     0.078 C 
HETATM   29  C17 UNL     1      26.872 -25.338  -9.684  1.00  0.00     0.032 C 
HETATM   30  C18 UNL     1      27.231 -27.082  -7.967  1.00  0.00     0.032 C 
ENDBRANCH  27  28
BRANCH  27  31
HETATM   31  C19 UNL     1      29.008 -24.389  -6.744  1.00  0.00     0.078 C 
HETATM   32  C20 UNL     1      28.500 -23.020  -6.610  1.00  0.00     0.032 C 
HETATM   33  C21 UNL     1      28.545 -25.228  -5.557  1.00  0.00     0.032 C 
ENDBRANCH  27  31
ENDBRANCH  24  27
ENDBRANCH   7  24
BRANCH  12  34
HETATM   34  C24 UNL     1      35.363 -22.897  -8.029  1.00  0.00     0.125 C 
BRANCH  34  35
HETATM   35  C25 UNL     1      35.352 -22.349  -6.640  1.00  0.00     0.023 C 
BRANCH  35  36
HETATM   36  C26 UNL     1      34.829 -20.920  -6.616  1.00  0.00    -0.021 C 
HETATM   37  C27 UNL     1      35.010 -20.283  -5.264  1.00  0.00     0.009 C 
HETATM   38  C28 UNL     1      35.625 -20.131  -7.627  1.00  0.00     0.009 C 
ENDBRANCH  35  36
ENDBRANCH  34  35
ENDBRANCH  12  34
TORSDOF 10
ENDMDL
MODEL 5
REMARK VINA RESULT: -8.170496606      1.518      2.782
REMARK  10 active torsions:
REMARK  status: ('A' for Active; 'I' for Inactive)
REMARK    1  A    between atoms: C2_2  and  C4_4 
REMARK    2  A    between atoms: C10_10  and  C11_11 
REMARK    3  A    between atoms: C14_17  and  C15_18 
REMARK    4  A    between atoms: C15_18  and  O2_19 
REMARK    5  A    between atoms: C15_18  and  N2_21 
REMARK    6  A    between atoms: N2_21  and  C16_22 
REMARK    7  A    between atoms: N2_21  and  C19_25 
REMARK       I    between atoms: N3_29  and  C23_30 
REMARK       I    between atoms: C23_30  and  N4_32 
REMARK    8  A    between atoms: N4_32  and  C24_34 
REMARK    9  A    between atoms: C24_34  and  C25_35 
REMARK   10  A    between atoms: C25_35  and  C26_36 
ROOT
HETATM    1  C11 UNL     1      31.546 -22.029 -11.190  1.00  0.00     0.123 C 
HETATM    2  C12 UNL     1      30.178 -21.676 -10.696  1.00  0.00     0.050 C 
HETATM    3  C13 UNL     1      31.436 -23.381 -11.870  1.00  0.00     0.251 C 
HETATM    4  O1  UNL     1      31.902 -23.737 -12.940  1.00  0.00    -0.270 OA
HETATM    5  N1  UNL     1      30.669 -24.349 -11.110  1.00  0.00    -0.320 N 
ATOM      6  H1  UNL     1      30.082 -25.017 -11.610  1.00  0.00     0.169 HD
HETATM    7  C14 UNL     1      30.709 -24.395  -9.689  1.00  0.00     0.102 C 
HETATM    8  C22 UNL     1      31.549 -23.425  -9.205  1.00  0.00     0.131 C 
HETATM    9  N3  UNL     1      32.278 -22.504 -10.034  1.00  0.00    -0.289 N 
HETATM   10  C23 UNL     1      33.575 -22.238  -9.603  1.00  0.00     0.323 C 
HETATM   11  O3  UNL     1      34.369 -21.475 -10.207  1.00  0.00    -0.247 OA
HETATM   12  N4  UNL     1      34.108 -22.824  -8.418  1.00  0.00    -0.343 N 
ATOM     13  H4  UNL     1      33.508 -23.451  -7.882  1.00  0.00     0.164 HD
ENDROOT
BRANCH   1  14
HETATM   14  C10 UNL     1      32.161 -21.131 -12.180  1.00  0.00     0.032 C 
HETATM   15  C4  UNL     1      33.024 -20.016 -11.785  1.00  0.00     0.020 C 
HETATM   16  C5  UNL     1      32.374 -18.715 -11.411  1.00  0.00     0.009 C 
HETATM   17  C6  UNL     1      31.400 -18.061 -12.268  1.00  0.00     0.001 C 
HETATM   18  C7  UNL     1      30.023 -18.606 -12.382  1.00  0.00     0.000 C 
HETATM   19  C8  UNL     1      29.949 -20.041 -12.874  1.00  0.00     0.001 C 
HETATM   20  C9  UNL     1      31.259 -20.587 -13.262  1.00  0.00     0.008 C 
BRANCH  15  21
HETATM   21  C2  UNL     1      34.088 -19.692 -12.775  1.00  0.00    -0.088 C 
HETATM   22  C1  UNL     1      34.534 -18.490 -13.028  1.00  0.00     0.014 C 
HETATM   23  C3  UNL     1      34.748 -20.761 -13.596  1.00  0.00     0.043 C 
ENDBRANCH  15  21
ENDBRANCH   1  14
BRANCH   7  24
HETATM   24  C15 UNL     1      30.047 -25.291  -8.810  1.00  0.00     0.167 C 
BRANCH  24  25
HETATM   25  O2  UNL     1      30.833 -26.316  -8.479  1.00  0.00    -0.344 OA
ATOM     26  H2  UNL     1      30.367 -26.953  -7.951  1.00  0.00     0.219 HD
ENDBRANCH  24  25
BRANCH  24  27
HETATM   27  N2  UNL     1      28.790 -25.383  -8.200  1.00  0.00    -0.352 N 
BRANCH  27  28
HETATM   28  C16 UNL     1      28.384 -24.617  -7.074  1.00  0.00     0.078 C 
HETATM   29  C17 UNL     1      29.088 -24.938  -5.762  1.00  0.00     0.032 C 
HETATM   30  C18 UNL     1      28.548 -23.089  -7.312  1.00  0.00     0.032 C 
ENDBRANCH  27  28
BRANCH  27  31
HETATM   31  C19 UNL     1      27.891 -26.386  -8.796  1.00  0.00     0.078 C 
HETATM   32  C20 UNL     1      27.333 -27.395  -7.891  1.00  0.00     0.032 C 
HETATM   33  C21 UNL     1      26.761 -25.684  -9.542  1.00  0.00     0.032 C 
ENDBRANCH  27  31
ENDBRANCH  24  27
ENDBRANCH   7  24
BRANCH  12  34
HETATM   34  C24 UNL     1      35.448 -22.583  -7.930  1.00  0.00     0.125 C 
BRANCH  34  35
HETATM   35  C25 UNL     1      35.395 -22.130  -6.509  1.00  0.00     0.023 C 
BRANCH  35  36
HETATM   36  C26 UNL     1      34.778 -20.742  -6.396  1.00  0.00    -0.021 C 
HETATM   37  C27 UNL     1      34.999 -20.144  -5.033  1.00  0.00     0.009 C 
HETATM   38  C28 UNL     1      35.456 -19.864  -7.419  1.00  0.00     0.009 C 
ENDBRANCH  35  36
ENDBRANCH  34  35
ENDBRANCH  12  34
TORSDOF 10
ENDMDL
