MODEL 1
REMARK VINA RESULT: -8.399317471      0.000      0.000
REMARK  11 active torsions:
REMARK  status: ('A' for Active; 'I' for Inactive)
REMARK    1  A    between atoms: C2_2  and  C3_3 
REMARK    2  A    between atoms: C2_2  and  N4_36 
REMARK    3  A    between atoms: C3_3  and  N1_4 
REMARK    4  A    between atoms: N1_4  and  C4_7 
REMARK    5  A    between atoms: C4_7  and  C6_10 
REMARK    6  A    between atoms: C6_10  and  C7_12 
REMARK    7  A    between atoms: C14_19  and  N3_20 
REMARK    8  A    between atoms: C25_31  and  O2_32 
REMARK    9  A    between atoms: C30_39  and  C31_40 
REMARK   10  A    between atoms: C31_40  and  C32_41 
REMARK   11  A    between atoms: C32_41  and  N5_42 
ROOT
HETATM    1  C4  UNL     1       3.273  40.029  24.966  1.00  0.00     0.360 C 
HETATM    2  C5  UNL     1       2.966  41.552  25.191  1.00  0.00     0.100 C 
HETATM    3  N2  UNL     1       2.711  42.674  25.359  1.00  0.00    -0.195 NA
ENDROOT
BRANCH   1   4
HETATM    4  N1  UNL     1       2.062  39.434  25.618  1.00  0.00    -0.050 N 
ATOM      5  H12 UNL     1       1.839  38.500  25.274  1.00  0.00     0.279 HD
ATOM      6  H11 UNL     1       1.192  39.887  25.336  1.00  0.00     0.279 HD
BRANCH   4   7
HETATM    7  C3  UNL     1       2.289  39.476  27.045  1.00  0.00     0.269 C 
BRANCH   7   8
HETATM    8  C2  UNL     1       1.923  38.239  27.755  1.00  0.00     0.244 C 
HETATM    9  C1  UNL     1       1.025  38.457  28.932  1.00  0.00     0.045 C 
BRANCH   8  10
HETATM   10  N4  UNL     1       3.081  37.462  28.146  1.00  0.00     0.094 N 
HETATM   11  C28 UNL     1       4.215  38.393  28.286  1.00  0.00     0.273 C 
HETATM   12  C29 UNL     1       5.356  37.578  28.727  1.00  0.00     0.035 C 
HETATM   13  C30 UNL     1       5.824  36.660  27.606  1.00  0.00    -0.010 C 
HETATM   14  C38 UNL     1       4.700  36.605  26.542  1.00  0.00     0.035 C 
HETATM   15  C39 UNL     1       3.400  36.402  27.258  1.00  0.00     0.273 C 
BRANCH  13  16
HETATM   16  C31 UNL     1       7.013  37.268  26.915  1.00  0.00     0.024 C 
BRANCH  16  17
HETATM   17  C32 UNL     1       7.961  36.201  26.354  1.00  0.00     0.122 C 
BRANCH  17  18
HETATM   18  N5  UNL     1       8.390  35.497  27.568  1.00  0.00    -0.390 N 
HETATM   19  C33 UNL     1       8.862  36.364  28.593  1.00  0.00     0.152 C 
HETATM   20  C34 UNL     1       8.565  35.651  29.920  1.00  0.00     0.292 C 
HETATM   21  N6  UNL     1       9.135  34.340  29.892  1.00  0.00     0.090 N 
HETATM   22  C35 UNL     1      10.016  34.248  31.044  1.00  0.00     0.310 C 
HETATM   23  C36 UNL     1       9.921  34.057  28.710  1.00  0.00     0.316 C 
HETATM   24  C37 UNL     1       9.164  34.338  27.419  1.00  0.00     0.088 C 
ENDBRANCH  17  18
ENDBRANCH  16  17
ENDBRANCH  13  16
ENDBRANCH   8  10
ENDBRANCH   7   8
ENDBRANCH   4   7
ENDBRANCH   1   4
BRANCH   1  25
HETATM   25  C6  UNL     1       3.219  39.962  23.508  1.00  0.00     0.176 C 
HETATM   26  O1  UNL     1       2.288  40.490  22.871  1.00  0.00    -0.294 OA
BRANCH  25  27
HETATM   27  C7  UNL     1       4.256  39.203  22.717  1.00  0.00     0.070 C 
HETATM   28  C8  UNL     1       5.234  38.572  23.675  1.00  0.00     0.013 C 
HETATM   29  C9  UNL     1       6.479  39.413  23.591  1.00  0.00     0.007 C 
HETATM   30  C10 UNL     1       6.468  39.734  22.126  1.00  0.00     0.002 C 
HETATM   31  C11 UNL     1       7.466  40.759  21.726  1.00  0.00     0.000 C 
HETATM   32  C26 UNL     1       5.043  40.245  21.924  1.00  0.00    -0.004 C 
HETATM   33  C12 UNL     1       8.647  40.036  21.067  1.00  0.00     0.001 C 
HETATM   34  C23 UNL     1       7.100  41.280  20.354  1.00  0.00     0.001 C 
HETATM   35  C13 UNL     1       9.869  40.336  21.917  1.00  0.00     0.041 C 
HETATM   36  C21 UNL     1       8.517  40.985  19.917  1.00  0.00    -0.036 C 
HETATM   37  C14 UNL     1      11.070  40.315  21.027  1.00  0.00     0.223 C 
HETATM   38  C19 UNL     1      10.944  41.608  20.188  1.00  0.00     0.036 C 
HETATM   39  C20 UNL     1       9.503  42.086  20.126  1.00  0.00     0.012 C 
HETATM   40  C22 UNL     1       8.626  40.394  18.530  1.00  0.00     0.016 C 
HETATM   41  C24 UNL     1       6.096  40.368  19.690  1.00  0.00     0.038 C 
HETATM   42  C25 UNL     1       4.817  40.181  20.441  1.00  0.00     0.128 C 
HETATM   43  C27 UNL     1       4.896  41.657  22.337  1.00  0.00     0.019 C 
BRANCH  37  44
HETATM   44  N3  UNL     1      12.253  40.450  21.897  1.00  0.00     0.093 N 
HETATM   45  C15 UNL     1      13.205  41.359  21.230  1.00  0.00     0.273 C 
HETATM   46  C16 UNL     1      14.038  41.758  22.437  1.00  0.00     0.032 C 
HETATM   47  C17 UNL     1      12.897  42.274  23.331  1.00  0.00     0.032 C 
HETATM   48  C18 UNL     1      11.838  41.244  23.070  1.00  0.00     0.273 C 
ENDBRANCH  37  44
BRANCH  42  49
HETATM   49  O2  UNL     1       4.211  38.986  20.076  1.00  0.00    -0.395 OA
ATOM     50  H2  UNL     1       4.376  38.798  19.159  1.00  0.00     0.210 HD
ENDBRANCH  42  49
ENDBRANCH  25  27
ENDBRANCH   1  25
TORSDOF 11
ENDMDL
MODEL 2
REMARK VINA RESULT: -8.317962576      2.916      4.088
REMARK  11 active torsions:
REMARK  status: ('A' for Active; 'I' for Inactive)
REMARK    1  A    between atoms: C2_2  and  C3_3 
REMARK    2  A    between atoms: C2_2  and  N4_36 
REMARK    3  A    between atoms: C3_3  and  N1_4 
REMARK    4  A    between atoms: N1_4  and  C4_7 
REMARK    5  A    between atoms: C4_7  and  C6_10 
REMARK    6  A    between atoms: C6_10  and  C7_12 
REMARK    7  A    between atoms: C14_19  and  N3_20 
REMARK    8  A    between atoms: C25_31  and  O2_32 
REMARK    9  A    between atoms: C30_39  and  C31_40 
REMARK   10  A    between atoms: C31_40  and  C32_41 
REMARK   11  A    between atoms: C32_41  and  N5_42 
ROOT
HETATM    1  C4  UNL     1       5.986  41.043  25.527  1.00  0.00     0.360 C 
HETATM    2  C5  UNL     1       6.517  41.181  26.998  1.00  0.00     0.100 C 
HETATM    3  N2  UNL     1       6.889  41.300  28.093  1.00  0.00    -0.195 NA
ENDROOT
BRANCH   1   4
HETATM    4  N1  UNL     1       4.535  41.337  25.760  1.00  0.00    -0.050 N 
ATOM      5  H12 UNL     1       4.026  41.546  24.902  1.00  0.00     0.279 HD
ATOM      6  H11 UNL     1       4.377  42.231  26.227  1.00  0.00     0.279 HD
BRANCH   4   7
HETATM    7  C3  UNL     1       3.990  40.212  26.486  1.00  0.00     0.269 C 
BRANCH   7   8
HETATM    8  C2  UNL     1       3.316  39.212  25.641  1.00  0.00     0.244 C 
HETATM    9  C1  UNL     1       1.845  39.095  25.893  1.00  0.00     0.045 C 
BRANCH   8  10
HETATM   10  N4  UNL     1       3.943  37.909  25.718  1.00  0.00     0.094 N 
HETATM   11  C28 UNL     1       4.769  37.885  26.940  1.00  0.00     0.273 C 
HETATM   12  C29 UNL     1       5.349  36.536  27.009  1.00  0.00     0.035 C 
HETATM   13  C30 UNL     1       6.386  36.342  25.910  1.00  0.00    -0.010 C 
HETATM   14  C38 UNL     1       6.180  37.465  24.865  1.00  0.00     0.035 C 
HETATM   15  C39 UNL     1       4.713  37.562  24.578  1.00  0.00     0.273 C 
BRANCH  13  16
HETATM   16  C31 UNL     1       7.764  36.552  26.471  1.00  0.00     0.024 C 
BRANCH  16  17
HETATM   17  C32 UNL     1       8.686  35.356  26.199  1.00  0.00     0.122 C 
BRANCH  17  18
HETATM   18  N5  UNL     1       8.878  34.800  27.544  1.00  0.00    -0.390 N 
HETATM   19  C33 UNL     1       9.201  35.779  28.525  1.00  0.00     0.152 C 
HETATM   20  C34 UNL     1       8.659  35.240  29.856  1.00  0.00     0.292 C 
HETATM   21  N6  UNL     1       9.177  33.927  30.082  1.00  0.00     0.090 N 
HETATM   22  C35 UNL     1       9.847  33.964  31.370  1.00  0.00     0.310 C 
HETATM   23  C36 UNL     1      10.140  33.488  29.095  1.00  0.00     0.316 C 
HETATM   24  C37 UNL     1       9.622  33.619  27.669  1.00  0.00     0.088 C 
ENDBRANCH  17  18
ENDBRANCH  16  17
ENDBRANCH  13  16
ENDBRANCH   8  10
ENDBRANCH   7   8
ENDBRANCH   4   7
ENDBRANCH   1   4
BRANCH   1  25
HETATM   25  C6  UNL     1       6.691  42.151  24.888  1.00  0.00     0.176 C 
HETATM   26  O1  UNL     1       6.313  43.329  25.037  1.00  0.00    -0.294 OA
BRANCH  25  27
HETATM   27  C7  UNL     1       7.869  41.912  23.975  1.00  0.00     0.070 C 
HETATM   28  C8  UNL     1       8.550  43.228  23.703  1.00  0.00     0.013 C 
HETATM   29  C9  UNL     1       8.151  43.604  22.301  1.00  0.00     0.007 C 
HETATM   30  C10 UNL     1       8.149  42.246  21.666  1.00  0.00     0.002 C 
HETATM   31  C11 UNL     1       7.571  42.221  20.298  1.00  0.00     0.000 C 
HETATM   32  C26 UNL     1       7.293  41.441  22.642  1.00  0.00    -0.004 C 
HETATM   33  C12 UNL     1       8.731  42.158  19.297  1.00  0.00     0.001 C 
HETATM   34  C23 UNL     1       7.259  40.787  19.932  1.00  0.00     0.001 C 
HETATM   35  C13 UNL     1       8.637  43.412  18.444  1.00  0.00     0.041 C 
HETATM   36  C21 UNL     1       8.043  40.993  18.656  1.00  0.00    -0.036 C 
HETATM   37  C14 UNL     1       9.195  43.098  17.094  1.00  0.00     0.223 C 
HETATM   38  C19 UNL     1       8.125  42.193  16.442  1.00  0.00     0.036 C 
HETATM   39  C20 UNL     1       7.265  41.511  17.492  1.00  0.00     0.012 C 
HETATM   40  C22 UNL     1       8.912  39.818  18.268  1.00  0.00     0.016 C 
HETATM   41  C24 UNL     1       7.949  39.834  20.880  1.00  0.00     0.038 C 
HETATM   42  C25 UNL     1       7.591  40.005  22.321  1.00  0.00     0.128 C 
HETATM   43  C27 UNL     1       5.847  41.657  22.418  1.00  0.00     0.019 C 
BRANCH  37  44
HETATM   44  N3  UNL     1       9.241  44.365  16.341  1.00  0.00     0.093 N 
HETATM   45  C15 UNL     1      10.618  44.546  15.841  1.00  0.00     0.273 C 
HETATM   46  C16 UNL     1      10.337  45.544  14.729  1.00  0.00     0.032 C 
HETATM   47  C17 UNL     1       9.284  44.727  13.961  1.00  0.00     0.032 C 
HETATM   48  C18 UNL     1       8.485  44.151  15.092  1.00  0.00     0.273 C 
ENDBRANCH  37  44
BRANCH  42  49
HETATM   49  O2  UNL     1       8.601  39.508  23.133  1.00  0.00    -0.395 OA
ATOM     50  H2  UNL     1       8.458  38.586  23.313  1.00  0.00     0.210 HD
ENDBRANCH  42  49
ENDBRANCH  25  27
ENDBRANCH   1  25
TORSDOF 11
ENDMDL
MODEL 3
REMARK VINA RESULT: -8.248565165      2.020      8.205
REMARK  11 active torsions:
REMARK  status: ('A' for Active; 'I' for Inactive)
REMARK    1  A    between atoms: C2_2  and  C3_3 
REMARK    2  A    between atoms: C2_2  and  N4_36 
REMARK    3  A    between atoms: C3_3  and  N1_4 
REMARK    4  A    between atoms: N1_4  and  C4_7 
REMARK    5  A    between atoms: C4_7  and  C6_10 
REMARK    6  A    between atoms: C6_10  and  C7_12 
REMARK    7  A    between atoms: C14_19  and  N3_20 
REMARK    8  A    between atoms: C25_31  and  O2_32 
REMARK    9  A    between atoms: C30_39  and  C31_40 
REMARK   10  A    between atoms: C31_40  and  C32_41 
REMARK   11  A    between atoms: C32_41  and  N5_42 
ROOT
HETATM    1  C4  UNL     1       2.943  37.309  23.368  1.00  0.00     0.360 C 
HETATM    2  C5  UNL     1       1.829  36.489  24.110  1.00  0.00     0.100 C 
HETATM    3  N2  UNL     1       0.985  35.899  24.650  1.00  0.00    -0.195 NA
ENDROOT
BRANCH   1   4
HETATM    4  N1  UNL     1       2.127  37.872  22.244  1.00  0.00    -0.050 N 
ATOM      5  H12 UNL     1       1.332  38.427  22.564  1.00  0.00     0.279 HD
ATOM      6  H11 UNL     1       1.595  37.162  21.740  1.00  0.00     0.279 HD
BRANCH   4   7
HETATM    7  C3  UNL     1       3.033  38.613  21.396  1.00  0.00     0.269 C 
BRANCH   7   8
HETATM    8  C2  UNL     1       2.780  40.064  21.357  1.00  0.00     0.244 C 
HETATM    9  C1  UNL     1       1.551  40.446  20.592  1.00  0.00     0.045 C 
BRANCH   8  10
HETATM   10  N4  UNL     1       3.923  40.812  20.876  1.00  0.00     0.094 N 
HETATM   11  C28 UNL     1       4.611  39.977  19.874  1.00  0.00     0.273 C 
HETATM   12  C29 UNL     1       5.734  40.786  19.376  1.00  0.00     0.035 C 
HETATM   13  C30 UNL     1       6.798  40.947  20.454  1.00  0.00    -0.010 C 
HETATM   14  C38 UNL     1       6.157  40.558  21.809  1.00  0.00     0.035 C 
HETATM   15  C39 UNL     1       4.820  41.228  21.894  1.00  0.00     0.273 C 
BRANCH  13  16
HETATM   16  C31 UNL     1       7.905  39.956  20.226  1.00  0.00     0.024 C 
BRANCH  16  17
HETATM   17  C32 UNL     1       8.539  39.487  21.541  1.00  0.00     0.122 C 
BRANCH  17  18
HETATM   18  N5  UNL     1       9.887  40.061  21.459  1.00  0.00    -0.390 N 
HETATM   19  C33 UNL     1      10.228  40.879  22.572  1.00  0.00     0.152 C 
HETATM   20  C34 UNL     1      11.752  40.779  22.721  1.00  0.00     0.292 C 
HETATM   21  N6  UNL     1      12.374  41.115  21.479  1.00  0.00     0.090 N 
HETATM   22  C35 UNL     1      13.292  42.205  21.759  1.00  0.00     0.310 C 
HETATM   23  C36 UNL     1      11.454  41.564  20.455  1.00  0.00     0.316 C 
HETATM   24  C37 UNL     1      10.304  40.591  20.230  1.00  0.00     0.088 C 
ENDBRANCH  17  18
ENDBRANCH  16  17
ENDBRANCH  13  16
ENDBRANCH   8  10
ENDBRANCH   7   8
ENDBRANCH   4   7
ENDBRANCH   1   4
BRANCH   1  25
HETATM   25  C6  UNL     1       3.262  38.304  24.388  1.00  0.00     0.176 C 
HETATM   26  O1  UNL     1       2.365  38.954  24.959  1.00  0.00    -0.294 OA
BRANCH  25  27
HETATM   27  C7  UNL     1       4.690  38.628  24.751  1.00  0.00     0.070 C 
HETATM   28  C8  UNL     1       5.606  37.686  24.013  1.00  0.00     0.013 C 
HETATM   29  C9  UNL     1       6.074  36.692  25.042  1.00  0.00     0.007 C 
HETATM   30  C10 UNL     1       6.199  37.599  26.230  1.00  0.00     0.002 C 
HETATM   31  C11 UNL     1       6.437  36.885  27.511  1.00  0.00     0.000 C 
HETATM   32  C26 UNL     1       4.843  38.303  26.235  1.00  0.00    -0.004 C 
HETATM   33  C12 UNL     1       7.924  37.020  27.857  1.00  0.00     0.001 C 
HETATM   34  C23 UNL     1       6.148  37.834  28.653  1.00  0.00     0.001 C 
HETATM   35  C13 UNL     1       8.492  35.612  27.894  1.00  0.00     0.041 C 
HETATM   36  C21 UNL     1       7.510  37.494  29.215  1.00  0.00    -0.036 C 
HETATM   37  C14 UNL     1       9.623  35.593  28.870  1.00  0.00     0.223 C 
HETATM   38  C19 UNL     1       8.936  35.693  30.252  1.00  0.00     0.036 C 
HETATM   39  C20 UNL     1       7.557  36.320  30.137  1.00  0.00     0.012 C 
HETATM   40  C22 UNL     1       8.258  38.679  29.782  1.00  0.00     0.016 C 
HETATM   41  C24 UNL     1       6.075  39.258  28.155  1.00  0.00     0.038 C 
HETATM   42  C25 UNL     1       5.040  39.509  27.107  1.00  0.00     0.128 C 
HETATM   43  C27 UNL     1       3.789  37.471  26.855  1.00  0.00     0.019 C 
BRANCH  37  44
HETATM   44  N3  UNL     1      10.256  34.265  28.771  1.00  0.00     0.093 N 
HETATM   45  C15 UNL     1       9.494  33.334  29.625  1.00  0.00     0.273 C 
HETATM   46  C16 UNL     1       9.941  32.020  29.004  1.00  0.00     0.032 C 
HETATM   47  C17 UNL     1       9.540  32.318  27.548  1.00  0.00     0.032 C 
HETATM   48  C18 UNL     1       9.967  33.750  27.418  1.00  0.00     0.273 C 
ENDBRANCH  37  44
BRANCH  42  49
HETATM   49  O2  UNL     1       5.375  40.625  26.353  1.00  0.00    -0.395 OA
ATOM     50  H2  UNL     1       4.650  41.239  26.329  1.00  0.00     0.210 HD
ENDBRANCH  42  49
ENDBRANCH  25  27
ENDBRANCH   1  25
TORSDOF 11
ENDMDL
MODEL 4
REMARK VINA RESULT: -8.235169815      3.170      8.151
REMARK  11 active torsions:
REMARK  status: ('A' for Active; 'I' for Inactive)
REMARK    1  A    between atoms: C2_2  and  C3_3 
REMARK    2  A    between atoms: C2_2  and  N4_36 
REMARK    3  A    between atoms: C3_3  and  N1_4 
REMARK    4  A    between atoms: N1_4  and  C4_7 
REMARK    5  A    between atoms: C4_7  and  C6_10 
REMARK    6  A    between atoms: C6_10  and  C7_12 
REMARK    7  A    between atoms: C14_19  and  N3_20 
REMARK    8  A    between atoms: C25_31  and  O2_32 
REMARK    9  A    between atoms: C30_39  and  C31_40 
REMARK   10  A    between atoms: C31_40  and  C32_41 
REMARK   11  A    between atoms: C32_41  and  N5_42 
ROOT
HETATM    1  C4  UNL     1       2.801  36.542  23.336  1.00  0.00     0.360 C 
HETATM    2  C5  UNL     1       3.239  35.040  23.208  1.00  0.00     0.100 C 
HETATM    3  N2  UNL     1       3.538  33.921  23.108  1.00  0.00    -0.195 NA
ENDROOT
BRANCH   1   4
HETATM    4  N1  UNL     1       1.611  36.529  22.425  1.00  0.00    -0.050 N 
ATOM      5  H12 UNL     1       0.722  36.506  22.927  1.00  0.00     0.279 HD
ATOM      6  H11 UNL     1       1.500  35.648  21.924  1.00  0.00     0.279 HD
BRANCH   4   7
HETATM    7  C3  UNL     1       1.740  37.671  21.548  1.00  0.00     0.269 C 
BRANCH   7   8
HETATM    8  C2  UNL     1       2.000  38.944  22.242  1.00  0.00     0.244 C 
HETATM    9  C1  UNL     1       0.764  39.637  22.724  1.00  0.00     0.045 C 
BRANCH   8  10
HETATM   10  N4  UNL     1       2.806  39.850  21.450  1.00  0.00     0.094 N 
HETATM   11  C28 UNL     1       3.776  39.037  20.693  1.00  0.00     0.273 C 
HETATM   12  C29 UNL     1       4.541  39.984  19.868  1.00  0.00     0.035 C 
HETATM   13  C30 UNL     1       5.447  40.843  20.741  1.00  0.00    -0.010 C 
HETATM   14  C38 UNL     1       4.956  40.710  22.203  1.00  0.00     0.035 C 
HETATM   15  C39 UNL     1       3.465  40.857  22.203  1.00  0.00     0.273 C 
BRANCH  13  16
HETATM   16  C31 UNL     1       6.843  40.287  20.725  1.00  0.00     0.024 C 
BRANCH  16  17
HETATM   17  C32 UNL     1       7.220  39.638  22.063  1.00  0.00     0.122 C 
BRANCH  17  18
HETATM   18  N5  UNL     1       8.671  39.846  22.112  1.00  0.00    -0.390 N 
HETATM   19  C33 UNL     1       9.057  41.208  21.963  1.00  0.00     0.152 C 
HETATM   20  C34 UNL     1      10.376  41.362  22.733  1.00  0.00     0.292 C 
HETATM   21  N6  UNL     1      11.313  40.387  22.269  1.00  0.00     0.090 N 
HETATM   22  C35 UNL     1      12.490  41.120  21.836  1.00  0.00     0.310 C 
HETATM   23  C36 UNL     1      10.846  39.598  21.149  1.00  0.00     0.316 C 
HETATM   24  C37 UNL     1       9.490  38.954  21.407  1.00  0.00     0.088 C 
ENDBRANCH  17  18
ENDBRANCH  16  17
ENDBRANCH  13  16
ENDBRANCH   8  10
ENDBRANCH   7   8
ENDBRANCH   4   7
ENDBRANCH   1   4
BRANCH   1  25
HETATM   25  C6  UNL     1       2.431  36.590  24.748  1.00  0.00     0.176 C 
HETATM   26  O1  UNL     1       1.288  36.934  25.105  1.00  0.00    -0.294 OA
BRANCH  25  27
HETATM   27  C7  UNL     1       3.432  36.280  25.834  1.00  0.00     0.070 C 
HETATM   28  C8  UNL     1       2.708  36.188  27.153  1.00  0.00     0.013 C 
HETATM   29  C9  UNL     1       3.033  37.465  27.879  1.00  0.00     0.007 C 
HETATM   30  C10 UNL     1       4.457  37.645  27.449  1.00  0.00     0.002 C 
HETATM   31  C11 UNL     1       5.037  38.963  27.818  1.00  0.00     0.000 C 
HETATM   32  C26 UNL     1       4.351  37.495  25.932  1.00  0.00    -0.004 C 
HETATM   33  C12 UNL     1       5.938  38.755  29.041  1.00  0.00     0.001 C 
HETATM   34  C23 UNL     1       6.295  39.181  27.006  1.00  0.00     0.001 C 
HETATM   35  C13 UNL     1       5.354  39.601  30.159  1.00  0.00     0.041 C 
HETATM   36  C21 UNL     1       7.019  39.477  28.299  1.00  0.00    -0.036 C 
HETATM   37  C14 UNL     1       6.472  40.021  31.057  1.00  0.00     0.223 C 
HETATM   38  C19 UNL     1       7.245  41.077  30.233  1.00  0.00     0.036 C 
HETATM   39  C20 UNL     1       6.999  40.902  28.744  1.00  0.00     0.012 C 
HETATM   40  C22 UNL     1       8.410  38.887  28.378  1.00  0.00     0.016 C 
HETATM   41  C24 UNL     1       6.753  37.886  26.377  1.00  0.00     0.038 C 
HETATM   42  C25 UNL     1       5.757  37.235  25.472  1.00  0.00     0.128 C 
HETATM   43  C27 UNL     1       3.893  38.742  25.283  1.00  0.00     0.019 C 
BRANCH  37  44
HETATM   44  N3  UNL     1       5.864  40.701  32.215  1.00  0.00     0.093 N 
HETATM   45  C15 UNL     1       6.698  41.874  32.541  1.00  0.00     0.273 C 
HETATM   46  C16 UNL     1       5.682  42.673  33.342  1.00  0.00     0.032 C 
HETATM   47  C17 UNL     1       4.564  42.727  32.287  1.00  0.00     0.032 C 
HETATM   48  C18 UNL     1       4.618  41.333  31.737  1.00  0.00     0.273 C 
ENDBRANCH  37  44
BRANCH  42  49
HETATM   49  O2  UNL     1       6.010  35.874  25.373  1.00  0.00    -0.395 OA
ATOM     50  H2  UNL     1       5.259  35.423  25.005  1.00  0.00     0.210 HD
ENDBRANCH  42  49
ENDBRANCH  25  27
ENDBRANCH   1  25
TORSDOF 11
ENDMDL
MODEL 5
REMARK VINA RESULT: -8.150291323      4.823      7.312
REMARK  11 active torsions:
REMARK  status: ('A' for Active; 'I' for Inactive)
REMARK    1  A    between atoms: C2_2  and  C3_3 
REMARK    2  A    between atoms: C2_2  and  N4_36 
REMARK    3  A    between atoms: C3_3  and  N1_4 
REMARK    4  A    between atoms: N1_4  and  C4_7 
REMARK    5  A    between atoms: C4_7  and  C6_10 
REMARK    6  A    between atoms: C6_10  and  C7_12 
REMARK    7  A    between atoms: C14_19  and  N3_20 
REMARK    8  A    between atoms: C25_31  and  O2_32 
REMARK    9  A    between atoms: C30_39  and  C31_40 
REMARK   10  A    between atoms: C31_40  and  C32_41 
REMARK   11  A    between atoms: C32_41  and  N5_42 
ROOT
HETATM    1  C4  UNL     1       1.585  38.513  24.505  1.00  0.00     0.360 C 
HETATM    2  C5  UNL     1       1.661  38.851  22.974  1.00  0.00     0.100 C 
HETATM    3  N2  UNL     1       1.700  39.080  21.834  1.00  0.00    -0.195 NA
ENDROOT
BRANCH   1   4
HETATM    4  N1  UNL     1       0.221  37.893  24.553  1.00  0.00    -0.050 N 
ATOM      5  H12 UNL     1       0.237  36.879  24.443  1.00  0.00     0.279 HD
ATOM      6  H11 UNL     1      -0.344  38.105  23.730  1.00  0.00     0.279 HD
BRANCH   4   7
HETATM    7  C3  UNL     1      -0.392  38.322  25.790  1.00  0.00     0.269 C 
BRANCH   7   8
HETATM    8  C2  UNL     1      -0.439  37.286  26.836  1.00  0.00     0.244 C 
HETATM    9  C1  UNL     1      -1.612  36.363  26.724  1.00  0.00     0.045 C 
BRANCH   8  10
HETATM   10  N4  UNL     1      -0.365  37.843  28.170  1.00  0.00     0.094 N 
HETATM   11  C28 UNL     1       0.725  38.836  28.178  1.00  0.00     0.273 C 
HETATM   12  C29 UNL     1       0.738  39.413  29.530  1.00  0.00     0.035 C 
HETATM   13  C30 UNL     1       1.224  38.387  30.545  1.00  0.00    -0.010 C 
HETATM   14  C38 UNL     1       1.147  36.991  29.878  1.00  0.00     0.035 C 
HETATM   15  C39 UNL     1      -0.183  36.881  29.197  1.00  0.00     0.273 C 
BRANCH  13  16
HETATM   16  C31 UNL     1       2.679  38.618  30.843  1.00  0.00     0.024 C 
BRANCH  16  17
HETATM   17  C32 UNL     1       2.956  38.680  32.350  1.00  0.00     0.122 C 
BRANCH  17  18
HETATM   18  N5  UNL     1       3.906  39.793  32.447  1.00  0.00    -0.390 N 
HETATM   19  C33 UNL     1       4.969  39.720  31.502  1.00  0.00     0.152 C 
HETATM   20  C34 UNL     1       5.387  41.170  31.221  1.00  0.00     0.292 C 
HETATM   21  N6  UNL     1       5.685  41.826  32.455  1.00  0.00     0.090 N 
HETATM   22  C35 UNL     1       7.043  42.330  32.336  1.00  0.00     0.310 C 
HETATM   23  C36 UNL     1       5.635  40.963  33.616  1.00  0.00     0.316 C 
HETATM   24  C37 UNL     1       4.322  40.198  33.723  1.00  0.00     0.088 C 
ENDBRANCH  17  18
ENDBRANCH  16  17
ENDBRANCH  13  16
ENDBRANCH   8  10
ENDBRANCH   7   8
ENDBRANCH   4   7
ENDBRANCH   1   4
BRANCH   1  25
HETATM   25  C6  UNL     1       2.657  37.527  24.611  1.00  0.00     0.176 C 
HETATM   26  O1  UNL     1       2.414  36.305  24.605  1.00  0.00    -0.294 OA
BRANCH  25  27
HETATM   27  C7  UNL     1       4.096  37.945  24.789  1.00  0.00     0.070 C 
HETATM   28  C8  UNL     1       4.983  36.953  24.083  1.00  0.00     0.013 C 
HETATM   29  C9  UNL     1       5.593  36.113  25.173  1.00  0.00     0.007 C 
HETATM   30  C10 UNL     1       5.784  37.164  26.225  1.00  0.00     0.002 C 
HETATM   31  C11 UNL     1       6.175  36.623  27.553  1.00  0.00     0.000 C 
HETATM   32  C26 UNL     1       4.402  37.813  26.279  1.00  0.00    -0.004 C 
HETATM   33  C12 UNL     1       7.680  36.855  27.731  1.00  0.00     0.001 C 
HETATM   34  C23 UNL     1       5.949  37.696  28.596  1.00  0.00     0.001 C 
HETATM   35  C13 UNL     1       8.316  35.484  27.881  1.00  0.00     0.041 C 
HETATM   36  C21 UNL     1       7.372  37.478  29.057  1.00  0.00    -0.036 C 
HETATM   37  C14 UNL     1       9.534  35.628  28.735  1.00  0.00     0.223 C 
HETATM   38  C19 UNL     1       8.974  35.873  30.156  1.00  0.00     0.036 C 
HETATM   39  C20 UNL     1       7.562  36.431  30.104  1.00  0.00     0.012 C 
HETATM   40  C22 UNL     1       8.112  38.751  29.401  1.00  0.00     0.016 C 
HETATM   41  C24 UNL     1       5.760  39.043  27.940  1.00  0.00     0.038 C 
HETATM   42  C25 UNL     1       4.621  39.125  26.977  1.00  0.00     0.128 C 
HETATM   43  C27 UNL     1       3.452  37.026  27.095  1.00  0.00     0.019 C 
BRANCH  37  44
HETATM   44  N3  UNL     1      10.218  34.322  28.734  1.00  0.00     0.093 N 
HETATM   45  C15 UNL     1       9.488  33.427  29.652  1.00  0.00     0.273 C 
HETATM   46  C16 UNL     1       9.990  32.090  29.129  1.00  0.00     0.032 C 
HETATM   47  C17 UNL     1       9.585  32.265  27.655  1.00  0.00     0.032 C 
HETATM   48  C18 UNL     1       9.956  33.699  27.422  1.00  0.00     0.273 C 
ENDBRANCH  37  44
BRANCH  42  49
HETATM   49  O2  UNL     1       4.830  40.150  26.064  1.00  0.00    -0.395 OA
ATOM     50  H2  UNL     1       5.424  39.867  25.378  1.00  0.00     0.210 HD
ENDBRANCH  42  49
ENDBRANCH  25  27
ENDBRANCH   1  25
TORSDOF 11
ENDMDL
