MODEL 1
REMARK VINA RESULT: -5.770314560      0.000      0.000
REMARK  4 active torsions:
REMARK  status: ('A' for Active; 'I' for Inactive)
REMARK    1  A    between atoms: C3_7  and  N3_8 
REMARK    2  A    between atoms: N3_8  and  C4_10 
REMARK    3  A    between atoms: C4_10  and  C5_11 
REMARK    4  A    between atoms: C5_11  and  N4_12 
ROOT
HETATM    1  C1  UNL     1      50.960 -27.496  15.021  1.00  0.00     0.147 C 
HETATM    2  N1  UNL     1      51.137 -26.955  13.766  1.00  0.00    -0.380 N 
ATOM      3  H1  UNL     1      51.830 -26.210  13.829  1.00  0.00     0.160 HD
HETATM    4  C2  UNL     1      50.765 -27.044  12.605  1.00  0.00     0.123 A 
HETATM    5  N2  UNL     1      51.317 -26.186  11.693  1.00  0.00    -0.177 N 
ATOM      6  H2  UNL     1      52.010 -25.513  12.019  1.00  0.00     0.186 HD
HETATM    7  C3  UNL     1      50.994 -26.184  10.400  1.00  0.00     0.679 A 
HETATM    8  N5  UNL     1      50.078 -27.063   9.937  1.00  0.00    -0.201 N 
ATOM      9  H5  UNL     1      49.821 -27.074   8.949  1.00  0.00     0.183 HD
HETATM   10  C6  UNL     1      49.516 -27.916  10.795  1.00  0.00     0.116 A 
HETATM   11  C7  UNL     1      49.838 -27.937  12.149  1.00  0.00    -0.002 A 
HETATM   12  C8  UNL     1      49.231 -28.868  13.106  1.00  0.00     0.054 C 
ENDROOT
BRANCH   7  13
HETATM   13  N3  UNL     1      51.528 -25.362   9.551  1.00  0.00    -0.224 N 
ATOM     14  H3  UNL     1      51.488 -24.359   9.736  1.00  0.00     0.177 HD
BRANCH  13  15
HETATM   15  C4  UNL     1      52.175 -25.829   8.359  1.00  0.00     0.165 C 
BRANCH  15  16
HETATM   16  C5  UNL     1      51.291 -25.783   7.156  1.00  0.00     0.249 C 
BRANCH  16  17
HETATM   17  N4  UNL     1      50.505 -24.560   7.186  1.00  0.00    -0.078 N 
ATOM     18  H43 UNL     1      49.732 -24.581   6.521  1.00  0.00     0.274 HD
ATOM     19  H42 UNL     1      49.956 -24.473   8.042  1.00  0.00     0.274 HD
ATOM     20  H41 UNL     1      51.121 -23.760   7.038  1.00  0.00     0.274 HD
ENDBRANCH  16  17
ENDBRANCH  15  16
ENDBRANCH  13  15
ENDBRANCH   7  13
TORSDOF 4
ENDMDL
MODEL 2
REMARK VINA RESULT: -5.571315351      1.477      5.511
REMARK  4 active torsions:
REMARK  status: ('A' for Active; 'I' for Inactive)
REMARK    1  A    between atoms: C3_7  and  N3_8 
REMARK    2  A    between atoms: N3_8  and  C4_10 
REMARK    3  A    between atoms: C4_10  and  C5_11 
REMARK    4  A    between atoms: C5_11  and  N4_12 
ROOT
HETATM    1  C1  UNL     1      51.037 -25.977   6.680  1.00  0.00     0.147 C 
HETATM    2  N1  UNL     1      50.677 -26.652   7.826  1.00  0.00    -0.380 N 
ATOM      3  H1  UNL     1      50.138 -27.477   7.561  1.00  0.00     0.160 HD
HETATM    4  C2  UNL     1      50.768 -26.624   9.044  1.00  0.00     0.123 A 
HETATM    5  N2  UNL     1      50.170 -27.631   9.751  1.00  0.00    -0.177 N 
ATOM      6  H2  UNL     1      49.678 -28.359   9.234  1.00  0.00     0.186 HD
HETATM    7  C3  UNL     1      50.200 -27.710  11.082  1.00  0.00     0.679 A 
HETATM    8  N5  UNL     1      50.844 -26.761  11.795  1.00  0.00    -0.201 N 
ATOM      9  H5  UNL     1      50.875 -26.809  12.814  1.00  0.00     0.183 HD
HETATM   10  C6  UNL     1      51.439 -25.761  11.143  1.00  0.00     0.116 A 
HETATM   11  C7  UNL     1      51.423 -25.658   9.755  1.00  0.00    -0.002 A 
HETATM   12  C8  UNL     1      52.071 -24.566   9.021  1.00  0.00     0.054 C 
ENDROOT
BRANCH   7  13
HETATM   13  N3  UNL     1      49.627 -28.675  11.734  1.00  0.00    -0.224 N 
ATOM     14  H3  UNL     1      49.593 -29.606  11.318  1.00  0.00     0.177 HD
BRANCH  13  15
HETATM   15  C4  UNL     1      49.040 -28.462  13.025  1.00  0.00     0.165 C 
BRANCH  15  16
HETATM   16  C5  UNL     1      49.740 -29.202  14.116  1.00  0.00     0.249 C 
BRANCH  16  17
HETATM   17  N4  UNL     1      50.449 -28.254  14.961  1.00  0.00    -0.078 N 
ATOM     18  H43 UNL     1      51.306 -27.914  14.526  1.00  0.00     0.274 HD
ATOM     19  H42 UNL     1      49.961 -27.360  15.033  1.00  0.00     0.274 HD
ATOM     20  H41 UNL     1      50.618 -28.677  15.873  1.00  0.00     0.274 HD
ENDBRANCH  16  17
ENDBRANCH  15  16
ENDBRANCH  13  15
ENDBRANCH   7  13
TORSDOF 4
ENDMDL
MODEL 3
REMARK VINA RESULT: -5.474995832      1.229      2.038
REMARK  4 active torsions:
REMARK  status: ('A' for Active; 'I' for Inactive)
REMARK    1  A    between atoms: C3_7  and  N3_8 
REMARK    2  A    between atoms: N3_8  and  C4_10 
REMARK    3  A    between atoms: C4_10  and  C5_11 
REMARK    4  A    between atoms: C5_11  and  N4_12 
ROOT
HETATM    1  C1  UNL     1      49.410 -28.968  13.675  1.00  0.00     0.147 C 
HETATM    2  N1  UNL     1      49.573 -28.481  12.397  1.00  0.00    -0.380 N 
ATOM      3  H1  UNL     1      48.980 -29.019  11.766  1.00  0.00     0.160 HD
HETATM    4  C2  UNL     1      50.170 -27.638  11.743  1.00  0.00     0.123 A 
HETATM    5  N2  UNL     1      49.936 -27.594  10.396  1.00  0.00    -0.177 N 
ATOM      6  H2  UNL     1      49.277 -28.262   9.997  1.00  0.00     0.186 HD
HETATM    7  C3  UNL     1      50.526 -26.722   9.578  1.00  0.00     0.679 A 
HETATM    8  N5  UNL     1      51.404 -25.824  10.075  1.00  0.00    -0.201 N 
ATOM      9  H5  UNL     1      51.863 -25.150   9.461  1.00  0.00     0.183 HD
HETATM   10  C6  UNL     1      51.660 -25.835  11.384  1.00  0.00     0.116 A 
HETATM   11  C7  UNL     1      51.057 -26.735  12.258  1.00  0.00    -0.002 A 
HETATM   12  C8  UNL     1      51.326 -26.761  13.700  1.00  0.00     0.054 C 
ENDROOT
BRANCH   7  13
HETATM   13  N3  UNL     1      50.290 -26.697   8.302  1.00  0.00    -0.224 N 
ATOM     14  H3  UNL     1      49.324 -26.696   7.974  1.00  0.00     0.177 HD
BRANCH  13  15
HETATM   15  C4  UNL     1      51.356 -26.670   7.343  1.00  0.00     0.165 C 
BRANCH  15  16
HETATM   16  C5  UNL     1      51.250 -25.533   6.380  1.00  0.00     0.249 C 
BRANCH  16  17
HETATM   17  N4  UNL     1      50.364 -24.520   6.931  1.00  0.00    -0.078 N 
ATOM     18  H43 UNL     1      50.716 -23.575   6.781  1.00  0.00     0.274 HD
ATOM     19  H42 UNL     1      49.495 -24.436   6.401  1.00  0.00     0.274 HD
ATOM     20  H41 UNL     1      50.197 -24.720   7.917  1.00  0.00     0.274 HD
ENDBRANCH  16  17
ENDBRANCH  15  16
ENDBRANCH  13  15
ENDBRANCH   7  13
TORSDOF 4
ENDMDL
MODEL 4
REMARK VINA RESULT: -5.331000206      1.782      5.611
REMARK  4 active torsions:
REMARK  status: ('A' for Active; 'I' for Inactive)
REMARK    1  A    between atoms: C3_7  and  N3_8 
REMARK    2  A    between atoms: N3_8  and  C4_10 
REMARK    3  A    between atoms: C4_10  and  C5_11 
REMARK    4  A    between atoms: C5_11  and  N4_12 
ROOT
HETATM    1  C1  UNL     1      52.458 -25.092   9.285  1.00  0.00     0.147 C 
HETATM    2  N1  UNL     1      52.227 -25.525  10.572  1.00  0.00    -0.380 N 
ATOM      3  H1  UNL     1      52.922 -25.102  11.187  1.00  0.00     0.160 HD
HETATM    4  C2  UNL     1      51.492 -26.232  11.246  1.00  0.00     0.123 A 
HETATM    5  N2  UNL     1      51.736 -26.305  12.591  1.00  0.00    -0.177 N 
ATOM      6  H2  UNL     1      52.515 -25.769  12.971  1.00  0.00     0.186 HD
HETATM    7  C3  UNL     1      51.005 -27.040  13.429  1.00  0.00     0.679 A 
HETATM    8  N5  UNL     1      49.966 -27.762  12.956  1.00  0.00    -0.201 N 
ATOM      9  H5  UNL     1      49.398 -28.330  13.586  1.00  0.00     0.183 HD
HETATM   10  C6  UNL     1      49.696 -27.719  11.651  1.00  0.00     0.116 A 
HETATM   11  C7  UNL     1      50.443 -26.958  10.756  1.00  0.00    -0.002 A 
HETATM   12  C8  UNL     1      50.161 -26.898   9.318  1.00  0.00     0.054 C 
ENDROOT
BRANCH   7  13
HETATM   13  N3  UNL     1      51.253 -27.096  14.702  1.00  0.00    -0.224 N 
ATOM     14  H3  UNL     1      51.944 -26.461  15.103  1.00  0.00     0.177 HD
BRANCH  13  15
HETATM   15  C4  UNL     1      50.578 -28.028  15.557  1.00  0.00     0.165 C 
BRANCH  15  16
HETATM   16  C5  UNL     1      50.959 -27.887  16.994  1.00  0.00     0.249 C 
BRANCH  16  17
HETATM   17  N4  UNL     1      52.305 -28.402  17.187  1.00  0.00    -0.078 N 
ATOM     18  H43 UNL     1      52.657 -28.882  16.359  1.00  0.00     0.274 HD
ATOM     19  H42 UNL     1      53.002 -27.658  17.229  1.00  0.00     0.274 HD
ATOM     20  H41 UNL     1      52.322 -28.996  18.016  1.00  0.00     0.274 HD
ENDBRANCH  16  17
ENDBRANCH  15  16
ENDBRANCH  13  15
ENDBRANCH   7  13
TORSDOF 4
ENDMDL
MODEL 5
REMARK VINA RESULT: -5.313187635      1.275      2.230
REMARK  4 active torsions:
REMARK  status: ('A' for Active; 'I' for Inactive)
REMARK    1  A    between atoms: C3_7  and  N3_8 
REMARK    2  A    between atoms: N3_8  and  C4_10 
REMARK    3  A    between atoms: C4_10  and  C5_11 
REMARK    4  A    between atoms: C5_11  and  N4_12 
ROOT
HETATM    1  C1  UNL     1      49.045 -28.514  12.667  1.00  0.00     0.147 C 
HETATM    2  N1  UNL     1      49.768 -27.851  11.700  1.00  0.00    -0.380 N 
ATOM      3  H1  UNL     1      49.368 -28.072  10.788  1.00  0.00     0.160 HD
HETATM    4  C2  UNL     1      50.712 -27.093  11.536  1.00  0.00     0.123 A 
HETATM    5  N2  UNL     1      51.018 -26.725  10.254  1.00  0.00    -0.177 N 
ATOM      6  H2  UNL     1      50.448 -27.096   9.495  1.00  0.00     0.186 HD
HETATM    7  C3  UNL     1      52.024 -25.905   9.948  1.00  0.00     0.679 A 
HETATM    8  N5  UNL     1      52.798 -25.397  10.931  1.00  0.00    -0.201 N 
ATOM      9  H5  UNL     1      53.571 -24.768  10.712  1.00  0.00     0.183 HD
HETATM   10  C6  UNL     1      52.533 -25.733  12.195  1.00  0.00     0.116 A 
HETATM   11  C7  UNL     1      51.488 -26.585  12.540  1.00  0.00    -0.002 A 
HETATM   12  C8  UNL     1      51.182 -26.965  13.923  1.00  0.00     0.054 C 
ENDROOT
BRANCH   7  13
HETATM   13  N3  UNL     1      52.298 -25.568   8.725  1.00  0.00    -0.224 N 
ATOM     14  H3  UNL     1      52.642 -24.626   8.534  1.00  0.00     0.177 HD
BRANCH  13  15
HETATM   15  C4  UNL     1      52.129 -26.487   7.637  1.00  0.00     0.165 C 
BRANCH  15  16
HETATM   16  C5  UNL     1      51.117 -26.032   6.638  1.00  0.00     0.249 C 
BRANCH  16  17
HETATM   17  N4  UNL     1      50.592 -24.738   7.042  1.00  0.00    -0.078 N 
ATOM     18  H43 UNL     1      49.592 -24.770   7.239  1.00  0.00     0.274 HD
ATOM     19  H42 UNL     1      50.913 -24.463   7.971  1.00  0.00     0.274 HD
ATOM     20  H41 UNL     1      50.825 -24.044   6.332  1.00  0.00     0.274 HD
ENDBRANCH  16  17
ENDBRANCH  15  16
ENDBRANCH  13  15
ENDBRANCH   7  13
TORSDOF 4
ENDMDL
