MODEL 1
REMARK VINA RESULT: -7.653252818      0.000      0.000
REMARK  1 active torsions:
REMARK  status: ('A' for Active; 'I' for Inactive)
REMARK    1  A    between atoms: C4_4  and  C5_5 
ROOT
HETATM    1  C5  UNL     1       4.659  -9.203 -22.644  1.00  0.00     0.120 C 
HETATM    2  C6  UNL     1       4.512  -8.734 -21.317  1.00  0.00     0.268 C 
HETATM    3  O1  UNL     1       4.797  -9.195 -20.185  1.00  0.00    -0.264 OA
HETATM    4  O2  UNL     1       3.898  -7.457 -21.404  1.00  0.00    -0.315 OA
HETATM    5  C7  UNL     1       3.144  -7.518 -22.653  1.00  0.00     0.144 C 
HETATM    6  C8  UNL     1       2.406  -6.285 -22.839  1.00  0.00     0.058 C 
HETATM    7  C9  UNL     1       2.145  -5.825 -24.229  1.00  0.00     0.083 C 
HETATM    8  N1  UNL     1       1.982  -6.722 -25.237  1.00  0.00    -0.403 N 
ATOM      9  H1  UNL     1       1.300  -6.435 -25.939  1.00  0.00     0.154 HD
HETATM   10  C10 UNL     1       2.547  -7.915 -25.484  1.00  0.00     0.083 C 
HETATM   11  C11 UNL     1       2.515  -8.291 -26.977  1.00  0.00     0.148 C 
HETATM   12  C12 UNL     1       1.840  -7.298 -27.861  1.00  0.00     0.042 C 
HETATM   13  O3  UNL     1       1.739  -9.393 -26.750  1.00  0.00    -0.376 OA
HETATM   14  C13 UNL     1       1.479  -9.033 -25.459  1.00  0.00     0.148 C 
HETATM   15  C14 UNL     1       0.087  -8.534 -25.177  1.00  0.00     0.042 C 
HETATM   16  C15 UNL     1       3.780  -8.417 -24.896  1.00  0.00     0.036 A 
HETATM   17  C16 UNL     1       4.899  -7.570 -24.546  1.00  0.00     0.006 A 
HETATM   18  C17 UNL     1       4.940  -6.218 -25.106  1.00  0.00     0.006 C 
HETATM   19  C18 UNL     1       4.545  -5.082 -24.211  1.00  0.00     0.007 C 
HETATM   20  C19 UNL     1       3.141  -4.702 -24.559  1.00  0.00     0.004 C 
HETATM   21  C20 UNL     1       2.741  -3.403 -23.898  1.00  0.00     0.012 C 
HETATM   22  C21 UNL     1       4.112  -8.057 -23.519  1.00  0.00     0.013 A 
ENDROOT
BRANCH   1  23
HETATM   23  C4  UNL     1       5.893  -9.742 -23.171  1.00  0.00    -0.009 C 
HETATM   24  C2  UNL     1       6.231 -10.850 -23.742  1.00  0.00    -0.090 C 
HETATM   25  C1  UNL     1       7.671 -11.039 -24.166  1.00  0.00     0.042 C 
HETATM   26  C3  UNL     1       5.345 -11.993 -24.016  1.00  0.00     0.042 C 
ENDBRANCH   1  23
TORSDOF 1
ENDMDL
MODEL 2
REMARK VINA RESULT: -7.233437041      1.842      5.139
REMARK  1 active torsions:
REMARK  status: ('A' for Active; 'I' for Inactive)
REMARK    1  A    between atoms: C4_4  and  C5_5 
ROOT
HETATM    1  C5  UNL     1       0.794  -9.190 -26.234  1.00  0.00     0.120 C 
HETATM    2  C6  UNL     1       0.718  -8.404 -27.408  1.00  0.00     0.268 C 
HETATM    3  O1  UNL     1       0.164  -8.544 -28.525  1.00  0.00    -0.264 OA
HETATM    4  O2  UNL     1       1.468  -7.226 -27.155  1.00  0.00    -0.315 OA
HETATM    5  C7  UNL     1       2.448  -7.644 -26.157  1.00  0.00     0.144 C 
HETATM    6  C8  UNL     1       3.333  -6.539 -25.849  1.00  0.00     0.058 C 
HETATM    7  C9  UNL     1       3.918  -6.466 -24.482  1.00  0.00     0.083 C 
HETATM    8  N1  UNL     1       4.186  -7.599 -23.782  1.00  0.00    -0.403 N 
ATOM      9  H1  UNL     1       5.021  -7.537 -23.201  1.00  0.00     0.154 HD
HETATM   10  C10 UNL     1       3.560  -8.785 -23.709  1.00  0.00     0.083 C 
HETATM   11  C11 UNL     1       3.853  -9.533 -22.395  1.00  0.00     0.148 C 
HETATM   12  C12 UNL     1       4.794  -8.837 -21.472  1.00  0.00     0.042 C 
HETATM   13  O3  UNL     1       4.447 -10.578 -23.047  1.00  0.00    -0.376 OA
HETATM   14  C13 UNL     1       4.477  -9.911 -24.239  1.00  0.00     0.148 C 
HETATM   15  C14 UNL     1       5.828  -9.428 -24.695  1.00  0.00     0.042 C 
HETATM   16  C15 UNL     1       2.188  -9.056 -24.111  1.00  0.00     0.036 A 
HETATM   17  C16 UNL     1       1.116  -8.092 -23.991  1.00  0.00     0.006 A 
HETATM   18  C17 UNL     1       1.331  -6.929 -23.127  1.00  0.00     0.006 C 
HETATM   19  C18 UNL     1       1.655  -5.622 -23.788  1.00  0.00     0.007 C 
HETATM   20  C19 UNL     1       3.132  -5.416 -23.680  1.00  0.00     0.004 C 
HETATM   21  C20 UNL     1       3.524  -4.013 -24.082  1.00  0.00     0.012 C 
HETATM   22  C21 UNL     1       1.624  -8.337 -25.253  1.00  0.00     0.013 A 
ENDROOT
BRANCH   1  23
HETATM   23  C4  UNL     1      -0.358  -9.784 -25.590  1.00  0.00    -0.009 C 
HETATM   24  C2  UNL     1      -0.582 -10.895 -24.972  1.00  0.00    -0.090 C 
HETATM   25  C1  UNL     1      -1.968 -11.152 -24.421  1.00  0.00     0.042 C 
HETATM   26  C3  UNL     1       0.387 -11.981 -24.756  1.00  0.00     0.042 C 
ENDBRANCH   1  23
TORSDOF 1
ENDMDL
MODEL 3
REMARK VINA RESULT: -7.192431436      1.883      5.244
REMARK  1 active torsions:
REMARK  status: ('A' for Active; 'I' for Inactive)
REMARK    1  A    between atoms: C4_4  and  C5_5 
ROOT
HETATM    1  C5  UNL     1       2.493  -8.237 -26.906  1.00  0.00     0.120 C 
HETATM    2  C6  UNL     1       2.600  -7.099 -27.740  1.00  0.00     0.268 C 
HETATM    3  O1  UNL     1       2.421  -6.885 -28.964  1.00  0.00    -0.264 OA
HETATM    4  O2  UNL     1       3.004  -6.023 -26.906  1.00  0.00    -0.315 OA
HETATM    5  C7  UNL     1       3.724  -6.677 -25.818  1.00  0.00     0.144 C 
HETATM    6  C8  UNL     1       4.254  -5.678 -24.913  1.00  0.00     0.058 C 
HETATM    7  C9  UNL     1       4.404  -6.038 -23.477  1.00  0.00     0.083 C 
HETATM    8  N1  UNL     1       4.678  -7.316 -23.108  1.00  0.00    -0.403 N 
ATOM      9  H1  UNL     1       5.287  -7.389 -22.294  1.00  0.00     0.154 HD
HETATM   10  C10 UNL     1       4.300  -8.503 -23.612  1.00  0.00     0.083 C 
HETATM   11  C11 UNL     1       4.351  -9.635 -22.570  1.00  0.00     0.148 C 
HETATM   12  C12 UNL     1       4.838  -9.228 -21.221  1.00  0.00     0.042 C 
HETATM   13  O3  UNL     1       5.295 -10.329 -23.273  1.00  0.00    -0.376 OA
HETATM   14  C13 UNL     1       5.530  -9.286 -24.124  1.00  0.00     0.148 C 
HETATM   15  C14 UNL     1       6.834  -8.558 -23.937  1.00  0.00     0.042 C 
HETATM   16  C15 UNL     1       3.177  -8.734 -24.508  1.00  0.00     0.036 A 
HETATM   17  C16 UNL     1       1.949  -7.971 -24.461  1.00  0.00     0.006 A 
HETATM   18  C17 UNL     1       1.682  -7.171 -23.264  1.00  0.00     0.006 C 
HETATM   19  C18 UNL     1       1.918  -5.693 -23.349  1.00  0.00     0.007 C 
HETATM   20  C19 UNL     1       3.235  -5.409 -22.701  1.00  0.00     0.004 C 
HETATM   21  C20 UNL     1       3.444  -3.926 -22.502  1.00  0.00     0.012 C 
HETATM   22  C21 UNL     1       2.830  -7.713 -25.495  1.00  0.00     0.013 A 
ENDROOT
BRANCH   1  23
HETATM   23  C4  UNL     1       1.344  -9.117 -26.894  1.00  0.00    -0.009 C 
HETATM   24  C2  UNL     1       0.078  -8.962 -27.098  1.00  0.00    -0.090 C 
HETATM   25  C1  UNL     1      -0.826 -10.171 -26.992  1.00  0.00     0.042 C 
HETATM   26  C3  UNL     1      -0.605  -7.697 -27.411  1.00  0.00     0.042 C 
ENDBRANCH   1  23
TORSDOF 1
ENDMDL
MODEL 4
REMARK VINA RESULT: -6.719133016      2.085      5.098
REMARK  1 active torsions:
REMARK  status: ('A' for Active; 'I' for Inactive)
REMARK    1  A    between atoms: C4_4  and  C5_5 
ROOT
HETATM    1  C5  UNL     1       4.469  -5.682 -22.817  1.00  0.00     0.120 C 
HETATM    2  C6  UNL     1       5.743  -5.220 -23.223  1.00  0.00     0.268 C 
HETATM    3  O1  UNL     1       6.312  -4.101 -23.229  1.00  0.00    -0.264 OA
HETATM    4  O2  UNL     1       6.446  -6.351 -23.714  1.00  0.00    -0.315 OA
HETATM    5  C7  UNL     1       5.388  -7.246 -24.174  1.00  0.00     0.144 C 
HETATM    6  C8  UNL     1       5.974  -8.431 -24.767  1.00  0.00     0.058 C 
HETATM    7  C9  UNL     1       5.216  -9.708 -24.681  1.00  0.00     0.083 C 
HETATM    8  N1  UNL     1       3.858  -9.709 -24.677  1.00  0.00    -0.403 N 
ATOM      9  H1  UNL     1       3.443 -10.503 -25.164  1.00  0.00     0.154 HD
HETATM   10  C10 UNL     1       2.956  -8.862 -24.153  1.00  0.00     0.083 C 
HETATM   11  C11 UNL     1       1.598  -9.535 -23.877  1.00  0.00     0.148 C 
HETATM   12  C12 UNL     1       1.516 -10.970 -24.270  1.00  0.00     0.042 C 
HETATM   13  O3  UNL     1       0.943  -8.720 -24.757  1.00  0.00    -0.376 OA
HETATM   14  C13 UNL     1       2.105  -8.221 -25.273  1.00  0.00     0.148 C 
HETATM   15  C14 UNL     1       2.472  -8.689 -26.656  1.00  0.00     0.042 C 
HETATM   16  C15 UNL     1       3.211  -7.871 -23.118  1.00  0.00     0.036 A 
HETATM   17  C16 UNL     1       4.168  -8.061 -22.050  1.00  0.00     0.006 A 
HETATM   18  C17 UNL     1       4.651  -9.420 -21.794  1.00  0.00     0.006 C 
HETATM   19  C18 UNL     1       6.016  -9.780 -22.300  1.00  0.00     0.007 C 
HETATM   20  C19 UNL     1       5.837 -10.561 -23.562  1.00  0.00     0.004 C 
HETATM   21  C20 UNL     1       7.135 -11.191 -24.010  1.00  0.00     0.012 C 
HETATM   22  C21 UNL     1       4.510  -7.202 -23.077  1.00  0.00     0.013 A 
ENDROOT
BRANCH   1  23
HETATM   23  C4  UNL     1       3.873  -5.370 -21.536  1.00  0.00    -0.009 C 
HETATM   24  C2  UNL     1       3.375  -4.306 -20.999  1.00  0.00    -0.090 C 
HETATM   25  C1  UNL     1       2.831  -4.391 -19.590  1.00  0.00     0.042 C 
HETATM   26  C3  UNL     1       3.295  -2.974 -21.621  1.00  0.00     0.042 C 
ENDBRANCH   1  23
TORSDOF 1
ENDMDL
MODEL 5
REMARK VINA RESULT: -6.714409123      2.194      5.265
REMARK  1 active torsions:
REMARK  status: ('A' for Active; 'I' for Inactive)
REMARK    1  A    between atoms: C4_4  and  C5_5 
ROOT
HETATM    1  C5  UNL     1       2.982  -6.968 -26.908  1.00  0.00     0.120 C 
HETATM    2  C6  UNL     1       3.309  -5.726 -27.502  1.00  0.00     0.268 C 
HETATM    3  O1  UNL     1       3.238  -5.262 -28.666  1.00  0.00    -0.264 OA
HETATM    4  O2  UNL     1       3.822  -4.904 -26.465  1.00  0.00    -0.315 OA
HETATM    5  C7  UNL     1       4.369  -5.857 -25.503  1.00  0.00     0.144 C 
HETATM    6  C8  UNL     1       4.990  -5.143 -24.407  1.00  0.00     0.058 C 
HETATM    7  C9  UNL     1       4.998  -5.784 -23.064  1.00  0.00     0.083 C 
HETATM    8  N1  UNL     1       5.052  -7.136 -22.943  1.00  0.00    -0.403 N 
ATOM      9  H1  UNL     1       5.594  -7.457 -22.140  1.00  0.00     0.154 HD
HETATM   10  C10 UNL     1       4.529  -8.131 -23.677  1.00  0.00     0.083 C 
HETATM   11  C11 UNL     1       4.345  -9.432 -22.874  1.00  0.00     0.148 C 
HETATM   12  C12 UNL     1       4.808  -9.367 -21.458  1.00  0.00     0.042 C 
HETATM   13  O3  UNL     1       5.213 -10.124 -23.671  1.00  0.00    -0.376 OA
HETATM   14  C13 UNL     1       5.654  -8.992 -24.296  1.00  0.00     0.148 C 
HETATM   15  C14 UNL     1       7.040  -8.531 -23.933  1.00  0.00     0.042 C 
HETATM   16  C15 UNL     1       3.439  -8.008 -24.634  1.00  0.00     0.036 A 
HETATM   17  C16 UNL     1       2.340  -7.080 -24.476  1.00  0.00     0.006 A 
HETATM   18  C17 UNL     1       2.127  -6.486 -23.155  1.00  0.00     0.006 C 
HETATM   19  C18 UNL     1       2.590  -5.075 -22.944  1.00  0.00     0.007 C 
HETATM   20  C19 UNL     1       3.894  -5.132 -22.215  1.00  0.00     0.004 C 
HETATM   21  C20 UNL     1       4.314  -3.766 -21.726  1.00  0.00     0.012 C 
HETATM   22  C21 UNL     1       3.310  -6.778 -25.414  1.00  0.00     0.013 A 
ENDROOT
BRANCH   1  23
HETATM   23  C4  UNL     1       1.714  -7.639 -27.101  1.00  0.00    -0.009 C 
HETATM   24  C2  UNL     1       1.093  -8.134 -28.119  1.00  0.00    -0.090 C 
HETATM   25  C1  UNL     1      -0.259  -8.777 -27.901  1.00  0.00     0.042 C 
HETATM   26  C3  UNL     1       1.562  -8.124 -29.514  1.00  0.00     0.042 C 
ENDBRANCH   1  23
TORSDOF 1
ENDMDL
