MODEL 1
REMARK VINA RESULT: -9.371255368      0.000      0.000
REMARK  4 active torsions:
REMARK  status: ('A' for Active; 'I' for Inactive)
REMARK    1  A    between atoms: C2_2  and  C12_20 
REMARK    2  A    between atoms: N1_3  and  N2_5 
REMARK    3  A    between atoms: N2_5  and  C3_7 
REMARK    4  A    between atoms: C4_10  and  C5_11 
ROOT
HETATM    1  C1  UNL     1       1.638 -14.339 -24.426  1.00  0.00     0.070 C 
HETATM    2  C2  UNL     1       2.790 -13.426 -24.330  1.00  0.00     0.032 C 
HETATM    3  N1  UNL     1       2.641 -12.269 -23.817  1.00  0.00    -0.302 N 
ATOM      4  H1  UNL     1       3.433 -11.629 -23.746  1.00  0.00     0.186 HD
ENDROOT
BRANCH   3   5
HETATM    5  N2  UNL     1       1.389 -11.892 -23.357  1.00  0.00    -0.279 N 
ATOM      6  H2  UNL     1       1.041 -12.205 -22.451  1.00  0.00     0.189 HD
BRANCH   5   7
HETATM    7  C3  UNL     1       0.667 -11.113 -24.137  1.00  0.00     0.163 A 
HETATM    8  N3  UNL     1       1.096 -10.305 -25.108  1.00  0.00    -0.334 N 
HETATM    9  C4  UNL     1       0.220  -9.604 -25.778  1.00  0.00     0.051 A 
ATOM     10  H3  UNL     1       2.091 -10.235 -25.324  1.00  0.00     0.168 HD
HETATM   11  C11 UNL     1      -1.101  -9.753 -25.428  1.00  0.00     0.083 A 
HETATM   12  S1  UNL     1      -1.021 -10.888 -24.159  1.00  0.00    -0.062 SA
BRANCH   9  13
HETATM   13  C5  UNL     1       0.587  -8.674 -26.879  1.00  0.00    -0.009 A 
HETATM   14  C6  UNL     1      -0.362  -8.189 -27.733  1.00  0.00     0.015 A 
HETATM   15  C7  UNL     1      -0.022  -7.332 -28.746  1.00  0.00     0.020 A 
HETATM   16  C8  UNL     1       1.255  -6.927 -28.950  1.00  0.00     0.011 A 
HETATM   17 BR1  UNL     1       1.679  -5.721 -30.391  1.00  0.00    -0.051 Br
HETATM   18  C9  UNL     1       2.239  -7.394 -28.110  1.00  0.00     0.020 A 
HETATM   19  C10 UNL     1       1.884  -8.263 -27.085  1.00  0.00     0.015 A 
ENDBRANCH   9  13
ENDBRANCH   5   7
ENDBRANCH   3   5
BRANCH   2  20
HETATM   20  C12 UNL     1       4.109 -13.803 -24.807  1.00  0.00    -0.012 A 
HETATM   21  C13 UNL     1       4.357 -15.075 -25.270  1.00  0.00     0.016 A 
HETATM   22  C14 UNL     1       5.609 -15.440 -25.725  1.00  0.00     0.031 A 
HETATM   23  C15 UNL     1       6.667 -14.555 -25.738  1.00  0.00     0.042 A 
HETATM   24  N4  UNL     1       7.883 -14.940 -26.190  1.00  0.00    -0.365 N 
HETATM   25  C19 UNL     1       6.434 -13.276 -25.277  1.00  0.00    -0.009 A 
HETATM   26  C16 UNL     1       8.926 -14.087 -26.208  1.00  0.00     0.088 A 
ATOM     27  H4  UNL     1       8.013 -15.895 -26.523  1.00  0.00     0.165 HD
HETATM   28  C17 UNL     1       8.752 -12.784 -25.755  1.00  0.00     0.018 A 
HETATM   29  C18 UNL     1       7.501 -12.404 -25.296  1.00  0.00     0.015 A 
HETATM   30  C20 UNL     1       5.178 -12.928 -24.826  1.00  0.00     0.027 A 
ENDBRANCH   2  20
TORSDOF 4
ENDMDL
MODEL 2
REMARK VINA RESULT: -9.279739048      5.809      6.677
REMARK  4 active torsions:
REMARK  status: ('A' for Active; 'I' for Inactive)
REMARK    1  A    between atoms: C2_2  and  C12_20 
REMARK    2  A    between atoms: N1_3  and  N2_5 
REMARK    3  A    between atoms: N2_5  and  C3_7 
REMARK    4  A    between atoms: C4_10  and  C5_11 
ROOT
HETATM    1  C1  UNL     1       7.537  -9.701 -22.422  1.00  0.00     0.070 C 
HETATM    2  C2  UNL     1       6.421 -10.029 -23.326  1.00  0.00     0.032 C 
HETATM    3  N1  UNL     1       5.580  -9.128 -23.648  1.00  0.00    -0.302 N 
ATOM      4  H1  UNL     1       4.803  -9.345 -24.273  1.00  0.00     0.186 HD
ENDROOT
BRANCH   3   5
HETATM    5  N2  UNL     1       5.734  -7.849 -23.135  1.00  0.00    -0.279 N 
ATOM      6  H2  UNL     1       6.659  -7.450 -22.974  1.00  0.00     0.189 HD
BRANCH   5   7
HETATM    7  C3  UNL     1       4.639  -7.169 -22.866  1.00  0.00     0.163 A 
HETATM    8  N3  UNL     1       4.468  -6.229 -21.932  1.00  0.00    -0.334 N 
HETATM    9  C4  UNL     1       3.297  -5.662 -21.815  1.00  0.00     0.051 A 
ATOM     10  H3  UNL     1       5.240  -5.960 -21.321  1.00  0.00     0.168 HD
HETATM   11  C11 UNL     1       2.310  -6.081 -22.675  1.00  0.00     0.083 A 
HETATM   12  S1  UNL     1       3.108  -7.264 -23.606  1.00  0.00    -0.062 SA
BRANCH   9  13
HETATM   13  C5  UNL     1       2.997  -4.606 -20.811  1.00  0.00    -0.009 A 
HETATM   14  C6  UNL     1       2.765  -4.926 -19.505  1.00  0.00     0.015 A 
HETATM   15  C7  UNL     1       2.488  -3.951 -18.583  1.00  0.00     0.020 A 
HETATM   16  C8  UNL     1       2.433  -2.639 -18.915  1.00  0.00     0.011 A 
HETATM   17 BR1  UNL     1       2.040  -1.308 -17.579  1.00  0.00    -0.051 Br
HETATM   18  C9  UNL     1       2.662  -2.278 -20.222  1.00  0.00     0.020 A 
HETATM   19  C10 UNL     1       2.941  -3.273 -21.150  1.00  0.00     0.015 A 
ENDBRANCH   9  13
ENDBRANCH   5   7
ENDBRANCH   3   5
BRANCH   2  20
HETATM   20  C12 UNL     1       6.243 -11.363 -23.872  1.00  0.00    -0.012 A 
HETATM   21  C13 UNL     1       7.327 -12.131 -24.231  1.00  0.00     0.016 A 
HETATM   22  C14 UNL     1       7.165 -13.401 -24.750  1.00  0.00     0.031 A 
HETATM   23  C15 UNL     1       5.917 -13.959 -24.936  1.00  0.00     0.042 A 
HETATM   24  N4  UNL     1       5.788 -15.206 -25.447  1.00  0.00    -0.365 N 
HETATM   25  C19 UNL     1       4.821 -13.201 -24.581  1.00  0.00    -0.009 A 
HETATM   26  C16 UNL     1       4.576 -15.764 -25.634  1.00  0.00     0.088 A 
ATOM     27  H4  UNL     1       6.625 -15.733 -25.695  1.00  0.00     0.165 HD
HETATM   28  C17 UNL     1       3.434 -15.048 -25.295  1.00  0.00     0.018 A 
HETATM   29  C18 UNL     1       3.582 -13.773 -24.773  1.00  0.00     0.015 A 
HETATM   30  C20 UNL     1       5.000 -11.936 -24.064  1.00  0.00     0.027 A 
ENDBRANCH   2  20
TORSDOF 4
ENDMDL
MODEL 3
REMARK VINA RESULT: -9.170264148      4.318      9.297
REMARK  4 active torsions:
REMARK  status: ('A' for Active; 'I' for Inactive)
REMARK    1  A    between atoms: C2_2  and  C12_20 
REMARK    2  A    between atoms: N1_3  and  N2_5 
REMARK    3  A    between atoms: N2_5  and  C3_7 
REMARK    4  A    between atoms: C4_10  and  C5_11 
ROOT
HETATM    1  C1  UNL     1       5.469  -9.352 -24.170  1.00  0.00     0.070 C 
HETATM    2  C2  UNL     1       4.630 -10.563 -24.205  1.00  0.00     0.032 C 
HETATM    3  N1  UNL     1       5.179 -11.714 -24.218  1.00  0.00    -0.302 N 
ATOM      4  H1  UNL     1       4.607 -12.558 -24.241  1.00  0.00     0.186 HD
ENDROOT
BRANCH   3   5
HETATM    5  N2  UNL     1       6.562 -11.801 -24.199  1.00  0.00    -0.279 N 
ATOM      6  H2  UNL     1       7.128 -11.146 -23.658  1.00  0.00     0.189 HD
BRANCH   5   7
HETATM    7  C3  UNL     1       7.118 -12.762 -24.908  1.00  0.00     0.163 A 
HETATM    8  N3  UNL     1       8.389 -12.855 -25.305  1.00  0.00    -0.334 N 
HETATM    9  C4  UNL     1       8.755 -13.893 -26.008  1.00  0.00     0.051 A 
ATOM     10  H3  UNL     1       9.062 -12.127 -25.065  1.00  0.00     0.168 HD
HETATM   11  C11 UNL     1       7.790 -14.830 -26.291  1.00  0.00     0.083 A 
HETATM   12  S1  UNL     1       6.408 -14.177 -25.537  1.00  0.00    -0.062 SA
BRANCH   9  13
HETATM   13  C5  UNL     1      10.143 -14.098 -26.502  1.00  0.00    -0.009 A 
HETATM   14  C6  UNL     1      10.429 -14.038 -27.836  1.00  0.00     0.015 A 
HETATM   15  C7  UNL     1      11.709 -14.227 -28.288  1.00  0.00     0.020 A 
HETATM   16  C8  UNL     1      12.741 -14.479 -27.447  1.00  0.00     0.011 A 
HETATM   17 BR1  UNL     1      14.521 -14.737 -28.136  1.00  0.00    -0.051 Br
HETATM   18  C9  UNL     1      12.491 -14.547 -26.096  1.00  0.00     0.020 A 
HETATM   19  C10 UNL     1      11.191 -14.354 -25.647  1.00  0.00     0.015 A 
ENDBRANCH   9  13
ENDBRANCH   5   7
ENDBRANCH   3   5
BRANCH   2  20
HETATM   20  C12 UNL     1       3.180 -10.492 -24.225  1.00  0.00    -0.012 A 
HETATM   21  C13 UNL     1       2.534  -9.365 -24.678  1.00  0.00     0.016 A 
HETATM   22  C14 UNL     1       1.154  -9.291 -24.701  1.00  0.00     0.031 A 
HETATM   23  C15 UNL     1       0.361 -10.335 -24.272  1.00  0.00     0.042 A 
HETATM   24  N4  UNL     1      -0.989 -10.234 -24.306  1.00  0.00    -0.365 N 
HETATM   25  C19 UNL     1       0.995 -11.471 -23.815  1.00  0.00    -0.009 A 
HETATM   26  C16 UNL     1      -1.777 -11.245 -23.890  1.00  0.00     0.088 A 
ATOM     27  H4  UNL     1      -1.417  -9.376 -24.653  1.00  0.00     0.165 HD
HETATM   28  C17 UNL     1      -1.195 -12.416 -23.418  1.00  0.00     0.018 A 
HETATM   29  C18 UNL     1       0.188 -12.505 -23.390  1.00  0.00     0.015 A 
HETATM   30  C20 UNL     1       2.372 -11.529 -23.800  1.00  0.00     0.027 A 
ENDBRANCH   2  20
TORSDOF 4
ENDMDL
MODEL 4
REMARK VINA RESULT: -9.155335925      5.879      6.698
REMARK  4 active torsions:
REMARK  status: ('A' for Active; 'I' for Inactive)
REMARK    1  A    between atoms: C2_2  and  C12_20 
REMARK    2  A    between atoms: N1_3  and  N2_5 
REMARK    3  A    between atoms: N2_5  and  C3_7 
REMARK    4  A    between atoms: C4_10  and  C5_11 
ROOT
HETATM    1  C1  UNL     1       2.340  -9.484 -23.745  1.00  0.00     0.070 C 
HETATM    2  C2  UNL     1       3.754  -9.425 -23.334  1.00  0.00     0.032 C 
HETATM    3  N1  UNL     1       4.185  -8.412 -22.693  1.00  0.00    -0.302 N 
ATOM      4  H1  UNL     1       5.162  -8.361 -22.404  1.00  0.00     0.186 HD
ENDROOT
BRANCH   3   5
HETATM    5  N2  UNL     1       3.310  -7.379 -22.396  1.00  0.00    -0.279 N 
ATOM      6  H2  UNL     1       2.301  -7.528 -22.378  1.00  0.00     0.189 HD
BRANCH   5   7
HETATM    7  C3  UNL     1       3.832  -6.198 -22.138  1.00  0.00     0.163 A 
HETATM    8  N3  UNL     1       4.929  -5.655 -22.670  1.00  0.00    -0.334 N 
HETATM    9  C4  UNL     1       5.292  -4.461 -22.284  1.00  0.00     0.051 A 
ATOM     10  H3  UNL     1       5.474  -6.164 -23.366  1.00  0.00     0.168 HD
HETATM   11  C11 UNL     1       4.506  -3.841 -21.342  1.00  0.00     0.083 A 
HETATM   12  S1  UNL     1       3.287  -4.998 -21.059  1.00  0.00    -0.062 SA
BRANCH   9  13
HETATM   13  C5  UNL     1       6.495  -3.762 -22.810  1.00  0.00    -0.009 A 
HETATM   14  C6  UNL     1       7.694  -3.842 -22.161  1.00  0.00     0.015 A 
HETATM   15  C7  UNL     1       8.800  -3.197 -22.649  1.00  0.00     0.020 A 
HETATM   16  C8  UNL     1       8.762  -2.457 -23.783  1.00  0.00     0.011 A 
HETATM   17 BR1  UNL     1      10.347  -1.571 -24.424  1.00  0.00    -0.051 Br
HETATM   18  C9  UNL     1       7.572  -2.353 -24.465  1.00  0.00     0.020 A 
HETATM   19  C10 UNL     1       6.456  -3.011 -23.963  1.00  0.00     0.015 A 
ENDBRANCH   9  13
ENDBRANCH   5   7
ENDBRANCH   3   5
BRANCH   2  20
HETATM   20  C12 UNL     1       4.686 -10.496 -23.636  1.00  0.00    -0.012 A 
HETATM   21  C13 UNL     1       6.039 -10.332 -23.443  1.00  0.00     0.016 A 
HETATM   22  C14 UNL     1       6.932 -11.347 -23.728  1.00  0.00     0.031 A 
HETATM   23  C15 UNL     1       6.516 -12.568 -24.218  1.00  0.00     0.042 A 
HETATM   24  N4  UNL     1       7.413 -13.545 -24.488  1.00  0.00    -0.365 N 
HETATM   25  C19 UNL     1       5.163 -12.747 -24.417  1.00  0.00    -0.009 A 
HETATM   26  C16 UNL     1       7.021 -14.742 -24.967  1.00  0.00     0.088 A 
ATOM     27  H4  UNL     1       8.404 -13.371 -24.325  1.00  0.00     0.165 HD
HETATM   28  C17 UNL     1       5.671 -14.982 -25.189  1.00  0.00     0.018 A 
HETATM   29  C18 UNL     1       4.763 -13.972 -24.907  1.00  0.00     0.015 A 
HETATM   30  C20 UNL     1       4.285 -11.724 -24.127  1.00  0.00     0.027 A 
ENDBRANCH   2  20
TORSDOF 4
ENDMDL
MODEL 5
REMARK VINA RESULT: -9.108617642      0.922      1.559
REMARK  4 active torsions:
REMARK  status: ('A' for Active; 'I' for Inactive)
REMARK    1  A    between atoms: C2_2  and  C12_20 
REMARK    2  A    between atoms: N1_3  and  N2_5 
REMARK    3  A    between atoms: N2_5  and  C3_7 
REMARK    4  A    between atoms: C4_10  and  C5_11 
ROOT
HETATM    1  C1  UNL     1       2.667 -13.961 -24.547  1.00  0.00     0.070 C 
HETATM    2  C2  UNL     1       3.499 -12.785 -24.235  1.00  0.00     0.032 C 
HETATM    3  N1  UNL     1       2.969 -11.760 -23.695  1.00  0.00    -0.302 N 
ATOM      4  H1  UNL     1       3.536 -10.941 -23.475  1.00  0.00     0.186 HD
ENDROOT
BRANCH   3   5
HETATM    5  N2  UNL     1       1.612 -11.772 -23.413  1.00  0.00    -0.279 N 
ATOM      6  H2  UNL     1       1.242 -12.283 -22.611  1.00  0.00     0.189 HD
BRANCH   5   7
HETATM    7  C3  UNL     1       0.819 -11.099 -24.220  1.00  0.00     0.163 A 
HETATM    8  N3  UNL     1       1.169 -10.249 -25.189  1.00  0.00    -0.334 N 
HETATM    9  C4  UNL     1       0.230  -9.672 -25.890  1.00  0.00     0.051 A 
ATOM     10  H3  UNL     1       2.152 -10.054 -25.377  1.00  0.00     0.168 HD
HETATM   11  C11 UNL     1      -1.070  -9.987 -25.575  1.00  0.00     0.083 A 
HETATM   12  S1  UNL     1      -0.883 -11.092 -24.292  1.00  0.00    -0.062 SA
BRANCH   9  13
HETATM   13  C5  UNL     1       0.506  -8.711 -26.991  1.00  0.00    -0.009 A 
HETATM   14  C6  UNL     1      -0.510  -8.034 -27.603  1.00  0.00     0.015 A 
HETATM   15  C7  UNL     1      -0.253  -7.150 -28.617  1.00  0.00     0.020 A 
HETATM   16  C8  UNL     1       1.004  -6.904 -29.058  1.00  0.00     0.011 A 
HETATM   17 BR1  UNL     1       1.309  -5.649 -30.488  1.00  0.00    -0.051 Br
HETATM   18  C9  UNL     1       2.054  -7.566 -28.466  1.00  0.00     0.020 A 
HETATM   19  C10 UNL     1       1.784  -8.462 -27.439  1.00  0.00     0.015 A 
ENDBRANCH   9  13
ENDBRANCH   5   7
ENDBRANCH   3   5
BRANCH   2  20
HETATM   20  C12 UNL     1       4.921 -12.753 -24.524  1.00  0.00    -0.012 A 
HETATM   21  C13 UNL     1       5.709 -11.712 -24.086  1.00  0.00     0.016 A 
HETATM   22  C14 UNL     1       7.063 -11.676 -24.356  1.00  0.00     0.031 A 
HETATM   23  C15 UNL     1       7.691 -12.673 -25.074  1.00  0.00     0.042 A 
HETATM   24  N4  UNL     1       9.019 -12.611 -25.324  1.00  0.00    -0.365 N 
HETATM   25  C19 UNL     1       6.914 -13.722 -25.520  1.00  0.00    -0.009 A 
HETATM   26  C16 UNL     1       9.646 -13.577 -26.025  1.00  0.00     0.088 A 
ATOM     27  H4  UNL     1       9.556 -11.817 -24.976  1.00  0.00     0.165 HD
HETATM   28  C17 UNL     1       8.916 -14.660 -26.500  1.00  0.00     0.018 A 
HETATM   29  C18 UNL     1       7.556 -14.710 -26.235  1.00  0.00     0.015 A 
HETATM   30  C20 UNL     1       5.564 -13.744 -25.241  1.00  0.00     0.027 A 
ENDBRANCH   2  20
TORSDOF 4
ENDMDL
