MODEL 1
REMARK VINA RESULT: -10.360017880      0.000      0.000
REMARK  4 active torsions:
REMARK  status: ('A' for Active; 'I' for Inactive)
REMARK    1  A    between atoms: C4_5  and  C5_6 
REMARK    2  A    between atoms: C7_9  and  N1_10 
REMARK    3  A    between atoms: N1_10  and  N2_12 
REMARK    4  A    between atoms: C8_14  and  C9_15 
ROOT
HETATM    1  N2  UNL     1       3.849  -8.857 -23.631  1.00  0.00    -0.309 N 
ATOM      2  H2  UNL     1       2.962  -8.782 -23.132  1.00  0.00     0.186 HD
HETATM    3  C8  UNL     1       4.592  -9.681 -23.081  1.00  0.00     0.120 C 
ENDROOT
BRANCH   1   4
HETATM    4  N1  UNL     1       3.868  -8.036 -24.688  1.00  0.00    -0.280 N 
ATOM      5  H1  UNL     1       4.574  -7.303 -24.750  1.00  0.00     0.189 HD
BRANCH   4   6
HETATM    6  C7  UNL     1       2.976  -8.173 -25.651  1.00  0.00     0.163 A 
HETATM    7  S1  UNL     1       1.499  -9.005 -25.642  1.00  0.00    -0.062 SA
HETATM    8  C6  UNL     1       1.015  -8.671 -27.241  1.00  0.00     0.083 A 
HETATM    9  C5  UNL     1       2.057  -7.909 -27.712  1.00  0.00     0.051 A 
HETATM   10  N5  UNL     1       3.046  -7.668 -26.882  1.00  0.00    -0.334 N 
ATOM     11  H5  UNL     1       3.848  -7.108 -27.172  1.00  0.00     0.168 HD
BRANCH   9  12
HETATM   12  C4  UNL     1       2.033  -7.392 -29.115  1.00  0.00    -0.009 A 
HETATM   13  C3  UNL     1       0.884  -7.378 -29.862  1.00  0.00     0.015 A 
HETATM   14  C2  UNL     1       0.870  -6.898 -31.162  1.00  0.00     0.020 A 
HETATM   15  C1  UNL     1       2.003  -6.420 -31.743  1.00  0.00     0.011 A 
HETATM   16 BR1  UNL     1       1.922  -5.773 -33.531  1.00  0.00    -0.051 Br
HETATM   17  C22 UNL     1       3.159  -6.421 -31.024  1.00  0.00     0.020 A 
HETATM   18  C21 UNL     1       3.164  -6.903 -29.728  1.00  0.00     0.015 A 
ENDBRANCH   9  12
ENDBRANCH   4   6
ENDBRANCH   1   4
BRANCH   3  19
HETATM   19  C9  UNL     1       5.925 -10.074 -23.472  1.00  0.00     0.010 A 
HETATM   20  C10 UNL     1       7.027  -9.288 -23.289  1.00  0.00     0.015 A 
HETATM   21  C11 UNL     1       8.300  -9.709 -23.683  1.00  0.00     0.003 A 
HETATM   22  C12 UNL     1       8.425 -10.944 -24.266  1.00  0.00     0.032 A 
HETATM   23  C13 UNL     1       7.333 -11.760 -24.465  1.00  0.00     0.060 A 
HETATM   24  N3  UNL     1       7.475 -12.986 -25.046  1.00  0.00    -0.353 N 
HETATM   25  C20 UNL     1       6.090 -11.332 -24.072  1.00  0.00     0.071 A 
HETATM   26  C14 UNL     1       6.375 -13.745 -25.218  1.00  0.00     0.059 A 
ATOM     27  H3  UNL     1       8.392 -13.321 -25.344  1.00  0.00     0.166 HD
HETATM   28  C15 UNL     1       6.483 -15.004 -25.810  1.00  0.00     0.032 A 
HETATM   29  C19 UNL     1       5.128 -13.325 -24.829  1.00  0.00     0.059 A 
HETATM   30  C16 UNL     1       5.370 -15.796 -25.995  1.00  0.00     0.002 A 
HETATM   31  C17 UNL     1       4.118 -15.354 -25.594  1.00  0.00     0.002 A 
HETATM   32  C18 UNL     1       4.002 -14.128 -25.016  1.00  0.00     0.032 A 
HETATM   33  N4  UNL     1       5.002 -12.109 -24.254  1.00  0.00    -0.352 N 
ATOM     34  H4  UNL     1       4.084 -11.777 -23.958  1.00  0.00     0.166 HD
ENDBRANCH   3  19
TORSDOF 4
ENDMDL
MODEL 2
REMARK VINA RESULT: -10.302670314      3.758      5.059
REMARK  4 active torsions:
REMARK  status: ('A' for Active; 'I' for Inactive)
REMARK    1  A    between atoms: C4_5  and  C5_6 
REMARK    2  A    between atoms: C7_9  and  N1_10 
REMARK    3  A    between atoms: N1_10  and  N2_12 
REMARK    4  A    between atoms: C8_14  and  C9_15 
ROOT
HETATM    1  N2  UNL     1       4.636  -8.855 -23.383  1.00  0.00    -0.309 N 
ATOM      2  H2  UNL     1       3.974  -8.472 -22.708  1.00  0.00     0.186 HD
HETATM    3  C8  UNL     1       5.570  -9.424 -22.804  1.00  0.00     0.120 C 
ENDROOT
BRANCH   1   4
HETATM    4  N1  UNL     1       4.239  -8.595 -24.634  1.00  0.00    -0.280 N 
ATOM      5  H1  UNL     1       4.849  -8.071 -25.263  1.00  0.00     0.189 HD
BRANCH   4   6
HETATM    6  C7  UNL     1       3.062  -9.014 -25.058  1.00  0.00     0.163 A 
HETATM    7  S1  UNL     1       2.230  -8.630 -26.483  1.00  0.00    -0.062 SA
HETATM    8  C6  UNL     1       0.841  -9.584 -26.227  1.00  0.00     0.083 A 
HETATM    9  C5  UNL     1       1.104 -10.167 -25.010  1.00  0.00     0.051 A 
HETATM   10  N5  UNL     1       2.244  -9.862 -24.433  1.00  0.00    -0.334 N 
ATOM     11  H5  UNL     1       2.497 -10.263 -23.531  1.00  0.00     0.168 HD
BRANCH   9  12
HETATM   12  C4  UNL     1       0.114 -11.106 -24.399  1.00  0.00    -0.009 A 
HETATM   13  C3  UNL     1      -1.236 -10.957 -24.587  1.00  0.00     0.015 A 
HETATM   14  C2  UNL     1      -2.148 -11.831 -24.017  1.00  0.00     0.020 A 
HETATM   15  C1  UNL     1      -1.731 -12.873 -23.248  1.00  0.00     0.011 A 
HETATM   16 BR1  UNL     1      -3.030 -14.041 -22.491  1.00  0.00    -0.051 Br
HETATM   17  C22 UNL     1      -0.396 -13.045 -23.045  1.00  0.00     0.020 A 
HETATM   18  C21 UNL     1       0.507 -12.168 -23.617  1.00  0.00     0.015 A 
ENDBRANCH   9  12
ENDBRANCH   4   6
ENDBRANCH   1   4
BRANCH   3  19
HETATM   19  C9  UNL     1       6.707 -10.089 -23.395  1.00  0.00     0.010 A 
HETATM   20  C10 UNL     1       7.974  -9.579 -23.377  1.00  0.00     0.015 A 
HETATM   21  C11 UNL     1       9.045 -10.258 -23.962  1.00  0.00     0.003 A 
HETATM   22  C12 UNL     1       8.799 -11.466 -24.565  1.00  0.00     0.032 A 
HETATM   23  C13 UNL     1       7.533 -12.008 -24.600  1.00  0.00     0.060 A 
HETATM   24  N3  UNL     1       7.305 -13.210 -25.203  1.00  0.00    -0.353 N 
HETATM   25  C20 UNL     1       6.492 -11.328 -24.020  1.00  0.00     0.071 A 
HETATM   26  C14 UNL     1       6.048 -13.696 -25.210  1.00  0.00     0.059 A 
ATOM     27  H3  UNL     1       8.068 -13.729 -25.638  1.00  0.00     0.166 HD
HETATM   28  C15 UNL     1       5.779 -14.922 -25.818  1.00  0.00     0.032 A 
HETATM   29  C19 UNL     1       5.000 -13.023 -24.633  1.00  0.00     0.059 A 
HETATM   30  C16 UNL     1       4.500 -15.437 -25.836  1.00  0.00     0.002 A 
HETATM   31  C17 UNL     1       3.454 -14.742 -25.247  1.00  0.00     0.002 A 
HETATM   32  C18 UNL     1       3.706 -13.544 -24.651  1.00  0.00     0.032 A 
HETATM   33  N4  UNL     1       5.240 -11.833 -24.039  1.00  0.00    -0.352 N 
ATOM     34  H4  UNL     1       4.475 -11.316 -23.605  1.00  0.00     0.166 HD
ENDBRANCH   3  19
TORSDOF 4
ENDMDL
MODEL 3
REMARK VINA RESULT: -10.172766847      2.073      2.721
REMARK  4 active torsions:
REMARK  status: ('A' for Active; 'I' for Inactive)
REMARK    1  A    between atoms: C4_5  and  C5_6 
REMARK    2  A    between atoms: C7_9  and  N1_10 
REMARK    3  A    between atoms: N1_10  and  N2_12 
REMARK    4  A    between atoms: C8_14  and  C9_15 
ROOT
HETATM    1  N2  UNL     1       0.735 -10.009 -24.648  1.00  0.00    -0.309 N 
ATOM      2  H2  UNL     1      -0.136 -10.539 -24.682  1.00  0.00     0.186 HD
HETATM    3  C8  UNL     1       1.662 -10.717 -24.232  1.00  0.00     0.120 C 
ENDROOT
BRANCH   1   4
HETATM    4  N1  UNL     1       0.542  -8.752 -25.065  1.00  0.00    -0.280 N 
ATOM      5  H1  UNL     1       0.164  -8.055 -24.423  1.00  0.00     0.189 HD
BRANCH   4   6
HETATM    6  C7  UNL     1       0.837  -8.412 -26.305  1.00  0.00     0.163 A 
HETATM    7  S1  UNL     1      -0.071  -8.609 -27.723  1.00  0.00    -0.062 SA
HETATM    8  C6  UNL     1       1.029  -7.912 -28.822  1.00  0.00     0.083 A 
HETATM    9  C5  UNL     1       2.075  -7.553 -28.007  1.00  0.00     0.051 A 
HETATM   10  N5  UNL     1       1.954  -7.818 -26.725  1.00  0.00    -0.334 N 
ATOM     11  H5  UNL     1       2.696  -7.575 -26.069  1.00  0.00     0.168 HD
BRANCH   9  12
HETATM   12  C4  UNL     1       3.284  -6.890 -28.585  1.00  0.00    -0.009 A 
HETATM   13  C3  UNL     1       3.910  -7.374 -29.705  1.00  0.00     0.015 A 
HETATM   14  C2  UNL     1       5.030  -6.754 -30.235  1.00  0.00     0.020 A 
HETATM   15  C1  UNL     1       5.548  -5.637 -29.659  1.00  0.00     0.011 A 
HETATM   16 BR1  UNL     1       7.089  -4.828 -30.432  1.00  0.00    -0.051 Br
HETATM   17  C22 UNL     1       4.947  -5.133 -28.546  1.00  0.00     0.020 A 
HETATM   18  C21 UNL     1       3.830  -5.758 -28.023  1.00  0.00     0.015 A 
ENDBRANCH   9  12
ENDBRANCH   4   6
ENDBRANCH   1   4
BRANCH   3  19
HETATM   19  C9  UNL     1       3.043 -10.347 -24.036  1.00  0.00     0.010 A 
HETATM   20  C10 UNL     1       3.442  -9.105 -23.630  1.00  0.00     0.015 A 
HETATM   21  C11 UNL     1       4.791  -8.790 -23.453  1.00  0.00     0.003 A 
HETATM   22  C12 UNL     1       5.724  -9.765 -23.697  1.00  0.00     0.032 A 
HETATM   23  C13 UNL     1       5.355 -11.027 -24.107  1.00  0.00     0.060 A 
HETATM   24  N3  UNL     1       6.296 -11.986 -24.345  1.00  0.00    -0.353 N 
HETATM   25  C20 UNL     1       4.026 -11.321 -24.276  1.00  0.00     0.071 A 
HETATM   26  C14 UNL     1       5.883 -13.205 -24.744  1.00  0.00     0.059 A 
ATOM     27  H3  UNL     1       7.289 -11.786 -24.223  1.00  0.00     0.166 HD
HETATM   28  C15 UNL     1       6.817 -14.209 -24.997  1.00  0.00     0.032 A 
HETATM   29  C19 UNL     1       4.555 -13.507 -24.917  1.00  0.00     0.059 A 
HETATM   30  C16 UNL     1       6.415 -15.463 -25.407  1.00  0.00     0.002 A 
HETATM   31  C17 UNL     1       5.068 -15.749 -25.575  1.00  0.00     0.002 A 
HETATM   32  C18 UNL     1       4.148 -14.776 -25.331  1.00  0.00     0.032 A 
HETATM   33  N4  UNL     1       3.634 -12.548 -24.677  1.00  0.00    -0.352 N 
ATOM     34  H4  UNL     1       2.642 -12.752 -24.800  1.00  0.00     0.166 HD
ENDBRANCH   3  19
TORSDOF 4
ENDMDL
MODEL 4
REMARK VINA RESULT: -10.070339025      1.775      3.371
REMARK  4 active torsions:
REMARK  status: ('A' for Active; 'I' for Inactive)
REMARK    1  A    between atoms: C4_5  and  C5_6 
REMARK    2  A    between atoms: C7_9  and  N1_10 
REMARK    3  A    between atoms: N1_10  and  N2_12 
REMARK    4  A    between atoms: C8_14  and  C9_15 
ROOT
HETATM    1  N2  UNL     1       3.942 -10.461 -23.918  1.00  0.00    -0.309 N 
ATOM      2  H2  UNL     1       4.332  -9.553 -23.666  1.00  0.00     0.186 HD
HETATM    3  C8  UNL     1       4.840 -11.241 -24.262  1.00  0.00     0.120 C 
ENDROOT
BRANCH   1   4
HETATM    4  N1  UNL     1       2.611 -10.460 -23.782  1.00  0.00    -0.280 N 
ATOM      5  H1  UNL     1       2.188 -10.805 -22.920  1.00  0.00     0.189 HD
BRANCH   4   6
HETATM    6  C7  UNL     1       1.844 -10.014 -24.758  1.00  0.00     0.163 A 
HETATM    7  S1  UNL     1       0.164 -10.128 -24.947  1.00  0.00    -0.062 SA
HETATM    8  C6  UNL     1       0.024  -9.312 -26.436  1.00  0.00     0.083 A 
HETATM    9  C5  UNL     1       1.329  -8.985 -26.718  1.00  0.00     0.051 A 
HETATM   10  N5  UNL     1       2.240  -9.353 -25.846  1.00  0.00    -0.334 N 
ATOM     11  H5  UNL     1       3.225  -9.139 -25.998  1.00  0.00     0.168 HD
BRANCH   9  12
HETATM   12  C4  UNL     1       1.661  -8.239 -27.970  1.00  0.00    -0.009 A 
HETATM   13  C3  UNL     1       0.690  -7.822 -28.844  1.00  0.00     0.015 A 
HETATM   14  C2  UNL     1       1.007  -7.132 -30.004  1.00  0.00     0.020 A 
HETATM   15  C1  UNL     1       2.299  -6.844 -30.315  1.00  0.00     0.011 A 
HETATM   16 BR1  UNL     1       2.672  -5.893 -31.922  1.00  0.00    -0.051 Br
HETATM   17  C22 UNL     1       3.284  -7.246 -29.465  1.00  0.00     0.020 A 
HETATM   18  C21 UNL     1       2.960  -7.934 -28.311  1.00  0.00     0.015 A 
ENDBRANCH   9  12
ENDBRANCH   4   6
ENDBRANCH   1   4
BRANCH   3  19
HETATM   19  C9  UNL     1       4.708 -12.613 -24.692  1.00  0.00     0.010 A 
HETATM   20  C10 UNL     1       3.537 -13.313 -24.633  1.00  0.00     0.015 A 
HETATM   21  C11 UNL     1       3.455 -14.640 -25.060  1.00  0.00     0.003 A 
HETATM   22  C12 UNL     1       4.590 -15.238 -25.549  1.00  0.00     0.032 A 
HETATM   23  C13 UNL     1       5.786 -14.560 -25.621  1.00  0.00     0.060 A 
HETATM   24  N3  UNL     1       6.905 -15.168 -26.109  1.00  0.00    -0.353 N 
HETATM   25  C20 UNL     1       5.850 -13.256 -25.197  1.00  0.00     0.071 A 
HETATM   26  C14 UNL     1       8.050 -14.460 -26.159  1.00  0.00     0.059 A 
ATOM     27  H3  UNL     1       6.876 -16.136 -26.430  1.00  0.00     0.166 HD
HETATM   28  C15 UNL     1       9.214 -15.051 -26.651  1.00  0.00     0.032 A 
HETATM   29  C19 UNL     1       8.124 -13.156 -25.736  1.00  0.00     0.059 A 
HETATM   30  C16 UNL     1      10.396 -14.344 -26.711  1.00  0.00     0.002 A 
HETATM   31  C17 UNL     1      10.450 -13.027 -26.280  1.00  0.00     0.002 A 
HETATM   32  C18 UNL     1       9.320 -12.441 -25.797  1.00  0.00     0.032 A 
HETATM   33  N4  UNL     1       7.008 -12.565 -25.255  1.00  0.00    -0.352 N 
ATOM     34  H4  UNL     1       7.040 -11.597 -24.936  1.00  0.00     0.166 HD
ENDBRANCH   3  19
TORSDOF 4
ENDMDL
MODEL 5
REMARK VINA RESULT: -9.810390206      3.747      4.380
REMARK  4 active torsions:
REMARK  status: ('A' for Active; 'I' for Inactive)
REMARK    1  A    between atoms: C4_5  and  C5_6 
REMARK    2  A    between atoms: C7_9  and  N1_10 
REMARK    3  A    between atoms: N1_10  and  N2_12 
REMARK    4  A    between atoms: C8_14  and  C9_15 
ROOT
HETATM    1  N2  UNL     1       4.148  -8.419 -23.011  1.00  0.00    -0.309 N 
ATOM      2  H2  UNL     1       3.138  -8.309 -23.096  1.00  0.00     0.186 HD
HETATM    3  C8  UNL     1       4.544  -9.373 -23.694  1.00  0.00     0.120 C 
ENDROOT
BRANCH   1   4
HETATM    4  N1  UNL     1       4.658  -7.489 -22.194  1.00  0.00    -0.280 N 
ATOM      5  H1  UNL     1       4.983  -7.753 -21.263  1.00  0.00     0.189 HD
BRANCH   4   6
HETATM    6  C7  UNL     1       4.743  -6.233 -22.589  1.00  0.00     0.163 A 
HETATM    7  S1  UNL     1       4.202  -4.823 -21.820  1.00  0.00    -0.062 SA
HETATM    8  C6  UNL     1       4.707  -3.692 -22.990  1.00  0.00     0.083 A 
HETATM    9  C5  UNL     1       5.285  -4.493 -23.946  1.00  0.00     0.051 A 
HETATM   10  N5  UNL     1       5.292  -5.787 -23.718  1.00  0.00    -0.334 N 
ATOM     11  H5  UNL     1       5.707  -6.433 -24.389  1.00  0.00     0.168 HD
BRANCH   9  12
HETATM   12  C4  UNL     1       5.873  -3.884 -25.178  1.00  0.00    -0.009 A 
HETATM   13  C3  UNL     1       6.526  -2.679 -25.151  1.00  0.00     0.015 A 
HETATM   14  C2  UNL     1       7.067  -2.121 -26.298  1.00  0.00     0.020 A 
HETATM   15  C1  UNL     1       6.970  -2.756 -27.497  1.00  0.00     0.011 A 
HETATM   16 BR1  UNL     1       7.734  -1.941 -29.039  1.00  0.00    -0.051 Br
HETATM   17  C22 UNL     1       6.328  -3.955 -27.554  1.00  0.00     0.020 A 
HETATM   18  C21 UNL     1       5.789  -4.504 -26.405  1.00  0.00     0.015 A 
ENDBRANCH   9  12
ENDBRANCH   4   6
ENDBRANCH   1   4
BRANCH   3  19
HETATM   19  C9  UNL     1       5.895  -9.857 -23.844  1.00  0.00     0.010 A 
HETATM   20  C10 UNL     1       7.002  -9.088 -23.624  1.00  0.00     0.015 A 
HETATM   21  C11 UNL     1       8.292  -9.599 -23.782  1.00  0.00     0.003 A 
HETATM   22  C12 UNL     1       8.431 -10.908 -24.168  1.00  0.00     0.032 A 
HETATM   23  C13 UNL     1       7.335 -11.711 -24.398  1.00  0.00     0.060 A 
HETATM   24  N3  UNL     1       7.490 -13.011 -24.781  1.00  0.00    -0.353 N 
HETATM   25  C20 UNL     1       6.074 -11.193 -24.238  1.00  0.00     0.071 A 
HETATM   26  C14 UNL     1       6.385 -13.753 -24.993  1.00  0.00     0.059 A 
ATOM     27  H3  UNL     1       8.420 -13.412 -24.904  1.00  0.00     0.166 HD
HETATM   28  C15 UNL     1       6.507 -15.085 -25.386  1.00  0.00     0.032 A 
HETATM   29  C19 UNL     1       5.121 -13.244 -24.837  1.00  0.00     0.059 A 
HETATM   30  C16 UNL     1       5.389 -15.862 -25.608  1.00  0.00     0.002 A 
HETATM   31  C17 UNL     1       4.119 -15.330 -25.444  1.00  0.00     0.002 A 
HETATM   32  C18 UNL     1       3.990 -14.030 -25.061  1.00  0.00     0.032 A 
HETATM   33  N4  UNL     1       4.982 -11.955 -24.456  1.00  0.00    -0.352 N 
ATOM     34  H4  UNL     1       4.050 -11.556 -24.335  1.00  0.00     0.166 HD
ENDBRANCH   3  19
TORSDOF 4
ENDMDL
