MODEL 1
REMARK VINA RESULT: -5.898322356      0.000      0.000
REMARK  10 active torsions:
REMARK  status: ('A' for Active; 'I' for Inactive)
REMARK    1  A    between atoms: N1_1  and  C1_5 
REMARK    2  A    between atoms: C1_5  and  C2_6 
REMARK    3  A    between atoms: C2_6  and  N2_7 
REMARK    4  A    between atoms: C2_6  and  C3_11 
REMARK    5  A    between atoms: C3_11  and  C4_12 
REMARK    6  A    between atoms: C4_12  and  N3_13 
REMARK       I    between atoms: N3_13  and  C5_15 
REMARK    7  A    between atoms: C5_15  and  C6_17 
REMARK    8  A    between atoms: C6_17  and  N4_18 
REMARK    9  A    between atoms: N4_18  and  C7_20 
REMARK   10  A    between atoms: C10_23  and  N5_24 
ROOT
HETATM    1  N3  UNL     1      -9.079 -59.478  -8.044  1.00  0.00    -0.360 N 
ATOM      2  H3  UNL     1      -9.688 -58.876  -8.596  1.00  0.00     0.162 HD
HETATM    3  C5  UNL     1      -8.495 -60.582  -8.697  1.00  0.00     0.235 C 
HETATM    4  O1  UNL     1      -7.739 -61.348  -8.070  1.00  0.00    -0.272 OA
ENDROOT
BRANCH   1   5
HETATM    5  C4  UNL     1      -8.885 -59.136  -6.669  1.00  0.00     0.125 C 
BRANCH   5   6
HETATM    6  C3  UNL     1      -9.015 -57.659  -6.389  1.00  0.00     0.054 C 
BRANCH   6   7
HETATM    7  C2  UNL     1     -10.310 -57.483  -5.614  1.00  0.00     0.210 C 
BRANCH   7   8
HETATM    8  C1  UNL     1     -11.298 -56.618  -6.373  1.00  0.00     0.262 C 
BRANCH   8   9
HETATM    9  N1  UNL     1     -12.525 -56.596  -5.600  1.00  0.00    -0.077 N 
ATOM     10  H13 UNL     1     -13.204 -57.293  -5.907  1.00  0.00     0.274 HD
ATOM     11  H12 UNL     1     -12.405 -56.941  -4.648  1.00  0.00     0.274 HD
ATOM     12  H11 UNL     1     -12.884 -55.642  -5.638  1.00  0.00     0.274 HD
ENDBRANCH   8   9
ENDBRANCH   7   8
BRANCH   7  13
HETATM   13  N2  UNL     1     -10.017 -56.874  -4.334  1.00  0.00    -0.073 N 
ATOM     14  H23 UNL     1      -9.214 -56.248  -4.380  1.00  0.00     0.274 HD
ATOM     15  H22 UNL     1     -10.722 -56.187  -4.064  1.00  0.00     0.274 HD
ATOM     16  H21 UNL     1      -9.899 -57.601  -3.628  1.00  0.00     0.274 HD
ENDBRANCH   7  13
ENDBRANCH   6   7
ENDBRANCH   5   6
ENDBRANCH   1   5
BRANCH   3  17
HETATM   17  C6  UNL     1      -8.777 -60.830 -10.120  1.00  0.00     0.222 C 
BRANCH  17  18
HETATM   18  N4  UNL     1      -9.626 -59.780 -10.637  1.00  0.00    -0.381 N 
ATOM     19  H4  UNL     1      -9.263 -58.828 -10.673  1.00  0.00     0.160 HD
BRANCH  18  20
HETATM   20  C7  UNL     1     -10.949 -60.026 -11.098  1.00  0.00     0.028 A 
HETATM   21  C8  UNL     1     -11.979 -60.313 -10.228  1.00  0.00     0.031 A 
HETATM   22  C9  UNL     1     -13.261 -60.551 -10.677  1.00  0.00     0.038 A 
HETATM   23  C10 UNL     1     -13.584 -60.514 -12.017  1.00  0.00     0.103 A 
HETATM   24  C11 UNL     1     -12.547 -60.226 -12.892  1.00  0.00     0.038 A 
HETATM   25  C12 UNL     1     -11.265 -59.988 -12.443  1.00  0.00     0.031 A 
BRANCH  23  26
HETATM   26  N5  UNL     1     -14.906 -60.760 -12.476  1.00  0.00    -0.116 N 
HETATM   27  O2  UNL     1     -15.404 -61.893 -12.574  1.00  0.00    -0.532 OA
HETATM   28  O3  UNL     1     -15.677 -59.685 -12.830  1.00  0.00    -0.532 OA
ENDBRANCH  23  26
ENDBRANCH  18  20
ENDBRANCH  17  18
ENDBRANCH   3  17
TORSDOF 10
ENDMDL
MODEL 2
REMARK VINA RESULT: -5.890664036      0.554      1.188
REMARK  10 active torsions:
REMARK  status: ('A' for Active; 'I' for Inactive)
REMARK    1  A    between atoms: N1_1  and  C1_5 
REMARK    2  A    between atoms: C1_5  and  C2_6 
REMARK    3  A    between atoms: C2_6  and  N2_7 
REMARK    4  A    between atoms: C2_6  and  C3_11 
REMARK    5  A    between atoms: C3_11  and  C4_12 
REMARK    6  A    between atoms: C4_12  and  N3_13 
REMARK       I    between atoms: N3_13  and  C5_15 
REMARK    7  A    between atoms: C5_15  and  C6_17 
REMARK    8  A    between atoms: C6_17  and  N4_18 
REMARK    9  A    between atoms: N4_18  and  C7_20 
REMARK   10  A    between atoms: C10_23  and  N5_24 
ROOT
HETATM    1  N3  UNL     1      -8.409 -58.719  -8.225  1.00  0.00    -0.360 N 
ATOM      2  H3  UNL     1      -8.647 -58.158  -9.042  1.00  0.00     0.162 HD
HETATM    3  C5  UNL     1      -8.431 -60.120  -8.371  1.00  0.00     0.235 C 
HETATM    4  O1  UNL     1      -8.143 -60.852  -7.404  1.00  0.00    -0.272 OA
ENDROOT
BRANCH   1   5
HETATM    5  C4  UNL     1      -8.078 -58.019  -7.021  1.00  0.00     0.125 C 
BRANCH   5   6
HETATM    6  C3  UNL     1      -8.968 -56.832  -6.747  1.00  0.00     0.054 C 
BRANCH   6   7
HETATM    7  C2  UNL     1     -10.207 -57.376  -6.055  1.00  0.00     0.210 C 
BRANCH   7   8
HETATM    8  C1  UNL     1     -11.469 -56.724  -6.583  1.00  0.00     0.262 C 
BRANCH   8   9
HETATM    9  N1  UNL     1     -12.365 -56.556  -5.455  1.00  0.00    -0.077 N 
ATOM     10  H13 UNL     1     -13.341 -56.450  -5.731  1.00  0.00     0.274 HD
ATOM     11  H12 UNL     1     -12.477 -57.406  -4.903  1.00  0.00     0.274 HD
ATOM     12  H11 UNL     1     -12.014 -55.768  -4.910  1.00  0.00     0.274 HD
ENDBRANCH   8   9
ENDBRANCH   7   8
BRANCH   7  13
HETATM   13  N2  UNL     1     -10.097 -57.137  -4.631  1.00  0.00    -0.073 N 
ATOM     14  H23 UNL     1      -9.518 -56.325  -4.421  1.00  0.00     0.274 HD
ATOM     15  H22 UNL     1     -10.972 -56.801  -4.229  1.00  0.00     0.274 HD
ATOM     16  H21 UNL     1      -9.759 -57.981  -4.168  1.00  0.00     0.274 HD
ENDBRANCH   7  13
ENDBRANCH   6   7
ENDBRANCH   5   6
ENDBRANCH   1   5
BRANCH   3  17
HETATM   17  C6  UNL     1      -8.791 -60.720  -9.665  1.00  0.00     0.222 C 
BRANCH  17  18
HETATM   18  N4  UNL     1      -9.526 -59.760 -10.457  1.00  0.00    -0.381 N 
ATOM     19  H4  UNL     1      -9.087 -58.867 -10.679  1.00  0.00     0.160 HD
BRANCH  18  20
HETATM   20  C7  UNL     1     -10.840 -60.015 -10.940  1.00  0.00     0.028 A 
HETATM   21  C8  UNL     1     -11.146 -59.949 -12.282  1.00  0.00     0.031 A 
HETATM   22  C9  UNL     1     -12.421 -60.197 -12.748  1.00  0.00     0.038 A 
HETATM   23  C10 UNL     1     -13.457 -60.524 -11.899  1.00  0.00     0.103 A 
HETATM   24  C11 UNL     1     -13.149 -60.589 -10.548  1.00  0.00     0.038 A 
HETATM   25  C12 UNL     1     -11.875 -60.341 -10.083  1.00  0.00     0.031 A 
BRANCH  23  26
HETATM   26  N5  UNL     1     -14.768 -60.778 -12.382  1.00  0.00    -0.116 N 
HETATM   27  O2  UNL     1     -15.243 -61.916 -12.528  1.00  0.00    -0.532 OA
HETATM   28  O3  UNL     1     -15.557 -59.706 -12.706  1.00  0.00    -0.532 OA
ENDBRANCH  23  26
ENDBRANCH  18  20
ENDBRANCH  17  18
ENDBRANCH   3  17
TORSDOF 10
ENDMDL
MODEL 3
REMARK VINA RESULT: -5.832775062      1.097      1.634
REMARK  10 active torsions:
REMARK  status: ('A' for Active; 'I' for Inactive)
REMARK    1  A    between atoms: N1_1  and  C1_5 
REMARK    2  A    between atoms: C1_5  and  C2_6 
REMARK    3  A    between atoms: C2_6  and  N2_7 
REMARK    4  A    between atoms: C2_6  and  C3_11 
REMARK    5  A    between atoms: C3_11  and  C4_12 
REMARK    6  A    between atoms: C4_12  and  N3_13 
REMARK       I    between atoms: N3_13  and  C5_15 
REMARK    7  A    between atoms: C5_15  and  C6_17 
REMARK    8  A    between atoms: C6_17  and  N4_18 
REMARK    9  A    between atoms: N4_18  and  C7_20 
REMARK   10  A    between atoms: C10_23  and  N5_24 
ROOT
HETATM    1  N3  UNL     1      -9.296 -58.007  -8.451  1.00  0.00    -0.360 N 
ATOM      2  H3  UNL     1      -9.490 -57.764  -9.422  1.00  0.00     0.162 HD
HETATM    3  C5  UNL     1      -9.109 -59.370  -8.149  1.00  0.00     0.235 C 
HETATM    4  O1  UNL     1      -8.865 -59.721  -6.979  1.00  0.00    -0.272 OA
ENDROOT
BRANCH   1   5
HETATM    5  C4  UNL     1      -9.236 -56.936  -7.504  1.00  0.00     0.125 C 
BRANCH   5   6
HETATM    6  C3  UNL     1     -10.512 -56.747  -6.722  1.00  0.00     0.054 C 
BRANCH   6   7
HETATM    7  C2  UNL     1     -10.141 -56.896  -5.255  1.00  0.00     0.210 C 
BRANCH   7   8
HETATM    8  C1  UNL     1      -8.641 -56.805  -5.052  1.00  0.00     0.262 C 
BRANCH   8   9
HETATM    9  N1  UNL     1      -8.232 -58.012  -4.358  1.00  0.00    -0.077 N 
ATOM     10  H13 UNL     1      -7.598 -58.593  -4.907  1.00  0.00     0.274 HD
ATOM     11  H12 UNL     1      -7.601 -57.831  -3.578  1.00  0.00     0.274 HD
ATOM     12  H11 UNL     1      -9.084 -58.499  -4.080  1.00  0.00     0.274 HD
ENDBRANCH   8   9
ENDBRANCH   7   8
BRANCH   7  13
HETATM   13  N2  UNL     1     -10.618 -58.175  -4.774  1.00  0.00    -0.073 N 
ATOM     14  H23 UNL     1     -11.565 -58.378  -5.094  1.00  0.00     0.274 HD
ATOM     15  H22 UNL     1     -10.141 -58.958  -5.222  1.00  0.00     0.274 HD
ATOM     16  H21 UNL     1     -10.541 -58.208  -3.757  1.00  0.00     0.274 HD
ENDBRANCH   7  13
ENDBRANCH   6   7
ENDBRANCH   5   6
ENDBRANCH   1   5
BRANCH   3  17
HETATM   17  C6  UNL     1      -9.200 -60.380  -9.216  1.00  0.00     0.222 C 
BRANCH  17  18
HETATM   18  N4  UNL     1      -9.697 -59.764 -10.426  1.00  0.00    -0.381 N 
ATOM     19  H4  UNL     1      -9.093 -59.118 -10.932  1.00  0.00     0.160 HD
BRANCH  18  20
HETATM   20  C7  UNL     1     -10.998 -60.028 -10.938  1.00  0.00     0.028 A 
HETATM   21  C8  UNL     1     -12.049 -60.363 -10.110  1.00  0.00     0.031 A 
HETATM   22  C9  UNL     1     -13.309 -60.618 -10.609  1.00  0.00     0.038 A 
HETATM   23  C10 UNL     1     -13.588 -60.553 -11.957  1.00  0.00     0.103 A 
HETATM   24  C11 UNL     1     -12.531 -60.217 -12.789  1.00  0.00     0.038 A 
HETATM   25  C12 UNL     1     -11.270 -59.962 -12.291  1.00  0.00     0.031 A 
BRANCH  23  26
HETATM   26  N5  UNL     1     -14.888 -60.817 -12.466  1.00  0.00    -0.116 N 
HETATM   27  O2  UNL     1     -15.363 -61.957 -12.593  1.00  0.00    -0.532 OA
HETATM   28  O3  UNL     1     -15.665 -59.752 -12.838  1.00  0.00    -0.532 OA
ENDBRANCH  23  26
ENDBRANCH  18  20
ENDBRANCH  17  18
ENDBRANCH   3  17
TORSDOF 10
ENDMDL
MODEL 4
REMARK VINA RESULT: -5.829483609      1.105      1.949
REMARK  10 active torsions:
REMARK  status: ('A' for Active; 'I' for Inactive)
REMARK    1  A    between atoms: N1_1  and  C1_5 
REMARK    2  A    between atoms: C1_5  and  C2_6 
REMARK    3  A    between atoms: C2_6  and  N2_7 
REMARK    4  A    between atoms: C2_6  and  C3_11 
REMARK    5  A    between atoms: C3_11  and  C4_12 
REMARK    6  A    between atoms: C4_12  and  N3_13 
REMARK       I    between atoms: N3_13  and  C5_15 
REMARK    7  A    between atoms: C5_15  and  C6_17 
REMARK    8  A    between atoms: C6_17  and  N4_18 
REMARK    9  A    between atoms: N4_18  and  C7_20 
REMARK   10  A    between atoms: C10_23  and  N5_24 
ROOT
HETATM    1  N3  UNL     1      -9.367 -58.008  -8.407  1.00  0.00    -0.360 N 
ATOM      2  H3  UNL     1      -9.587 -57.769  -9.374  1.00  0.00     0.162 HD
HETATM    3  C5  UNL     1      -9.147 -59.368  -8.110  1.00  0.00     0.235 C 
HETATM    4  O1  UNL     1      -8.870 -59.713  -6.946  1.00  0.00    -0.272 OA
ENDROOT
BRANCH   1   5
HETATM    5  C4  UNL     1      -9.306 -56.936  -7.462  1.00  0.00     0.125 C 
BRANCH   5   6
HETATM    6  C3  UNL     1     -10.573 -56.762  -6.662  1.00  0.00     0.054 C 
BRANCH   6   7
HETATM    7  C2  UNL     1     -10.183 -56.925  -5.202  1.00  0.00     0.210 C 
BRANCH   7   8
HETATM    8  C1  UNL     1      -8.684 -56.798  -5.012  1.00  0.00     0.262 C 
BRANCH   8   9
HETATM    9  N1  UNL     1      -8.238 -58.001  -4.335  1.00  0.00    -0.077 N 
ATOM     10  H13 UNL     1      -7.471 -57.833  -3.683  1.00  0.00     0.274 HD
ATOM     11  H12 UNL     1      -8.913 -58.351  -3.654  1.00  0.00     0.274 HD
ATOM     12  H11 UNL     1      -8.009 -58.683  -5.057  1.00  0.00     0.274 HD
ENDBRANCH   8   9
ENDBRANCH   7   8
BRANCH   7  13
HETATM   13  N2  UNL     1     -10.622 -58.224  -4.737  1.00  0.00    -0.073 N 
ATOM     14  H23 UNL     1     -11.595 -58.409  -4.976  1.00  0.00     0.274 HD
ATOM     15  H22 UNL     1     -10.194 -58.986  -5.263  1.00  0.00     0.274 HD
ATOM     16  H21 UNL     1     -10.450 -58.304  -3.735  1.00  0.00     0.274 HD
ENDBRANCH   7  13
ENDBRANCH   6   7
ENDBRANCH   5   6
ENDBRANCH   1   5
BRANCH   3  17
HETATM   17  C6  UNL     1      -9.242 -60.379  -9.174  1.00  0.00     0.222 C 
BRANCH  17  18
HETATM   18  N4  UNL     1      -9.729 -59.762 -10.388  1.00  0.00    -0.381 N 
ATOM     19  H4  UNL     1      -9.120 -59.117 -10.890  1.00  0.00     0.160 HD
BRANCH  18  20
HETATM   20  C7  UNL     1     -11.027 -60.023 -10.908  1.00  0.00     0.028 A 
HETATM   21  C8  UNL     1     -11.291 -59.972 -12.261  1.00  0.00     0.031 A 
HETATM   22  C9  UNL     1     -12.550 -60.226 -12.762  1.00  0.00     0.038 A 
HETATM   23  C10 UNL     1     -13.612 -60.543 -11.943  1.00  0.00     0.103 A 
HETATM   24  C11 UNL     1     -13.347 -60.593 -10.583  1.00  0.00     0.038 A 
HETATM   25  C12 UNL     1     -12.088 -60.340 -10.080  1.00  0.00     0.031 A 
BRANCH  23  26
HETATM   26  N5  UNL     1     -14.908 -60.803 -12.464  1.00  0.00    -0.116 N 
HETATM   27  O2  UNL     1     -15.365 -61.943 -12.644  1.00  0.00    -0.532 OA
HETATM   28  O3  UNL     1     -15.701 -59.734 -12.787  1.00  0.00    -0.532 OA
ENDBRANCH  23  26
ENDBRANCH  18  20
ENDBRANCH  17  18
ENDBRANCH   3  17
TORSDOF 10
ENDMDL
MODEL 5
REMARK VINA RESULT: -5.730629098      2.571      7.239
REMARK  10 active torsions:
REMARK  status: ('A' for Active; 'I' for Inactive)
REMARK    1  A    between atoms: N1_1  and  C1_5 
REMARK    2  A    between atoms: C1_5  and  C2_6 
REMARK    3  A    between atoms: C2_6  and  N2_7 
REMARK    4  A    between atoms: C2_6  and  C3_11 
REMARK    5  A    between atoms: C3_11  and  C4_12 
REMARK    6  A    between atoms: C4_12  and  N3_13 
REMARK       I    between atoms: N3_13  and  C5_15 
REMARK    7  A    between atoms: C5_15  and  C6_17 
REMARK    8  A    between atoms: C6_17  and  N4_18 
REMARK    9  A    between atoms: N4_18  and  C7_20 
REMARK   10  A    between atoms: C10_23  and  N5_24 
ROOT
HETATM    1  N3  UNL     1     -11.834 -60.103 -10.541  1.00  0.00    -0.360 N 
ATOM      2  H3  UNL     1     -11.829 -59.126 -10.248  1.00  0.00     0.162 HD
HETATM    3  C5  UNL     1     -10.614 -60.654 -10.980  1.00  0.00     0.235 C 
HETATM    4  O1  UNL     1     -10.563 -61.844 -11.345  1.00  0.00    -0.272 OA
ENDROOT
BRANCH   1   5
HETATM    5  C4  UNL     1     -13.079 -60.804 -10.472  1.00  0.00     0.125 C 
BRANCH   5   6
HETATM    6  C3  UNL     1     -13.992 -60.534 -11.643  1.00  0.00     0.054 C 
BRANCH   6   7
HETATM    7  C2  UNL     1     -14.023 -61.813 -12.464  1.00  0.00     0.210 C 
BRANCH   7   8
HETATM    8  C1  UNL     1     -15.433 -62.151 -12.909  1.00  0.00     0.262 C 
BRANCH   8   9
HETATM    9  N1  UNL     1     -16.093 -60.896 -13.217  1.00  0.00    -0.077 N 
ATOM     10  H13 UNL     1     -15.788 -60.127 -12.621  1.00  0.00     0.274 HD
ATOM     11  H12 UNL     1     -15.799 -60.496 -14.108  1.00  0.00     0.274 HD
ATOM     12  H11 UNL     1     -17.097 -61.068 -13.168  1.00  0.00     0.274 HD
ENDBRANCH   8   9
ENDBRANCH   7   8
BRANCH   7  13
HETATM   13  N2  UNL     1     -13.492 -62.899 -11.670  1.00  0.00    -0.073 N 
ATOM     14  H23 UNL     1     -13.463 -62.672 -10.676  1.00  0.00     0.274 HD
ATOM     15  H22 UNL     1     -14.135 -63.690 -11.620  1.00  0.00     0.274 HD
ATOM     16  H21 UNL     1     -12.576 -63.169 -12.029  1.00  0.00     0.274 HD
ENDBRANCH   7  13
ENDBRANCH   6   7
ENDBRANCH   5   6
ENDBRANCH   1   5
BRANCH   3  17
HETATM   17  C6  UNL     1      -9.399 -59.825 -11.007  1.00  0.00     0.222 C 
BRANCH  17  18
HETATM   18  N4  UNL     1      -8.610 -60.080  -9.822  1.00  0.00    -0.381 N 
ATOM     19  H4  UNL     1      -7.854 -60.762  -9.873  1.00  0.00     0.160 HD
BRANCH  18  20
HETATM   20  C7  UNL     1      -8.850 -59.414  -8.588  1.00  0.00     0.028 A 
HETATM   21  C8  UNL     1      -9.058 -58.053  -8.527  1.00  0.00     0.031 A 
HETATM   22  C9  UNL     1      -9.290 -57.409  -7.329  1.00  0.00     0.038 A 
HETATM   23  C10 UNL     1      -9.327 -58.089  -6.130  1.00  0.00     0.103 A 
HETATM   24  C11 UNL     1      -9.117 -59.459  -6.192  1.00  0.00     0.038 A 
HETATM   25  C12 UNL     1      -8.885 -60.103  -7.390  1.00  0.00     0.031 A 
BRANCH  23  26
HETATM   26  N5  UNL     1      -9.567 -57.423  -4.899  1.00  0.00    -0.116 N 
HETATM   27  O2  UNL     1      -9.081 -57.780  -3.813  1.00  0.00    -0.532 OA
HETATM   28  O3  UNL     1     -10.380 -56.321  -4.908  1.00  0.00    -0.532 OA
ENDBRANCH  23  26
ENDBRANCH  18  20
ENDBRANCH  17  18
ENDBRANCH   3  17
TORSDOF 10
ENDMDL
