MODEL 1
REMARK VINA RESULT: -7.472284861      0.000      0.000
REMARK  16 active torsions:
REMARK  status: ('A' for Active; 'I' for Inactive)
REMARK    1  A    between atoms: C2_2  and  O1_4 
REMARK    2  A    between atoms: O1_4  and  C4_5 
REMARK    3  A    between atoms: C4_5  and  C5_6 
REMARK    4  A    between atoms: C5_6  and  O3_8 
REMARK    5  A    between atoms: O3_8  and  C6_9 
REMARK    6  A    between atoms: C7_10  and  C8_11 
REMARK    7  A    between atoms: C9_12  and  C10_13 
REMARK    8  A    between atoms: C14_19  and  O4_20 
REMARK    9  A    between atoms: O4_20  and  C15_21 
REMARK   10  A    between atoms: C18_25  and  O6_26 
REMARK   11  A    between atoms: O6_26  and  C19_27 
REMARK   12  A    between atoms: C21_30  and  O8_31 
REMARK   13  A    between atoms: C22_33  and  O9_34 
REMARK   14  A    between atoms: C23_36  and  O10_37 
REMARK   15  A    between atoms: C24_39  and  O11_40 
REMARK   16  A    between atoms: C25_42  and  O12_43 
ROOT
HETATM    1  C6  UNL     1      -4.208  -2.070   7.366  1.00  0.00     0.170 C 
HETATM    2  C7  UNL     1      -4.536  -1.626   8.750  1.00  0.00     0.041 C 
HETATM    3  C11 UNL     1      -5.964  -1.198   8.964  1.00  0.00     0.033 C 
HETATM    4  C12 UNL     1      -6.306  -0.080   7.982  1.00  0.00     0.125 C 
HETATM    5  C13 UNL     1      -7.650   0.358   8.331  1.00  0.00     0.066 C 
HETATM    6  N1  UNL     1      -8.726   0.715   8.635  1.00  0.00    -0.197 NA
HETATM    7  C14 UNL     1      -6.237  -0.707   6.629  1.00  0.00     0.173 C 
HETATM    8  C25 UNL     1      -4.872  -1.247   6.309  1.00  0.00     0.178 C 
ENDROOT
BRANCH   7   9
HETATM    9  O4  UNL     1      -6.589   0.143   5.602  1.00  0.00    -0.349 OA
BRANCH   9  10
HETATM   10  C15 UNL     1      -7.671  -0.347   4.922  1.00  0.00     0.292 C 
HETATM   11  O5  UNL     1      -7.366  -0.698   3.607  1.00  0.00    -0.351 OA
HETATM   12  C16 UNL     1      -8.068   0.153   2.771  1.00  0.00     0.152 C 
HETATM   13  C17 UNL     1      -8.398  -0.427   1.435  1.00  0.00     0.042 C 
HETATM   14  C18 UNL     1      -9.376   0.450   3.524  1.00  0.00     0.187 C 
HETATM   15  C24 UNL     1      -8.824   0.598   4.919  1.00  0.00     0.204 C 
BRANCH  14  16
HETATM   16  O6  UNL     1      -9.914   1.636   3.121  1.00  0.00    -0.348 OA
BRANCH  16  17
HETATM   17  C19 UNL     1     -11.246   1.820   3.359  1.00  0.00     0.291 C 
HETATM   18  O7  UNL     1     -11.944   1.099   2.405  1.00  0.00    -0.356 OA
HETATM   19  C20 UNL     1     -11.715   1.701   1.164  1.00  0.00     0.205 C 
HETATM   20  C21 UNL     1     -12.578   2.952   1.118  1.00  0.00     0.173 C 
HETATM   21  C22 UNL     1     -12.941   3.376   2.531  1.00  0.00     0.182 C 
HETATM   22  C23 UNL     1     -11.747   3.190   3.461  1.00  0.00     0.204 C 
BRANCH  20  23
HETATM   23  O8  UNL     1     -13.757   2.609   0.469  1.00  0.00    -0.391 OA
ATOM     24  H8  UNL     1     -14.177   3.421   0.209  1.00  0.00     0.210 HD
ENDBRANCH  20  23
BRANCH  21  25
HETATM   25  O9  UNL     1     -14.077   2.724   2.992  1.00  0.00    -0.390 OA
ATOM     26  H9  UNL     1     -13.908   1.808   3.178  1.00  0.00     0.210 HD
ENDBRANCH  21  25
BRANCH  22  27
HETATM   27  O10 UNL     1     -10.812   4.164   3.028  1.00  0.00    -0.388 OA
ATOM     28  H10 UNL     1     -10.250   4.482   3.724  1.00  0.00     0.210 HD
ENDBRANCH  22  27
ENDBRANCH  16  17
ENDBRANCH  14  16
BRANCH  15  29
HETATM   29  O11 UNL     1      -8.399   1.933   5.050  1.00  0.00    -0.388 OA
ATOM     30  H11 UNL     1      -8.640   2.452   4.291  1.00  0.00     0.210 HD
ENDBRANCH  15  29
ENDBRANCH   9  10
ENDBRANCH   7   9
BRANCH   2  31
HETATM   31  C8  UNL     1      -3.687  -0.556   9.306  1.00  0.00    -0.022 C 
HETATM   32  C9  UNL     1      -3.822   0.061  10.445  1.00  0.00    -0.015 C 
BRANCH  32  33
HETATM   33  C10 UNL     1      -2.834   1.133  10.823  1.00  0.00     0.141 C 
HETATM   34 CL1  UNL     1      -1.407   0.426  11.616  1.00  0.00    -0.126 Cl
ENDBRANCH  32  33
ENDBRANCH   2  31
BRANCH   8  35
HETATM   35  O12 UNL     1      -4.895  -2.011   5.122  1.00  0.00    -0.390 OA
ATOM     36  H12 UNL     1      -5.797  -2.066   4.832  1.00  0.00     0.210 HD
ENDBRANCH   8  35
BRANCH   1  37
HETATM   37  O3  UNL     1      -4.588  -3.393   7.088  1.00  0.00    -0.311 OA
BRANCH  37  38
HETATM   38  C5  UNL     1      -3.704  -4.457   7.145  1.00  0.00     0.283 C 
HETATM   39  O2  UNL     1      -2.539  -4.162   6.792  1.00  0.00    -0.263 OA
BRANCH  38  40
HETATM   40  C4  UNL     1      -4.142  -5.806   7.592  1.00  0.00     0.279 C 
BRANCH  40  41
HETATM   41  O1  UNL     1      -4.208  -5.954   8.943  1.00  0.00    -0.377 OA
BRANCH  41  42
HETATM   42  C2  UNL     1      -4.407  -7.214   9.430  1.00  0.00     0.114 C 
HETATM   43  C1  UNL     1      -3.432  -8.170   8.808  1.00  0.00     0.039 C 
HETATM   44  C3  UNL     1      -4.139  -7.203  10.955  1.00  0.00     0.039 C 
ENDBRANCH  41  42
ENDBRANCH  40  41
ENDBRANCH  38  40
ENDBRANCH  37  38
ENDBRANCH   1  37
TORSDOF 16
ENDMDL
MODEL 2
REMARK VINA RESULT: -7.407884576      4.241      5.913
REMARK  16 active torsions:
REMARK  status: ('A' for Active; 'I' for Inactive)
REMARK    1  A    between atoms: C2_2  and  O1_4 
REMARK    2  A    between atoms: O1_4  and  C4_5 
REMARK    3  A    between atoms: C4_5  and  C5_6 
REMARK    4  A    between atoms: C5_6  and  O3_8 
REMARK    5  A    between atoms: O3_8  and  C6_9 
REMARK    6  A    between atoms: C7_10  and  C8_11 
REMARK    7  A    between atoms: C9_12  and  C10_13 
REMARK    8  A    between atoms: C14_19  and  O4_20 
REMARK    9  A    between atoms: O4_20  and  C15_21 
REMARK   10  A    between atoms: C18_25  and  O6_26 
REMARK   11  A    between atoms: O6_26  and  C19_27 
REMARK   12  A    between atoms: C21_30  and  O8_31 
REMARK   13  A    between atoms: C22_33  and  O9_34 
REMARK   14  A    between atoms: C23_36  and  O10_37 
REMARK   15  A    between atoms: C24_39  and  O11_40 
REMARK   16  A    between atoms: C25_42  and  O12_43 
ROOT
HETATM    1  C6  UNL     1      -3.114   0.055  11.170  1.00  0.00     0.170 C 
HETATM    2  C7  UNL     1      -2.123   1.142  11.408  1.00  0.00     0.041 C 
HETATM    3  C11 UNL     1      -2.158   2.270  10.411  1.00  0.00     0.033 C 
HETATM    4  C12 UNL     1      -1.959   1.707   9.007  1.00  0.00     0.125 C 
HETATM    5  C13 UNL     1      -1.884   2.861   8.122  1.00  0.00     0.066 C 
HETATM    6  N1  UNL     1      -1.805   3.801   7.423  1.00  0.00    -0.197 NA
HETATM    7  C14 UNL     1      -3.159   0.859   8.747  1.00  0.00     0.173 C 
HETATM    8  C25 UNL     1      -3.290  -0.277   9.722  1.00  0.00     0.178 C 
ENDROOT
BRANCH   7   9
HETATM    9  O4  UNL     1      -3.193   0.313   7.481  1.00  0.00    -0.349 OA
BRANCH   9  10
HETATM   10  C15 UNL     1      -4.096   0.977   6.696  1.00  0.00     0.292 C 
HETATM   11  O5  UNL     1      -5.329   1.154   7.324  1.00  0.00    -0.351 OA
HETATM   12  C16 UNL     1      -6.268   0.419   6.623  1.00  0.00     0.152 C 
HETATM   13  C17 UNL     1      -7.659   0.957   6.704  1.00  0.00     0.042 C 
HETATM   14  C18 UNL     1      -5.796   0.472   5.160  1.00  0.00     0.187 C 
HETATM   15  C24 UNL     1      -4.313   0.310   5.379  1.00  0.00     0.204 C 
BRANCH  14  16
HETATM   16  O6  UNL     1      -6.269  -0.592   4.454  1.00  0.00    -0.348 OA
BRANCH  16  17
HETATM   17  C19 UNL     1      -7.250  -0.338   3.539  1.00  0.00     0.291 C 
HETATM   18  O7  UNL     1      -8.243  -1.285   3.720  1.00  0.00    -0.356 OA
HETATM   19  C20 UNL     1      -7.720  -2.528   3.348  1.00  0.00     0.205 C 
HETATM   20  C21 UNL     1      -7.708  -2.561   1.828  1.00  0.00     0.173 C 
HETATM   21  C22 UNL     1      -7.749  -1.143   1.285  1.00  0.00     0.182 C 
HETATM   22  C23 UNL     1      -6.871  -0.227   2.131  1.00  0.00     0.204 C 
BRANCH  20  23
HETATM   23  O8  UNL     1      -8.875  -3.197   1.426  1.00  0.00    -0.391 OA
ATOM     24  H8  UNL     1      -8.688  -3.622   0.597  1.00  0.00     0.210 HD
ENDBRANCH  20  23
BRANCH  21  25
HETATM   25  O9  UNL     1      -9.050  -0.670   1.169  1.00  0.00    -0.390 OA
ATOM     26  H9  UNL     1      -9.160   0.171   1.596  1.00  0.00     0.210 HD
ENDBRANCH  21  25
BRANCH  22  27
HETATM   27  O10 UNL     1      -5.551  -0.670   1.868  1.00  0.00    -0.388 OA
ATOM     28  H10 UNL     1      -5.483  -1.211   1.091  1.00  0.00     0.210 HD
ENDBRANCH  22  27
ENDBRANCH  16  17
ENDBRANCH  14  16
BRANCH  15  29
HETATM   29  O11 UNL     1      -4.060  -1.072   5.452  1.00  0.00    -0.388 OA
ATOM     30  H11 UNL     1      -4.753  -1.529   5.914  1.00  0.00     0.210 HD
ENDBRANCH  15  29
ENDBRANCH   9  10
ENDBRANCH   7   9
BRANCH   2  31
HETATM   31  C8  UNL     1      -0.715   0.722  11.521  1.00  0.00    -0.022 C 
HETATM   32  C9  UNL     1       0.200   1.194  12.318  1.00  0.00    -0.015 C 
BRANCH  32  33
HETATM   33  C10 UNL     1       1.590   0.616  12.270  1.00  0.00     0.141 C 
HETATM   34 CL1  UNL     1       1.985  -0.205  13.798  1.00  0.00    -0.126 Cl
ENDBRANCH  32  33
ENDBRANCH   2  31
BRANCH   8  35
HETATM   35  O12 UNL     1      -4.535  -0.927   9.580  1.00  0.00    -0.390 OA
ATOM     36  H12 UNL     1      -4.932  -0.616   8.775  1.00  0.00     0.210 HD
ENDBRANCH   8  35
BRANCH   1  37
HETATM   37  O3  UNL     1      -4.406   0.351  11.634  1.00  0.00    -0.311 OA
BRANCH  37  38
HETATM   38  C5  UNL     1      -4.982  -0.290  12.718  1.00  0.00     0.283 C 
HETATM   39  O2  UNL     1      -4.207  -1.083  13.301  1.00  0.00    -0.263 OA
BRANCH  38  40
HETATM   40  C4  UNL     1      -6.391  -0.029  13.114  1.00  0.00     0.279 C 
BRANCH  40  41
HETATM   41  O1  UNL     1      -7.179   0.435  12.106  1.00  0.00    -0.377 OA
BRANCH  41  42
HETATM   42  C2  UNL     1      -7.671  -0.478  11.218  1.00  0.00     0.114 C 
HETATM   43  C1  UNL     1      -8.737  -1.310  11.868  1.00  0.00     0.039 C 
HETATM   44  C3  UNL     1      -8.325   0.281  10.039  1.00  0.00     0.039 C 
ENDBRANCH  41  42
ENDBRANCH  40  41
ENDBRANCH  38  40
ENDBRANCH  37  38
ENDBRANCH   1  37
TORSDOF 16
ENDMDL
MODEL 3
REMARK VINA RESULT: -7.188917504      2.987      4.521
REMARK  16 active torsions:
REMARK  status: ('A' for Active; 'I' for Inactive)
REMARK    1  A    between atoms: C2_2  and  O1_4 
REMARK    2  A    between atoms: O1_4  and  C4_5 
REMARK    3  A    between atoms: C4_5  and  C5_6 
REMARK    4  A    between atoms: C5_6  and  O3_8 
REMARK    5  A    between atoms: O3_8  and  C6_9 
REMARK    6  A    between atoms: C7_10  and  C8_11 
REMARK    7  A    between atoms: C9_12  and  C10_13 
REMARK    8  A    between atoms: C14_19  and  O4_20 
REMARK    9  A    between atoms: O4_20  and  C15_21 
REMARK   10  A    between atoms: C18_25  and  O6_26 
REMARK   11  A    between atoms: O6_26  and  C19_27 
REMARK   12  A    between atoms: C21_30  and  O8_31 
REMARK   13  A    between atoms: C22_33  and  O9_34 
REMARK   14  A    between atoms: C23_36  and  O10_37 
REMARK   15  A    between atoms: C24_39  and  O11_40 
REMARK   16  A    between atoms: C25_42  and  O12_43 
ROOT
HETATM    1  C6  UNL     1      -4.700  -0.781   8.361  1.00  0.00     0.170 C 
HETATM    2  C7  UNL     1      -3.583  -0.810   7.374  1.00  0.00     0.041 C 
HETATM    3  C11 UNL     1      -3.846  -0.073   6.087  1.00  0.00     0.033 C 
HETATM    4  C12 UNL     1      -5.109  -0.633   5.436  1.00  0.00     0.125 C 
HETATM    5  C13 UNL     1      -5.225   0.041   4.151  1.00  0.00     0.066 C 
HETATM    6  N1  UNL     1      -5.297   0.577   3.108  1.00  0.00    -0.197 NA
HETATM    7  C14 UNL     1      -6.221  -0.290   6.370  1.00  0.00     0.173 C 
HETATM    8  C25 UNL     1      -6.049  -0.907   7.729  1.00  0.00     0.178 C 
ENDROOT
BRANCH   7   9
HETATM    9  O4  UNL     1      -7.468  -0.658   5.912  1.00  0.00    -0.349 OA
BRANCH   9  10
HETATM   10  C15 UNL     1      -8.325   0.409   5.941  1.00  0.00     0.292 C 
HETATM   11  O5  UNL     1      -9.517   0.124   6.606  1.00  0.00    -0.351 OA
HETATM   12  C16 UNL     1     -10.541   0.181   5.676  1.00  0.00     0.152 C 
HETATM   13  C17 UNL     1     -11.872   0.549   6.246  1.00  0.00     0.042 C 
HETATM   14  C18 UNL     1     -10.106   1.268   4.680  1.00  0.00     0.187 C 
HETATM   15  C24 UNL     1      -8.639   0.932   4.579  1.00  0.00     0.204 C 
BRANCH  14  16
HETATM   16  O6  UNL     1     -10.697   1.084   3.466  1.00  0.00    -0.348 OA
BRANCH  16  17
HETATM   17  C19 UNL     1     -10.979   2.206   2.741  1.00  0.00     0.291 C 
HETATM   18  O7  UNL     1     -11.999   2.878   3.393  1.00  0.00    -0.356 OA
HETATM   19  C20 UNL     1     -13.153   2.093   3.301  1.00  0.00     0.205 C 
HETATM   20  C21 UNL     1     -13.690   2.268   1.889  1.00  0.00     0.173 C 
HETATM   21  C22 UNL     1     -12.578   2.757   0.975  1.00  0.00     0.182 C 
HETATM   22  C23 UNL     1     -11.267   2.055   1.316  1.00  0.00     0.204 C 
BRANCH  20  23
HETATM   23  O8  UNL     1     -14.656   3.264   1.941  1.00  0.00    -0.391 OA
ATOM     24  H8  UNL     1     -15.377   2.980   1.391  1.00  0.00     0.210 HD
ENDBRANCH  20  23
BRANCH  21  25
HETATM   25  O9  UNL     1     -12.459   4.140   0.999  1.00  0.00    -0.390 OA
ATOM     26  H9  UNL     1     -11.551   4.417   1.032  1.00  0.00     0.210 HD
ENDBRANCH  21  25
BRANCH  22  27
HETATM   27  O10 UNL     1     -11.481   0.710   0.926  1.00  0.00    -0.388 OA
ATOM     28  H10 UNL     1     -10.996   0.084   1.451  1.00  0.00     0.210 HD
ENDBRANCH  22  27
ENDBRANCH  16  17
ENDBRANCH  14  16
BRANCH  15  29
HETATM   29  O11 UNL     1      -8.518  -0.071   3.600  1.00  0.00    -0.388 OA
ATOM     30  H11 UNL     1      -9.094   0.090   2.862  1.00  0.00     0.210 HD
ENDBRANCH  15  29
ENDBRANCH   9  10
ENDBRANCH   7   9
BRANCH   2  31
HETATM   31  C8  UNL     1      -3.083  -2.146   7.000  1.00  0.00    -0.022 C 
HETATM   32  C9  UNL     1      -3.770  -3.166   6.572  1.00  0.00    -0.015 C 
BRANCH  32  33
HETATM   33  C10 UNL     1      -3.054  -4.450   6.243  1.00  0.00     0.141 C 
HETATM   34 CL1  UNL     1      -4.028  -5.858   6.727  1.00  0.00    -0.126 Cl
ENDBRANCH  32  33
ENDBRANCH   2  31
BRANCH   8  35
HETATM   35  O12 UNL     1      -6.998  -0.397   8.642  1.00  0.00    -0.390 OA
ATOM     36  H12 UNL     1      -7.719  -0.039   8.137  1.00  0.00     0.210 HD
ENDBRANCH   8  35
BRANCH   1  37
HETATM   37  O3  UNL     1      -4.760   0.402   9.115  1.00  0.00    -0.311 OA
BRANCH  37  38
HETATM   38  C5  UNL     1      -4.132   0.545  10.341  1.00  0.00     0.283 C 
HETATM   39  O2  UNL     1      -3.058   1.186  10.283  1.00  0.00    -0.263 OA
BRANCH  38  40
HETATM   40  C4  UNL     1      -4.718  -0.025  11.583  1.00  0.00     0.279 C 
BRANCH  40  41
HETATM   41  O1  UNL     1      -5.999  -0.467  11.446  1.00  0.00    -0.377 OA
BRANCH  41  42
HETATM   42  C2  UNL     1      -6.886  -0.142  12.432  1.00  0.00     0.114 C 
HETATM   43  C1  UNL     1      -8.218  -0.777  12.159  1.00  0.00     0.039 C 
HETATM   44  C3  UNL     1      -6.365  -0.710  13.774  1.00  0.00     0.039 C 
ENDBRANCH  41  42
ENDBRANCH  40  41
ENDBRANCH  38  40
ENDBRANCH  37  38
ENDBRANCH   1  37
TORSDOF 16
ENDMDL
MODEL 4
REMARK VINA RESULT: -7.102044796      3.101      4.592
REMARK  16 active torsions:
REMARK  status: ('A' for Active; 'I' for Inactive)
REMARK    1  A    between atoms: C2_2  and  O1_4 
REMARK    2  A    between atoms: O1_4  and  C4_5 
REMARK    3  A    between atoms: C4_5  and  C5_6 
REMARK    4  A    between atoms: C5_6  and  O3_8 
REMARK    5  A    between atoms: O3_8  and  C6_9 
REMARK    6  A    between atoms: C7_10  and  C8_11 
REMARK    7  A    between atoms: C9_12  and  C10_13 
REMARK    8  A    between atoms: C14_19  and  O4_20 
REMARK    9  A    between atoms: O4_20  and  C15_21 
REMARK   10  A    between atoms: C18_25  and  O6_26 
REMARK   11  A    between atoms: O6_26  and  C19_27 
REMARK   12  A    between atoms: C21_30  and  O8_31 
REMARK   13  A    between atoms: C22_33  and  O9_34 
REMARK   14  A    between atoms: C23_36  and  O10_37 
REMARK   15  A    between atoms: C24_39  and  O11_40 
REMARK   16  A    between atoms: C25_42  and  O12_43 
ROOT
HETATM    1  C6  UNL     1      -4.029  -0.697   9.066  1.00  0.00     0.170 C 
HETATM    2  C7  UNL     1      -2.825  -1.182   8.333  1.00  0.00     0.041 C 
HETATM    3  C11 UNL     1      -2.301  -0.249   7.274  1.00  0.00     0.033 C 
HETATM    4  C12 UNL     1      -3.413   0.051   6.272  1.00  0.00     0.125 C 
HETATM    5  C13 UNL     1      -2.799   0.854   5.225  1.00  0.00     0.066 C 
HETATM    6  N1  UNL     1      -2.287   1.484   4.376  1.00  0.00    -0.197 NA
HETATM    7  C14 UNL     1      -4.447   0.803   7.044  1.00  0.00     0.173 C 
HETATM    8  C25 UNL     1      -5.011   0.008   8.187  1.00  0.00     0.178 C 
ENDROOT
BRANCH   7   9
HETATM    9  O4  UNL     1      -5.513   1.228   6.279  1.00  0.00    -0.349 OA
BRANCH   9  10
HETATM   10  C15 UNL     1      -6.492   0.271   6.246  1.00  0.00     0.292 C 
HETATM   11  O5  UNL     1      -6.579  -0.366   5.008  1.00  0.00    -0.351 OA
HETATM   12  C16 UNL     1      -7.805  -0.044   4.454  1.00  0.00     0.152 C 
HETATM   13  C17 UNL     1      -8.350  -1.075   3.520  1.00  0.00     0.042 C 
HETATM   14  C18 UNL     1      -8.755   0.092   5.656  1.00  0.00     0.187 C 
HETATM   15  C24 UNL     1      -7.834   0.809   6.612  1.00  0.00     0.204 C 
BRANCH  14  16
HETATM   16  O6  UNL     1      -9.812   0.897   5.356  1.00  0.00    -0.348 OA
BRANCH  16  17
HETATM   17  C19 UNL     1     -10.865   0.316   4.710  1.00  0.00     0.291 C 
HETATM   18  O7  UNL     1     -11.019   0.967   3.497  1.00  0.00    -0.356 OA
HETATM   19  C20 UNL     1     -11.441   2.273   3.766  1.00  0.00     0.205 C 
HETATM   20  C21 UNL     1     -12.917   2.193   4.122  1.00  0.00     0.173 C 
HETATM   21  C22 UNL     1     -13.261   0.781   4.564  1.00  0.00     0.182 C 
HETATM   22  C23 UNL     1     -12.138   0.206   5.420  1.00  0.00     0.204 C 
BRANCH  20  23
HETATM   23  O8  UNL     1     -13.631   2.453   2.960  1.00  0.00    -0.391 OA
ATOM     24  H8  UNL     1     -13.959   1.620   2.643  1.00  0.00     0.210 HD
ENDBRANCH  20  23
BRANCH  21  25
HETATM   25  O9  UNL     1     -13.574  -0.037   3.485  1.00  0.00    -0.390 OA
ATOM     26  H9  UNL     1     -12.914  -0.704   3.343  1.00  0.00     0.210 HD
ENDBRANCH  21  25
BRANCH  22  27
HETATM   27  O10 UNL     1     -12.184   0.971   6.613  1.00  0.00    -0.388 OA
ATOM     28  H10 UNL     1     -12.996   1.450   6.721  1.00  0.00     0.210 HD
ENDBRANCH  22  27
ENDBRANCH  16  17
ENDBRANCH  14  16
BRANCH  15  29
HETATM   29  O11 UNL     1      -7.937   2.182   6.324  1.00  0.00    -0.388 OA
ATOM     30  H11 UNL     1      -8.681   2.366   5.761  1.00  0.00     0.210 HD
ENDBRANCH  15  29
ENDBRANCH   9  10
ENDBRANCH   7   9
BRANCH   2  31
HETATM   31  C8  UNL     1      -2.940  -2.511   7.704  1.00  0.00    -0.022 C 
HETATM   32  C9  UNL     1      -3.707  -3.501   8.061  1.00  0.00    -0.015 C 
BRANCH  32  33
HETATM   33  C10 UNL     1      -3.669  -4.783   7.272  1.00  0.00     0.141 C 
HETATM   34 CL1  UNL     1      -4.197  -6.156   8.273  1.00  0.00    -0.126 Cl
ENDBRANCH  32  33
ENDBRANCH   2  31
BRANCH   8  35
HETATM   35  O12 UNL     1      -5.823   0.815   9.013  1.00  0.00    -0.390 OA
ATOM     36  H12 UNL     1      -6.551   1.125   8.488  1.00  0.00     0.210 HD
ENDBRANCH   8  35
BRANCH   1  37
HETATM   37  O3  UNL     1      -3.739   0.216  10.093  1.00  0.00    -0.311 OA
BRANCH  37  38
HETATM   38  C5  UNL     1      -3.599  -0.162  11.418  1.00  0.00     0.283 C 
HETATM   39  O2  UNL     1      -2.407  -0.233  11.797  1.00  0.00    -0.263 OA
BRANCH  38  40
HETATM   40  C4  UNL     1      -4.783  -0.443  12.272  1.00  0.00     0.279 C 
BRANCH  40  41
HETATM   41  O1  UNL     1      -5.976  -0.364  11.621  1.00  0.00    -0.377 OA
BRANCH  41  42
HETATM   42  C2  UNL     1      -7.091  -0.135  12.373  1.00  0.00     0.114 C 
HETATM   43  C1  UNL     1      -8.267  -0.863  11.791  1.00  0.00     0.039 C 
HETATM   44  C3  UNL     1      -6.853  -0.698  13.796  1.00  0.00     0.039 C 
ENDBRANCH  41  42
ENDBRANCH  40  41
ENDBRANCH  38  40
ENDBRANCH  37  38
ENDBRANCH   1  37
TORSDOF 16
ENDMDL
MODEL 5
REMARK VINA RESULT: -7.079103040      3.406      9.965
REMARK  16 active torsions:
REMARK  status: ('A' for Active; 'I' for Inactive)
REMARK    1  A    between atoms: C2_2  and  O1_4 
REMARK    2  A    between atoms: O1_4  and  C4_5 
REMARK    3  A    between atoms: C4_5  and  C5_6 
REMARK    4  A    between atoms: C5_6  and  O3_8 
REMARK    5  A    between atoms: O3_8  and  C6_9 
REMARK    6  A    between atoms: C7_10  and  C8_11 
REMARK    7  A    between atoms: C9_12  and  C10_13 
REMARK    8  A    between atoms: C14_19  and  O4_20 
REMARK    9  A    between atoms: O4_20  and  C15_21 
REMARK   10  A    between atoms: C18_25  and  O6_26 
REMARK   11  A    between atoms: O6_26  and  C19_27 
REMARK   12  A    between atoms: C21_30  and  O8_31 
REMARK   13  A    between atoms: C22_33  and  O9_34 
REMARK   14  A    between atoms: C23_36  and  O10_37 
REMARK   15  A    between atoms: C24_39  and  O11_40 
REMARK   16  A    between atoms: C25_42  and  O12_43 
ROOT
HETATM    1  C6  UNL     1      -8.437   0.368   2.645  1.00  0.00     0.170 C 
HETATM    2  C7  UNL     1      -7.978  -0.330   1.411  1.00  0.00     0.041 C 
HETATM    3  C11 UNL     1      -8.008  -1.834   1.477  1.00  0.00     0.033 C 
HETATM    4  C12 UNL     1      -7.168  -2.303   2.663  1.00  0.00     0.125 C 
HETATM    5  C13 UNL     1      -7.148  -3.756   2.586  1.00  0.00     0.066 C 
HETATM    6  N1  UNL     1      -7.123  -4.927   2.501  1.00  0.00    -0.197 NA
HETATM    7  C14 UNL     1      -7.879  -1.799   3.874  1.00  0.00     0.173 C 
HETATM    8  C25 UNL     1      -7.985  -0.300   3.904  1.00  0.00     0.178 C 
ENDROOT
BRANCH   7   9
HETATM    9  O4  UNL     1      -7.300  -2.188   5.064  1.00  0.00    -0.349 OA
BRANCH   9  10
HETATM   10  C15 UNL     1      -6.009  -1.739   5.139  1.00  0.00     0.292 C 
HETATM   11  O5  UNL     1      -5.092  -2.769   5.347  1.00  0.00    -0.351 OA
HETATM   12  C16 UNL     1      -4.524  -2.582   6.595  1.00  0.00     0.152 C 
HETATM   13  C17 UNL     1      -3.141  -3.129   6.732  1.00  0.00     0.042 C 
HETATM   14  C18 UNL     1      -4.479  -1.056   6.780  1.00  0.00     0.187 C 
HETATM   15  C24 UNL     1      -5.822  -0.701   6.194  1.00  0.00     0.204 C 
BRANCH  14  16
HETATM   16  O6  UNL     1      -4.459  -0.723   8.101  1.00  0.00    -0.348 OA
BRANCH  16  17
HETATM   17  C19 UNL     1      -3.232  -0.597   8.686  1.00  0.00     0.291 C 
HETATM   18  O7  UNL     1      -3.352  -1.015  10.001  1.00  0.00    -0.356 OA
HETATM   19  C20 UNL     1      -4.164  -0.093  10.668  1.00  0.00     0.205 C 
HETATM   20  C21 UNL     1      -3.304   1.132  10.942  1.00  0.00     0.173 C 
HETATM   21  C22 UNL     1      -2.120   1.148   9.989  1.00  0.00     0.182 C 
HETATM   22  C23 UNL     1      -2.554   0.696   8.599  1.00  0.00     0.204 C 
BRANCH  20  23
HETATM   23  O8  UNL     1      -2.803   0.997  12.230  1.00  0.00    -0.391 OA
ATOM     24  H8  UNL     1      -3.532   1.120  12.826  1.00  0.00     0.210 HD
ENDBRANCH  20  23
BRANCH  21  25
HETATM   25  O9  UNL     1      -1.053   0.407  10.478  1.00  0.00    -0.390 OA
ATOM     26  H9  UNL     1      -0.367   0.302   9.828  1.00  0.00     0.210 HD
ENDBRANCH  21  25
BRANCH  22  27
HETATM   27  O10 UNL     1      -3.394   1.741   8.139  1.00  0.00    -0.388 OA
ATOM     28  H10 UNL     1      -3.676   1.628   7.239  1.00  0.00     0.210 HD
ENDBRANCH  22  27
ENDBRANCH  16  17
ENDBRANCH  14  16
BRANCH  15  29
HETATM   29  O11 UNL     1      -6.767  -0.838   7.227  1.00  0.00    -0.388 OA
ATOM     30  H11 UNL     1      -6.526  -1.532   7.830  1.00  0.00     0.210 HD
ENDBRANCH  15  29
ENDBRANCH   9  10
ENDBRANCH   7   9
BRANCH   2  31
HETATM   31  C8  UNL     1      -6.641   0.043   0.915  1.00  0.00    -0.022 C 
HETATM   32  C9  UNL     1      -6.008   1.168   1.089  1.00  0.00    -0.015 C 
BRANCH  32  33
HETATM   33  C10 UNL     1      -4.637   1.342   0.490  1.00  0.00     0.141 C 
HETATM   34 CL1  UNL     1      -4.318   3.055   0.130  1.00  0.00    -0.126 Cl
ENDBRANCH  32  33
ENDBRANCH   2  31
BRANCH   8  35
HETATM   35  O12 UNL     1      -8.838   0.127   4.945  1.00  0.00    -0.390 OA
ATOM     36  H12 UNL     1      -9.405  -0.601   5.170  1.00  0.00     0.210 HD
ENDBRANCH   8  35
BRANCH   1  37
HETATM   37  O3  UNL     1      -9.834   0.457   2.761  1.00  0.00    -0.311 OA
BRANCH  37  38
HETATM   38  C5  UNL     1     -10.536   1.625   2.521  1.00  0.00     0.283 C 
HETATM   39  O2  UNL     1     -10.495   2.440   3.472  1.00  0.00    -0.263 OA
BRANCH  38  40
HETATM   40  C4  UNL     1     -11.256   1.848   1.239  1.00  0.00     0.279 C 
BRANCH  40  41
HETATM   41  O1  UNL     1     -12.307   1.007   1.033  1.00  0.00    -0.377 OA
BRANCH  41  42
HETATM   42  C2  UNL     1     -13.524   1.390   1.519  1.00  0.00     0.114 C 
HETATM   43  C1  UNL     1     -14.130   2.437   0.631  1.00  0.00     0.039 C 
HETATM   44  C3  UNL     1     -14.469   0.164   1.506  1.00  0.00     0.039 C 
ENDBRANCH  41  42
ENDBRANCH  40  41
ENDBRANCH  38  40
ENDBRANCH  37  38
ENDBRANCH   1  37
TORSDOF 16
ENDMDL
