MODEL 1
REMARK VINA RESULT: -7.653023322      0.000      0.000
REMARK  16 active torsions:
REMARK  status: ('A' for Active; 'I' for Inactive)
REMARK    1  A    between atoms: O1_2  and  C2_3 
REMARK       I    between atoms: C2_3  and  N1_5 
REMARK    2  A    between atoms: N1_5  and  C4_7 
REMARK    3  A    between atoms: C4_7  and  C5_8 
REMARK    4  A    between atoms: C4_7  and  C6_11 
REMARK    5  A    between atoms: C7_12  and  O5_13 
REMARK    6  A    between atoms: C8_15  and  O6_16 
REMARK    7  A    between atoms: C10_18  and  O7_19 
REMARK    8  A    between atoms: C13_23  and  O8_24 
REMARK    9  A    between atoms: O8_24  and  C14_25 
REMARK   10  A    between atoms: C14_25  and  C15_27 
REMARK   11  A    between atoms: C16_28  and  C17_29 
REMARK   12  A    between atoms: C20_32  and  O10_33 
REMARK   13  A    between atoms: C24_37  and  O11_38 
REMARK   14  A    between atoms: C24_37  and  C25_40 
REMARK   15  A    between atoms: C25_40  and  O12_41 
REMARK   16  A    between atoms: C26_43  and  N2_44 
ROOT
HETATM    1  C6  UNL     1      -8.457  -0.823   3.538  1.00  0.00     0.093 C 
HETATM    2  C7  UNL     1      -7.768  -1.354   2.299  1.00  0.00     0.159 C 
HETATM    3  C8  UNL     1      -7.926  -2.903   2.556  1.00  0.00     0.191 C 
HETATM    4  C10 UNL     1      -7.308  -2.908   3.923  1.00  0.00     0.140 C 
HETATM    5  C11 UNL     1      -5.861  -2.614   3.748  1.00  0.00     0.015 C 
HETATM    6  C12 UNL     1      -5.208  -1.717   4.459  1.00  0.00     0.007 C 
HETATM    7  C13 UNL     1      -5.844  -0.889   5.526  1.00  0.00     0.194 C 
HETATM    8  C24 UNL     1      -7.225  -1.374   5.768  1.00  0.00     0.145 C 
HETATM    9  C26 UNL     1      -8.041  -1.718   4.591  1.00  0.00     0.204 C 
ENDROOT
BRANCH   7  10
HETATM   10  O8  UNL     1      -5.062  -1.168   6.703  1.00  0.00    -0.305 OA
BRANCH  10  11
HETATM   11  C14 UNL     1      -4.589  -0.170   7.538  1.00  0.00     0.283 C 
HETATM   12  O9  UNL     1      -3.777   0.645   7.084  1.00  0.00    -0.260 OA
BRANCH  11  13
HETATM   13  C15 UNL     1      -5.069  -0.116   8.936  1.00  0.00     0.083 C 
HETATM   14  C16 UNL     1      -5.865  -1.058   9.382  1.00  0.00     0.017 C 
BRANCH  14  15
HETATM   15  C17 UNL     1      -6.401  -1.123  10.713  1.00  0.00    -0.036 A 
HETATM   16  C18 UNL     1      -7.752  -1.218  10.917  1.00  0.00     0.014 A 
HETATM   17  C19 UNL     1      -8.252  -1.280  12.214  1.00  0.00     0.037 A 
HETATM   18  C20 UNL     1      -7.411  -1.250  13.299  1.00  0.00     0.068 A 
HETATM   19  C22 UNL     1      -6.060  -1.155  13.055  1.00  0.00     0.037 A 
HETATM   20  C23 UNL     1      -5.521  -1.091  11.806  1.00  0.00     0.014 A 
BRANCH  18  21
HETATM   21  O10 UNL     1      -7.944  -1.314  14.577  1.00  0.00    -0.356 OA
HETATM   22  C21 UNL     1      -7.177  -1.932  15.587  1.00  0.00     0.210 C 
ENDBRANCH  18  21
ENDBRANCH  14  15
ENDBRANCH  11  13
ENDBRANCH  10  11
ENDBRANCH   7  10
BRANCH   8  23
HETATM   23  O11 UNL     1      -6.925  -2.697   6.302  1.00  0.00    -0.382 OA
ATOM     24  H11 UNL     1      -7.662  -2.799   6.893  1.00  0.00     0.210 HD
ENDBRANCH   8  23
BRANCH   8  25
HETATM   25  C25 UNL     1      -7.962  -0.743   6.905  1.00  0.00     0.207 C 
BRANCH  25  26
HETATM   26  O12 UNL     1      -7.774   0.647   6.972  1.00  0.00    -0.398 OA
ATOM     27  H12 UNL     1      -8.349   1.067   7.601  1.00  0.00     0.209 HD
ENDBRANCH  25  26
ENDBRANCH   8  25
BRANCH   9  28
HETATM   28  N2  UNL     1      -9.208  -2.417   5.209  1.00  0.00    -0.063 N 
ATOM     29  H23 UNL     1     -10.080  -1.919   5.028  1.00  0.00     0.275 HD
ATOM     30  H22 UNL     1      -9.420  -3.288   4.724  1.00  0.00     0.275 HD
ATOM     31  H21 UNL     1      -9.066  -2.570   6.207  1.00  0.00     0.275 HD
ENDBRANCH   9  28
BRANCH   4  32
HETATM   32  O7  UNL     1      -7.581  -4.105   4.527  1.00  0.00    -0.380 OA
ATOM     33  H7  UNL     1      -7.218  -4.805   3.997  1.00  0.00     0.211 HD
ENDBRANCH   4  32
BRANCH   1  34
HETATM   34  C4  UNL     1      -8.715   0.602   3.655  1.00  0.00     0.199 C 
BRANCH  34  35
HETATM   35  N1  UNL     1      -7.851   1.624   3.191  1.00  0.00    -0.317 N 
HETATM   36  C2  UNL     1      -7.522   2.062   1.902  1.00  0.00     0.362 C 
HETATM   37  O2  UNL     1      -6.628   3.000   1.817  1.00  0.00    -0.238 OA
HETATM   38  C3  UNL     1      -7.116   2.410   4.234  1.00  0.00     0.156 C 
BRANCH  36  39
HETATM   39  O1  UNL     1      -8.011   1.647   0.699  1.00  0.00    -0.309 OA
HETATM   40  C1  UNL     1      -7.258   1.812  -0.483  1.00  0.00     0.215 C 
ENDBRANCH  36  39
ENDBRANCH  34  35
BRANCH  34  41
HETATM   41  C5  UNL     1     -10.066   0.958   3.048  1.00  0.00     0.197 C 
HETATM   42  O3  UNL     1     -10.650   2.041   3.282  1.00  0.00    -0.646 OA
HETATM   43  O4  UNL     1     -10.688   0.057   2.200  1.00  0.00    -0.646 OA
ENDBRANCH  34  41
ENDBRANCH   1  34
BRANCH   3  44
HETATM   44  O6  UNL     1      -9.281  -3.118   2.607  1.00  0.00    -0.385 OA
HETATM   45  C9  UNL     1      -9.639  -4.400   2.173  1.00  0.00     0.202 C 
ENDBRANCH   3  44
BRANCH   2  46
HETATM   46  O5  UNL     1      -8.487  -1.193   1.134  1.00  0.00    -0.392 OA
ATOM     47  H5  UNL     1      -8.000  -1.385   0.342  1.00  0.00     0.210 HD
ENDBRANCH   2  46
TORSDOF 16
ENDMDL
MODEL 2
REMARK VINA RESULT: -7.372038377      4.860      6.521
REMARK  16 active torsions:
REMARK  status: ('A' for Active; 'I' for Inactive)
REMARK    1  A    between atoms: O1_2  and  C2_3 
REMARK       I    between atoms: C2_3  and  N1_5 
REMARK    2  A    between atoms: N1_5  and  C4_7 
REMARK    3  A    between atoms: C4_7  and  C5_8 
REMARK    4  A    between atoms: C4_7  and  C6_11 
REMARK    5  A    between atoms: C7_12  and  O5_13 
REMARK    6  A    between atoms: C8_15  and  O6_16 
REMARK    7  A    between atoms: C10_18  and  O7_19 
REMARK    8  A    between atoms: C13_23  and  O8_24 
REMARK    9  A    between atoms: O8_24  and  C14_25 
REMARK   10  A    between atoms: C14_25  and  C15_27 
REMARK   11  A    between atoms: C16_28  and  C17_29 
REMARK   12  A    between atoms: C20_32  and  O10_33 
REMARK   13  A    between atoms: C24_37  and  O11_38 
REMARK   14  A    between atoms: C24_37  and  C25_40 
REMARK   15  A    between atoms: C25_40  and  O12_41 
REMARK   16  A    between atoms: C26_43  and  N2_44 
ROOT
HETATM    1  C6  UNL     1      -6.113  -1.330   6.410  1.00  0.00     0.093 C 
HETATM    2  C7  UNL     1      -6.171  -0.417   7.616  1.00  0.00     0.159 C 
HETATM    3  C8  UNL     1      -4.665   0.050   7.663  1.00  0.00     0.191 C 
HETATM    4  C10 UNL     1      -4.066  -1.325   7.683  1.00  0.00     0.140 C 
HETATM    5  C11 UNL     1      -4.403  -1.928   9.000  1.00  0.00     0.015 C 
HETATM    6  C12 UNL     1      -4.901  -3.140   9.141  1.00  0.00     0.007 C 
HETATM    7  C13 UNL     1      -5.185  -4.053   7.994  1.00  0.00     0.194 C 
HETATM    8  C24 UNL     1      -4.646  -3.458   6.747  1.00  0.00     0.145 C 
HETATM    9  C26 UNL     1      -4.850  -2.014   6.539  1.00  0.00     0.204 C 
ENDROOT
BRANCH   7  10
HETATM   10  O8  UNL     1      -4.421  -5.238   8.289  1.00  0.00    -0.305 OA
BRANCH  10  11
HETATM   11  C14 UNL     1      -5.006  -6.409   8.739  1.00  0.00     0.283 C 
HETATM   12  O9  UNL     1      -6.057  -6.788   8.206  1.00  0.00    -0.260 OA
BRANCH  11  13
HETATM   13  C15 UNL     1      -4.357  -7.160   9.836  1.00  0.00     0.083 C 
HETATM   14  C16 UNL     1      -5.091  -7.893  10.637  1.00  0.00     0.017 C 
BRANCH  14  15
HETATM   15  C17 UNL     1      -4.589  -8.670  11.737  1.00  0.00    -0.036 A 
HETATM   16  C18 UNL     1      -3.786  -9.757  11.513  1.00  0.00     0.014 A 
HETATM   17  C19 UNL     1      -3.310 -10.496  12.592  1.00  0.00     0.037 A 
HETATM   18  C20 UNL     1      -3.630 -10.154  13.882  1.00  0.00     0.068 A 
HETATM   19  C22 UNL     1      -4.439  -9.056  14.067  1.00  0.00     0.037 A 
HETATM   20  C23 UNL     1      -4.931  -8.299  13.047  1.00  0.00     0.014 A 
BRANCH  18  21
HETATM   21  O10 UNL     1      -3.138 -10.913  14.932  1.00  0.00    -0.356 OA
HETATM   22  C21 UNL     1      -1.766 -11.240  14.930  1.00  0.00     0.210 C 
ENDBRANCH  18  21
ENDBRANCH  14  15
ENDBRANCH  11  13
ENDBRANCH  10  11
ENDBRANCH   7  10
BRANCH   8  23
HETATM   23  O11 UNL     1      -3.222  -3.503   7.054  1.00  0.00    -0.382 OA
ATOM     24  H11 UNL     1      -3.059  -4.427   6.907  1.00  0.00     0.210 HD
ENDBRANCH   8  23
BRANCH   8  25
HETATM   25  C25 UNL     1      -4.723  -4.306   5.519  1.00  0.00     0.207 C 
BRANCH  25  26
HETATM   26  O12 UNL     1      -5.752  -5.260   5.577  1.00  0.00    -0.398 OA
ATOM     27  H12 UNL     1      -5.976  -5.614   4.725  1.00  0.00     0.209 HD
ENDBRANCH  25  26
ENDBRANCH   8  25
BRANCH   9  28
HETATM   28  N2  UNL     1      -3.954  -1.733   5.376  1.00  0.00    -0.063 N 
ATOM     29  H23 UNL     1      -4.465  -1.297   4.608  1.00  0.00     0.275 HD
ATOM     30  H22 UNL     1      -3.302  -0.977   5.581  1.00  0.00     0.275 HD
ATOM     31  H21 UNL     1      -3.466  -2.574   5.069  1.00  0.00     0.275 HD
ENDBRANCH   9  28
BRANCH   4  32
HETATM   32  O7  UNL     1      -2.726  -1.227   7.425  1.00  0.00    -0.380 OA
ATOM     33  H7  UNL     1      -2.531  -1.705   6.627  1.00  0.00     0.211 HD
ENDBRANCH   4  32
BRANCH   1  34
HETATM   34  C4  UNL     1      -7.347  -1.870   5.865  1.00  0.00     0.199 C 
BRANCH  34  35
HETATM   35  N1  UNL     1      -8.571  -1.163   5.771  1.00  0.00    -0.317 N 
HETATM   36  C2  UNL     1      -8.887   0.102   5.258  1.00  0.00     0.362 C 
HETATM   37  O2  UNL     1     -10.120   0.489   5.384  1.00  0.00    -0.238 OA
HETATM   38  C3  UNL     1      -9.788  -1.845   6.316  1.00  0.00     0.156 C 
BRANCH  36  39
HETATM   39  O1  UNL     1      -8.080   1.005   4.632  1.00  0.00    -0.309 OA
HETATM   40  C1  UNL     1      -8.192   1.232   3.243  1.00  0.00     0.215 C 
ENDBRANCH  36  39
ENDBRANCH  34  35
BRANCH  34  41
HETATM   41  C5  UNL     1      -7.125  -2.413   4.459  1.00  0.00     0.197 C 
HETATM   42  O3  UNL     1      -6.421  -1.824   3.608  1.00  0.00    -0.646 OA
HETATM   43  O4  UNL     1      -7.720  -3.609   4.093  1.00  0.00    -0.646 OA
ENDBRANCH  34  41
ENDBRANCH   1  34
BRANCH   3  44
HETATM   44  O6  UNL     1      -4.452   0.683   6.463  1.00  0.00    -0.385 OA
HETATM   45  C9  UNL     1      -3.735   1.877   6.605  1.00  0.00     0.202 C 
ENDBRANCH   3  44
BRANCH   2  46
HETATM   46  O5  UNL     1      -6.824   0.777   7.396  1.00  0.00    -0.392 OA
ATOM     47  H5  UNL     1      -6.902   1.330   8.165  1.00  0.00     0.210 HD
ENDBRANCH   2  46
TORSDOF 16
ENDMDL
MODEL 3
REMARK VINA RESULT: -7.340386960      3.068      5.170
REMARK  16 active torsions:
REMARK  status: ('A' for Active; 'I' for Inactive)
REMARK    1  A    between atoms: O1_2  and  C2_3 
REMARK       I    between atoms: C2_3  and  N1_5 
REMARK    2  A    between atoms: N1_5  and  C4_7 
REMARK    3  A    between atoms: C4_7  and  C5_8 
REMARK    4  A    between atoms: C4_7  and  C6_11 
REMARK    5  A    between atoms: C7_12  and  O5_13 
REMARK    6  A    between atoms: C8_15  and  O6_16 
REMARK    7  A    between atoms: C10_18  and  O7_19 
REMARK    8  A    between atoms: C13_23  and  O8_24 
REMARK    9  A    between atoms: O8_24  and  C14_25 
REMARK   10  A    between atoms: C14_25  and  C15_27 
REMARK   11  A    between atoms: C16_28  and  C17_29 
REMARK   12  A    between atoms: C20_32  and  O10_33 
REMARK   13  A    between atoms: C24_37  and  O11_38 
REMARK   14  A    between atoms: C24_37  and  C25_40 
REMARK   15  A    between atoms: C25_40  and  O12_41 
REMARK   16  A    between atoms: C26_43  and  N2_44 
ROOT
HETATM    1  C6  UNL     1      -8.514  -0.578   4.484  1.00  0.00     0.093 C 
HETATM    2  C7  UNL     1      -9.306  -1.466   5.419  1.00  0.00     0.159 C 
HETATM    3  C8  UNL     1     -10.000  -0.359   6.305  1.00  0.00     0.191 C 
HETATM    4  C10 UNL     1      -8.739   0.353   6.697  1.00  0.00     0.140 C 
HETATM    5  C11 UNL     1      -7.988  -0.556   7.601  1.00  0.00     0.015 C 
HETATM    6  C12 UNL     1      -6.705  -0.825   7.462  1.00  0.00     0.007 C 
HETATM    7  C13 UNL     1      -5.853  -0.247   6.381  1.00  0.00     0.194 C 
HETATM    8  C24 UNL     1      -6.623   0.788   5.649  1.00  0.00     0.145 C 
HETATM    9  C26 UNL     1      -8.029   0.488   5.327  1.00  0.00     0.204 C 
ENDROOT
BRANCH   7  10
HETATM   10  O8  UNL     1      -4.784   0.410   7.087  1.00  0.00    -0.305 OA
BRANCH  10  11
HETATM   11  C14 UNL     1      -3.701  -0.277   7.608  1.00  0.00     0.283 C 
HETATM   12  O9  UNL     1      -2.622   0.317   7.721  1.00  0.00    -0.260 OA
BRANCH  11  13
HETATM   13  C15 UNL     1      -3.873  -1.692   8.007  1.00  0.00     0.083 C 
HETATM   14  C16 UNL     1      -4.059  -2.604   7.084  1.00  0.00     0.017 C 
BRANCH  14  15
HETATM   15  C17 UNL     1      -4.239  -4.007   7.336  1.00  0.00    -0.036 A 
HETATM   16  C18 UNL     1      -4.277  -4.486   8.618  1.00  0.00     0.014 A 
HETATM   17  C19 UNL     1      -4.451  -5.849   8.841  1.00  0.00     0.037 A 
HETATM   18  C20 UNL     1      -4.588  -6.726   7.794  1.00  0.00     0.068 A 
HETATM   19  C22 UNL     1      -4.544  -6.208   6.520  1.00  0.00     0.037 A 
HETATM   20  C23 UNL     1      -4.376  -4.884   6.248  1.00  0.00     0.014 A 
BRANCH  18  21
HETATM   21  O10 UNL     1      -4.760  -8.077   8.053  1.00  0.00    -0.356 OA
HETATM   22  C21 UNL     1      -4.464  -8.549   9.348  1.00  0.00     0.210 C 
ENDBRANCH  18  21
ENDBRANCH  14  15
ENDBRANCH  11  13
ENDBRANCH  10  11
ENDBRANCH   7  10
BRANCH   8  23
HETATM   23  O11 UNL     1      -6.779   1.771   6.714  1.00  0.00    -0.382 OA
ATOM     24  H11 UNL     1      -7.215   2.461   6.228  1.00  0.00     0.210 HD
ENDBRANCH   8  23
BRANCH   8  25
HETATM   25  C25 UNL     1      -5.875   1.568   4.617  1.00  0.00     0.207 C 
BRANCH  25  26
HETATM   26  O12 UNL     1      -4.766   0.874   4.105  1.00  0.00    -0.398 OA
ATOM     27  H12 UNL     1      -4.041   1.447   3.886  1.00  0.00     0.209 HD
ENDBRANCH  25  26
ENDBRANCH   8  25
BRANCH   9  28
HETATM   28  N2  UNL     1      -8.540   1.818   4.875  1.00  0.00    -0.063 N 
ATOM     29  H23 UNL     1      -8.147   2.081   3.971  1.00  0.00     0.275 HD
ATOM     30  H22 UNL     1      -9.524   1.770   4.611  1.00  0.00     0.275 HD
ATOM     31  H21 UNL     1      -8.376   2.539   5.577  1.00  0.00     0.275 HD
ENDBRANCH   9  28
BRANCH   4  32
HETATM   32  O7  UNL     1      -9.068   1.563   7.245  1.00  0.00    -0.380 OA
ATOM     33  H7  UNL     1      -8.711   2.254   6.700  1.00  0.00     0.211 HD
ENDBRANCH   4  32
BRANCH   1  34
HETATM   34  C4  UNL     1      -7.831  -1.171   3.347  1.00  0.00     0.199 C 
BRANCH  34  35
HETATM   35  N1  UNL     1      -7.386  -2.514   3.276  1.00  0.00    -0.317 N 
HETATM   36  C2  UNL     1      -8.041  -3.702   2.927  1.00  0.00     0.362 C 
HETATM   37  O2  UNL     1      -7.351  -4.797   3.029  1.00  0.00    -0.238 OA
HETATM   38  C3  UNL     1      -5.957  -2.771   3.645  1.00  0.00     0.156 C 
BRANCH  36  39
HETATM   39  O1  UNL     1      -9.317  -3.885   2.484  1.00  0.00    -0.309 OA
HETATM   40  C1  UNL     1      -9.763  -5.160   2.074  1.00  0.00     0.215 C 
ENDBRANCH  36  39
ENDBRANCH  34  35
BRANCH  34  41
HETATM   41  C5  UNL     1      -8.642  -0.983   2.071  1.00  0.00     0.197 C 
HETATM   42  O3  UNL     1      -8.135  -1.055   0.928  1.00  0.00    -0.646 OA
HETATM   43  O4  UNL     1     -10.000  -0.724   2.163  1.00  0.00    -0.646 OA
ENDBRANCH  34  41
ENDBRANCH   1  34
BRANCH   3  44
HETATM   44  O6  UNL     1     -10.752   0.379   5.425  1.00  0.00    -0.385 OA
HETATM   45  C9  UNL     1     -12.095   0.471   5.811  1.00  0.00     0.202 C 
ENDBRANCH   3  44
BRANCH   2  46
HETATM   46  O5  UNL     1     -10.397  -2.077   4.838  1.00  0.00    -0.392 OA
ATOM     47  H5  UNL     1     -10.932  -2.580   5.439  1.00  0.00     0.210 HD
ENDBRANCH   2  46
TORSDOF 16
ENDMDL
MODEL 4
REMARK VINA RESULT: -7.219554024      1.662      4.190
REMARK  16 active torsions:
REMARK  status: ('A' for Active; 'I' for Inactive)
REMARK    1  A    between atoms: O1_2  and  C2_3 
REMARK       I    between atoms: C2_3  and  N1_5 
REMARK    2  A    between atoms: N1_5  and  C4_7 
REMARK    3  A    between atoms: C4_7  and  C5_8 
REMARK    4  A    between atoms: C4_7  and  C6_11 
REMARK    5  A    between atoms: C7_12  and  O5_13 
REMARK    6  A    between atoms: C8_15  and  O6_16 
REMARK    7  A    between atoms: C10_18  and  O7_19 
REMARK    8  A    between atoms: C13_23  and  O8_24 
REMARK    9  A    between atoms: O8_24  and  C14_25 
REMARK   10  A    between atoms: C14_25  and  C15_27 
REMARK   11  A    between atoms: C16_28  and  C17_29 
REMARK   12  A    between atoms: C20_32  and  O10_33 
REMARK   13  A    between atoms: C24_37  and  O11_38 
REMARK   14  A    between atoms: C24_37  and  C25_40 
REMARK   15  A    between atoms: C25_40  and  O12_41 
REMARK   16  A    between atoms: C26_43  and  N2_44 
ROOT
HETATM    1  C6  UNL     1      -7.681   0.539   3.443  1.00  0.00     0.093 C 
HETATM    2  C7  UNL     1      -8.419   1.834   3.707  1.00  0.00     0.159 C 
HETATM    3  C8  UNL     1      -7.547   2.815   2.830  1.00  0.00     0.191 C 
HETATM    4  C10 UNL     1      -6.227   2.462   3.451  1.00  0.00     0.140 C 
HETATM    5  C11 UNL     1      -6.247   2.984   4.843  1.00  0.00     0.015 C 
HETATM    6  C12 UNL     1      -5.892   2.271   5.893  1.00  0.00     0.007 C 
HETATM    7  C13 UNL     1      -5.426   0.855   5.809  1.00  0.00     0.194 C 
HETATM    8  C24 UNL     1      -5.252   0.478   4.386  1.00  0.00     0.145 C 
HETATM    9  C26 UNL     1      -6.288   0.915   3.434  1.00  0.00     0.204 C 
ENDROOT
BRANCH   7  10
HETATM   10  O8  UNL     1      -4.126   0.874   6.428  1.00  0.00    -0.305 OA
BRANCH  10  11
HETATM   11  C14 UNL     1      -3.736  -0.057   7.375  1.00  0.00     0.283 C 
HETATM   12  O9  UNL     1      -2.873  -0.888   7.067  1.00  0.00    -0.260 OA
BRANCH  11  13
HETATM   13  C15 UNL     1      -4.365  -0.027   8.714  1.00  0.00     0.083 C 
HETATM   14  C16 UNL     1      -5.292  -0.903   9.011  1.00  0.00     0.017 C 
BRANCH  14  15
HETATM   15  C17 UNL     1      -5.980  -0.983  10.270  1.00  0.00    -0.036 A 
HETATM   16  C18 UNL     1      -5.285  -0.917  11.449  1.00  0.00     0.014 A 
HETATM   17  C19 UNL     1      -5.969  -0.996  12.658  1.00  0.00     0.037 A 
HETATM   18  C20 UNL     1      -7.334  -1.138  12.692  1.00  0.00     0.068 A 
HETATM   19  C22 UNL     1      -7.997  -1.201  11.488  1.00  0.00     0.037 A 
HETATM   20  C23 UNL     1      -7.376  -1.128  10.278  1.00  0.00     0.014 A 
BRANCH  18  21
HETATM   21  O10 UNL     1      -7.983  -1.214  13.915  1.00  0.00    -0.356 OA
HETATM   22  C21 UNL     1      -7.295  -1.802  14.997  1.00  0.00     0.210 C 
ENDBRANCH  18  21
ENDBRANCH  14  15
ENDBRANCH  11  13
ENDBRANCH  10  11
ENDBRANCH   7  10
BRANCH   8  23
HETATM   23  O11 UNL     1      -4.151   1.367   4.034  1.00  0.00    -0.382 OA
ATOM     24  H11 UNL     1      -4.556   2.203   4.232  1.00  0.00     0.210 HD
ENDBRANCH   8  23
BRANCH   8  25
HETATM   25  C25 UNL     1      -4.657  -0.867   4.122  1.00  0.00     0.207 C 
BRANCH  25  26
HETATM   26  O12 UNL     1      -3.263  -0.826   3.957  1.00  0.00    -0.398 OA
ATOM     27  H12 UNL     1      -2.799  -1.347   4.601  1.00  0.00     0.209 HD
ENDBRANCH  25  26
ENDBRANCH   8  25
BRANCH   9  28
HETATM   28  N2  UNL     1      -5.650   0.622   2.116  1.00  0.00    -0.063 N 
ATOM     29  H23 UNL     1      -6.345   0.547   1.373  1.00  0.00     0.275 HD
ATOM     30  H22 UNL     1      -5.130   1.426   1.765  1.00  0.00     0.275 HD
ATOM     31  H21 UNL     1      -5.063  -0.211   2.161  1.00  0.00     0.275 HD
ENDBRANCH   9  28
BRANCH   4  32
HETATM   32  O7  UNL     1      -5.223   2.962   2.666  1.00  0.00    -0.380 OA
ATOM     33  H7  UNL     1      -5.573   3.663   2.130  1.00  0.00     0.211 HD
ENDBRANCH   4  32
BRANCH   1  34
HETATM   34  C4  UNL     1      -8.245  -0.712   3.920  1.00  0.00     0.199 C 
BRANCH  34  35
HETATM   35  N1  UNL     1      -9.005  -0.860   5.107  1.00  0.00    -0.317 N 
HETATM   36  C2  UNL     1     -10.321  -0.503   5.428  1.00  0.00     0.362 C 
HETATM   37  O2  UNL     1     -10.701  -0.724   6.650  1.00  0.00    -0.238 OA
HETATM   38  C3  UNL     1      -8.318  -1.503   6.272  1.00  0.00     0.156 C 
BRANCH  36  39
HETATM   39  O1  UNL     1     -11.283   0.049   4.636  1.00  0.00    -0.309 OA
HETATM   40  C1  UNL     1     -12.321   0.825   5.195  1.00  0.00     0.215 C 
ENDBRANCH  36  39
ENDBRANCH  34  35
BRANCH  34  41
HETATM   41  C5  UNL     1      -9.108  -1.361   2.846  1.00  0.00     0.197 C 
HETATM   42  O3  UNL     1      -9.614  -0.714   1.900  1.00  0.00    -0.646 OA
HETATM   43  O4  UNL     1      -9.352  -2.723   2.903  1.00  0.00    -0.646 OA
ENDBRANCH  34  41
ENDBRANCH   1  34
BRANCH   3  44
HETATM   44  O6  UNL     1      -7.653   2.334   1.549  1.00  0.00    -0.385 OA
HETATM   45  C9  UNL     1      -7.887   3.348   0.611  1.00  0.00     0.202 C 
ENDBRANCH   3  44
BRANCH   2  46
HETATM   46  O5  UNL     1      -9.646   1.928   3.087  1.00  0.00    -0.392 OA
ATOM     47  H5  UNL     1      -9.614   1.868   2.140  1.00  0.00     0.210 HD
ENDBRANCH   2  46
TORSDOF 16
ENDMDL
MODEL 5
REMARK VINA RESULT: -7.143445244      1.689      3.887
REMARK  16 active torsions:
REMARK  status: ('A' for Active; 'I' for Inactive)
REMARK    1  A    between atoms: O1_2  and  C2_3 
REMARK       I    between atoms: C2_3  and  N1_5 
REMARK    2  A    between atoms: N1_5  and  C4_7 
REMARK    3  A    between atoms: C4_7  and  C5_8 
REMARK    4  A    between atoms: C4_7  and  C6_11 
REMARK    5  A    between atoms: C7_12  and  O5_13 
REMARK    6  A    between atoms: C8_15  and  O6_16 
REMARK    7  A    between atoms: C10_18  and  O7_19 
REMARK    8  A    between atoms: C13_23  and  O8_24 
REMARK    9  A    between atoms: O8_24  and  C14_25 
REMARK   10  A    between atoms: C14_25  and  C15_27 
REMARK   11  A    between atoms: C16_28  and  C17_29 
REMARK   12  A    between atoms: C20_32  and  O10_33 
REMARK   13  A    between atoms: C24_37  and  O11_38 
REMARK   14  A    between atoms: C24_37  and  C25_40 
REMARK   15  A    between atoms: C25_40  and  O12_41 
REMARK   16  A    between atoms: C26_43  and  N2_44 
ROOT
HETATM    1  C6  UNL     1      -8.390  -0.585   4.364  1.00  0.00     0.093 C 
HETATM    2  C7  UNL     1      -9.141  -1.441   5.362  1.00  0.00     0.159 C 
HETATM    3  C8  UNL     1      -9.793  -0.305   6.241  1.00  0.00     0.191 C 
HETATM    4  C10 UNL     1      -8.516   0.417   6.554  1.00  0.00     0.140 C 
HETATM    5  C11 UNL     1      -7.725  -0.465   7.452  1.00  0.00     0.015 C 
HETATM    6  C12 UNL     1      -6.450  -0.741   7.266  1.00  0.00     0.007 C 
HETATM    7  C13 UNL     1      -5.647  -0.200   6.129  1.00  0.00     0.194 C 
HETATM    8  C24 UNL     1      -6.448   0.813   5.399  1.00  0.00     0.145 C 
HETATM    9  C26 UNL     1      -7.868   0.506   5.150  1.00  0.00     0.204 C 
ENDROOT
BRANCH   7  10
HETATM   10  O8  UNL     1      -4.547   0.477   6.766  1.00  0.00    -0.305 OA
BRANCH  10  11
HETATM   11  C14 UNL     1      -3.917  -0.020   7.893  1.00  0.00     0.283 C 
HETATM   12  O9  UNL     1      -2.787  -0.510   7.772  1.00  0.00    -0.260 OA
BRANCH  11  13
HETATM   13  C15 UNL     1      -4.615   0.049   9.196  1.00  0.00     0.083 C 
HETATM   14  C16 UNL     1      -5.078  -1.050   9.739  1.00  0.00     0.017 C 
BRANCH  14  15
HETATM   15  C17 UNL     1      -5.772  -1.121  10.995  1.00  0.00    -0.036 A 
HETATM   16  C18 UNL     1      -5.076  -1.185  12.174  1.00  0.00     0.014 A 
HETATM   17  C19 UNL     1      -5.767  -1.253  13.380  1.00  0.00     0.037 A 
HETATM   18  C20 UNL     1      -7.139  -1.257  13.411  1.00  0.00     0.068 A 
HETATM   19  C22 UNL     1      -7.803  -1.191  12.208  1.00  0.00     0.037 A 
HETATM   20  C23 UNL     1      -7.176  -1.123  11.001  1.00  0.00     0.014 A 
BRANCH  18  21
HETATM   21  O10 UNL     1      -7.794  -1.326  14.631  1.00  0.00    -0.356 OA
HETATM   22  C21 UNL     1      -7.159  -2.009  15.689  1.00  0.00     0.210 C 
ENDBRANCH  18  21
ENDBRANCH  14  15
ENDBRANCH  11  13
ENDBRANCH  10  11
ENDBRANCH   7  10
BRANCH   8  23
HETATM   23  O11 UNL     1      -6.556   1.830   6.438  1.00  0.00    -0.382 OA
ATOM     24  H11 UNL     1      -5.717   1.706   6.866  1.00  0.00     0.210 HD
ENDBRANCH   8  23
BRANCH   8  25
HETATM   25  C25 UNL     1      -5.746   1.558   4.311  1.00  0.00     0.207 C 
BRANCH  25  26
HETATM   26  O12 UNL     1      -5.313   2.832   4.712  1.00  0.00    -0.398 OA
ATOM     27  H12 UNL     1      -4.814   3.281   4.041  1.00  0.00     0.209 HD
ENDBRANCH  25  26
ENDBRANCH   8  25
BRANCH   9  28
HETATM   28  N2  UNL     1      -8.397   1.822   4.679  1.00  0.00    -0.063 N 
ATOM     29  H23 UNL     1      -9.134   1.701   3.985  1.00  0.00     0.275 HD
ATOM     30  H22 UNL     1      -8.939   2.288   5.406  1.00  0.00     0.275 HD
ATOM     31  H21 UNL     1      -7.649   2.421   4.328  1.00  0.00     0.275 HD
ENDBRANCH   9  28
BRANCH   4  32
HETATM   32  O7  UNL     1      -8.819   1.645   7.077  1.00  0.00    -0.380 OA
ATOM     33  H7  UNL     1      -9.134   1.530   7.966  1.00  0.00     0.211 HD
ENDBRANCH   4  32
BRANCH   1  34
HETATM   34  C4  UNL     1      -7.759  -1.216   3.217  1.00  0.00     0.199 C 
BRANCH  34  35
HETATM   35  N1  UNL     1      -7.333  -2.566   3.165  1.00  0.00    -0.317 N 
HETATM   36  C2  UNL     1      -8.009  -3.751   2.850  1.00  0.00     0.362 C 
HETATM   37  O2  UNL     1      -7.333  -4.853   2.961  1.00  0.00    -0.238 OA
HETATM   38  C3  UNL     1      -5.902  -2.835   3.513  1.00  0.00     0.156 C 
BRANCH  36  39
HETATM   39  O1  UNL     1      -9.296  -3.926   2.433  1.00  0.00    -0.309 OA
HETATM   40  C1  UNL     1      -9.765  -5.202   2.055  1.00  0.00     0.215 C 
ENDBRANCH  36  39
ENDBRANCH  34  35
BRANCH  34  41
HETATM   41  C5  UNL     1      -8.617  -1.051   1.969  1.00  0.00     0.197 C 
HETATM   42  O3  UNL     1      -8.155  -1.158   0.810  1.00  0.00    -0.646 OA
HETATM   43  O4  UNL     1      -9.966  -0.771   2.106  1.00  0.00    -0.646 OA
ENDBRANCH  34  41
ENDBRANCH   1  34
BRANCH   3  44
HETATM   44  O6  UNL     1     -10.583   0.407   5.372  1.00  0.00    -0.385 OA
HETATM   45  C9  UNL     1     -11.920   0.466   5.786  1.00  0.00     0.202 C 
ENDBRANCH   3  44
BRANCH   2  46
HETATM   46  O5  UNL     1     -10.256  -2.068   4.849  1.00  0.00    -0.392 OA
ATOM     47  H5  UNL     1     -10.642  -2.716   5.426  1.00  0.00     0.210 HD
ENDBRANCH   2  46
TORSDOF 16
ENDMDL
