MODEL 1
REMARK VINA RESULT: -7.785485258      0.000      0.000
REMARK  4 active torsions:
REMARK  status: ('A' for Active; 'I' for Inactive)
REMARK    1  A    between atoms: O1_2  and  C2_3 
REMARK    2  A    between atoms: C7_9  and  O3_10 
REMARK    3  A    between atoms: C9_14  and  C10_15 
REMARK    4  A    between atoms: C17_22  and  O4_23 
ROOT
HETATM    1  C2  UNL     1      -5.044  13.527  -3.549  1.00  0.00     0.225 C 
HETATM    2  C3  UNL     1      -6.128  12.433  -3.797  1.00  0.00     0.081 C 
HETATM    3  C4  UNL     1      -7.054  13.631  -3.658  1.00  0.00     0.115 C 
HETATM    4  C5  UNL     1      -8.343  13.387  -2.975  1.00  0.00     0.201 C 
HETATM    5  O2  UNL     1      -8.344  13.647  -1.584  1.00  0.00    -0.344 OA
HETATM    6  C6  UNL     1      -7.616  14.696  -1.038  1.00  0.00     0.134 A 
HETATM    7  C7  UNL     1      -8.042  15.429   0.038  1.00  0.00     0.141 A 
HETATM    8  C8  UNL     1      -7.225  16.460   0.503  1.00  0.00     0.165 A 
HETATM    9  F1  UNL     1      -7.684  17.145   1.533  1.00  0.00    -0.202 F 
HETATM   10  C9  UNL     1      -6.018  16.791  -0.045  1.00  0.00     0.043 A 
HETATM   11  C17 UNL     1      -5.620  16.022  -1.137  1.00  0.00     0.108 A 
HETATM   12  C18 UNL     1      -6.410  14.977  -1.638  1.00  0.00     0.104 A 
HETATM   13  N1  UNL     1      -6.032  14.176  -2.747  1.00  0.00    -0.343 N 
ENDROOT
BRANCH  10  14
HETATM   14  C10 UNL     1      -5.203  17.872   0.417  1.00  0.00    -0.064 C 
HETATM   15  C11 UNL     1      -4.007  17.471   1.294  1.00  0.00     0.036 C 
HETATM   16  C12 UNL     1      -3.500  18.668   2.123  1.00  0.00     0.008 C 
HETATM   17  C13 UNL     1      -4.496  19.121   3.132  1.00  0.00    -0.018 C 
HETATM   18  C14 UNL     1      -4.251  20.608   3.387  1.00  0.00     0.010 C 
HETATM   19  C15 UNL     1      -5.868  18.911   2.509  1.00  0.00     0.008 C 
HETATM   20  C16 UNL     1      -5.723  19.096   1.008  1.00  0.00     0.036 C 
ENDBRANCH  10  14
BRANCH  11  21
HETATM   21  O4  UNL     1      -4.443  16.230  -1.792  1.00  0.00    -0.357 OA
ATOM     22  H4  UNL     1      -3.613  15.900  -1.470  1.00  0.00     0.217 HD
ENDBRANCH  11  21
BRANCH   7  23
HETATM   23  O3  UNL     1      -9.257  15.143   0.643  1.00  0.00    -0.355 OA
ATOM     24  H3  UNL     1      -9.557  15.658   1.384  1.00  0.00     0.218 HD
ENDBRANCH   7  23
BRANCH   1  25
HETATM   25  O1  UNL     1      -4.793  14.227  -4.730  1.00  0.00    -0.371 OA
HETATM   26  C1  UNL     1      -3.567  13.956  -5.300  1.00  0.00     0.204 C 
ENDBRANCH   1  25
TORSDOF 4
ENDMDL
MODEL 2
REMARK VINA RESULT: -7.384081004      3.129      5.424
REMARK  4 active torsions:
REMARK  status: ('A' for Active; 'I' for Inactive)
REMARK    1  A    between atoms: O1_2  and  C2_3 
REMARK    2  A    between atoms: C7_9  and  O3_10 
REMARK    3  A    between atoms: C9_14  and  C10_15 
REMARK    4  A    between atoms: C17_22  and  O4_23 
ROOT
HETATM    1  C2  UNL     1     -12.533  14.493   1.754  1.00  0.00     0.225 C 
HETATM    2  C3  UNL     1     -13.480  13.952   0.639  1.00  0.00     0.081 C 
HETATM    3  C4  UNL     1     -12.199  13.268   0.188  1.00  0.00     0.115 C 
HETATM    4  C5  UNL     1     -11.995  13.158  -1.272  1.00  0.00     0.201 C 
HETATM    5  O2  UNL     1     -11.245  14.207  -1.855  1.00  0.00    -0.344 OA
HETATM    6  C6  UNL     1     -10.181  14.800  -1.188  1.00  0.00     0.134 A 
HETATM    7  C7  UNL     1      -9.053  15.251  -1.821  1.00  0.00     0.141 A 
HETATM    8  C8  UNL     1      -8.046  15.832  -1.050  1.00  0.00     0.165 A 
HETATM    9  F1  UNL     1      -6.975  16.240  -1.703  1.00  0.00    -0.202 F 
HETATM   10  C9  UNL     1      -8.110  15.986   0.307  1.00  0.00     0.043 A 
HETATM   11  C17 UNL     1      -9.274  15.514   0.914  1.00  0.00     0.108 A 
HETATM   12  C18 UNL     1     -10.309  14.922   0.176  1.00  0.00     0.104 A 
HETATM   13  N1  UNL     1     -11.505  14.434   0.764  1.00  0.00    -0.343 N 
ENDROOT
BRANCH  10  14
HETATM   14  C10 UNL     1      -7.059  16.551   1.095  1.00  0.00    -0.064 C 
HETATM   15  C11 UNL     1      -7.014  18.086   1.133  1.00  0.00     0.036 C 
HETATM   16  C12 UNL     1      -5.624  18.591   1.569  1.00  0.00     0.008 C 
HETATM   17  C13 UNL     1      -4.566  18.267   0.573  1.00  0.00    -0.018 C 
HETATM   18  C14 UNL     1      -3.240  18.157   1.327  1.00  0.00     0.010 C 
HETATM   19  C15 UNL     1      -4.940  16.923  -0.033  1.00  0.00     0.008 C 
HETATM   20  C16 UNL     1      -5.669  16.125   1.035  1.00  0.00     0.036 C 
ENDBRANCH  10  14
BRANCH  11  21
HETATM   21  O4  UNL     1      -9.485  15.593   2.258  1.00  0.00    -0.357 OA
ATOM     22  H4  UNL     1     -10.192  15.131   2.692  1.00  0.00     0.217 HD
ENDBRANCH  11  21
BRANCH   7  23
HETATM   23  O3  UNL     1      -8.925  15.129  -3.198  1.00  0.00    -0.355 OA
ATOM     24  H3  UNL     1      -9.223  15.825  -3.771  1.00  0.00     0.218 HD
ENDBRANCH   7  23
BRANCH   1  25
HETATM   25  O1  UNL     1     -12.357  13.524   2.742  1.00  0.00    -0.371 OA
HETATM   26  C1  UNL     1     -11.303  13.771   3.597  1.00  0.00     0.204 C 
ENDBRANCH   1  25
TORSDOF 4
ENDMDL
MODEL 3
REMARK VINA RESULT: -7.099718977      1.936      3.971
REMARK  4 active torsions:
REMARK  status: ('A' for Active; 'I' for Inactive)
REMARK    1  A    between atoms: O1_2  and  C2_3 
REMARK    2  A    between atoms: C7_9  and  O3_10 
REMARK    3  A    between atoms: C9_14  and  C10_15 
REMARK    4  A    between atoms: C17_22  and  O4_23 
ROOT
HETATM    1  C2  UNL     1     -10.627  14.958  -1.431  1.00  0.00     0.225 C 
HETATM    2  C3  UNL     1     -10.742  14.370  -2.871  1.00  0.00     0.081 C 
HETATM    3  C4  UNL     1      -9.463  13.664  -2.448  1.00  0.00     0.115 C 
HETATM    4  C5  UNL     1      -8.435  13.488  -3.496  1.00  0.00     0.201 C 
HETATM    5  O2  UNL     1      -7.456  14.508  -3.555  1.00  0.00    -0.344 OA
HETATM    6  C6  UNL     1      -6.980  15.128  -2.407  1.00  0.00     0.134 A 
HETATM    7  C7  UNL     1      -5.684  15.548  -2.261  1.00  0.00     0.141 A 
HETATM    8  C8  UNL     1      -5.316  16.161  -1.062  1.00  0.00     0.165 A 
HETATM    9  F1  UNL     1      -4.055  16.537  -0.964  1.00  0.00    -0.202 F 
HETATM   10  C9  UNL     1      -6.169  16.375  -0.016  1.00  0.00     0.043 A 
HETATM   11  C17 UNL     1      -7.478  15.934  -0.204  1.00  0.00     0.108 A 
HETATM   12  C18 UNL     1      -7.889  15.311  -1.391  1.00  0.00     0.104 A 
HETATM   13  N1  UNL     1      -9.214  14.853  -1.613  1.00  0.00    -0.343 N 
ENDROOT
BRANCH  10  14
HETATM   14  C10 UNL     1      -5.776  16.973   1.222  1.00  0.00    -0.064 C 
HETATM   15  C11 UNL     1      -6.597  18.196   1.656  1.00  0.00     0.036 C 
HETATM   16  C12 UNL     1      -5.829  19.043   2.691  1.00  0.00     0.008 C 
HETATM   17  C13 UNL     1      -4.607  19.669   2.117  1.00  0.00    -0.018 C 
HETATM   18  C14 UNL     1      -3.610  19.868   3.258  1.00  0.00     0.010 C 
HETATM   19  C15 UNL     1      -4.054  18.682   1.099  1.00  0.00     0.008 C 
HETATM   20  C16 UNL     1      -4.400  17.284   1.582  1.00  0.00     0.036 C 
ENDBRANCH  10  14
BRANCH  11  21
HETATM   21  O4  UNL     1      -8.444  16.074   0.747  1.00  0.00    -0.357 OA
ATOM     22  H4  UNL     1      -8.473  16.813   1.342  1.00  0.00     0.217 HD
ENDBRANCH  11  21
BRANCH   7  23
HETATM   23  O3  UNL     1      -4.767  15.364  -3.286  1.00  0.00    -0.355 OA
ATOM     24  H3  UNL     1      -3.834  15.389  -3.107  1.00  0.00     0.218 HD
ENDBRANCH   7  23
BRANCH   1  25
HETATM   25  O1  UNL     1     -11.100  14.034  -0.499  1.00  0.00    -0.371 OA
HETATM   26  C1  UNL     1     -11.560  14.596   0.673  1.00  0.00     0.204 C 
ENDBRANCH   1  25
TORSDOF 4
ENDMDL
MODEL 4
REMARK VINA RESULT: -7.084045286      3.847      6.757
REMARK  4 active torsions:
REMARK  status: ('A' for Active; 'I' for Inactive)
REMARK    1  A    between atoms: O1_2  and  C2_3 
REMARK    2  A    between atoms: C7_9  and  O3_10 
REMARK    3  A    between atoms: C9_14  and  C10_15 
REMARK    4  A    between atoms: C17_22  and  O4_23 
ROOT
HETATM    1  C2  UNL     1     -13.060  13.258   0.828  1.00  0.00     0.225 C 
HETATM    2  C3  UNL     1     -13.435  13.689   2.280  1.00  0.00     0.081 C 
HETATM    3  C4  UNL     1     -12.862  15.013   1.800  1.00  0.00     0.115 C 
HETATM    4  C5  UNL     1     -12.097  15.795   2.795  1.00  0.00     0.201 C 
HETATM    5  O2  UNL     1     -10.700  15.571   2.790  1.00  0.00    -0.344 OA
HETATM    6  C6  UNL     1     -10.004  15.339   1.612  1.00  0.00     0.134 A 
HETATM    7  C7  UNL     1      -8.725  15.780   1.393  1.00  0.00     0.141 A 
HETATM    8  C8  UNL     1      -8.122  15.487   0.169  1.00  0.00     0.165 A 
HETATM    9  F1  UNL     1      -6.896  15.945   0.001  1.00  0.00    -0.202 F 
HETATM   10  C9  UNL     1      -8.724  14.781  -0.835  1.00  0.00     0.043 A 
HETATM   11  C17 UNL     1     -10.024  14.350  -0.573  1.00  0.00     0.108 A 
HETATM   12  C18 UNL     1     -10.668  14.623   0.642  1.00  0.00     0.104 A 
HETATM   13  N1  UNL     1     -11.989  14.197   0.938  1.00  0.00    -0.343 N 
ENDROOT
BRANCH  10  14
HETATM   14  C10 UNL     1      -8.111  14.515  -2.099  1.00  0.00    -0.064 C 
HETATM   15  C11 UNL     1      -7.063  13.393  -2.102  1.00  0.00     0.036 C 
HETATM   16  C12 UNL     1      -6.135  13.503  -3.329  1.00  0.00     0.008 C 
HETATM   17  C13 UNL     1      -5.289  14.727  -3.291  1.00  0.00    -0.018 C 
HETATM   18  C14 UNL     1      -4.963  15.108  -4.735  1.00  0.00     0.010 C 
HETATM   19  C15 UNL     1      -6.131  15.813  -2.637  1.00  0.00     0.008 C 
HETATM   20  C16 UNL     1      -7.584  15.540  -2.987  1.00  0.00     0.036 C 
ENDBRANCH  10  14
BRANCH  11  21
HETATM   21  O4  UNL     1     -10.756  13.636  -1.474  1.00  0.00    -0.357 OA
ATOM     22  H4  UNL     1     -11.700  13.716  -1.544  1.00  0.00     0.217 HD
ENDBRANCH  11  21
BRANCH   7  23
HETATM   23  O3  UNL     1      -8.055  16.501   2.372  1.00  0.00    -0.355 OA
ATOM     24  H3  UNL     1      -7.141  16.733   2.256  1.00  0.00     0.218 HD
ENDBRANCH   7  23
BRANCH   1  25
HETATM   25  O1  UNL     1     -14.039  13.692  -0.066  1.00  0.00    -0.371 OA
HETATM   26  C1  UNL     1     -14.191  12.886  -1.175  1.00  0.00     0.204 C 
ENDBRANCH   1  25
TORSDOF 4
ENDMDL
MODEL 5
REMARK VINA RESULT: -7.075348752      1.296      1.478
REMARK  4 active torsions:
REMARK  status: ('A' for Active; 'I' for Inactive)
REMARK    1  A    between atoms: O1_2  and  C2_3 
REMARK    2  A    between atoms: C7_9  and  O3_10 
REMARK    3  A    between atoms: C9_14  and  C10_15 
REMARK    4  A    between atoms: C17_22  and  O4_23 
ROOT
HETATM    1  C2  UNL     1      -7.281  13.873  -4.008  1.00  0.00     0.225 C 
HETATM    2  C3  UNL     1      -8.552  12.970  -4.037  1.00  0.00     0.081 C 
HETATM    3  C4  UNL     1      -9.191  14.229  -3.472  1.00  0.00     0.115 C 
HETATM    4  C5  UNL     1     -10.247  14.028  -2.456  1.00  0.00     0.201 C 
HETATM    5  O2  UNL     1      -9.801  14.053  -1.113  1.00  0.00    -0.344 OA
HETATM    6  C6  UNL     1      -8.786  14.904  -0.698  1.00  0.00     0.134 A 
HETATM    7  C7  UNL     1      -8.755  15.494   0.538  1.00  0.00     0.141 A 
HETATM    8  C8  UNL     1      -7.683  16.332   0.848  1.00  0.00     0.165 A 
HETATM    9  F1  UNL     1      -7.705  16.886   2.045  1.00  0.00    -0.202 F 
HETATM   10  C9  UNL     1      -6.650  16.605  -0.005  1.00  0.00     0.043 A 
HETATM   11  C17 UNL     1      -6.718  15.985  -1.253  1.00  0.00     0.108 A 
HETATM   12  C18 UNL     1      -7.777  15.138  -1.605  1.00  0.00     0.104 A 
HETATM   13  N1  UNL     1      -7.874  14.492  -2.866  1.00  0.00    -0.343 N 
ENDROOT
BRANCH  10  14
HETATM   14  C10 UNL     1      -5.572  17.491   0.308  1.00  0.00    -0.064 C 
HETATM   15  C11 UNL     1      -4.462  16.897   1.188  1.00  0.00     0.036 C 
HETATM   16  C12 UNL     1      -3.633  18.010   1.861  1.00  0.00     0.008 C 
HETATM   17  C13 UNL     1      -4.430  18.795   2.842  1.00  0.00    -0.018 C 
HETATM   18  C14 UNL     1      -3.817  20.194   2.921  1.00  0.00     0.010 C 
HETATM   19  C15 UNL     1      -5.845  18.870   2.288  1.00  0.00     0.008 C 
HETATM   20  C16 UNL     1      -5.744  18.859   0.772  1.00  0.00     0.036 C 
ENDBRANCH  10  14
BRANCH  11  21
HETATM   21  O4  UNL     1      -5.765  16.159  -2.212  1.00  0.00    -0.357 OA
ATOM     22  H4  UNL     1      -5.853  16.795  -2.911  1.00  0.00     0.217 HD
ENDBRANCH  11  21
BRANCH   7  23
HETATM   23  O3  UNL     1      -9.772  15.257   1.453  1.00  0.00    -0.355 OA
ATOM     24  H3  UNL     1      -9.829  14.421   1.900  1.00  0.00     0.218 HD
ENDBRANCH   7  23
BRANCH   1  25
HETATM   25  O1  UNL     1      -7.275  14.724  -5.114  1.00  0.00    -0.371 OA
HETATM   26  C1  UNL     1      -6.016  15.090  -5.541  1.00  0.00     0.204 C 
ENDBRANCH   1  25
TORSDOF 4
ENDMDL
