MODEL 1
REMARK VINA RESULT: -6.240694488      0.000      0.000
REMARK  2 active torsions:
REMARK  status: ('A' for Active; 'I' for Inactive)
REMARK    1  A    between atoms: C1_4  and  C2_6 
REMARK    2  A    between atoms: C6_13  and  C7_14 
ROOT
HETATM    1  C2  UNL     1      -0.231   4.229  10.147  1.00  0.00     0.262 C 
HETATM    2  N3  UNL     1       0.017   2.773  10.015  1.00  0.00    -0.064 N 
ATOM      3  H31 UNL     1       0.989   2.511  10.183  1.00  0.00     0.278 HD
ATOM      4  H32 UNL     1      -0.039   2.439   9.053  1.00  0.00     0.278 HD
HETATM    5  C3  UNL     1      -0.918   2.114  10.911  1.00  0.00     0.233 C 
HETATM    6  C4  UNL     1      -2.327   2.425  10.582  1.00  0.00     0.028 C 
HETATM    7  C5  UNL     1      -2.595   3.922  10.493  1.00  0.00     0.018 C 
HETATM    8  C6  UNL     1      -1.556   4.439   9.484  1.00  0.00     0.113 C 
ENDROOT
BRANCH   1   9
HETATM    9  C1  UNL     1       0.891   5.005   9.652  1.00  0.00     0.118 C 
HETATM   10  N1  UNL     1       1.429   4.703   8.531  1.00  0.00    -0.389 N 
ATOM     11  H12 UNL     1       2.217   5.249   8.182  1.00  0.00     0.157 HD
ATOM     12  H11 UNL     1       1.060   3.917   7.996  1.00  0.00     0.157 HD
HETATM   13  N2  UNL     1       1.399   6.090  10.391  1.00  0.00    -0.086 NA
ENDBRANCH   1   9
BRANCH   8  14
HETATM   14  C7  UNL     1      -1.866   5.761   8.985  1.00  0.00     0.237 C 
HETATM   15  N4  UNL     1      -1.873   6.095   7.604  1.00  0.00    -0.062 NA
HETATM   16  O1  UNL     1      -2.146   6.665   9.847  1.00  0.00    -0.276 OA
ENDBRANCH   8  14
TORSDOF 2
ENDMDL
MODEL 2
REMARK VINA RESULT: -5.786483428      1.831      2.986
REMARK  2 active torsions:
REMARK  status: ('A' for Active; 'I' for Inactive)
REMARK    1  A    between atoms: C1_4  and  C2_6 
REMARK    2  A    between atoms: C6_13  and  C7_14 
ROOT
HETATM    1  C2  UNL     1      -1.882   4.294   9.439  1.00  0.00     0.262 C 
HETATM    2  N3  UNL     1      -3.089   4.121  10.283  1.00  0.00    -0.064 N 
ATOM      3  H31 UNL     1      -3.961   4.294   9.782  1.00  0.00     0.278 HD
ATOM      4  H32 UNL     1      -3.200   4.853  10.985  1.00  0.00     0.278 HD
HETATM    5  C3  UNL     1      -3.007   2.785  10.850  1.00  0.00     0.233 C 
HETATM    6  C4  UNL     1      -1.784   2.592  11.660  1.00  0.00     0.028 C 
HETATM    7  C5  UNL     1      -0.513   2.961  10.906  1.00  0.00     0.018 C 
HETATM    8  C6  UNL     1      -0.758   4.400  10.422  1.00  0.00     0.113 C 
ENDROOT
BRANCH   1   9
HETATM    9  C1  UNL     1      -2.046   5.385   8.496  1.00  0.00     0.118 C 
HETATM   10  N1  UNL     1      -1.971   5.157   7.239  1.00  0.00    -0.389 N 
ATOM     11  H12 UNL     1      -2.086   5.924   6.576  1.00  0.00     0.157 HD
ATOM     12  H11 UNL     1      -1.796   4.206   6.913  1.00  0.00     0.157 HD
HETATM   13  N2  UNL     1      -2.286   6.696   8.947  1.00  0.00    -0.086 NA
ENDBRANCH   1   9
BRANCH   8  14
HETATM   14  C7  UNL     1       0.456   5.065   9.999  1.00  0.00     0.237 C 
HETATM   15  N4  UNL     1       0.906   6.295  10.549  1.00  0.00    -0.062 NA
HETATM   16  O1  UNL     1       1.146   4.502   9.081  1.00  0.00    -0.276 OA
ENDBRANCH   8  14
TORSDOF 2
ENDMDL
MODEL 3
REMARK VINA RESULT: -5.456089708      1.957      3.242
REMARK  2 active torsions:
REMARK  status: ('A' for Active; 'I' for Inactive)
REMARK    1  A    between atoms: C1_4  and  C2_6 
REMARK    2  A    between atoms: C6_13  and  C7_14 
ROOT
HETATM    1  C2  UNL     1      -2.781   3.484   9.032  1.00  0.00     0.262 C 
HETATM    2  N3  UNL     1      -3.931   2.796   9.669  1.00  0.00    -0.064 N 
ATOM      3  H31 UNL     1      -4.574   2.377   8.996  1.00  0.00     0.278 HD
ATOM      4  H32 UNL     1      -4.598   3.437  10.099  1.00  0.00     0.278 HD
HETATM    5  C3  UNL     1      -3.369   1.835  10.603  1.00  0.00     0.233 C 
HETATM    6  C4  UNL     1      -2.524   2.478  11.633  1.00  0.00     0.028 C 
HETATM    7  C5  UNL     1      -1.447   3.375  11.035  1.00  0.00     0.018 C 
HETATM    8  C6  UNL     1      -2.218   4.343  10.121  1.00  0.00     0.113 C 
ENDROOT
BRANCH   1   9
HETATM    9  C1  UNL     1      -3.174   4.143   7.801  1.00  0.00     0.118 C 
HETATM   10  N1  UNL     1      -2.296   4.752   7.096  1.00  0.00    -0.389 N 
ATOM     11  H12 UNL     1      -2.572   5.216   6.231  1.00  0.00     0.157 HD
ATOM     12  H11 UNL     1      -1.325   4.766   7.411  1.00  0.00     0.157 HD
HETATM   13  N2  UNL     1      -4.513   4.124   7.368  1.00  0.00    -0.086 NA
ENDBRANCH   1   9
BRANCH   8  14
HETATM   14  C7  UNL     1      -1.436   5.499   9.740  1.00  0.00     0.237 C 
HETATM   15  N4  UNL     1      -0.081   5.424   9.320  1.00  0.00    -0.062 NA
HETATM   16  O1  UNL     1      -2.010   6.641   9.791  1.00  0.00    -0.276 OA
ENDBRANCH   8  14
TORSDOF 2
ENDMDL
MODEL 4
REMARK VINA RESULT: -5.451685958      2.549      4.383
REMARK  2 active torsions:
REMARK  status: ('A' for Active; 'I' for Inactive)
REMARK    1  A    between atoms: C1_4  and  C2_6 
REMARK    2  A    between atoms: C6_13  and  C7_14 
ROOT
HETATM    1  C2  UNL     1       1.340   7.119   9.056  1.00  0.00     0.262 C 
HETATM    2  N3  UNL     1       2.072   8.247   9.682  1.00  0.00    -0.064 N 
ATOM      3  H31 UNL     1       3.012   7.998   9.991  1.00  0.00     0.278 HD
ATOM      4  H32 UNL     1       1.704   8.511  10.595  1.00  0.00     0.278 HD
HETATM    5  C3  UNL     1       2.055   9.334   8.717  1.00  0.00     0.233 C 
HETATM    6  C4  UNL     1       0.680   9.750   8.362  1.00  0.00     0.028 C 
HETATM    7  C5  UNL     1      -0.190   8.584   7.910  1.00  0.00     0.018 C 
HETATM    8  C6  UNL     1      -0.089   7.563   9.056  1.00  0.00     0.113 C 
ENDROOT
BRANCH   1   9
HETATM    9  C1  UNL     1       1.646   5.861   9.711  1.00  0.00     0.118 C 
HETATM   10  N1  UNL     1       1.712   4.784   9.023  1.00  0.00    -0.389 N 
ATOM     11  H12 UNL     1       1.927   3.899   9.484  1.00  0.00     0.157 HD
ATOM     12  H11 UNL     1       1.549   4.823   8.017  1.00  0.00     0.157 HD
HETATM   13  N2  UNL     1       1.871   5.807  11.100  1.00  0.00    -0.086 NA
ENDBRANCH   1   9
BRANCH   8  14
HETATM   14  C7  UNL     1      -1.117   6.547   8.996  1.00  0.00     0.237 C 
HETATM   15  N4  UNL     1      -1.209   5.587   7.952  1.00  0.00    -0.062 NA
HETATM   16  O1  UNL     1      -1.982   6.527   9.939  1.00  0.00    -0.276 OA
ENDBRANCH   8  14
TORSDOF 2
ENDMDL
MODEL 5
REMARK VINA RESULT: -5.368073462      2.806      4.506
REMARK  2 active torsions:
REMARK  status: ('A' for Active; 'I' for Inactive)
REMARK    1  A    between atoms: C1_4  and  C2_6 
REMARK    2  A    between atoms: C6_13  and  C7_14 
ROOT
HETATM    1  C2  UNL     1       1.473   6.886   9.187  1.00  0.00     0.262 C 
HETATM    2  N3  UNL     1       2.358   7.509  10.202  1.00  0.00    -0.064 N 
ATOM      3  H31 UNL     1       3.080   6.878  10.550  1.00  0.00     0.278 HD
ATOM      4  H32 UNL     1       1.894   7.676  11.095  1.00  0.00     0.278 HD
HETATM    5  C3  UNL     1       2.893   8.716   9.595  1.00  0.00     0.233 C 
HETATM    6  C4  UNL     1       1.830   9.664   9.193  1.00  0.00     0.028 C 
HETATM    7  C5  UNL     1       0.767   9.017   8.314  1.00  0.00     0.018 C 
HETATM    8  C6  UNL     1       0.289   7.799   9.121  1.00  0.00     0.113 C 
ENDROOT
BRANCH   1   9
HETATM    9  C1  UNL     1       1.221   5.490   9.489  1.00  0.00     0.118 C 
HETATM   10  N1  UNL     1       1.376   4.603   8.579  1.00  0.00    -0.389 N 
ATOM     11  H12 UNL     1       1.199   3.621   8.792  1.00  0.00     0.157 HD
ATOM     12  H11 UNL     1       1.678   4.890   7.648  1.00  0.00     0.157 HD
HETATM   13  N2  UNL     1       0.804   5.094  10.774  1.00  0.00    -0.086 NA
ENDBRANCH   1   9
BRANCH   8  14
HETATM   14  C7  UNL     1      -0.962   7.258   8.635  1.00  0.00     0.237 C 
HETATM   15  N4  UNL     1      -1.972   6.734   9.486  1.00  0.00    -0.062 NA
HETATM   16  O1  UNL     1      -1.151   7.258   7.369  1.00  0.00    -0.276 OA
ENDBRANCH   8  14
TORSDOF 2
ENDMDL
