MODEL 1
REMARK VINA RESULT: -7.880990094      0.000      0.000
REMARK  10 active torsions:
REMARK  status: ('A' for Active; 'I' for Inactive)
REMARK    1  A    between atoms: C2_2  and  C4_4 
REMARK    2  A    between atoms: C4_4  and  C9_13 
REMARK    3  A    between atoms: N1_5  and  O1_7 
REMARK    4  A    between atoms: O1_7  and  C5_8 
REMARK    5  A    between atoms: C5_8  and  C6_9 
REMARK    6  A    between atoms: C13_20  and  O3_21 
REMARK    7  A    between atoms: O3_21  and  C14_22 
REMARK    8  A    between atoms: C17_26  and  C18_27 
REMARK    9  A    between atoms: C20_29  and  O4_30 
REMARK   10  A    between atoms: C24_35  and  O5_36 
ROOT
HETATM    1  C9  UNL     1      37.618 -17.252  26.282  1.00  0.00    -0.005 A 
HETATM    2  C10 UNL     1      38.163 -16.852  25.087  1.00  0.00     0.035 A 
HETATM    3  C11 UNL     1      38.127 -17.601  23.926  1.00  0.00     0.039 A 
HETATM    4 BR1  UNL     1      38.877 -17.028  22.270  1.00  0.00    -0.049 Br
HETATM    5  C12 UNL     1      37.489 -18.847  23.989  1.00  0.00     0.066 A 
HETATM    6  N2  UNL     1      37.478 -19.629  22.900  1.00  0.00    -0.334 N 
ATOM      7  H2  UNL     1      37.885 -19.288  22.029  1.00  0.00     0.168 HD
HETATM    8  C13 UNL     1      36.944 -20.843  22.946  1.00  0.00     0.158 A 
HETATM    9  C17 UNL     1      36.349 -21.408  24.095  1.00  0.00     0.079 A 
HETATM   10  C25 UNL     1      36.353 -20.592  25.220  1.00  0.00     0.199 A 
HETATM   11  O6  UNL     1      35.852 -21.009  26.271  1.00  0.00    -0.286 OA
HETATM   12  C26 UNL     1      36.926 -19.310  25.152  1.00  0.00     0.044 A 
HETATM   13  C27 UNL     1      36.987 -18.504  26.308  1.00  0.00     0.031 A 
ENDROOT
BRANCH   1  14
HETATM   14  C4  UNL     1      37.799 -16.569  27.537  1.00  0.00     0.070 C 
HETATM   15  N1  UNL     1      38.715 -16.754  28.393  1.00  0.00    -0.266 N 
ATOM     16  H1  UNL     1      38.740 -16.079  29.157  1.00  0.00     0.194 HD
BRANCH  14  17
HETATM   17  C2  UNL     1      36.913 -15.414  27.822  1.00  0.00    -0.042 C 
HETATM   18  C1  UNL     1      37.029 -14.324  27.167  1.00  0.00     0.021 C 
HETATM   19  C3  UNL     1      35.867 -15.607  28.871  1.00  0.00     0.050 C 
ENDBRANCH  14  17
BRANCH  15  20
HETATM   20  O1  UNL     1      39.663 -17.714  28.441  1.00  0.00    -0.277 OA
BRANCH  20  21
HETATM   21  C5  UNL     1      39.403 -18.828  29.389  1.00  0.00     0.233 C 
BRANCH  21  22
HETATM   22  C6  UNL     1      39.251 -19.973  28.480  1.00  0.00     0.149 C 
HETATM   23  C7  UNL     1      40.258 -20.443  27.500  1.00  0.00     0.060 C 
HETATM   24  C8  UNL     1      39.161 -21.582  27.485  1.00  0.00     0.171 C 
HETATM   25  O2  UNL     1      39.088 -21.274  28.903  1.00  0.00    -0.384 OA
ENDBRANCH  21  22
ENDBRANCH  20  21
ENDBRANCH  15  20
ENDBRANCH   1  14
BRANCH   9  26
HETATM   26  C18 UNL     1      35.815 -22.748  24.037  1.00  0.00     0.018 A 
HETATM   27  C19 UNL     1      36.544 -23.774  24.684  1.00  0.00     0.054 A 
HETATM   28  C20 UNL     1      36.175 -25.085  24.622  1.00  0.00     0.093 A 
HETATM   29  C22 UNL     1      35.031 -25.409  23.890  1.00  0.00     0.082 A 
HETATM   30  N3  UNL     1      34.657 -26.801  23.855  1.00  0.00    -0.099 NA
HETATM   31  C23 UNL     1      34.310 -24.461  23.259  1.00  0.00     0.066 A 
HETATM   32  C24 UNL     1      34.706 -23.151  23.339  1.00  0.00     0.079 A 
BRANCH  28  33
HETATM   33  O4  UNL     1      36.888 -26.121  25.256  1.00  0.00    -0.354 OA
HETATM   34  C21 UNL     1      38.188 -25.879  25.752  1.00  0.00     0.210 C 
ENDBRANCH  28  33
BRANCH  32  35
HETATM   35  O5  UNL     1      33.966 -22.171  22.693  1.00  0.00    -0.360 OA
ATOM     36  H5  UNL     1      33.779 -22.300  21.771  1.00  0.00     0.217 HD
ENDBRANCH  32  35
ENDBRANCH   9  26
BRANCH   8  37
HETATM   37  O3  UNL     1      36.933 -21.687  21.811  1.00  0.00    -0.328 OA
BRANCH  37  38
HETATM   38  C14 UNL     1      38.191 -22.289  21.410  1.00  0.00     0.150 A 
HETATM   39  C15 UNL     1      37.997 -23.801  21.148  1.00  0.00     0.057 A 
HETATM   40  C16 UNL     1      38.357 -22.792  20.056  1.00  0.00     0.114 A 
HETATM   41 CL1  UNL     1      39.983 -23.006  19.314  1.00  0.00    -0.122 Cl
ENDBRANCH  37  38
ENDBRANCH   8  37
TORSDOF 10
ENDMDL
MODEL 2
REMARK VINA RESULT: -7.752261003      3.612      6.166
REMARK  10 active torsions:
REMARK  status: ('A' for Active; 'I' for Inactive)
REMARK    1  A    between atoms: C2_2  and  C4_4 
REMARK    2  A    between atoms: C4_4  and  C9_13 
REMARK    3  A    between atoms: N1_5  and  O1_7 
REMARK    4  A    between atoms: O1_7  and  C5_8 
REMARK    5  A    between atoms: C5_8  and  C6_9 
REMARK    6  A    between atoms: C13_20  and  O3_21 
REMARK    7  A    between atoms: O3_21  and  C14_22 
REMARK    8  A    between atoms: C17_26  and  C18_27 
REMARK    9  A    between atoms: C20_29  and  O4_30 
REMARK   10  A    between atoms: C24_35  and  O5_36 
ROOT
HETATM    1  C9  UNL     1      37.563 -17.221  26.622  1.00  0.00    -0.005 A 
HETATM    2  C10 UNL     1      36.946 -18.019  25.690  1.00  0.00     0.035 A 
HETATM    3  C11 UNL     1      37.157 -19.380  25.570  1.00  0.00     0.039 A 
HETATM    4 BR1  UNL     1      36.284 -20.478  24.280  1.00  0.00    -0.049 Br
HETATM    5  C12 UNL     1      38.061 -19.968  26.463  1.00  0.00     0.066 A 
HETATM    6  N2  UNL     1      38.336 -21.275  26.346  1.00  0.00    -0.334 N 
ATOM      7  H2  UNL     1      37.846 -21.834  25.648  1.00  0.00     0.168 HD
HETATM    8  C13 UNL     1      39.239 -21.848  27.131  1.00  0.00     0.158 A 
HETATM    9  C17 UNL     1      39.968 -21.170  28.133  1.00  0.00     0.079 A 
HETATM   10  C25 UNL     1      39.676 -19.817  28.259  1.00  0.00     0.199 A 
HETATM   11  O6  UNL     1      40.268 -19.148  29.113  1.00  0.00    -0.286 OA
HETATM   12  C26 UNL     1      38.716 -19.228  27.416  1.00  0.00     0.044 A 
HETATM   13  C27 UNL     1      38.462 -17.844  27.500  1.00  0.00     0.031 A 
ENDROOT
BRANCH   1  14
HETATM   14  C4  UNL     1      37.492 -15.782  26.647  1.00  0.00     0.070 C 
HETATM   15  N1  UNL     1      37.924 -14.971  25.776  1.00  0.00    -0.266 N 
ATOM     16  H1  UNL     1      37.661 -13.996  25.920  1.00  0.00     0.194 HD
BRANCH  14  17
HETATM   17  C2  UNL     1      36.700 -15.157  27.735  1.00  0.00    -0.042 C 
HETATM   18  C1  UNL     1      36.315 -15.842  28.741  1.00  0.00     0.021 C 
HETATM   19  C3  UNL     1      36.419 -13.694  27.610  1.00  0.00     0.050 C 
ENDBRANCH  14  17
BRANCH  15  20
HETATM   20  O1  UNL     1      38.683 -15.208  24.685  1.00  0.00    -0.277 OA
BRANCH  20  21
HETATM   21  C5  UNL     1      40.103 -15.552  24.951  1.00  0.00     0.233 C 
BRANCH  21  22
HETATM   22  C6  UNL     1      40.305 -16.714  24.075  1.00  0.00     0.149 C 
HETATM   23  C7  UNL     1      40.656 -18.084  24.515  1.00  0.00     0.060 C 
HETATM   24  C8  UNL     1      40.328 -18.259  22.979  1.00  0.00     0.171 C 
HETATM   25  O2  UNL     1      39.324 -17.249  23.268  1.00  0.00    -0.384 OA
ENDBRANCH  21  22
ENDBRANCH  20  21
ENDBRANCH  15  20
ENDBRANCH   1  14
BRANCH   9  26
HETATM   26  C18 UNL     1      40.943 -21.891  28.918  1.00  0.00     0.018 A 
HETATM   27  C19 UNL     1      42.311 -21.665  28.632  1.00  0.00     0.054 A 
HETATM   28  C20 UNL     1      43.311 -22.351  29.254  1.00  0.00     0.093 A 
HETATM   29  C22 UNL     1      42.955 -23.308  30.207  1.00  0.00     0.082 A 
HETATM   30  N3  UNL     1      44.034 -24.007  30.858  1.00  0.00    -0.099 NA
HETATM   31  C23 UNL     1      41.663 -23.552  30.506  1.00  0.00     0.066 A 
HETATM   32  C24 UNL     1      40.679 -22.846  29.863  1.00  0.00     0.079 A 
BRANCH  28  33
HETATM   33  O4  UNL     1      44.678 -22.144  28.983  1.00  0.00    -0.354 OA
HETATM   34  C21 UNL     1      45.259 -20.880  29.226  1.00  0.00     0.210 C 
ENDBRANCH  28  33
BRANCH  32  35
HETATM   35  O5  UNL     1      39.349 -23.093  30.170  1.00  0.00    -0.360 OA
ATOM     36  H5  UNL     1      38.978 -22.631  30.913  1.00  0.00     0.217 HD
ENDBRANCH  32  35
ENDBRANCH   9  26
BRANCH   8  37
HETATM   37  O3  UNL     1      39.551 -23.222  27.016  1.00  0.00    -0.328 OA
BRANCH  37  38
HETATM   38  C14 UNL     1      38.808 -24.000  26.041  1.00  0.00     0.150 A 
HETATM   39  C15 UNL     1      39.748 -25.005  25.335  1.00  0.00     0.057 A 
HETATM   40  C16 UNL     1      38.599 -25.424  26.254  1.00  0.00     0.114 A 
HETATM   41 CL1  UNL     1      37.258 -26.318  25.453  1.00  0.00    -0.122 Cl
ENDBRANCH  37  38
ENDBRANCH   8  37
TORSDOF 10
ENDMDL
MODEL 3
REMARK VINA RESULT: -7.672697690      3.946      6.854
REMARK  10 active torsions:
REMARK  status: ('A' for Active; 'I' for Inactive)
REMARK    1  A    between atoms: C2_2  and  C4_4 
REMARK    2  A    between atoms: C4_4  and  C9_13 
REMARK    3  A    between atoms: N1_5  and  O1_7 
REMARK    4  A    between atoms: O1_7  and  C5_8 
REMARK    5  A    between atoms: C5_8  and  C6_9 
REMARK    6  A    between atoms: C13_20  and  O3_21 
REMARK    7  A    between atoms: O3_21  and  C14_22 
REMARK    8  A    between atoms: C17_26  and  C18_27 
REMARK    9  A    between atoms: C20_29  and  O4_30 
REMARK   10  A    between atoms: C24_35  and  O5_36 
ROOT
HETATM    1  C9  UNL     1      38.305 -18.228  26.195  1.00  0.00    -0.005 A 
HETATM    2  C10 UNL     1      37.359 -19.122  25.757  1.00  0.00     0.035 A 
HETATM    3  C11 UNL     1      37.406 -20.483  25.996  1.00  0.00     0.039 A 
HETATM    4 BR1  UNL     1      36.079 -21.712  25.393  1.00  0.00    -0.049 Br
HETATM    5  C12 UNL     1      38.495 -20.965  26.734  1.00  0.00     0.066 A 
HETATM    6  N2  UNL     1      38.607 -22.285  26.942  1.00  0.00    -0.334 N 
ATOM      7  H2  UNL     1      37.876 -22.913  26.610  1.00  0.00     0.168 HD
HETATM    8  C13 UNL     1      39.661 -22.781  27.577  1.00  0.00     0.158 A 
HETATM    9  C17 UNL     1      40.724 -22.002  28.084  1.00  0.00     0.079 A 
HETATM   10  C25 UNL     1      40.602 -20.633  27.875  1.00  0.00     0.199 A 
HETATM   11  O6  UNL     1      41.489 -19.877  28.287  1.00  0.00    -0.286 OA
HETATM   12  C26 UNL     1      39.478 -20.127  27.198  1.00  0.00     0.044 A 
HETATM   13  C27 UNL     1      39.380 -18.747  26.931  1.00  0.00     0.031 A 
ENDROOT
BRANCH   1  14
HETATM   14  C4  UNL     1      38.366 -16.842  25.807  1.00  0.00     0.070 C 
HETATM   15  N1  UNL     1      37.740 -15.867  26.319  1.00  0.00    -0.266 N 
ATOM     16  H1  UNL     1      38.020 -14.945  25.984  1.00  0.00     0.194 HD
BRANCH  14  17
HETATM   17  C2  UNL     1      39.377 -16.461  24.791  1.00  0.00    -0.042 C 
HETATM   18  C1  UNL     1      40.388 -15.749  25.110  1.00  0.00     0.021 C 
HETATM   19  C3  UNL     1      39.173 -16.982  23.405  1.00  0.00     0.050 C 
ENDBRANCH  14  17
BRANCH  15  20
HETATM   20  O1  UNL     1      36.756 -15.870  27.244  1.00  0.00    -0.277 OA
BRANCH  20  21
HETATM   21  C5  UNL     1      37.157 -15.451  28.612  1.00  0.00     0.233 C 
BRANCH  21  22
HETATM   22  C6  UNL     1      35.942 -14.781  29.094  1.00  0.00     0.149 C 
HETATM   23  C7  UNL     1      35.278 -13.621  28.455  1.00  0.00     0.060 C 
HETATM   24  C8  UNL     1      34.253 -14.070  29.571  1.00  0.00     0.171 C 
HETATM   25  O2  UNL     1      34.714 -15.397  29.199  1.00  0.00    -0.384 OA
ENDBRANCH  21  22
ENDBRANCH  20  21
ENDBRANCH  15  20
ENDBRANCH   1  14
BRANCH   9  26
HETATM   26  C18 UNL     1      41.834 -22.651  28.742  1.00  0.00     0.018 A 
HETATM   27  C19 UNL     1      42.904 -23.102  27.932  1.00  0.00     0.054 A 
HETATM   28  C20 UNL     1      43.961 -23.798  28.439  1.00  0.00     0.093 A 
HETATM   29  C22 UNL     1      43.973 -24.066  29.809  1.00  0.00     0.082 A 
HETATM   30  N3  UNL     1      45.110 -24.790  30.318  1.00  0.00    -0.099 NA
HETATM   31  C23 UNL     1      42.972 -23.653  30.613  1.00  0.00     0.066 A 
HETATM   32  C24 UNL     1      41.922 -22.955  30.075  1.00  0.00     0.079 A 
BRANCH  28  33
HETATM   33  O4  UNL     1      45.034 -24.259  27.651  1.00  0.00    -0.354 OA
HETATM   34  C21 UNL     1      45.926 -23.332  27.067  1.00  0.00     0.210 C 
ENDBRANCH  28  33
BRANCH  32  35
HETATM   35  O5  UNL     1      40.892 -22.526  30.898  1.00  0.00    -0.360 OA
ATOM     36  H5  UNL     1      41.128 -22.026  31.671  1.00  0.00     0.217 HD
ENDBRANCH  32  35
ENDBRANCH   9  26
BRANCH   8  37
HETATM   37  O3  UNL     1      39.804 -24.171  27.796  1.00  0.00    -0.328 OA
BRANCH  37  38
HETATM   38  C14 UNL     1      40.025 -25.014  26.636  1.00  0.00     0.150 A 
HETATM   39  C15 UNL     1      40.302 -26.469  27.083  1.00  0.00     0.057 A 
HETATM   40  C16 UNL     1      39.061 -26.048  26.294  1.00  0.00     0.114 A 
HETATM   41 CL1  UNL     1      38.940 -26.721  24.629  1.00  0.00    -0.122 Cl
ENDBRANCH  37  38
ENDBRANCH   8  37
TORSDOF 10
ENDMDL
MODEL 4
REMARK VINA RESULT: -7.573884663      3.065      5.166
REMARK  10 active torsions:
REMARK  status: ('A' for Active; 'I' for Inactive)
REMARK    1  A    between atoms: C2_2  and  C4_4 
REMARK    2  A    between atoms: C4_4  and  C9_13 
REMARK    3  A    between atoms: N1_5  and  O1_7 
REMARK    4  A    between atoms: O1_7  and  C5_8 
REMARK    5  A    between atoms: C5_8  and  C6_9 
REMARK    6  A    between atoms: C13_20  and  O3_21 
REMARK    7  A    between atoms: O3_21  and  C14_22 
REMARK    8  A    between atoms: C17_26  and  C18_27 
REMARK    9  A    between atoms: C20_29  and  O4_30 
REMARK   10  A    between atoms: C24_35  and  O5_36 
ROOT
HETATM    1  C9  UNL     1      38.003 -17.539  24.889  1.00  0.00    -0.005 A 
HETATM    2  C10 UNL     1      36.983 -18.131  24.186  1.00  0.00     0.035 A 
HETATM    3  C11 UNL     1      36.691 -19.482  24.229  1.00  0.00     0.039 A 
HETATM    4 BR1  UNL     1      35.264 -20.291  23.258  1.00  0.00    -0.049 Br
HETATM    5  C12 UNL     1      37.497 -20.284  25.047  1.00  0.00     0.066 A 
HETATM    6  N2  UNL     1      37.284 -21.607  25.077  1.00  0.00    -0.334 N 
ATOM      7  H2  UNL     1      36.507 -22.005  24.548  1.00  0.00     0.168 HD
HETATM    8  C13 UNL     1      38.072 -22.404  25.787  1.00  0.00     0.158 A 
HETATM    9  C17 UNL     1      39.168 -21.957  26.558  1.00  0.00     0.079 A 
HETATM   10  C25 UNL     1      39.383 -20.584  26.534  1.00  0.00     0.199 A 
HETATM   11  O6  UNL     1      40.321 -20.107  27.182  1.00  0.00    -0.286 OA
HETATM   12  C26 UNL     1      38.536 -19.757  25.773  1.00  0.00     0.044 A 
HETATM   13  C27 UNL     1      38.789 -18.372  25.697  1.00  0.00     0.031 A 
ENDROOT
BRANCH   1  14
HETATM   14  C4  UNL     1      38.431 -16.173  24.720  1.00  0.00     0.070 C 
HETATM   15  N1  UNL     1      38.019 -15.151  25.345  1.00  0.00    -0.266 N 
ATOM     16  H1  UNL     1      38.542 -14.293  25.168  1.00  0.00     0.194 HD
BRANCH  14  17
HETATM   17  C2  UNL     1      39.585 -15.925  23.822  1.00  0.00    -0.042 C 
HETATM   18  C1  UNL     1      40.752 -15.719  24.298  1.00  0.00     0.021 C 
HETATM   19  C3  UNL     1      39.320 -15.970  22.352  1.00  0.00     0.050 C 
ENDBRANCH  14  17
BRANCH  15  20
HETATM   20  O1  UNL     1      36.991 -15.032  26.212  1.00  0.00    -0.277 OA
BRANCH  20  21
HETATM   21  C5  UNL     1      37.264 -14.221  27.426  1.00  0.00     0.233 C 
BRANCH  21  22
HETATM   22  C6  UNL     1      37.410 -15.257  28.458  1.00  0.00     0.149 C 
HETATM   23  C7  UNL     1      36.382 -16.253  28.841  1.00  0.00     0.060 C 
HETATM   24  C8  UNL     1      37.676 -16.738  29.609  1.00  0.00     0.171 C 
HETATM   25  O2  UNL     1      38.340 -16.272  28.403  1.00  0.00    -0.384 OA
ENDBRANCH  21  22
ENDBRANCH  20  21
ENDBRANCH  15  20
ENDBRANCH   1  14
BRANCH   9  26
HETATM   26  C18 UNL     1      39.973 -22.916  27.277  1.00  0.00     0.018 A 
HETATM   27  C19 UNL     1      40.697 -23.865  26.518  1.00  0.00     0.054 A 
HETATM   28  C20 UNL     1      41.422 -24.865  27.096  1.00  0.00     0.093 A 
HETATM   29  C22 UNL     1      41.441 -24.938  28.490  1.00  0.00     0.082 A 
HETATM   30  N3  UNL     1      42.228 -25.996  29.072  1.00  0.00    -0.099 NA
HETATM   31  C23 UNL     1      40.763 -24.053  29.248  1.00  0.00     0.066 A 
HETATM   32  C24 UNL     1      40.042 -23.059  28.638  1.00  0.00     0.079 A 
BRANCH  28  33
HETATM   33  O4  UNL     1      42.148 -25.821  26.359  1.00  0.00    -0.354 OA
HETATM   34  C21 UNL     1      41.461 -26.757  25.553  1.00  0.00     0.210 C 
ENDBRANCH  28  33
BRANCH  32  35
HETATM   35  O5  UNL     1      39.346 -22.144  29.414  1.00  0.00    -0.360 OA
ATOM     36  H5  UNL     1      39.623 -21.237  29.376  1.00  0.00     0.217 HD
ENDBRANCH  32  35
ENDBRANCH   9  26
BRANCH   8  37
HETATM   37  O3  UNL     1      37.870 -23.802  25.822  1.00  0.00    -0.328 OA
BRANCH  37  38
HETATM   38  C14 UNL     1      37.284 -24.426  24.648  1.00  0.00     0.150 A 
HETATM   39  C15 UNL     1      37.042 -25.931  24.912  1.00  0.00     0.057 A 
HETATM   40  C16 UNL     1      35.916 -24.917  24.693  1.00  0.00     0.114 A 
HETATM   41 CL1  UNL     1      34.944 -25.156  23.197  1.00  0.00    -0.122 Cl
ENDBRANCH  37  38
ENDBRANCH   8  37
TORSDOF 10
ENDMDL
MODEL 5
REMARK VINA RESULT: -7.555956192      1.464      3.184
REMARK  10 active torsions:
REMARK  status: ('A' for Active; 'I' for Inactive)
REMARK    1  A    between atoms: C2_2  and  C4_4 
REMARK    2  A    between atoms: C4_4  and  C9_13 
REMARK    3  A    between atoms: N1_5  and  O1_7 
REMARK    4  A    between atoms: O1_7  and  C5_8 
REMARK    5  A    between atoms: C5_8  and  C6_9 
REMARK    6  A    between atoms: C13_20  and  O3_21 
REMARK    7  A    between atoms: O3_21  and  C14_22 
REMARK    8  A    between atoms: C17_26  and  C18_27 
REMARK    9  A    between atoms: C20_29  and  O4_30 
REMARK   10  A    between atoms: C24_35  and  O5_36 
ROOT
HETATM    1  C9  UNL     1      37.638 -17.706  25.950  1.00  0.00    -0.005 A 
HETATM    2  C10 UNL     1      38.056 -17.284  24.713  1.00  0.00     0.035 A 
HETATM    3  C11 UNL     1      37.900 -18.013  23.548  1.00  0.00     0.039 A 
HETATM    4 BR1  UNL     1      38.473 -17.409  21.834  1.00  0.00    -0.049 Br
HETATM    5  C12 UNL     1      37.272 -19.261  23.656  1.00  0.00     0.066 A 
HETATM    6  N2  UNL     1      37.148 -20.024  22.560  1.00  0.00    -0.334 N 
ATOM      7  H2  UNL     1      37.462 -19.667  21.658  1.00  0.00     0.168 HD
HETATM    8  C13 UNL     1      36.621 -21.239  22.639  1.00  0.00     0.158 A 
HETATM    9  C17 UNL     1      36.150 -21.826  23.834  1.00  0.00     0.079 A 
HETATM   10  C25 UNL     1      36.271 -21.030  24.967  1.00  0.00     0.199 A 
HETATM   11  O6  UNL     1      35.882 -21.466  26.057  1.00  0.00    -0.286 OA
HETATM   12  C26 UNL     1      36.834 -19.745  24.863  1.00  0.00     0.044 A 
HETATM   13  C27 UNL     1      37.014 -18.960  26.019  1.00  0.00     0.031 A 
ENDROOT
BRANCH   1  14
HETATM   14  C4  UNL     1      37.950 -17.045  27.192  1.00  0.00     0.070 C 
HETATM   15  N1  UNL     1      37.470 -15.958  27.631  1.00  0.00    -0.266 N 
ATOM     16  H1  UNL     1      37.725 -15.725  28.591  1.00  0.00     0.194 HD
BRANCH  14  17
HETATM   17  C2  UNL     1      38.819 -17.768  28.152  1.00  0.00    -0.042 C 
HETATM   18  C1  UNL     1      38.557 -17.767  29.401  1.00  0.00     0.021 C 
HETATM   19  C3  UNL     1      39.978 -18.520  27.580  1.00  0.00     0.050 C 
ENDBRANCH  14  17
BRANCH  15  20
HETATM   20  O1  UNL     1      36.670 -15.063  27.014  1.00  0.00    -0.277 OA
BRANCH  20  21
HETATM   21  C5  UNL     1      36.475 -13.774  27.728  1.00  0.00     0.233 C 
BRANCH  21  22
HETATM   22  C6  UNL     1      35.558 -14.160  28.809  1.00  0.00     0.149 C 
HETATM   23  C7  UNL     1      34.244 -13.540  29.097  1.00  0.00     0.060 C 
HETATM   24  C8  UNL     1      34.274 -14.807  30.041  1.00  0.00     0.171 C 
HETATM   25  O2  UNL     1      34.969 -15.401  28.912  1.00  0.00    -0.384 OA
ENDBRANCH  21  22
ENDBRANCH  20  21
ENDBRANCH  15  20
ENDBRANCH   1  14
BRANCH   9  26
HETATM   26  C18 UNL     1      35.613 -23.166  23.808  1.00  0.00     0.018 A 
HETATM   27  C19 UNL     1      36.387 -24.194  24.397  1.00  0.00     0.054 A 
HETATM   28  C20 UNL     1      36.014 -25.505  24.356  1.00  0.00     0.093 A 
HETATM   29  C22 UNL     1      34.820 -25.826  23.706  1.00  0.00     0.082 A 
HETATM   30  N3  UNL     1      34.445 -27.218  23.691  1.00  0.00    -0.099 NA
HETATM   31  C23 UNL     1      34.057 -24.875  23.132  1.00  0.00     0.066 A 
HETATM   32  C24 UNL     1      34.458 -23.565  23.189  1.00  0.00     0.079 A 
BRANCH  28  33
HETATM   33  O4  UNL     1      36.770 -26.544  24.933  1.00  0.00    -0.354 OA
HETATM   34  C21 UNL     1      38.034 -26.263  25.496  1.00  0.00     0.210 C 
ENDBRANCH  28  33
BRANCH  32  35
HETATM   35  O5  UNL     1      33.673 -22.583  22.602  1.00  0.00    -0.360 OA
ATOM     36  H5  UNL     1      33.787 -21.691  22.908  1.00  0.00     0.217 HD
ENDBRANCH  32  35
ENDBRANCH   9  26
BRANCH   8  37
HETATM   37  O3  UNL     1      36.492 -22.063  21.498  1.00  0.00    -0.328 OA
BRANCH  37  38
HETATM   38  C14 UNL     1      37.682 -22.749  21.027  1.00  0.00     0.150 A 
HETATM   39  C15 UNL     1      37.341 -24.213  20.662  1.00  0.00     0.057 A 
HETATM   40  C16 UNL     1      37.779 -23.165  19.637  1.00  0.00     0.114 A 
HETATM   41 CL1  UNL     1      39.366 -23.476  18.846  1.00  0.00    -0.122 Cl
ENDBRANCH  37  38
ENDBRANCH   8  37
TORSDOF 10
ENDMDL
