MODEL 1
REMARK VINA RESULT: -7.920327501      0.000      0.000
REMARK  9 active torsions:
REMARK  status: ('A' for Active; 'I' for Inactive)
REMARK    1  A    between atoms: C2_2  and  C3_3 
REMARK    2  A    between atoms: C8_8  and  O1_9 
REMARK    3  A    between atoms: C12_18  and  S2_19 
REMARK    4  A    between atoms: S2_19  and  C13_20 
REMARK    5  A    between atoms: C20_30  and  C21_31 
REMARK    6  A    between atoms: C21_31  and  N3_32 
REMARK    7  A    between atoms: N3_32  and  C22_35 
REMARK    8  A    between atoms: C22_35  and  C23_36 
REMARK    9  A    between atoms: C23_36  and  O3_37 
ROOT
HETATM    1  C3  UNL     1      42.621 -21.594  28.442  1.00  0.00     0.137 C 
HETATM    2  C4  UNL     1      42.168 -21.913  27.049  1.00  0.00     0.066 C 
HETATM    3  C5  UNL     1      41.560 -20.770  26.334  1.00  0.00     0.047 C 
HETATM    4  C6  UNL     1      40.756 -19.949  27.257  1.00  0.00    -0.010 A 
HETATM    5  C7  UNL     1      40.704 -20.122  28.627  1.00  0.00     0.076 A 
HETATM    6  C8  UNL     1      39.975 -19.339  29.449  1.00  0.00     0.121 A 
HETATM    7  C9  UNL     1      39.195 -18.266  28.950  1.00  0.00     0.090 A 
HETATM    8  N1  UNL     1      38.447 -17.441  29.649  1.00  0.00    -0.314 N 
ATOM      9  H1  UNL     1      38.381 -17.532  30.662  1.00  0.00     0.170 HD
HETATM   10  C10 UNL     1      37.777 -16.483  29.008  1.00  0.00     0.289 A 
HETATM   11  O2  UNL     1      37.003 -15.596  29.533  1.00  0.00    -0.260 OA
HETATM   12  S1  UNL     1      38.197 -16.734  27.382  1.00  0.00    -0.025 SA
HETATM   13  C11 UNL     1      39.239 -18.087  27.596  1.00  0.00     0.057 A 
HETATM   14  C12 UNL     1      39.990 -18.891  26.748  1.00  0.00     0.034 A 
HETATM   15  N2  UNL     1      41.440 -21.211  29.236  1.00  0.00    -0.346 N 
HETATM   16  C19 UNL     1      41.153 -21.888  30.402  1.00  0.00     0.135 C 
HETATM   17  C20 UNL     1      41.288 -23.421  30.163  1.00  0.00     0.058 C 
HETATM   18  C25 UNL     1      42.419 -23.740  29.263  1.00  0.00     0.128 C 
HETATM   19  C26 UNL     1      43.297 -24.833  29.894  1.00  0.00     0.040 C 
HETATM   20  O4  UNL     1      43.276 -22.671  29.038  1.00  0.00    -0.355 OA
ENDROOT
BRANCH  14  21
HETATM   21  S2  UNL     1      39.988 -18.591  25.018  1.00  0.00    -0.087 SA
BRANCH  21  22
HETATM   22  C13 UNL     1      38.453 -18.869  24.208  1.00  0.00     0.023 A 
HETATM   23  C14 UNL     1      37.606 -19.851  24.668  1.00  0.00     0.023 A 
HETATM   24  C15 UNL     1      36.396 -20.061  24.064  1.00  0.00     0.044 A 
HETATM   25  C16 UNL     1      36.022 -19.271  22.977  1.00  0.00     0.117 A 
HETATM   26  F1  UNL     1      34.817 -19.493  22.392  1.00  0.00    -0.206 F 
HETATM   27  C17 UNL     1      36.873 -18.290  22.519  1.00  0.00     0.062 A 
HETATM   28  C18 UNL     1      38.091 -18.083  23.131  1.00  0.00     0.031 A 
HETATM   29 BR1  UNL     1      39.234 -16.712  22.463  1.00  0.00    -0.050 Br
ENDBRANCH  21  22
ENDBRANCH  14  21
BRANCH   6  30
HETATM   30  O1  UNL     1      40.001 -19.602  30.807  1.00  0.00    -0.356 OA
ATOM     31  H1  UNL     1      40.538 -19.052  31.366  1.00  0.00     0.218 HD
ENDBRANCH   6  30
BRANCH   1  32
HETATM   32  C2  UNL     1      43.623 -20.468  28.409  1.00  0.00     0.057 C 
HETATM   33  C1  UNL     1      44.563 -20.515  29.596  1.00  0.00     0.010 C 
ENDBRANCH   1  32
BRANCH  17  34
HETATM   34  C21 UNL     1      40.027 -24.010  29.627  1.00  0.00     0.241 C 
BRANCH  34  35
HETATM   35  N3  UNL     1      40.209 -24.287  28.234  1.00  0.00    -0.073 N 
ATOM     36  H32 UNL     1      39.912 -23.502  27.653  1.00  0.00     0.277 HD
ATOM     37  H31 UNL     1      41.197 -24.303  27.981  1.00  0.00     0.277 HD
BRANCH  35  38
HETATM   38  C22 UNL     1      39.551 -25.496  27.861  1.00  0.00     0.258 C 
BRANCH  38  39
HETATM   39  C23 UNL     1      40.493 -26.637  27.590  1.00  0.00     0.194 C 
BRANCH  39  40
HETATM   40  O3  UNL     1      40.368 -27.609  28.574  1.00  0.00    -0.394 OA
HETATM   41  C24 UNL     1      41.578 -28.000  29.125  1.00  0.00     0.201 C 
ENDBRANCH  39  40
ENDBRANCH  38  39
ENDBRANCH  35  38
ENDBRANCH  34  35
ENDBRANCH  17  34
TORSDOF 9
ENDMDL
MODEL 2
REMARK VINA RESULT: -7.855667598      1.091      1.482
REMARK  9 active torsions:
REMARK  status: ('A' for Active; 'I' for Inactive)
REMARK    1  A    between atoms: C2_2  and  C3_3 
REMARK    2  A    between atoms: C8_8  and  O1_9 
REMARK    3  A    between atoms: C12_18  and  S2_19 
REMARK    4  A    between atoms: S2_19  and  C13_20 
REMARK    5  A    between atoms: C20_30  and  C21_31 
REMARK    6  A    between atoms: C21_31  and  N3_32 
REMARK    7  A    between atoms: N3_32  and  C22_35 
REMARK    8  A    between atoms: C22_35  and  C23_36 
REMARK    9  A    between atoms: C23_36  and  O3_37 
ROOT
HETATM    1  C3  UNL     1      42.647 -21.672  28.313  1.00  0.00     0.137 C 
HETATM    2  C4  UNL     1      42.193 -21.949  26.912  1.00  0.00     0.066 C 
HETATM    3  C5  UNL     1      41.596 -20.782  26.227  1.00  0.00     0.047 C 
HETATM    4  C6  UNL     1      40.799 -19.978  27.171  1.00  0.00    -0.010 A 
HETATM    5  C7  UNL     1      40.743 -20.187  28.535  1.00  0.00     0.076 A 
HETATM    6  C8  UNL     1      40.021 -19.419  29.377  1.00  0.00     0.121 A 
HETATM    7  C9  UNL     1      39.251 -18.326  28.906  1.00  0.00     0.090 A 
HETATM    8  N1  UNL     1      38.511 -17.513  29.626  1.00  0.00    -0.314 N 
ATOM      9  H1  UNL     1      38.443 -17.630  30.636  1.00  0.00     0.170 HD
HETATM   10  C10 UNL     1      37.850 -16.532  29.010  1.00  0.00     0.289 A 
HETATM   11  O2  UNL     1      37.083 -15.653  29.557  1.00  0.00    -0.260 OA
HETATM   12  S1  UNL     1      38.270 -16.744  27.378  1.00  0.00    -0.025 SA
HETATM   13  C11 UNL     1      39.299 -18.112  27.557  1.00  0.00     0.057 A 
HETATM   14  C12 UNL     1      40.043 -18.900  26.689  1.00  0.00     0.034 A 
HETATM   15  N2  UNL     1      41.469 -21.299  29.116  1.00  0.00    -0.346 N 
HETATM   16  C19 UNL     1      41.174 -22.003  30.264  1.00  0.00     0.135 C 
HETATM   17  C20 UNL     1      41.295 -23.531  29.984  1.00  0.00     0.058 C 
HETATM   18  C25 UNL     1      42.424 -23.837  29.077  1.00  0.00     0.128 C 
HETATM   19  C26 UNL     1      43.292 -24.954  29.679  1.00  0.00     0.040 C 
HETATM   20  O4  UNL     1      43.291 -22.769  28.881  1.00  0.00    -0.355 OA
ENDROOT
BRANCH  14  21
HETATM   21  S2  UNL     1      40.046 -18.555  24.967  1.00  0.00    -0.087 SA
BRANCH  21  22
HETATM   22  C13 UNL     1      38.516 -18.818  24.144  1.00  0.00     0.023 A 
HETATM   23  C14 UNL     1      37.664 -19.805  24.585  1.00  0.00     0.023 A 
HETATM   24  C15 UNL     1      36.457 -20.004  23.972  1.00  0.00     0.044 A 
HETATM   25  C16 UNL     1      36.091 -19.198  22.894  1.00  0.00     0.117 A 
HETATM   26  F1  UNL     1      34.889 -19.409  22.298  1.00  0.00    -0.206 F 
HETATM   27  C17 UNL     1      36.946 -18.212  22.455  1.00  0.00     0.062 A 
HETATM   28  C18 UNL     1      38.161 -18.016  23.077  1.00  0.00     0.031 A 
HETATM   29 BR1  UNL     1      39.310 -16.638  22.435  1.00  0.00    -0.050 Br
ENDBRANCH  21  22
ENDBRANCH  14  21
BRANCH   6  30
HETATM   30  O1  UNL     1      40.043 -19.718  30.728  1.00  0.00    -0.356 OA
ATOM     31  H1  UNL     1      40.049 -20.631  30.990  1.00  0.00     0.218 HD
ENDBRANCH   6  30
BRANCH   1  32
HETATM   32  C2  UNL     1      43.660 -20.555  28.311  1.00  0.00     0.057 C 
HETATM   33  C1  UNL     1      44.549 -20.598  29.537  1.00  0.00     0.010 C 
ENDBRANCH   1  32
BRANCH  17  34
HETATM   34  C21 UNL     1      40.029 -24.094  29.431  1.00  0.00     0.241 C 
BRANCH  34  35
HETATM   35  N3  UNL     1      40.298 -24.630  28.131  1.00  0.00    -0.073 N 
ATOM     36  H32 UNL     1      41.241 -24.399  27.818  1.00  0.00     0.277 HD
ATOM     37  H31 UNL     1      40.386 -25.646  28.155  1.00  0.00     0.277 HD
BRANCH  35  38
HETATM   38  C22 UNL     1      39.313 -24.210  27.189  1.00  0.00     0.258 C 
BRANCH  38  39
HETATM   39  C23 UNL     1      38.774 -25.329  26.341  1.00  0.00     0.194 C 
BRANCH  39  40
HETATM   40  O3  UNL     1      37.523 -24.995  25.841  1.00  0.00    -0.394 OA
HETATM   41  C24 UNL     1      37.432 -23.684  25.400  1.00  0.00     0.201 C 
ENDBRANCH  39  40
ENDBRANCH  38  39
ENDBRANCH  35  38
ENDBRANCH  34  35
ENDBRANCH  17  34
TORSDOF 9
ENDMDL
MODEL 3
REMARK VINA RESULT: -7.620194651      4.547      8.635
REMARK  9 active torsions:
REMARK  status: ('A' for Active; 'I' for Inactive)
REMARK    1  A    between atoms: C2_2  and  C3_3 
REMARK    2  A    between atoms: C8_8  and  O1_9 
REMARK    3  A    between atoms: C12_18  and  S2_19 
REMARK    4  A    between atoms: S2_19  and  C13_20 
REMARK    5  A    between atoms: C20_30  and  C21_31 
REMARK    6  A    between atoms: C21_31  and  N3_32 
REMARK    7  A    between atoms: N3_32  and  C22_35 
REMARK    8  A    between atoms: C22_35  and  C23_36 
REMARK    9  A    between atoms: C23_36  and  O3_37 
ROOT
HETATM    1  C3  UNL     1      39.436 -18.840  24.529  1.00  0.00     0.137 C 
HETATM    2  C4  UNL     1      40.388 -19.492  25.487  1.00  0.00     0.066 C 
HETATM    3  C5  UNL     1      40.404 -20.969  25.412  1.00  0.00     0.047 C 
HETATM    4  C6  UNL     1      39.047 -21.491  25.170  1.00  0.00    -0.010 A 
HETATM    5  C7  UNL     1      37.940 -20.714  24.889  1.00  0.00     0.076 A 
HETATM    6  C8  UNL     1      36.714 -21.223  24.650  1.00  0.00     0.121 A 
HETATM    7  C9  UNL     1      36.476 -22.620  24.674  1.00  0.00     0.090 A 
HETATM    8  N1  UNL     1      35.331 -23.230  24.459  1.00  0.00    -0.314 N 
ATOM      9  H1  UNL     1      34.489 -22.695  24.247  1.00  0.00     0.170 HD
HETATM   10  C10 UNL     1      35.291 -24.561  24.523  1.00  0.00     0.289 A 
HETATM   11  O2  UNL     1      34.261 -25.314  24.342  1.00  0.00    -0.260 OA
HETATM   12  S1  UNL     1      36.894 -24.982  24.893  1.00  0.00    -0.025 SA
HETATM   13  C11 UNL     1      37.564 -23.398  24.952  1.00  0.00     0.057 A 
HETATM   14  C12 UNL     1      38.828 -22.876  25.197  1.00  0.00     0.034 A 
HETATM   15  N2  UNL     1      38.069 -19.271  24.872  1.00  0.00    -0.346 N 
HETATM   16  C19 UNL     1      37.102 -18.325  25.140  1.00  0.00     0.135 C 
HETATM   17  C20 UNL     1      37.685 -17.240  26.094  1.00  0.00     0.058 C 
HETATM   18  C25 UNL     1      39.098 -16.932  25.780  1.00  0.00     0.128 C 
HETATM   19  C26 UNL     1      39.287 -15.411  25.658  1.00  0.00     0.040 C 
HETATM   20  O4  UNL     1      39.528 -17.450  24.565  1.00  0.00    -0.355 OA
ENDROOT
BRANCH  14  21
HETATM   21  S2  UNL     1      40.173 -23.948  25.548  1.00  0.00    -0.087 SA
BRANCH  21  22
HETATM   22  C13 UNL     1      40.306 -24.464  27.223  1.00  0.00     0.023 A 
HETATM   23  C14 UNL     1      40.039 -23.572  28.236  1.00  0.00     0.023 A 
HETATM   24  C15 UNL     1      40.112 -23.966  29.544  1.00  0.00     0.044 A 
HETATM   25  C16 UNL     1      40.460 -25.282  29.849  1.00  0.00     0.117 A 
HETATM   26  F1  UNL     1      40.527 -25.656  31.152  1.00  0.00    -0.206 F 
HETATM   27  C17 UNL     1      40.727 -26.172  28.832  1.00  0.00     0.062 A 
HETATM   28  C18 UNL     1      40.652 -25.769  27.516  1.00  0.00     0.031 A 
HETATM   29 BR1  UNL     1      41.030 -27.037  26.144  1.00  0.00    -0.050 Br
ENDBRANCH  21  22
ENDBRANCH  14  21
BRANCH   6  30
HETATM   30  O1  UNL     1      35.677 -20.349  24.374  1.00  0.00    -0.356 OA
ATOM     31  H1  UNL     1      34.860 -20.451  24.848  1.00  0.00     0.218 HD
ENDBRANCH   6  30
BRANCH   1  32
HETATM   32  C2  UNL     1      39.778 -19.240  23.116  1.00  0.00     0.057 C 
HETATM   33  C1  UNL     1      39.119 -18.331  22.098  1.00  0.00     0.010 C 
ENDBRANCH   1  32
BRANCH  17  34
HETATM   34  C21 UNL     1      37.555 -17.636  27.527  1.00  0.00     0.241 C 
BRANCH  34  35
HETATM   35  N3  UNL     1      36.498 -16.873  28.116  1.00  0.00    -0.073 N 
ATOM     36  H32 UNL     1      35.718 -16.750  27.470  1.00  0.00     0.277 HD
ATOM     37  H31 UNL     1      36.015 -17.400  28.844  1.00  0.00     0.277 HD
BRANCH  35  38
HETATM   38  C22 UNL     1      36.978 -15.622  28.605  1.00  0.00     0.258 C 
BRANCH  38  39
HETATM   39  C23 UNL     1      35.898 -14.590  28.786  1.00  0.00     0.194 C 
BRANCH  39  40
HETATM   40  O3  UNL     1      34.714 -15.197  29.183  1.00  0.00    -0.394 OA
HETATM   41  C24 UNL     1      33.809 -14.323  29.763  1.00  0.00     0.201 C 
ENDBRANCH  39  40
ENDBRANCH  38  39
ENDBRANCH  35  38
ENDBRANCH  34  35
ENDBRANCH  17  34
TORSDOF 9
ENDMDL
MODEL 4
REMARK VINA RESULT: -7.515536608      5.066      8.427
REMARK  9 active torsions:
REMARK  status: ('A' for Active; 'I' for Inactive)
REMARK    1  A    between atoms: C2_2  and  C3_3 
REMARK    2  A    between atoms: C8_8  and  O1_9 
REMARK    3  A    between atoms: C12_18  and  S2_19 
REMARK    4  A    between atoms: S2_19  and  C13_20 
REMARK    5  A    between atoms: C20_30  and  C21_31 
REMARK    6  A    between atoms: C21_31  and  N3_32 
REMARK    7  A    between atoms: N3_32  and  C22_35 
REMARK    8  A    between atoms: C22_35  and  C23_36 
REMARK    9  A    between atoms: C23_36  and  O3_37 
ROOT
HETATM    1  C3  UNL     1      39.463 -19.138  24.878  1.00  0.00     0.137 C 
HETATM    2  C4  UNL     1      39.705 -20.055  26.038  1.00  0.00     0.066 C 
HETATM    3  C5  UNL     1      39.234 -21.441  25.822  1.00  0.00     0.047 C 
HETATM    4  C6  UNL     1      37.972 -21.447  25.061  1.00  0.00    -0.010 A 
HETATM    5  C7  UNL     1      37.390 -20.333  24.487  1.00  0.00     0.076 A 
HETATM    6  C8  UNL     1      36.245 -20.375  23.776  1.00  0.00     0.121 A 
HETATM    7  C9  UNL     1      35.546 -21.590  23.569  1.00  0.00     0.090 A 
HETATM    8  N1  UNL     1      34.426 -21.754  22.899  1.00  0.00    -0.314 N 
ATOM      9  H1  UNL     1      33.964 -20.959  22.458  1.00  0.00     0.170 HD
HETATM   10  C10 UNL     1      33.907 -22.978  22.807  1.00  0.00     0.289 A 
HETATM   11  O2  UNL     1      32.824 -23.315  22.195  1.00  0.00    -0.260 OA
HETATM   12  S1  UNL     1      35.007 -23.935  23.677  1.00  0.00    -0.025 SA
HETATM   13  C11 UNL     1      36.113 -22.698  24.134  1.00  0.00     0.057 A 
HETATM   14  C12 UNL     1      37.293 -22.658  24.865  1.00  0.00     0.034 A 
HETATM   15  N2  UNL     1      38.009 -19.035  24.666  1.00  0.00    -0.346 N 
HETATM   16  C19 UNL     1      37.404 -17.796  24.669  1.00  0.00     0.135 C 
HETATM   17  C20 UNL     1      37.931 -16.962  25.875  1.00  0.00     0.058 C 
HETATM   18  C25 UNL     1      39.373 -17.194  26.117  1.00  0.00     0.128 C 
HETATM   19  C26 UNL     1      40.108 -15.849  26.228  1.00  0.00     0.040 C 
HETATM   20  O4  UNL     1      40.011 -17.874  25.088  1.00  0.00    -0.355 OA
ENDROOT
BRANCH  14  21
HETATM   21  S2  UNL     1      37.952 -24.130  25.558  1.00  0.00    -0.087 SA
BRANCH  21  22
HETATM   22  C13 UNL     1      38.665 -25.250  24.407  1.00  0.00     0.023 A 
HETATM   23  C14 UNL     1      39.814 -24.900  23.735  1.00  0.00     0.023 A 
HETATM   24  C15 UNL     1      40.396 -25.772  22.856  1.00  0.00     0.044 A 
HETATM   25  C16 UNL     1      39.819 -27.023  22.642  1.00  0.00     0.117 A 
HETATM   26  F1  UNL     1      40.410 -27.876  21.766  1.00  0.00    -0.206 F 
HETATM   27  C17 UNL     1      38.668 -27.370  23.315  1.00  0.00     0.062 A 
HETATM   28  C18 UNL     1      38.086 -26.487  24.200  1.00  0.00     0.031 A 
HETATM   29 BR1  UNL     1      36.496 -27.012  25.109  1.00  0.00    -0.050 Br
ENDBRANCH  21  22
ENDBRANCH  14  21
BRANCH   6  30
HETATM   30  O1  UNL     1      35.756 -19.196  23.242  1.00  0.00    -0.356 OA
ATOM     31  H1  UNL     1      35.238 -19.238  22.446  1.00  0.00     0.218 HD
ENDBRANCH   6  30
BRANCH   1  32
HETATM   32  C2  UNL     1      40.140 -19.682  23.646  1.00  0.00     0.057 C 
HETATM   33  C1  UNL     1      40.629 -18.574  22.735  1.00  0.00     0.010 C 
ENDBRANCH   1  32
BRANCH  17  34
HETATM   34  C21 UNL     1      37.154 -17.236  27.118  1.00  0.00     0.241 C 
BRANCH  34  35
HETATM   35  N3  UNL     1      37.722 -16.473  28.188  1.00  0.00    -0.073 N 
ATOM     36  H32 UNL     1      38.554 -16.923  28.570  1.00  0.00     0.277 HD
ATOM     37  H31 UNL     1      38.152 -15.613  27.848  1.00  0.00     0.277 HD
BRANCH  35  38
HETATM   38  C22 UNL     1      36.754 -16.211  29.203  1.00  0.00     0.258 C 
BRANCH  38  39
HETATM   39  C23 UNL     1      35.755 -15.151  28.824  1.00  0.00     0.194 C 
BRANCH  39  40
HETATM   40  O3  UNL     1      34.511 -15.447  29.365  1.00  0.00    -0.394 OA
HETATM   41  C24 UNL     1      33.800 -14.327  29.768  1.00  0.00     0.201 C 
ENDBRANCH  39  40
ENDBRANCH  38  39
ENDBRANCH  35  38
ENDBRANCH  34  35
ENDBRANCH  17  34
TORSDOF 9
ENDMDL
MODEL 5
REMARK VINA RESULT: -7.502016659      4.285      8.325
REMARK  9 active torsions:
REMARK  status: ('A' for Active; 'I' for Inactive)
REMARK    1  A    between atoms: C2_2  and  C3_3 
REMARK    2  A    between atoms: C8_8  and  O1_9 
REMARK    3  A    between atoms: C12_18  and  S2_19 
REMARK    4  A    between atoms: S2_19  and  C13_20 
REMARK    5  A    between atoms: C20_30  and  C21_31 
REMARK    6  A    between atoms: C21_31  and  N3_32 
REMARK    7  A    between atoms: N3_32  and  C22_35 
REMARK    8  A    between atoms: C22_35  and  C23_36 
REMARK    9  A    between atoms: C23_36  and  O3_37 
ROOT
HETATM    1  C3  UNL     1      39.683 -19.176  25.186  1.00  0.00     0.137 C 
HETATM    2  C4  UNL     1      40.588 -19.955  26.091  1.00  0.00     0.066 C 
HETATM    3  C5  UNL     1      40.534 -21.419  25.885  1.00  0.00     0.047 C 
HETATM    4  C6  UNL     1      39.158 -21.851  25.582  1.00  0.00    -0.010 A 
HETATM    5  C7  UNL     1      38.094 -20.998  25.360  1.00  0.00     0.076 A 
HETATM    6  C8  UNL     1      36.849 -21.424  25.063  1.00  0.00     0.121 A 
HETATM    7  C9  UNL     1      36.543 -22.804  24.960  1.00  0.00     0.090 A 
HETATM    8  N1  UNL     1      35.374 -23.336  24.679  1.00  0.00    -0.314 N 
ATOM      9  H1  UNL     1      34.562 -22.743  24.506  1.00  0.00     0.170 HD
HETATM   10  C10 UNL     1      35.270 -24.664  24.623  1.00  0.00     0.289 A 
HETATM   11  O2  UNL     1      34.208 -25.346  24.365  1.00  0.00    -0.260 OA
HETATM   12  S1  UNL     1      36.845 -25.193  24.972  1.00  0.00    -0.025 SA
HETATM   13  C11 UNL     1      37.589 -23.656  25.179  1.00  0.00     0.057 A 
HETATM   14  C12 UNL     1      38.872 -23.220  25.483  1.00  0.00     0.034 A 
HETATM   15  N2  UNL     1      38.292 -19.567  25.474  1.00  0.00    -0.346 N 
HETATM   16  C19 UNL     1      37.368 -18.603  25.815  1.00  0.00     0.135 C 
HETATM   17  C20 UNL     1      37.987 -17.637  26.868  1.00  0.00     0.058 C 
HETATM   18  C25 UNL     1      39.418 -17.371  26.598  1.00  0.00     0.128 C 
HETATM   19  C26 UNL     1      39.681 -15.857  26.614  1.00  0.00     0.040 C 
HETATM   20  O4  UNL     1      39.841 -17.800  25.347  1.00  0.00    -0.355 OA
ENDROOT
BRANCH  14  21
HETATM   21  S2  UNL     1      40.159 -24.384  25.752  1.00  0.00    -0.087 SA
BRANCH  21  22
HETATM   22  C13 UNL     1      40.955 -24.278  27.315  1.00  0.00     0.023 A 
HETATM   23  C14 UNL     1      40.204 -24.303  28.468  1.00  0.00     0.023 A 
HETATM   24  C15 UNL     1      40.811 -24.249  29.692  1.00  0.00     0.044 A 
HETATM   25  C16 UNL     1      42.201 -24.168  29.770  1.00  0.00     0.117 A 
HETATM   26  F1  UNL     1      42.786 -24.116  30.994  1.00  0.00    -0.206 F 
HETATM   27  C17 UNL     1      42.950 -24.143  28.614  1.00  0.00     0.062 A 
HETATM   28  C18 UNL     1      42.333 -24.198  27.382  1.00  0.00     0.031 A 
HETATM   29 BR1  UNL     1      43.411 -24.160  25.812  1.00  0.00    -0.050 Br
ENDBRANCH  21  22
ENDBRANCH  14  21
BRANCH   6  30
HETATM   30  O1  UNL     1      35.859 -20.479  24.856  1.00  0.00    -0.356 OA
ATOM     31  H1  UNL     1      35.182 -20.664  24.216  1.00  0.00     0.218 HD
ENDBRANCH   6  30
BRANCH   1  32
HETATM   32  C2  UNL     1      40.026 -19.465  23.746  1.00  0.00     0.057 C 
HETATM   33  C1  UNL     1      39.596 -18.340  22.827  1.00  0.00     0.010 C 
ENDBRANCH   1  32
BRANCH  17  34
HETATM   34  C21 UNL     1      37.817 -18.152  28.258  1.00  0.00     0.241 C 
BRANCH  34  35
HETATM   35  N3  UNL     1      36.738 -17.443  28.877  1.00  0.00    -0.073 N 
ATOM     36  H32 UNL     1      35.899 -17.456  28.298  1.00  0.00     0.277 HD
ATOM     37  H31 UNL     1      36.376 -17.945  29.688  1.00  0.00     0.277 HD
BRANCH  35  38
HETATM   38  C22 UNL     1      37.124 -16.112  29.213  1.00  0.00     0.258 C 
BRANCH  38  39
HETATM   39  C23 UNL     1      36.102 -15.074  28.836  1.00  0.00     0.194 C 
BRANCH  39  40
HETATM   40  O3  UNL     1      34.835 -15.479  29.234  1.00  0.00    -0.394 OA
HETATM   41  C24 UNL     1      34.010 -14.432  29.613  1.00  0.00     0.201 C 
ENDBRANCH  39  40
ENDBRANCH  38  39
ENDBRANCH  35  38
ENDBRANCH  34  35
ENDBRANCH  17  34
TORSDOF 9
ENDMDL
