MODEL 1
REMARK VINA RESULT: -5.735959067      0.000      0.000
REMARK  4 active torsions:
REMARK  status: ('A' for Active; 'I' for Inactive)
REMARK    1  A    between atoms: C2_2  and  N2_6 
REMARK    2  A    between atoms: N2_6  and  C5_8 
REMARK    3  A    between atoms: C5_8  and  N3_10 
REMARK    4  A    between atoms: N3_10  and  C6_12 
ROOT
HETATM    1  C1  UNL     1       6.981 -17.643  -4.463  1.00  0.00     0.055 C 
HETATM    2  C2  UNL     1       5.780 -16.764  -4.206  1.00  0.00     0.114 C 
HETATM    3  C3  UNL     1       5.835 -16.311  -2.769  1.00  0.00     0.055 C 
HETATM    4  C4  UNL     1       4.594 -17.601  -4.398  1.00  0.00     0.090 C 
HETATM    5  N1  UNL     1       3.655 -18.241  -4.554  1.00  0.00    -0.195 NA
ENDROOT
BRANCH   2   6
HETATM    6  N2  UNL     1       5.788 -15.639  -5.084  1.00  0.00    -0.346 N 
ATOM      7  H2  UNL     1       6.461 -15.617  -5.850  1.00  0.00     0.163 HD
BRANCH   6   8
HETATM    8  C5  UNL     1       4.872 -14.525  -4.925  1.00  0.00     0.170 C 
HETATM    9  S1  UNL     1       3.405 -14.768  -5.592  1.00  0.00    -0.041 SA
BRANCH   8  10
HETATM   10  N3  UNL     1       5.277 -13.365  -4.248  1.00  0.00    -0.345 N 
ATOM     11  H3  UNL     1       5.465 -13.482  -3.252  1.00  0.00     0.163 HD
BRANCH  10  12
HETATM   12  C6  UNL     1       5.463 -12.043  -4.756  1.00  0.00     0.121 A 
HETATM   13  C7  UNL     1       6.204 -11.949  -6.053  1.00  0.00     0.091 C 
HETATM   14  N4  UNL     1       6.767 -11.881  -7.061  1.00  0.00    -0.195 NA
HETATM   15  C8  UNL     1       5.701 -10.922  -3.823  1.00  0.00     0.050 A 
HETATM   16  C9  UNL     1       4.419 -11.014  -4.622  1.00  0.00     0.050 A 
ENDBRANCH  10  12
ENDBRANCH   8  10
ENDBRANCH   6   8
ENDBRANCH   2   6
TORSDOF 4
ENDMDL
MODEL 2
REMARK VINA RESULT: -5.726594616      0.523      5.323
REMARK  4 active torsions:
REMARK  status: ('A' for Active; 'I' for Inactive)
REMARK    1  A    between atoms: C2_2  and  N2_6 
REMARK    2  A    between atoms: N2_6  and  C5_8 
REMARK    3  A    between atoms: C5_8  and  N3_10 
REMARK    4  A    between atoms: N3_10  and  C6_12 
ROOT
HETATM    1  C1  UNL     1       4.075 -11.203  -5.593  1.00  0.00     0.055 C 
HETATM    2  C2  UNL     1       5.266 -11.967  -5.064  1.00  0.00     0.114 C 
HETATM    3  C3  UNL     1       6.012 -11.064  -4.116  1.00  0.00     0.055 C 
HETATM    4  C4  UNL     1       6.122 -12.266  -6.213  1.00  0.00     0.090 C 
HETATM    5  N1  UNL     1       6.799 -12.516  -7.104  1.00  0.00    -0.195 NA
ENDROOT
BRANCH   2   6
HETATM    6  N2  UNL     1       4.840 -13.152  -4.392  1.00  0.00    -0.346 N 
ATOM      7  H2  UNL     1       4.761 -13.140  -3.375  1.00  0.00     0.163 HD
BRANCH   6   8
HETATM    8  C5  UNL     1       4.515 -14.373  -5.104  1.00  0.00     0.170 C 
HETATM    9  S1  UNL     1       3.041 -14.367  -5.800  1.00  0.00    -0.041 SA
BRANCH   8  10
HETATM   10  N3  UNL     1       5.432 -15.433  -5.150  1.00  0.00    -0.345 N 
ATOM     11  H3  UNL     1       6.198 -15.322  -5.815  1.00  0.00     0.163 HD
BRANCH  10  12
HETATM   12  C6  UNL     1       5.446 -16.647  -4.397  1.00  0.00     0.121 A 
HETATM   13  C7  UNL     1       4.259 -17.538  -4.587  1.00  0.00     0.091 C 
HETATM   14  N4  UNL     1       3.346 -18.229  -4.744  1.00  0.00    -0.195 NA
HETATM   15  C8  UNL     1       6.022 -16.662  -3.036  1.00  0.00     0.050 A 
HETATM   16  C9  UNL     1       6.692 -17.399  -4.175  1.00  0.00     0.050 A 
ENDBRANCH  10  12
ENDBRANCH   8  10
ENDBRANCH   6   8
ENDBRANCH   2   6
TORSDOF 4
ENDMDL
MODEL 3
REMARK VINA RESULT: -5.613858886      2.671      5.688
REMARK  4 active torsions:
REMARK  status: ('A' for Active; 'I' for Inactive)
REMARK    1  A    between atoms: C2_2  and  N2_6 
REMARK    2  A    between atoms: N2_6  and  C5_8 
REMARK    3  A    between atoms: C5_8  and  N3_10 
REMARK    4  A    between atoms: N3_10  and  C6_12 
ROOT
HETATM    1  C1  UNL     1       6.781  -8.046  -4.917  1.00  0.00     0.055 C 
HETATM    2  C2  UNL     1       6.757  -9.519  -4.581  1.00  0.00     0.114 C 
HETATM    3  C3  UNL     1       6.459  -9.653  -3.109  1.00  0.00     0.055 C 
HETATM    4  C4  UNL     1       8.100 -10.036  -4.845  1.00  0.00     0.090 C 
HETATM    5  N1  UNL     1       9.146 -10.459  -5.056  1.00  0.00    -0.195 NA
ENDROOT
BRANCH   2   6
HETATM    6  N2  UNL     1       5.763 -10.191  -5.354  1.00  0.00    -0.346 N 
ATOM      7  H2  UNL     1       5.669  -9.958  -6.343  1.00  0.00     0.163 HD
BRANCH   6   8
HETATM    8  C5  UNL     1       4.884 -11.193  -4.784  1.00  0.00     0.170 C 
HETATM    9  S1  UNL     1       3.327 -10.725  -4.668  1.00  0.00    -0.041 SA
BRANCH   8  10
HETATM   10  N3  UNL     1       5.392 -12.438  -4.383  1.00  0.00    -0.345 N 
ATOM     11  H3  UNL     1       5.762 -12.476  -3.434  1.00  0.00     0.163 HD
BRANCH  10  12
HETATM   12  C6  UNL     1       5.463 -13.661  -5.119  1.00  0.00     0.121 A 
HETATM   13  C7  UNL     1       6.318 -13.627  -6.346  1.00  0.00     0.091 C 
HETATM   14  N4  UNL     1       6.988 -13.601  -7.288  1.00  0.00    -0.195 NA
HETATM   15  C8  UNL     1       4.274 -14.532  -5.214  1.00  0.00     0.050 A 
HETATM   16  C9  UNL     1       5.497 -14.966  -4.437  1.00  0.00     0.050 A 
ENDBRANCH  10  12
ENDBRANCH   8  10
ENDBRANCH   6   8
ENDBRANCH   2   6
TORSDOF 4
ENDMDL
MODEL 4
REMARK VINA RESULT: -5.454744996      2.547      3.614
REMARK  4 active torsions:
REMARK  status: ('A' for Active; 'I' for Inactive)
REMARK    1  A    between atoms: C2_2  and  N2_6 
REMARK    2  A    between atoms: N2_6  and  C5_8 
REMARK    3  A    between atoms: C5_8  and  N3_10 
REMARK    4  A    between atoms: N3_10  and  C6_12 
ROOT
HETATM    1  C1  UNL     1       5.688 -15.045  -4.211  1.00  0.00     0.055 C 
HETATM    2  C2  UNL     1       5.160 -13.907  -5.053  1.00  0.00     0.114 C 
HETATM    3  C3  UNL     1       3.814 -14.317  -5.594  1.00  0.00     0.055 C 
HETATM    4  C4  UNL     1       6.092 -13.737  -6.168  1.00  0.00     0.090 C 
HETATM    5  N1  UNL     1       6.818 -13.584  -7.043  1.00  0.00    -0.195 NA
ENDROOT
BRANCH   2   6
HETATM    6  N2  UNL     1       5.041 -12.720  -4.269  1.00  0.00    -0.346 N 
ATOM      7  H2  UNL     1       5.056 -12.799  -3.252  1.00  0.00     0.163 HD
BRANCH   6   8
HETATM    8  C5  UNL     1       4.900 -11.406  -4.867  1.00  0.00     0.170 C 
HETATM    9  S1  UNL     1       3.377 -10.827  -4.852  1.00  0.00    -0.041 SA
BRANCH   8  10
HETATM   10  N3  UNL     1       6.018 -10.745  -5.398  1.00  0.00    -0.345 N 
ATOM     11  H3  UNL     1       6.234 -10.961  -6.371  1.00  0.00     0.163 HD
BRANCH  10  12
HETATM   12  C6  UNL     1       6.896  -9.811  -4.768  1.00  0.00     0.121 A 
HETATM   13  C7  UNL     1       8.351 -10.151  -4.828  1.00  0.00     0.091 C 
HETATM   14  N4  UNL     1       9.476 -10.411  -4.885  1.00  0.00    -0.195 NA
HETATM   15  C8  UNL     1       6.470  -9.119  -3.533  1.00  0.00     0.050 A 
HETATM   16  C9  UNL     1       6.647  -8.361  -4.830  1.00  0.00     0.050 A 
ENDBRANCH  10  12
ENDBRANCH   8  10
ENDBRANCH   6   8
ENDBRANCH   2   6
TORSDOF 4
ENDMDL
MODEL 5
REMARK VINA RESULT: -5.427969095      2.502      5.657
REMARK  4 active torsions:
REMARK  status: ('A' for Active; 'I' for Inactive)
REMARK    1  A    between atoms: C2_2  and  N2_6 
REMARK    2  A    between atoms: N2_6  and  C5_8 
REMARK    3  A    between atoms: C5_8  and  N3_10 
REMARK    4  A    between atoms: N3_10  and  C6_12 
ROOT
HETATM    1  C1  UNL     1       3.649 -12.507  -5.575  1.00  0.00     0.055 C 
HETATM    2  C2  UNL     1       5.013 -13.106  -5.326  1.00  0.00     0.114 C 
HETATM    3  C3  UNL     1       5.290 -13.030  -3.846  1.00  0.00     0.055 C 
HETATM    4  C4  UNL     1       5.980 -12.267  -6.035  1.00  0.00     0.090 C 
HETATM    5  N1  UNL     1       6.750 -11.626  -6.594  1.00  0.00    -0.195 NA
ENDROOT
BRANCH   2   6
HETATM    6  N2  UNL     1       5.052 -14.461  -5.771  1.00  0.00    -0.346 N 
ATOM      7  H2  UNL     1       5.584 -14.688  -6.612  1.00  0.00     0.163 HD
BRANCH   6   8
HETATM    8  C5  UNL     1       4.362 -15.528  -5.071  1.00  0.00     0.170 C 
HETATM    9  S1  UNL     1       5.322 -16.416  -4.098  1.00  0.00    -0.041 SA
BRANCH   8  10
HETATM   10  N3  UNL     1       2.986 -15.727  -5.261  1.00  0.00    -0.345 N 
ATOM     11  H3  UNL     1       2.391 -14.937  -5.013  1.00  0.00     0.163 HD
BRANCH  10  12
HETATM   12  C6  UNL     1       2.303 -16.881  -5.752  1.00  0.00     0.121 A 
HETATM   13  C7  UNL     1       1.037 -16.611  -6.502  1.00  0.00     0.091 C 
HETATM   14  N4  UNL     1       0.065 -16.398  -7.091  1.00  0.00    -0.195 NA
HETATM   15  C8  UNL     1       2.300 -18.128  -4.959  1.00  0.00     0.050 A 
HETATM   16  C9  UNL     1       3.038 -18.044  -6.276  1.00  0.00     0.050 A 
ENDBRANCH  10  12
ENDBRANCH   8  10
ENDBRANCH   6   8
ENDBRANCH   2   6
TORSDOF 4
ENDMDL
