MODEL 1
REMARK VINA RESULT: -7.347532644      0.000      0.000
REMARK  10 active torsions:
REMARK  status: ('A' for Active; 'I' for Inactive)
REMARK    1  A    between atoms: C2_2  and  O1_3 
REMARK    2  A    between atoms: O1_3  and  N1_4 
REMARK    3  A    between atoms: C3_6  and  C5_8 
REMARK       I    between atoms: C5_8  and  N2_10 
REMARK    4  A    between atoms: N2_10  and  C6_12 
REMARK    5  A    between atoms: C6_12  and  C7_13 
REMARK    6  A    between atoms: C6_12  and  C17_33 
REMARK       I    between atoms: C7_13  and  N3_15 
REMARK    7  A    between atoms: C12_20  and  C13_21 
REMARK    8  A    between atoms: C13_21  and  O4_22 
REMARK    9  A    between atoms: C13_21  and  N4_24 
REMARK       I    between atoms: N4_24  and  C14_26 
REMARK   10  A    between atoms: C14_26  and  C15_28 
REMARK       I    between atoms: C15_28  and  N5_30 
ROOT
HETATM    1  C7  UNL     1      -0.776  22.284  10.384  1.00  0.00     0.243 C 
HETATM    2  O3  UNL     1      -1.448  22.977   9.541  1.00  0.00    -0.271 OA
HETATM    3  N3  UNL     1      -0.721  22.745  11.710  1.00  0.00    -0.341 N 
HETATM    4  C8  UNL     1      -0.048  22.103  12.814  1.00  0.00     0.126 C 
HETATM    5  C9  UNL     1       1.040  22.979  13.424  1.00  0.00     0.020 C 
HETATM    6  C10 UNL     1       0.438  24.302  13.753  1.00  0.00     0.004 C 
HETATM    7  C11 UNL     1      -1.021  24.397  13.457  1.00  0.00     0.030 C 
HETATM    8  C12 UNL     1      -1.412  24.006  12.077  1.00  0.00     0.136 C 
ENDROOT
BRANCH   1   9
HETATM    9  C6  UNL     1      -0.115  21.069   9.936  1.00  0.00     0.181 C 
BRANCH   9  10
HETATM   10  N2  UNL     1      -1.036  20.213   9.172  1.00  0.00    -0.342 N 
HETATM   11  C5  UNL     1      -1.090  18.830   9.317  1.00  0.00     0.266 C 
HETATM   12  O2  UNL     1      -0.327  18.258  10.134  1.00  0.00    -0.266 OA
ATOM     13  H2  UNL     1      -1.666  20.655   8.502  1.00  0.00     0.163 HD
BRANCH  11  14
HETATM   14  C3  UNL     1      -2.015  18.036   8.537  1.00  0.00     0.095 C 
HETATM   15  N1  UNL     1      -1.648  17.000   7.861  1.00  0.00    -0.266 N 
ATOM     16  H1  UNL     1      -0.660  16.748   7.895  1.00  0.00     0.194 HD
HETATM   17  C4  UNL     1      -3.443  18.431   8.511  1.00  0.00     0.076 C 
BRANCH  15  18
HETATM   18  O1  UNL     1      -2.456  16.220   7.112  1.00  0.00    -0.281 OA
BRANCH  18  19
HETATM   19  C2  UNL     1      -2.558  16.161   5.725  1.00  0.00     0.196 C 
HETATM   20  C1  UNL     1      -3.989  16.503   5.333  1.00  0.00     0.036 C 
ENDBRANCH  18  19
ENDBRANCH  15  18
ENDBRANCH  11  14
ENDBRANCH   9  10
BRANCH   9  21
HETATM   21  C17 UNL     1       1.021  21.385   8.985  1.00  0.00     0.018 C 
HETATM   22  C18 UNL     1       1.553  22.794   9.298  1.00  0.00     0.007 C 
HETATM   23  C19 UNL     1       2.601  23.068   8.240  1.00  0.00     0.000 C 
HETATM   24  C20 UNL     1       3.782  22.195   8.516  1.00  0.00     0.000 C 
HETATM   25  C21 UNL     1       3.470  20.979   9.335  1.00  0.00     0.000 C 
HETATM   26  C22 UNL     1       2.122  20.383   9.021  1.00  0.00     0.007 C 
ENDBRANCH   9  21
ENDBRANCH   1   9
BRANCH   8  27
HETATM   27  C13 UNL     1      -2.920  23.718  12.115  1.00  0.00     0.243 C 
BRANCH  27  28
HETATM   28  O4  UNL     1      -3.444  24.182  13.321  1.00  0.00    -0.375 OA
ATOM     29  H4  UNL     1      -3.394  23.490  13.970  1.00  0.00     0.212 HD
ENDBRANCH  27  28
BRANCH  27  30
HETATM   30  N4  UNL     1      -3.530  24.458  11.033  1.00  0.00    -0.325 N 
HETATM   31  C14 UNL     1      -4.823  24.071  10.559  1.00  0.00     0.311 C 
HETATM   32  O5  UNL     1      -5.423  23.099  11.076  1.00  0.00    -0.262 OA
ATOM     33  H4  UNL     1      -3.042  25.249  10.612  1.00  0.00     0.165 HD
BRANCH  31  34
HETATM   34  C15 UNL     1      -5.455  24.793   9.476  1.00  0.00     0.309 C 
HETATM   35  O6  UNL     1      -5.131  25.970   9.175  1.00  0.00    -0.262 OA
HETATM   36  N5  UNL     1      -6.472  24.167   8.718  1.00  0.00    -0.357 N 
HETATM   37  C16 UNL     1      -7.147  24.840   7.614  1.00  0.00     0.149 C 
ATOM     38  H5  UNL     1      -6.743  23.212   8.952  1.00  0.00     0.162 HD
ENDBRANCH  31  34
ENDBRANCH  27  30
ENDBRANCH   8  27
TORSDOF 10
ENDMDL
MODEL 2
REMARK VINA RESULT: -6.854412492      1.888      2.083
REMARK  10 active torsions:
REMARK  status: ('A' for Active; 'I' for Inactive)
REMARK    1  A    between atoms: C2_2  and  O1_3 
REMARK    2  A    between atoms: O1_3  and  N1_4 
REMARK    3  A    between atoms: C3_6  and  C5_8 
REMARK       I    between atoms: C5_8  and  N2_10 
REMARK    4  A    between atoms: N2_10  and  C6_12 
REMARK    5  A    between atoms: C6_12  and  C7_13 
REMARK    6  A    between atoms: C6_12  and  C17_33 
REMARK       I    between atoms: C7_13  and  N3_15 
REMARK    7  A    between atoms: C12_20  and  C13_21 
REMARK    8  A    between atoms: C13_21  and  O4_22 
REMARK    9  A    between atoms: C13_21  and  N4_24 
REMARK       I    between atoms: N4_24  and  C14_26 
REMARK   10  A    between atoms: C14_26  and  C15_28 
REMARK       I    between atoms: C15_28  and  N5_30 
ROOT
HETATM    1  C7  UNL     1      -0.262  22.206  10.827  1.00  0.00     0.243 C 
HETATM    2  O3  UNL     1      -1.321  22.828  10.461  1.00  0.00    -0.271 OA
HETATM    3  N3  UNL     1       0.476  22.749  11.894  1.00  0.00    -0.341 N 
HETATM    4  C8  UNL     1       1.674  22.194  12.478  1.00  0.00     0.126 C 
HETATM    5  C9  UNL     1       2.866  23.136  12.367  1.00  0.00     0.020 C 
HETATM    6  C10 UNL     1       2.465  24.460  12.922  1.00  0.00     0.004 C 
HETATM    7  C11 UNL     1       1.075  24.495  13.463  1.00  0.00     0.030 C 
HETATM    8  C12 UNL     1       0.023  24.009  12.531  1.00  0.00     0.136 C 
ENDROOT
BRANCH   1   9
HETATM    9  C6  UNL     1       0.120  20.986  10.136  1.00  0.00     0.181 C 
BRANCH   9  10
HETATM   10  N2  UNL     1      -1.025  20.399   9.422  1.00  0.00    -0.342 N 
HETATM   11  C5  UNL     1      -1.237  19.028   9.316  1.00  0.00     0.266 C 
HETATM   12  O2  UNL     1      -0.428  18.228   9.847  1.00  0.00    -0.266 OA
ATOM     13  H2  UNL     1      -1.696  21.029   8.982  1.00  0.00     0.163 HD
BRANCH  11  14
HETATM   14  C3  UNL     1      -2.380  18.506   8.598  1.00  0.00     0.095 C 
HETATM   15  N1  UNL     1      -2.288  17.541   7.745  1.00  0.00    -0.266 N 
ATOM     16  H1  UNL     1      -1.361  17.145   7.590  1.00  0.00     0.194 HD
HETATM   17  C4  UNL     1      -3.712  19.105   8.849  1.00  0.00     0.076 C 
BRANCH  15  18
HETATM   18  O1  UNL     1      -3.310  17.011   7.041  1.00  0.00    -0.281 OA
BRANCH  18  19
HETATM   19  C2  UNL     1      -3.301  16.523   5.737  1.00  0.00     0.196 C 
HETATM   20  C1  UNL     1      -4.725  16.559   5.200  1.00  0.00     0.036 C 
ENDBRANCH  18  19
ENDBRANCH  15  18
ENDBRANCH  11  14
ENDBRANCH   9  10
BRANCH   9  21
HETATM   21  C17 UNL     1       1.158  21.264   9.070  1.00  0.00     0.018 C 
HETATM   22  C18 UNL     1       1.457  22.773   9.050  1.00  0.00     0.007 C 
HETATM   23  C19 UNL     1       2.413  22.974   7.893  1.00  0.00     0.000 C 
HETATM   24  C20 UNL     1       3.731  22.378   8.268  1.00  0.00     0.000 C 
HETATM   25  C21 UNL     1       3.650  21.332   9.338  1.00  0.00     0.000 C 
HETATM   26  C22 UNL     1       2.412  20.479   9.242  1.00  0.00     0.007 C 
ENDBRANCH   9  21
ENDBRANCH   1   9
BRANCH   8  27
HETATM   27  C13 UNL     1      -1.206  23.683  13.393  1.00  0.00     0.243 C 
BRANCH  27  28
HETATM   28  O4  UNL     1      -0.958  24.069  14.709  1.00  0.00    -0.375 OA
ATOM     29  H4  UNL     1      -0.881  25.016  14.747  1.00  0.00     0.212 HD
ENDBRANCH  27  28
BRANCH  27  30
HETATM   30  N4  UNL     1      -2.312  24.463  12.884  1.00  0.00    -0.325 N 
HETATM   31  C14 UNL     1      -3.533  24.520  13.628  1.00  0.00     0.311 C 
HETATM   32  O5  UNL     1      -3.644  23.899  14.712  1.00  0.00    -0.262 OA
ATOM     33  H4  UNL     1      -2.222  24.968  12.002  1.00  0.00     0.165 HD
BRANCH  31  34
HETATM   34  C15 UNL     1      -4.655  25.291  13.141  1.00  0.00     0.309 C 
HETATM   35  O6  UNL     1      -4.578  26.528  12.928  1.00  0.00    -0.262 OA
HETATM   36  N5  UNL     1      -5.888  24.647  12.886  1.00  0.00    -0.357 N 
HETATM   37  C16 UNL     1      -7.057  25.368  12.393  1.00  0.00     0.149 C 
ATOM     38  H5  UNL     1      -5.964  23.644  13.053  1.00  0.00     0.162 HD
ENDBRANCH  31  34
ENDBRANCH  27  30
ENDBRANCH   8  27
TORSDOF 10
ENDMDL
MODEL 3
REMARK VINA RESULT: -6.816385380      5.376      8.525
REMARK  10 active torsions:
REMARK  status: ('A' for Active; 'I' for Inactive)
REMARK    1  A    between atoms: C2_2  and  O1_3 
REMARK    2  A    between atoms: O1_3  and  N1_4 
REMARK    3  A    between atoms: C3_6  and  C5_8 
REMARK       I    between atoms: C5_8  and  N2_10 
REMARK    4  A    between atoms: N2_10  and  C6_12 
REMARK    5  A    between atoms: C6_12  and  C7_13 
REMARK    6  A    between atoms: C6_12  and  C17_33 
REMARK       I    between atoms: C7_13  and  N3_15 
REMARK    7  A    between atoms: C12_20  and  C13_21 
REMARK    8  A    between atoms: C13_21  and  O4_22 
REMARK    9  A    between atoms: C13_21  and  N4_24 
REMARK       I    between atoms: N4_24  and  C14_26 
REMARK   10  A    between atoms: C14_26  and  C15_28 
REMARK       I    between atoms: C15_28  and  N5_30 
ROOT
HETATM    1  C7  UNL     1      -8.751  22.601   9.239  1.00  0.00     0.243 C 
HETATM    2  O3  UNL     1      -9.635  21.680   9.352  1.00  0.00    -0.271 OA
HETATM    3  N3  UNL     1      -8.573  23.470  10.330  1.00  0.00    -0.341 N 
HETATM    4  C8  UNL     1      -7.618  24.548  10.421  1.00  0.00     0.126 C 
HETATM    5  C9  UNL     1      -8.285  25.904  10.616  1.00  0.00     0.020 C 
HETATM    6  C10 UNL     1      -9.213  25.800  11.779  1.00  0.00     0.004 C 
HETATM    7  C11 UNL     1      -9.203  24.466  12.446  1.00  0.00     0.030 C 
HETATM    8  C12 UNL     1      -9.414  23.306  11.541  1.00  0.00     0.136 C 
ENDROOT
BRANCH   1   9
HETATM    9  C6  UNL     1      -7.983  22.701   8.010  1.00  0.00     0.181 C 
BRANCH   9  10
HETATM   10  N2  UNL     1      -7.258  21.451   7.732  1.00  0.00    -0.342 N 
HETATM   11  C5  UNL     1      -6.145  21.037   8.457  1.00  0.00     0.266 C 
HETATM   12  O2  UNL     1      -5.715  21.745   9.401  1.00  0.00    -0.266 OA
ATOM     13  H2  UNL     1      -7.588  20.859   6.970  1.00  0.00     0.163 HD
BRANCH  11  14
HETATM   14  C3  UNL     1      -5.469  19.798   8.138  1.00  0.00     0.095 C 
HETATM   15  N1  UNL     1      -5.834  19.032   7.166  1.00  0.00    -0.266 N 
ATOM     16  H1  UNL     1      -6.635  19.336   6.611  1.00  0.00     0.194 HD
HETATM   17  C4  UNL     1      -4.309  19.389   8.965  1.00  0.00     0.076 C 
BRANCH  15  18
HETATM   18  O1  UNL     1      -5.252  17.866   6.818  1.00  0.00    -0.281 OA
BRANCH  18  19
HETATM   19  C2  UNL     1      -5.085  17.328   5.545  1.00  0.00     0.196 C 
HETATM   20  C1  UNL     1      -3.776  16.551   5.519  1.00  0.00     0.036 C 
ENDBRANCH  18  19
ENDBRANCH  15  18
ENDBRANCH  11  14
ENDBRANCH   9  10
BRANCH   9  21
HETATM   21  C17 UNL     1      -8.890  22.912   6.815  1.00  0.00     0.018 C 
HETATM   22  C18 UNL     1      -9.570  21.578   6.467  1.00  0.00     0.007 C 
HETATM   23  C19 UNL     1     -10.365  21.853   5.207  1.00  0.00     0.000 C 
HETATM   24  C20 UNL     1     -11.518  22.733   5.566  1.00  0.00     0.000 C 
HETATM   25  C21 UNL     1     -11.321  23.521   6.826  1.00  0.00     0.000 C 
HETATM   26  C22 UNL     1      -9.901  23.986   7.020  1.00  0.00     0.007 C 
ENDBRANCH   9  21
ENDBRANCH   1   9
BRANCH   8  27
HETATM   27  C13 UNL     1      -8.912  22.067  12.295  1.00  0.00     0.243 C 
BRANCH  27  28
HETATM   28  O4  UNL     1      -7.777  21.570  11.655  1.00  0.00    -0.375 OA
ATOM     29  H4  UNL     1      -7.058  21.536  12.276  1.00  0.00     0.212 HD
ENDBRANCH  27  28
BRANCH  27  30
HETATM   30  N4  UNL     1      -8.542  22.490  13.627  1.00  0.00    -0.325 N 
HETATM   31  C14 UNL     1      -8.520  21.531  14.689  1.00  0.00     0.311 C 
HETATM   32  O5  UNL     1      -8.820  20.334  14.468  1.00  0.00    -0.262 OA
ATOM     33  H4  UNL     1      -8.298  23.464  13.808  1.00  0.00     0.165 HD
BRANCH  31  34
HETATM   34  C15 UNL     1      -8.155  21.929  16.031  1.00  0.00     0.309 C 
HETATM   35  O6  UNL     1      -6.960  21.954  16.423  1.00  0.00    -0.262 OA
HETATM   36  N5  UNL     1      -9.164  22.309  16.947  1.00  0.00    -0.357 N 
HETATM   37  C16 UNL     1      -8.862  22.721  18.313  1.00  0.00     0.149 C 
ATOM     38  H5  UNL     1     -10.137  22.294  16.641  1.00  0.00     0.162 HD
ENDBRANCH  31  34
ENDBRANCH  27  30
ENDBRANCH   8  27
TORSDOF 10
ENDMDL
MODEL 4
REMARK VINA RESULT: -6.621953311      5.594      8.976
REMARK  10 active torsions:
REMARK  status: ('A' for Active; 'I' for Inactive)
REMARK    1  A    between atoms: C2_2  and  O1_3 
REMARK    2  A    between atoms: O1_3  and  N1_4 
REMARK    3  A    between atoms: C3_6  and  C5_8 
REMARK       I    between atoms: C5_8  and  N2_10 
REMARK    4  A    between atoms: N2_10  and  C6_12 
REMARK    5  A    between atoms: C6_12  and  C7_13 
REMARK    6  A    between atoms: C6_12  and  C17_33 
REMARK       I    between atoms: C7_13  and  N3_15 
REMARK    7  A    between atoms: C12_20  and  C13_21 
REMARK    8  A    between atoms: C13_21  and  O4_22 
REMARK    9  A    between atoms: C13_21  and  N4_24 
REMARK       I    between atoms: N4_24  and  C14_26 
REMARK   10  A    between atoms: C14_26  and  C15_28 
REMARK       I    between atoms: C15_28  and  N5_30 
ROOT
HETATM    1  C7  UNL     1      -9.428  22.807  10.055  1.00  0.00     0.243 C 
HETATM    2  O3  UNL     1     -10.197  21.946  10.613  1.00  0.00    -0.271 OA
HETATM    3  N3  UNL     1      -8.997  23.896  10.833  1.00  0.00    -0.341 N 
HETATM    4  C8  UNL     1      -8.111  24.954  10.410  1.00  0.00     0.126 C 
HETATM    5  C9  UNL     1      -8.766  26.328  10.486  1.00  0.00     0.020 C 
HETATM    6  C10 UNL     1      -9.323  26.500  11.858  1.00  0.00     0.004 C 
HETATM    7  C11 UNL     1      -9.058  25.349  12.770  1.00  0.00     0.030 C 
HETATM    8  C12 UNL     1      -9.455  24.018  12.238  1.00  0.00     0.136 C 
ENDROOT
BRANCH   1   9
HETATM    9  C6  UNL     1      -9.041  22.619   8.667  1.00  0.00     0.181 C 
BRANCH   9  10
HETATM   10  N2  UNL     1      -8.150  21.458   8.515  1.00  0.00    -0.342 N 
HETATM   11  C5  UNL     1      -6.763  21.558   8.498  1.00  0.00     0.266 C 
HETATM   12  O2  UNL     1      -6.216  22.682   8.616  1.00  0.00    -0.266 OA
ATOM     13  H2  UNL     1      -8.571  20.533   8.418  1.00  0.00     0.163 HD
BRANCH  11  14
HETATM   14  C3  UNL     1      -5.934  20.381   8.344  1.00  0.00     0.095 C 
HETATM   15  N1  UNL     1      -5.894  19.693   7.253  1.00  0.00    -0.266 N 
ATOM     16  H1  UNL     1      -6.477  20.013   6.479  1.00  0.00     0.194 HD
HETATM   17  C4  UNL     1      -5.099  19.945   9.488  1.00  0.00     0.076 C 
BRANCH  15  18
HETATM   18  O1  UNL     1      -5.149  18.587   7.044  1.00  0.00    -0.281 OA
BRANCH  18  19
HETATM   19  C2  UNL     1      -5.166  17.726   5.950  1.00  0.00     0.196 C 
HETATM   20  C1  UNL     1      -3.858  16.946   5.931  1.00  0.00     0.036 C 
ENDBRANCH  18  19
ENDBRANCH  15  18
ENDBRANCH  11  14
ENDBRANCH   9  10
BRANCH   9  21
HETATM   21  C17 UNL     1     -10.246  22.315   7.801  1.00  0.00     0.018 C 
HETATM   22  C18 UNL     1     -10.969  23.633   7.477  1.00  0.00     0.007 C 
HETATM   23  C19 UNL     1     -12.210  23.228   6.708  1.00  0.00     0.000 C 
HETATM   24  C20 UNL     1     -11.785  22.740   5.361  1.00  0.00     0.000 C 
HETATM   25  C21 UNL     1     -10.362  22.273   5.297  1.00  0.00     0.000 C 
HETATM   26  C22 UNL     1      -9.910  21.575   6.553  1.00  0.00     0.007 C 
ENDBRANCH   9  21
ENDBRANCH   1   9
BRANCH   8  27
HETATM   27  C13 UNL     1      -8.698  22.973  13.070  1.00  0.00     0.243 C 
BRANCH  27  28
HETATM   28  O4  UNL     1      -7.356  23.343  13.159  1.00  0.00    -0.375 OA
ATOM     29  H4  UNL     1      -6.912  22.760  13.764  1.00  0.00     0.212 HD
ENDBRANCH  27  28
BRANCH  27  30
HETATM   30  N4  UNL     1      -9.267  22.981  14.399  1.00  0.00    -0.325 N 
HETATM   31  C14 UNL     1      -8.759  22.079  15.387  1.00  0.00     0.311 C 
HETATM   32  O5  UNL     1      -7.828  21.288  15.104  1.00  0.00    -0.262 OA
ATOM     33  H4  UNL     1     -10.025  23.624  14.630  1.00  0.00     0.165 HD
BRANCH  31  34
HETATM   34  C15 UNL     1      -9.313  22.066  16.724  1.00  0.00     0.309 C 
HETATM   35  O6  UNL     1      -8.688  22.525  17.714  1.00  0.00    -0.262 OA
HETATM   36  N5  UNL     1     -10.601  21.524  16.941  1.00  0.00    -0.357 N 
HETATM   37  C16 UNL     1     -11.215  21.482  18.264  1.00  0.00     0.149 C 
ATOM     38  H5  UNL     1     -11.118  21.149  16.147  1.00  0.00     0.162 HD
ENDBRANCH  31  34
ENDBRANCH  27  30
ENDBRANCH   8  27
TORSDOF 10
ENDMDL
MODEL 5
REMARK VINA RESULT: -6.590644515      3.849      7.993
REMARK  10 active torsions:
REMARK  status: ('A' for Active; 'I' for Inactive)
REMARK    1  A    between atoms: C2_2  and  O1_3 
REMARK    2  A    between atoms: O1_3  and  N1_4 
REMARK    3  A    between atoms: C3_6  and  C5_8 
REMARK       I    between atoms: C5_8  and  N2_10 
REMARK    4  A    between atoms: N2_10  and  C6_12 
REMARK    5  A    between atoms: C6_12  and  C7_13 
REMARK    6  A    between atoms: C6_12  and  C17_33 
REMARK       I    between atoms: C7_13  and  N3_15 
REMARK    7  A    between atoms: C12_20  and  C13_21 
REMARK    8  A    between atoms: C13_21  and  O4_22 
REMARK    9  A    between atoms: C13_21  and  N4_24 
REMARK       I    between atoms: N4_24  and  C14_26 
REMARK   10  A    between atoms: C14_26  and  C15_28 
REMARK       I    between atoms: C15_28  and  N5_30 
ROOT
HETATM    1  C7  UNL     1      -6.503  22.061   9.880  1.00  0.00     0.243 C 
HETATM    2  O3  UNL     1      -6.981  21.573  10.964  1.00  0.00    -0.271 OA
HETATM    3  N3  UNL     1      -7.415  22.507   8.908  1.00  0.00    -0.341 N 
HETATM    4  C8  UNL     1      -7.089  23.112   7.639  1.00  0.00     0.126 C 
HETATM    5  C9  UNL     1      -7.616  22.310   6.457  1.00  0.00     0.020 C 
HETATM    6  C10 UNL     1      -9.072  22.071   6.671  1.00  0.00     0.004 C 
HETATM    7  C11 UNL     1      -9.615  22.700   7.910  1.00  0.00     0.030 C 
HETATM    8  C12 UNL     1      -8.872  22.379   9.158  1.00  0.00     0.136 C 
ENDROOT
BRANCH   1   9
HETATM    9  C6  UNL     1      -5.061  22.134   9.710  1.00  0.00     0.181 C 
BRANCH   9  10
HETATM   10  N2  UNL     1      -4.431  22.868  10.818  1.00  0.00    -0.342 N 
HETATM   11  C5  UNL     1      -4.119  24.223  10.757  1.00  0.00     0.266 C 
HETATM   12  O2  UNL     1      -4.377  24.877   9.716  1.00  0.00    -0.266 OA
ATOM     13  H2  UNL     1      -4.212  22.359  11.675  1.00  0.00     0.163 HD
BRANCH  11  14
HETATM   14  C3  UNL     1      -3.497  24.894  11.878  1.00  0.00     0.095 C 
HETATM   15  N1  UNL     1      -3.387  24.352  13.044  1.00  0.00    -0.266 N 
ATOM     16  H1  UNL     1      -3.759  23.408  13.154  1.00  0.00     0.194 HD
HETATM   17  C4  UNL     1      -2.966  26.264  11.680  1.00  0.00     0.076 C 
BRANCH  15  18
HETATM   18  O1  UNL     1      -2.824  24.922  14.130  1.00  0.00    -0.281 OA
BRANCH  18  19
HETATM   19  C2  UNL     1      -1.851  24.398  14.976  1.00  0.00     0.196 C 
HETATM   20  C1  UNL     1      -1.219  23.192  14.294  1.00  0.00     0.036 C 
ENDBRANCH  18  19
ENDBRANCH  15  18
ENDBRANCH  11  14
ENDBRANCH   9  10
BRANCH   9  21
HETATM   21  C17 UNL     1      -4.438  20.754   9.738  1.00  0.00     0.018 C 
HETATM   22  C18 UNL     1      -5.092  19.892   8.644  1.00  0.00     0.007 C 
HETATM   23  C19 UNL     1      -4.493  18.511   8.814  1.00  0.00     0.000 C 
HETATM   24  C20 UNL     1      -3.063  18.567   8.386  1.00  0.00     0.000 C 
HETATM   25  C21 UNL     1      -2.461  19.939   8.429  1.00  0.00     0.000 C 
HETATM   26  C22 UNL     1      -2.956  20.768   9.586  1.00  0.00     0.007 C 
ENDBRANCH   9  21
ENDBRANCH   1   9
BRANCH   8  27
HETATM   27  C13 UNL     1      -9.266  23.448  10.187  1.00  0.00     0.243 C 
BRANCH  27  28
HETATM   28  O4  UNL     1     -10.408  24.113   9.743  1.00  0.00    -0.375 OA
ATOM     29  H4  UNL     1     -11.151  23.523   9.789  1.00  0.00     0.212 HD
ENDBRANCH  27  28
BRANCH  27  30
HETATM   30  N4  UNL     1      -9.582  22.765  11.422  1.00  0.00    -0.325 N 
HETATM   31  C14 UNL     1      -9.013  23.232  12.649  1.00  0.00     0.311 C 
HETATM   32  O5  UNL     1      -8.247  24.224  12.655  1.00  0.00    -0.262 OA
ATOM     33  H4  UNL     1     -10.206  21.957  11.418  1.00  0.00     0.165 HD
BRANCH  31  34
HETATM   34  C15 UNL     1      -9.312  22.566  13.898  1.00  0.00     0.309 C 
HETATM   35  O6  UNL     1     -10.484  22.462  14.340  1.00  0.00    -0.262 OA
HETATM   36  N5  UNL     1      -8.260  22.004  14.659  1.00  0.00    -0.357 N 
HETATM   37  C16 UNL     1      -8.495  21.319  15.925  1.00  0.00     0.149 C 
ATOM     38  H5  UNL     1      -7.305  22.080  14.311  1.00  0.00     0.162 HD
ENDBRANCH  31  34
ENDBRANCH  27  30
ENDBRANCH   8  27
TORSDOF 10
ENDMDL
