MODEL 1
REMARK VINA RESULT: -7.574615283      0.000      0.000
REMARK  11 active torsions:
REMARK  status: ('A' for Active; 'I' for Inactive)
REMARK    1  A    between atoms: C3_3  and  N1_4 
REMARK    2  A    between atoms: C3_3  and  C22_35 
REMARK       I    between atoms: N1_4  and  C4_6 
REMARK    3  A    between atoms: C4_6  and  C5_8 
REMARK    4  A    between atoms: C5_8  and  C6_9 
REMARK    5  A    between atoms: C5_8  and  C12_19 
REMARK    6  A    between atoms: C6_9  and  C7_10 
REMARK    7  A    between atoms: C7_10  and  N2_12 
REMARK    8  A    between atoms: C7_10  and  C9_16 
REMARK    9  A    between atoms: C15_22  and  S1_23 
REMARK   10  A    between atoms: S1_23  and  N3_26 
REMARK   11  A    between atoms: N3_26  and  C16_28 
ROOT
HETATM    1  C1  UNL     1       5.277 -16.441   6.198  1.00  0.00     0.015 C 
HETATM    2  C2  UNL     1       4.629 -16.526   7.216  1.00  0.00    -0.081 C 
HETATM    3  C3  UNL     1       3.827 -16.627   8.446  1.00  0.00     0.265 C 
ENDROOT
BRANCH   3   4
HETATM    4  N1  UNL     1       3.765 -18.008   8.872  1.00  0.00    -0.333 N 
HETATM    5  C4  UNL     1       3.583 -18.425  10.189  1.00  0.00     0.251 C 
HETATM    6  O1  UNL     1       3.466 -17.550  11.082  1.00  0.00    -0.268 OA
ATOM      7  H1  UNL     1       3.860 -18.729   8.156  1.00  0.00     0.164 HD
BRANCH   5   8
HETATM    8  C5  UNL     1       3.504 -19.843  10.668  1.00  0.00     0.037 C 
BRANCH   8   9
HETATM    9  C6  UNL     1       2.642 -20.041  11.830  1.00  0.00     0.027 C 
BRANCH   9  10
HETATM   10  C7  UNL     1       1.193 -20.290  11.725  1.00  0.00     0.141 C 
HETATM   11  C8  UNL     1       0.417 -19.020  11.982  1.00  0.00     0.051 C 
BRANCH  10  12
HETATM   12  N2  UNL     1       0.708 -20.776  10.458  1.00  0.00    -0.067 N 
ATOM     13  H23 UNL     1      -0.311 -20.822  10.477  1.00  0.00     0.275 HD
ATOM     14  H22 UNL     1       0.850 -20.063   9.742  1.00  0.00     0.275 HD
ATOM     15  H21 UNL     1       1.084 -21.667  10.132  1.00  0.00     0.275 HD
ENDBRANCH  10  12
BRANCH  10  16
HETATM   16  C9  UNL     1       0.793 -21.294  12.813  1.00  0.00     0.017 C 
HETATM   17  C10 UNL     1       1.700 -22.499  12.817  1.00  0.00     0.012 C 
HETATM   18  C11 UNL     1      -0.610 -21.749  12.692  1.00  0.00     0.012 C 
ENDBRANCH  10  16
ENDBRANCH   9  10
ENDBRANCH   8   9
BRANCH   8  19
HETATM   19  C12 UNL     1       4.780 -20.577  10.511  1.00  0.00     0.161 C 
HETATM   20  C13 UNL     1       5.833 -20.084  11.426  1.00  0.00     0.040 C 
HETATM   21  C14 UNL     1       6.310 -21.332  12.183  1.00  0.00     0.052 C 
HETATM   22  C15 UNL     1       5.724 -22.422  11.358  1.00  0.00     0.264 C 
HETATM   23  O4  UNL     1       4.538 -21.921  10.853  1.00  0.00    -0.359 OA
BRANCH  22  24
HETATM   24  S1  UNL     1       6.829 -23.032  10.108  1.00  0.00     0.254 S 
HETATM   25  O2  UNL     1       6.078 -22.960   8.792  1.00  0.00    -0.203 OA
HETATM   26  O3  UNL     1       7.102 -24.461  10.383  1.00  0.00    -0.203 OA
BRANCH  24  27
HETATM   27  N3  UNL     1       8.160 -22.023  10.010  1.00  0.00    -0.313 N 
ATOM     28  H3  UNL     1       8.172 -21.141  10.523  1.00  0.00     0.172 HD
BRANCH  27  29
HETATM   29  C16 UNL     1       9.259 -22.391   9.221  1.00  0.00     0.093 C 
HETATM   30  C17 UNL     1       9.277 -21.526   7.979  1.00  0.00     0.026 C 
HETATM   31  C18 UNL     1      10.610 -21.569   7.319  1.00  0.00     0.002 C 
HETATM   32  C19 UNL     1      11.177 -22.975   7.484  1.00  0.00     0.000 C 
HETATM   33  C20 UNL     1      11.498 -23.249   8.937  1.00  0.00     0.002 C 
HETATM   34  C21 UNL     1      10.601 -22.377   9.838  1.00  0.00     0.026 C 
ENDBRANCH  27  29
ENDBRANCH  24  27
ENDBRANCH  22  24
ENDBRANCH   8  19
ENDBRANCH   5   8
ENDBRANCH   3   4
BRANCH   3  35
HETATM   35  C22 UNL     1       2.497 -16.063   8.133  1.00  0.00     0.209 C 
HETATM   36  O5  UNL     1       1.956 -16.302   7.041  1.00  0.00    -0.646 OA
HETATM   37  O6  UNL     1       1.899 -15.270   9.105  1.00  0.00    -0.646 OA
ENDBRANCH   3  35
TORSDOF 11
ENDMDL
MODEL 2
REMARK VINA RESULT: -7.523106730      1.142      1.564
REMARK  11 active torsions:
REMARK  status: ('A' for Active; 'I' for Inactive)
REMARK    1  A    between atoms: C3_3  and  N1_4 
REMARK    2  A    between atoms: C3_3  and  C22_35 
REMARK       I    between atoms: N1_4  and  C4_6 
REMARK    3  A    between atoms: C4_6  and  C5_8 
REMARK    4  A    between atoms: C5_8  and  C6_9 
REMARK    5  A    between atoms: C5_8  and  C12_19 
REMARK    6  A    between atoms: C6_9  and  C7_10 
REMARK    7  A    between atoms: C7_10  and  N2_12 
REMARK    8  A    between atoms: C7_10  and  C9_16 
REMARK    9  A    between atoms: C15_22  and  S1_23 
REMARK   10  A    between atoms: S1_23  and  N3_26 
REMARK   11  A    between atoms: N3_26  and  C16_28 
ROOT
HETATM    1  C1  UNL     1       4.907 -16.195   5.771  1.00  0.00     0.015 C 
HETATM    2  C2  UNL     1       4.414 -16.273   6.873  1.00  0.00    -0.081 C 
HETATM    3  C3  UNL     1       3.800 -16.369   8.207  1.00  0.00     0.265 C 
ENDROOT
BRANCH   3   4
HETATM    4  N1  UNL     1       3.937 -17.719   8.709  1.00  0.00    -0.333 N 
HETATM    5  C4  UNL     1       3.568 -18.130   9.987  1.00  0.00     0.251 C 
HETATM    6  O1  UNL     1       3.082 -17.280  10.773  1.00  0.00    -0.268 OA
ATOM      7  H1  UNL     1       4.332 -18.419   8.081  1.00  0.00     0.164 HD
BRANCH   5   8
HETATM    8  C5  UNL     1       3.685 -19.518  10.540  1.00  0.00     0.037 C 
BRANCH   8   9
HETATM    9  C6  UNL     1       2.860 -19.772  11.718  1.00  0.00     0.027 C 
BRANCH   9  10
HETATM   10  C7  UNL     1       1.476 -20.271  11.638  1.00  0.00     0.141 C 
HETATM   11  C8  UNL     1       0.507 -19.233  12.153  1.00  0.00     0.051 C 
BRANCH  10  12
HETATM   12  N2  UNL     1       0.986 -20.623  10.329  1.00  0.00    -0.067 N 
ATOM     13  H23 UNL     1      -0.029 -20.715  10.357  1.00  0.00     0.275 HD
ATOM     14  H22 UNL     1       1.085 -19.824   9.702  1.00  0.00     0.275 HD
ATOM     15  H21 UNL     1       1.393 -21.452   9.894  1.00  0.00     0.275 HD
ENDBRANCH  10  12
BRANCH  10  16
HETATM   16  C9  UNL     1       1.349 -21.499  12.548  1.00  0.00     0.017 C 
HETATM   17  C10 UNL     1       2.610 -22.326  12.543  1.00  0.00     0.012 C 
HETATM   18  C11 UNL     1       0.204 -22.367  12.192  1.00  0.00     0.012 C 
ENDBRANCH  10  16
ENDBRANCH   9  10
ENDBRANCH   8   9
BRANCH   8  19
HETATM   19  C12 UNL     1       5.051 -20.077  10.413  1.00  0.00     0.161 C 
HETATM   20  C13 UNL     1       5.798 -20.046  11.689  1.00  0.00     0.040 C 
HETATM   21  C14 UNL     1       6.256 -21.495  11.910  1.00  0.00     0.052 C 
HETATM   22  C15 UNL     1       6.019 -22.089  10.568  1.00  0.00     0.264 C 
HETATM   23  O4  UNL     1       4.920 -21.431  10.048  1.00  0.00    -0.359 OA
BRANCH  22  24
HETATM   24  S1  UNL     1       7.448 -22.035   9.512  1.00  0.00     0.254 S 
HETATM   25  O2  UNL     1       7.053 -21.226   8.290  1.00  0.00    -0.203 OA
HETATM   26  O3  UNL     1       7.742 -23.411   9.054  1.00  0.00    -0.203 OA
BRANCH  24  27
HETATM   27  N3  UNL     1       8.684 -21.229  10.300  1.00  0.00    -0.313 N 
ATOM     28  H3  UNL     1       8.678 -20.210  10.353  1.00  0.00     0.172 HD
BRANCH  27  29
HETATM   29  C16 UNL     1       9.728 -21.957  10.888  1.00  0.00     0.093 C 
HETATM   30  C17 UNL     1      10.663 -22.432   9.796  1.00  0.00     0.026 C 
HETATM   31  C18 UNL     1      11.979 -22.838  10.360  1.00  0.00     0.002 C 
HETATM   32  C19 UNL     1      11.735 -23.479  11.721  1.00  0.00     0.000 C 
HETATM   33  C20 UNL     1      11.234 -22.448  12.710  1.00  0.00     0.002 C 
HETATM   34  C21 UNL     1      10.521 -21.310  11.953  1.00  0.00     0.026 C 
ENDBRANCH  27  29
ENDBRANCH  24  27
ENDBRANCH  22  24
ENDBRANCH   8  19
ENDBRANCH   5   8
ENDBRANCH   3   4
BRANCH   3  35
HETATM   35  C22 UNL     1       2.389 -15.954   8.055  1.00  0.00     0.209 C 
HETATM   36  O5  UNL     1       1.723 -16.342   7.080  1.00  0.00    -0.646 OA
HETATM   37  O6  UNL     1       1.860 -15.127   9.038  1.00  0.00    -0.646 OA
ENDBRANCH   3  35
TORSDOF 11
ENDMDL
MODEL 3
REMARK VINA RESULT: -7.508991888      1.158      1.569
REMARK  11 active torsions:
REMARK  status: ('A' for Active; 'I' for Inactive)
REMARK    1  A    between atoms: C3_3  and  N1_4 
REMARK    2  A    between atoms: C3_3  and  C22_35 
REMARK       I    between atoms: N1_4  and  C4_6 
REMARK    3  A    between atoms: C4_6  and  C5_8 
REMARK    4  A    between atoms: C5_8  and  C6_9 
REMARK    5  A    between atoms: C5_8  and  C12_19 
REMARK    6  A    between atoms: C6_9  and  C7_10 
REMARK    7  A    between atoms: C7_10  and  N2_12 
REMARK    8  A    between atoms: C7_10  and  C9_16 
REMARK    9  A    between atoms: C15_22  and  S1_23 
REMARK   10  A    between atoms: S1_23  and  N3_26 
REMARK   11  A    between atoms: N3_26  and  C16_28 
ROOT
HETATM    1  C1  UNL     1       4.991 -16.217   5.937  1.00  0.00     0.015 C 
HETATM    2  C2  UNL     1       4.474 -16.324   7.026  1.00  0.00    -0.081 C 
HETATM    3  C3  UNL     1       3.832 -16.454   8.344  1.00  0.00     0.265 C 
ENDROOT
BRANCH   3   4
HETATM    4  N1  UNL     1       3.934 -17.822   8.801  1.00  0.00    -0.333 N 
HETATM    5  C4  UNL     1       3.743 -18.235  10.117  1.00  0.00     0.251 C 
HETATM    6  O1  UNL     1       3.465 -17.368  10.982  1.00  0.00    -0.268 OA
ATOM      7  H1  UNL     1       4.161 -18.537   8.108  1.00  0.00     0.164 HD
BRANCH   5   8
HETATM    8  C5  UNL     1       3.831 -19.642  10.627  1.00  0.00     0.037 C 
BRANCH   8   9
HETATM    9  C6  UNL     1       2.937 -19.937  11.744  1.00  0.00     0.027 C 
BRANCH   9  10
HETATM   10  C7  UNL     1       1.525 -20.315  11.565  1.00  0.00     0.141 C 
HETATM   11  C8  UNL     1       0.617 -19.295  12.211  1.00  0.00     0.051 C 
BRANCH  10  12
HETATM   12  N2  UNL     1       1.050 -20.434  10.210  1.00  0.00    -0.067 N 
ATOM     13  H23 UNL     1       0.129 -20.003  10.131  1.00  0.00     0.275 HD
ATOM     14  H22 UNL     1       1.596 -19.823   9.602  1.00  0.00     0.275 HD
ATOM     15  H21 UNL     1       1.022 -21.374   9.813  1.00  0.00     0.275 HD
ENDBRANCH  10  12
BRANCH  10  16
HETATM   16  C9  UNL     1       1.286 -21.651  12.280  1.00  0.00     0.017 C 
HETATM   17  C10 UNL     1       0.363 -21.491  13.461  1.00  0.00     0.012 C 
HETATM   18  C11 UNL     1       2.538 -22.297  12.732  1.00  0.00     0.012 C 
ENDBRANCH  10  16
ENDBRANCH   9  10
ENDBRANCH   8   9
BRANCH   8  19
HETATM   19  C12 UNL     1       5.203 -20.195  10.562  1.00  0.00     0.161 C 
HETATM   20  C13 UNL     1       5.744 -20.529  11.898  1.00  0.00     0.040 C 
HETATM   21  C14 UNL     1       6.171 -22.000  11.790  1.00  0.00     0.052 C 
HETATM   22  C15 UNL     1       6.148 -22.209  10.318  1.00  0.00     0.264 C 
HETATM   23  O4  UNL     1       5.139 -21.398   9.834  1.00  0.00    -0.359 OA
BRANCH  22  24
HETATM   24  S1  UNL     1       7.722 -21.929   9.542  1.00  0.00     0.254 S 
HETATM   25  O2  UNL     1       8.473 -20.951  10.427  1.00  0.00    -0.203 OA
HETATM   26  O3  UNL     1       7.489 -21.259   8.243  1.00  0.00    -0.203 OA
BRANCH  24  27
HETATM   27  N3  UNL     1       8.578 -23.366   9.500  1.00  0.00    -0.313 N 
ATOM     28  H3  UNL     1       8.334 -24.125  10.135  1.00  0.00     0.172 HD
BRANCH  27  29
HETATM   29  C16 UNL     1       9.632 -23.523   8.589  1.00  0.00     0.093 C 
HETATM   30  C17 UNL     1      10.752 -22.581   8.975  1.00  0.00     0.026 C 
HETATM   31  C18 UNL     1      12.032 -22.979   8.328  1.00  0.00     0.002 C 
HETATM   32  C19 UNL     1      11.711 -23.527   6.941  1.00  0.00     0.000 C 
HETATM   33  C20 UNL     1      10.953 -24.832   7.050  1.00  0.00     0.002 C 
HETATM   34  C21 UNL     1      10.188 -24.876   8.388  1.00  0.00     0.026 C 
ENDBRANCH  27  29
ENDBRANCH  24  27
ENDBRANCH  22  24
ENDBRANCH   8  19
ENDBRANCH   5   8
ENDBRANCH   3   4
BRANCH   3  35
HETATM   35  C22 UNL     1       2.432 -16.007   8.179  1.00  0.00     0.209 C 
HETATM   36  O5  UNL     1       1.783 -16.339   7.173  1.00  0.00    -0.646 OA
HETATM   37  O6  UNL     1       1.895 -15.215   9.186  1.00  0.00    -0.646 OA
ENDBRANCH   3  35
TORSDOF 11
ENDMDL
MODEL 4
REMARK VINA RESULT: -7.396390003      3.170      7.255
REMARK  11 active torsions:
REMARK  status: ('A' for Active; 'I' for Inactive)
REMARK    1  A    between atoms: C3_3  and  N1_4 
REMARK    2  A    between atoms: C3_3  and  C22_35 
REMARK       I    between atoms: N1_4  and  C4_6 
REMARK    3  A    between atoms: C4_6  and  C5_8 
REMARK    4  A    between atoms: C5_8  and  C6_9 
REMARK    5  A    between atoms: C5_8  and  C12_19 
REMARK    6  A    between atoms: C6_9  and  C7_10 
REMARK    7  A    between atoms: C7_10  and  N2_12 
REMARK    8  A    between atoms: C7_10  and  C9_16 
REMARK    9  A    between atoms: C15_22  and  S1_23 
REMARK   10  A    between atoms: S1_23  and  N3_26 
REMARK   11  A    between atoms: N3_26  and  C16_28 
ROOT
HETATM    1  C1  UNL     1       5.045 -16.962   6.603  1.00  0.00     0.015 C 
HETATM    2  C2  UNL     1       4.367 -16.885   7.601  1.00  0.00    -0.081 C 
HETATM    3  C3  UNL     1       3.529 -16.790   8.808  1.00  0.00     0.265 C 
ENDROOT
BRANCH   3   4
HETATM    4  N1  UNL     1       3.333 -18.109   9.368  1.00  0.00    -0.333 N 
HETATM    5  C4  UNL     1       3.847 -18.535  10.590  1.00  0.00     0.251 C 
HETATM    6  O1  UNL     1       4.535 -17.729  11.264  1.00  0.00    -0.268 OA
ATOM      7  H1  UNL     1       2.778 -18.774   8.830  1.00  0.00     0.164 HD
BRANCH   5   8
HETATM    8  C5  UNL     1       3.659 -19.888  11.208  1.00  0.00     0.037 C 
BRANCH   8   9
HETATM    9  C6  UNL     1       4.420 -20.957  10.565  1.00  0.00     0.027 C 
BRANCH   9  10
HETATM   10  C7  UNL     1       5.809 -21.286  10.927  1.00  0.00     0.141 C 
HETATM   11  C8  UNL     1       6.310 -22.450  10.106  1.00  0.00     0.051 C 
BRANCH  10  12
HETATM   12  N2  UNL     1       6.792 -20.247  10.744  1.00  0.00    -0.067 N 
ATOM     13  H23 UNL     1       7.177 -20.304   9.801  1.00  0.00     0.275 HD
ATOM     14  H22 UNL     1       6.326 -19.340  10.702  1.00  0.00     0.275 HD
ATOM     15  H21 UNL     1       7.554 -20.210  11.422  1.00  0.00     0.275 HD
ENDBRANCH  10  12
BRANCH  10  16
HETATM   16  C9  UNL     1       5.838 -21.723  12.397  1.00  0.00     0.017 C 
HETATM   17  C10 UNL     1       7.249 -21.834  12.916  1.00  0.00     0.012 C 
HETATM   18  C11 UNL     1       5.135 -23.004  12.633  1.00  0.00     0.012 C 
ENDBRANCH  10  16
ENDBRANCH   9  10
ENDBRANCH   8   9
BRANCH   8  19
HETATM   19  C12 UNL     1       2.285 -20.107  11.713  1.00  0.00     0.161 C 
HETATM   20  C13 UNL     1       1.631 -18.850  12.139  1.00  0.00     0.040 C 
HETATM   21  C14 UNL     1       0.312 -18.809  11.352  1.00  0.00     0.052 C 
HETATM   22  C15 UNL     1       0.220 -20.207  10.853  1.00  0.00     0.264 C 
HETATM   23  O4  UNL     1       1.522 -20.625  10.648  1.00  0.00    -0.359 OA
BRANCH  22  24
HETATM   24  S1  UNL     1      -0.711 -21.276  11.924  1.00  0.00     0.254 S 
HETATM   25  O2  UNL     1       0.196 -22.443  12.267  1.00  0.00    -0.203 OA
HETATM   26  O3  UNL     1      -1.857 -21.819  11.159  1.00  0.00    -0.203 OA
BRANCH  24  27
HETATM   27  N3  UNL     1      -1.076 -20.459  13.337  1.00  0.00    -0.313 N 
ATOM     28  H3  UNL     1      -1.678 -19.636  13.311  1.00  0.00     0.172 HD
BRANCH  27  29
HETATM   29  C16 UNL     1      -0.552 -20.908  14.558  1.00  0.00     0.093 C 
HETATM   30  C17 UNL     1      -0.443 -19.729  15.502  1.00  0.00     0.026 C 
HETATM   31  C18 UNL     1      -0.296 -20.186  16.911  1.00  0.00     0.002 C 
HETATM   32  C19 UNL     1       0.541 -21.460  16.911  1.00  0.00     0.000 C 
HETATM   33  C20 UNL     1      -0.219 -22.593  16.254  1.00  0.00     0.002 C 
HETATM   34  C21 UNL     1      -1.237 -22.018  15.250  1.00  0.00     0.026 C 
ENDBRANCH  27  29
ENDBRANCH  24  27
ENDBRANCH  22  24
ENDBRANCH   8  19
ENDBRANCH   5   8
ENDBRANCH   3   4
BRANCH   3  35
HETATM   35  C22 UNL     1       2.262 -16.149   8.394  1.00  0.00     0.209 C 
HETATM   36  O5  UNL     1       1.893 -16.197   7.208  1.00  0.00    -0.646 OA
HETATM   37  O6  UNL     1       1.524 -15.506   9.380  1.00  0.00    -0.646 OA
ENDBRANCH   3  35
TORSDOF 11
ENDMDL
MODEL 5
REMARK VINA RESULT: -7.381779827      2.179      2.744
REMARK  11 active torsions:
REMARK  status: ('A' for Active; 'I' for Inactive)
REMARK    1  A    between atoms: C3_3  and  N1_4 
REMARK    2  A    between atoms: C3_3  and  C22_35 
REMARK       I    between atoms: N1_4  and  C4_6 
REMARK    3  A    between atoms: C4_6  and  C5_8 
REMARK    4  A    between atoms: C5_8  and  C6_9 
REMARK    5  A    between atoms: C5_8  and  C12_19 
REMARK    6  A    between atoms: C6_9  and  C7_10 
REMARK    7  A    between atoms: C7_10  and  N2_12 
REMARK    8  A    between atoms: C7_10  and  C9_16 
REMARK    9  A    between atoms: C15_22  and  S1_23 
REMARK   10  A    between atoms: S1_23  and  N3_26 
REMARK   11  A    between atoms: N3_26  and  C16_28 
ROOT
HETATM    1  C1  UNL     1       4.914 -16.226   5.809  1.00  0.00     0.015 C 
HETATM    2  C2  UNL     1       4.395 -16.289   6.900  1.00  0.00    -0.081 C 
HETATM    3  C3  UNL     1       3.750 -16.364   8.221  1.00  0.00     0.265 C 
ENDROOT
BRANCH   3   4
HETATM    4  N1  UNL     1       3.836 -17.717   8.726  1.00  0.00    -0.333 N 
HETATM    5  C4  UNL     1       3.458 -18.109  10.008  1.00  0.00     0.251 C 
HETATM    6  O1  UNL     1       3.012 -17.237  10.794  1.00  0.00    -0.268 OA
ATOM      7  H1  UNL     1       4.199 -18.434   8.099  1.00  0.00     0.164 HD
BRANCH   5   8
HETATM    8  C5  UNL     1       3.524 -19.499  10.565  1.00  0.00     0.037 C 
BRANCH   8   9
HETATM    9  C6  UNL     1       2.690 -19.718  11.744  1.00  0.00     0.027 C 
BRANCH   9  10
HETATM   10  C7  UNL     1       1.309 -20.225  11.670  1.00  0.00     0.141 C 
HETATM   11  C8  UNL     1       0.333 -19.174  12.145  1.00  0.00     0.051 C 
BRANCH  10  12
HETATM   12  N2  UNL     1       0.830 -20.621  10.370  1.00  0.00    -0.067 N 
ATOM     13  H23 UNL     1       1.356 -20.128   9.648  1.00  0.00     0.275 HD
ATOM     14  H22 UNL     1       1.111 -21.584  10.182  1.00  0.00     0.275 HD
ATOM     15  H21 UNL     1      -0.170 -20.516  10.196  1.00  0.00     0.275 HD
ENDBRANCH  10  12
BRANCH  10  16
HETATM   16  C9  UNL     1       1.180 -21.424  12.618  1.00  0.00     0.017 C 
HETATM   17  C10 UNL     1       2.427 -22.271  12.614  1.00  0.00     0.012 C 
HETATM   18  C11 UNL     1       0.014 -22.282  12.311  1.00  0.00     0.012 C 
ENDBRANCH  10  16
ENDBRANCH   9  10
ENDBRANCH   8   9
BRANCH   8  19
HETATM   19  C12 UNL     1       4.867 -20.109  10.438  1.00  0.00     0.161 C 
HETATM   20  C13 UNL     1       5.640 -20.047  11.698  1.00  0.00     0.040 C 
HETATM   21  C14 UNL     1       6.053 -21.500  11.976  1.00  0.00     0.052 C 
HETATM   22  C15 UNL     1       5.770 -22.145  10.666  1.00  0.00     0.264 C 
HETATM   23  O4  UNL     1       4.684 -21.473  10.137  1.00  0.00    -0.359 OA
BRANCH  22  24
HETATM   24  S1  UNL     1       7.178 -22.187   9.583  1.00  0.00     0.254 S 
HETATM   25  O2  UNL     1       8.176 -21.182  10.130  1.00  0.00    -0.203 OA
HETATM   26  O3  UNL     1       6.756 -21.707   8.248  1.00  0.00    -0.203 OA
BRANCH  24  27
HETATM   27  N3  UNL     1       7.875 -23.707   9.645  1.00  0.00    -0.313 N 
ATOM     28  H3  UNL     1       8.787 -23.869   9.217  1.00  0.00     0.172 HD
BRANCH  27  29
HETATM   29  C16 UNL     1       7.203 -24.757  10.286  1.00  0.00     0.093 C 
HETATM   30  C17 UNL     1       6.236 -25.385   9.305  1.00  0.00     0.026 C 
HETATM   31  C18 UNL     1       5.805 -26.732   9.769  1.00  0.00     0.002 C 
HETATM   32  C19 UNL     1       5.700 -26.699  11.289  1.00  0.00     0.000 C 
HETATM   33  C20 UNL     1       7.070 -26.537  11.912  1.00  0.00     0.002 C 
HETATM   34  C21 UNL     1       8.007 -25.822  10.918  1.00  0.00     0.026 C 
ENDBRANCH  27  29
ENDBRANCH  24  27
ENDBRANCH  22  24
ENDBRANCH   8  19
ENDBRANCH   5   8
ENDBRANCH   3   4
BRANCH   3  35
HETATM   35  C22 UNL     1       2.356 -15.908   8.038  1.00  0.00     0.209 C 
HETATM   36  O5  UNL     1       1.700 -16.278   7.050  1.00  0.00    -0.646 OA
HETATM   37  O6  UNL     1       1.831 -15.063   9.008  1.00  0.00    -0.646 OA
ENDBRANCH   3  35
TORSDOF 11
ENDMDL
