MODEL 1
REMARK VINA RESULT: -7.381903193      0.000      0.000
REMARK  8 active torsions:
REMARK  status: ('A' for Active; 'I' for Inactive)
REMARK    1  A    between atoms: N1_1  and  C1_4 
REMARK    2  A    between atoms: N5_11  and  C2_12 
REMARK    3  A    between atoms: C2_12  and  C3_13 
REMARK    4  A    between atoms: C3_13  and  N6_14 
REMARK    5  A    between atoms: C7_24  and  C8_25 
REMARK    6  A    between atoms: C8_25  and  N9_26 
REMARK    7  A    between atoms: C11_31  and  N11_32 
REMARK    8  A    between atoms: N11_32  and  N12_34 
ROOT
HETATM    1  N6  UNL     1      25.301 -54.869   4.793  1.00  0.00    -0.320 N 
HETATM    2  C4  UNL     1      24.338 -55.341   3.992  1.00  0.00     0.181 A 
HETATM    3  S1  UNL     1      22.753 -55.005   4.225  1.00  0.00    -0.040 SA
HETATM    4  N7  UNL     1      24.698 -56.123   2.959  1.00  0.00    -0.298 N 
ATOM      5  H7  UNL     1      23.984 -56.497   2.333  1.00  0.00     0.171 HD
HETATM    6  C5  UNL     1      25.999 -56.416   2.743  1.00  0.00     0.276 A 
HETATM    7  O1  UNL     1      26.370 -57.146   1.784  1.00  0.00    -0.266 OA
HETATM    8  C6  UNL     1      26.998 -55.927   3.574  1.00  0.00     0.128 A 
HETATM    9  N8  UNL     1      28.337 -56.050   3.603  1.00  0.00    -0.352 N 
ATOM     10  H8  UNL     1      28.889 -56.588   2.936  1.00  0.00     0.166 HD
HETATM   11  C7  UNL     1      28.841 -55.360   4.637  1.00  0.00     0.030 A 
HETATM   12  C12 UNL     1      27.771 -54.784   5.279  1.00  0.00     0.059 A 
HETATM   13  C13 UNL     1      26.615 -55.134   4.620  1.00  0.00     0.071 A 
ENDROOT
BRANCH   1  14
HETATM   14  C3  UNL     1      24.895 -54.033   5.897  1.00  0.00     0.154 C 
BRANCH  14  15
HETATM   15  C2  UNL     1      25.017 -52.558   5.513  1.00  0.00     0.190 C 
BRANCH  15  16
HETATM   16  N5  UNL     1      25.762 -51.833   6.538  1.00  0.00    -0.106 N 
HETATM   17  C1  UNL     1      25.562 -50.546   6.870  1.00  0.00     0.709 A 
HETATM   18  N2  UNL     1      26.429 -50.246   7.841  1.00  0.00    -0.115 N 
HETATM   19  N3  UNL     1      27.148 -51.314   8.105  1.00  0.00    -0.213 N 
ATOM     20  H2  UNL     1      26.519 -49.340   8.301  1.00  0.00     0.207 HD
HETATM   21  N4  UNL     1      26.735 -52.275   7.306  1.00  0.00    -0.211 N 
ATOM     22  H3  UNL     1      27.891 -51.386   8.801  1.00  0.00     0.210 HD
ATOM     23  H4  UNL     1      27.112 -53.223   7.285  1.00  0.00     0.210 HD
BRANCH  17  24
HETATM   24  N1  UNL     1      24.704 -49.723   6.370  1.00  0.00    -0.232 N 
ATOM     25  H12 UNL     1      23.688 -49.743   6.460  1.00  0.00     0.174 HD
ATOM     26  H11 UNL     1      24.942 -48.912   5.798  1.00  0.00     0.174 HD
ENDBRANCH  17  24
ENDBRANCH  15  16
ENDBRANCH  14  15
ENDBRANCH   1  14
BRANCH  11  27
HETATM   27  C8  UNL     1      30.281 -55.276   4.968  1.00  0.00     0.198 C 
BRANCH  27  28
HETATM   28  N9  UNL     1      30.752 -53.986   4.549  1.00  0.00    -0.209 N 
HETATM   29  C9  UNL     1      29.984 -52.954   3.881  1.00  0.00     0.161 C 
HETATM   30  C10 UNL     1      31.047 -52.254   3.063  1.00  0.00     0.158 C 
HETATM   31  N10 UNL     1      32.235 -52.475   3.862  1.00  0.00    -0.223 N 
HETATM   32  C11 UNL     1      32.061 -53.453   4.696  1.00  0.00     0.696 C 
ATOM     33  H10 UNL     1      33.095 -51.934   3.780  1.00  0.00     0.177 HD
BRANCH  32  34
HETATM   34  N11 UNL     1      33.003 -53.970   5.650  1.00  0.00    -0.072 N 
ATOM     35  H11 UNL     1      32.740 -54.142   6.619  1.00  0.00     0.212 HD
BRANCH  34  36
HETATM   36  N12 UNL     1      34.288 -54.223   5.194  1.00  0.00    -0.024 N 
HETATM   37  O2  UNL     1      35.006 -53.259   4.868  1.00  0.00    -0.516 OA
HETATM   38  O3  UNL     1      34.820 -55.484   5.079  1.00  0.00    -0.516 OA
ENDBRANCH  34  36
ENDBRANCH  32  34
ENDBRANCH  27  28
ENDBRANCH  11  27
TORSDOF 8
ENDMDL
MODEL 2
REMARK VINA RESULT: -7.193935884      0.940      1.603
REMARK  8 active torsions:
REMARK  status: ('A' for Active; 'I' for Inactive)
REMARK    1  A    between atoms: N1_1  and  C1_4 
REMARK    2  A    between atoms: N5_11  and  C2_12 
REMARK    3  A    between atoms: C2_12  and  C3_13 
REMARK    4  A    between atoms: C3_13  and  N6_14 
REMARK    5  A    between atoms: C7_24  and  C8_25 
REMARK    6  A    between atoms: C8_25  and  N9_26 
REMARK    7  A    between atoms: C11_31  and  N11_32 
REMARK    8  A    between atoms: N11_32  and  N12_34 
ROOT
HETATM    1  N6  UNL     1      25.507 -54.328   5.122  1.00  0.00    -0.320 N 
HETATM    2  C4  UNL     1      24.451 -54.810   4.454  1.00  0.00     0.181 A 
HETATM    3  S1  UNL     1      22.921 -54.300   4.736  1.00  0.00    -0.040 SA
HETATM    4  N7  UNL     1      24.667 -55.750   3.517  1.00  0.00    -0.298 N 
ATOM      5  H7  UNL     1      23.881 -56.134   2.993  1.00  0.00     0.171 HD
HETATM    6  C5  UNL     1      25.920 -56.187   3.264  1.00  0.00     0.276 A 
HETATM    7  O1  UNL     1      26.158 -57.067   2.392  1.00  0.00    -0.266 OA
HETATM    8  C6  UNL     1      27.015 -55.688   3.957  1.00  0.00     0.128 A 
HETATM    9  N8  UNL     1      28.338 -55.929   3.919  1.00  0.00    -0.352 N 
ATOM     10  H8  UNL     1      28.792 -56.599   3.299  1.00  0.00     0.166 HD
HETATM   11  C7  UNL     1      28.972 -55.160   4.816  1.00  0.00     0.030 A 
HETATM   12  C12 UNL     1      28.004 -54.409   5.438  1.00  0.00     0.059 A 
HETATM   13  C13 UNL     1      26.777 -54.734   4.906  1.00  0.00     0.071 A 
ENDROOT
BRANCH   1  14
HETATM   14  C3  UNL     1      25.254 -53.320   6.124  1.00  0.00     0.154 C 
BRANCH  14  15
HETATM   15  C2  UNL     1      25.905 -51.998   5.717  1.00  0.00     0.190 C 
BRANCH  15  16
HETATM   16  N5  UNL     1      24.909 -50.929   5.714  1.00  0.00    -0.106 N 
HETATM   17  C1  UNL     1      25.008 -49.784   6.408  1.00  0.00     0.709 A 
HETATM   18  N2  UNL     1      23.911 -49.065   6.151  1.00  0.00    -0.115 N 
HETATM   19  N3  UNL     1      23.151 -49.746   5.322  1.00  0.00    -0.213 N 
ATOM     20  H2  UNL     1      23.698 -48.144   6.534  1.00  0.00     0.207 HD
HETATM   21  N4  UNL     1      23.767 -50.880   5.062  1.00  0.00    -0.211 N 
ATOM     22  H3  UNL     1      22.249 -49.450   4.948  1.00  0.00     0.210 HD
ATOM     23  H4  UNL     1      23.413 -51.612   4.446  1.00  0.00     0.210 HD
BRANCH  17  24
HETATM   24  N1  UNL     1      25.966 -49.408   7.187  1.00  0.00    -0.232 N 
ATOM     25  H12 UNL     1      25.994 -49.436   8.206  1.00  0.00     0.174 HD
ATOM     26  H11 UNL     1      26.854 -49.020   6.870  1.00  0.00     0.174 HD
ENDBRANCH  17  24
ENDBRANCH  15  16
ENDBRANCH  14  15
ENDBRANCH   1  14
BRANCH  11  27
HETATM   27  C8  UNL     1      30.435 -55.166   5.043  1.00  0.00     0.198 C 
BRANCH  27  28
HETATM   28  N9  UNL     1      30.948 -53.892   4.627  1.00  0.00    -0.209 N 
HETATM   29  C9  UNL     1      30.199 -52.806   4.027  1.00  0.00     0.161 C 
HETATM   30  C10 UNL     1      31.251 -52.139   3.167  1.00  0.00     0.158 C 
HETATM   31  N10 UNL     1      32.467 -52.440   3.894  1.00  0.00    -0.223 N 
HETATM   32  C11 UNL     1      32.288 -53.429   4.714  1.00  0.00     0.696 C 
ATOM     33  H10 UNL     1      33.348 -51.940   3.776  1.00  0.00     0.177 HD
BRANCH  32  34
HETATM   34  N11 UNL     1      33.253 -54.016   5.602  1.00  0.00    -0.072 N 
ATOM     35  H11 UNL     1      33.026 -54.222   6.574  1.00  0.00     0.212 HD
BRANCH  34  36
HETATM   36  N12 UNL     1      34.508 -54.291   5.079  1.00  0.00    -0.024 N 
HETATM   37  O2  UNL     1      34.925 -55.464   5.117  1.00  0.00    -0.516 OA
HETATM   38  O3  UNL     1      35.325 -53.341   4.519  1.00  0.00    -0.516 OA
ENDBRANCH  34  36
ENDBRANCH  32  34
ENDBRANCH  27  28
ENDBRANCH  11  27
TORSDOF 8
ENDMDL
MODEL 3
REMARK VINA RESULT: -7.073295830      2.245      4.203
REMARK  8 active torsions:
REMARK  status: ('A' for Active; 'I' for Inactive)
REMARK    1  A    between atoms: N1_1  and  C1_4 
REMARK    2  A    between atoms: N5_11  and  C2_12 
REMARK    3  A    between atoms: C2_12  and  C3_13 
REMARK    4  A    between atoms: C3_13  and  N6_14 
REMARK    5  A    between atoms: C7_24  and  C8_25 
REMARK    6  A    between atoms: C8_25  and  N9_26 
REMARK    7  A    between atoms: C11_31  and  N11_32 
REMARK    8  A    between atoms: N11_32  and  N12_34 
ROOT
HETATM    1  N6  UNL     1      25.352 -52.939   3.916  1.00  0.00    -0.320 N 
HETATM    2  C4  UNL     1      24.453 -52.356   4.719  1.00  0.00     0.181 A 
HETATM    3  S1  UNL     1      22.926 -52.018   4.235  1.00  0.00    -0.040 SA
HETATM    4  N7  UNL     1      24.829 -52.041   5.971  1.00  0.00    -0.298 N 
ATOM      5  H7  UNL     1      24.163 -51.596   6.604  1.00  0.00     0.171 HD
HETATM    6  C5  UNL     1      26.083 -52.310   6.397  1.00  0.00     0.276 A 
HETATM    7  O1  UNL     1      26.468 -52.027   7.564  1.00  0.00    -0.266 OA
HETATM    8  C6  UNL     1      27.016 -52.913   5.564  1.00  0.00     0.128 A 
HETATM    9  N8  UNL     1      28.299 -53.289   5.711  1.00  0.00    -0.352 N 
ATOM     10  H8  UNL     1      28.848 -53.172   6.562  1.00  0.00     0.166 HD
HETATM   11  C7  UNL     1      28.751 -53.840   4.574  1.00  0.00     0.030 A 
HETATM   12  C12 UNL     1      27.705 -53.805   3.682  1.00  0.00     0.059 A 
HETATM   13  C13 UNL     1      26.617 -53.226   4.295  1.00  0.00     0.071 A 
ENDROOT
BRANCH   1  14
HETATM   14  C3  UNL     1      24.929 -53.269   2.576  1.00  0.00     0.154 C 
BRANCH  14  15
HETATM   15  C2  UNL     1      25.083 -54.770   2.331  1.00  0.00     0.190 C 
BRANCH  15  16
HETATM   16  N5  UNL     1      24.122 -55.511   3.144  1.00  0.00    -0.106 N 
HETATM   17  C1  UNL     1      24.447 -56.384   4.113  1.00  0.00     0.709 A 
HETATM   18  N2  UNL     1      23.304 -56.854   4.624  1.00  0.00    -0.115 N 
HETATM   19  N3  UNL     1      22.300 -56.290   3.990  1.00  0.00    -0.213 N 
ATOM     20  H2  UNL     1      23.225 -57.535   5.378  1.00  0.00     0.207 HD
HETATM   21  N4  UNL     1      22.808 -55.474   3.090  1.00  0.00    -0.211 N 
ATOM     22  H3  UNL     1      21.308 -56.454   4.163  1.00  0.00     0.210 HD
ATOM     23  H4  UNL     1      22.264 -54.899   2.447  1.00  0.00     0.210 HD
BRANCH  17  24
HETATM   24  N1  UNL     1      25.625 -56.730   4.507  1.00  0.00    -0.232 N 
ATOM     25  H12 UNL     1      25.991 -57.673   4.638  1.00  0.00     0.174 HD
ATOM     26  H11 UNL     1      26.372 -56.078   4.747  1.00  0.00     0.174 HD
ENDBRANCH  17  24
ENDBRANCH  15  16
ENDBRANCH  14  15
ENDBRANCH   1  14
BRANCH  11  27
HETATM   27  C8  UNL     1      30.121 -54.364   4.382  1.00  0.00     0.198 C 
BRANCH  27  28
HETATM   28  N9  UNL     1      31.000 -53.241   4.218  1.00  0.00    -0.209 N 
HETATM   29  C9  UNL     1      30.641 -51.916   3.753  1.00  0.00     0.161 C 
HETATM   30  C10 UNL     1      31.923 -51.460   3.090  1.00  0.00     0.158 C 
HETATM   31  N10 UNL     1      32.925 -52.189   3.840  1.00  0.00    -0.223 N 
HETATM   32  C11 UNL     1      32.397 -53.191   4.472  1.00  0.00     0.696 C 
ATOM     33  H10 UNL     1      33.915 -51.947   3.868  1.00  0.00     0.177 HD
BRANCH  32  34
HETATM   34  N11 UNL     1      33.064 -54.144   5.317  1.00  0.00    -0.072 N 
ATOM     35  H11 UNL     1      32.555 -54.680   6.020  1.00  0.00     0.212 HD
BRANCH  34  36
HETATM   36  N12 UNL     1      34.429 -54.302   5.135  1.00  0.00    -0.024 N 
HETATM   37  O2  UNL     1      34.892 -55.457   5.080  1.00  0.00    -0.516 OA
HETATM   38  O3  UNL     1      35.308 -53.255   5.013  1.00  0.00    -0.516 OA
ENDBRANCH  34  36
ENDBRANCH  32  34
ENDBRANCH  27  28
ENDBRANCH  11  27
TORSDOF 8
ENDMDL
MODEL 4
REMARK VINA RESULT: -6.919439150      2.690      4.525
REMARK  8 active torsions:
REMARK  status: ('A' for Active; 'I' for Inactive)
REMARK    1  A    between atoms: N1_1  and  C1_4 
REMARK    2  A    between atoms: N5_11  and  C2_12 
REMARK    3  A    between atoms: C2_12  and  C3_13 
REMARK    4  A    between atoms: C3_13  and  N6_14 
REMARK    5  A    between atoms: C7_24  and  C8_25 
REMARK    6  A    between atoms: C8_25  and  N9_26 
REMARK    7  A    between atoms: C11_31  and  N11_32 
REMARK    8  A    between atoms: N11_32  and  N12_34 
ROOT
HETATM    1  N6  UNL     1      26.504 -53.428   4.352  1.00  0.00    -0.320 N 
HETATM    2  C4  UNL     1      25.766 -53.024   5.394  1.00  0.00     0.181 A 
HETATM    3  S1  UNL     1      24.499 -53.888   5.965  1.00  0.00    -0.040 SA
HETATM    4  N7  UNL     1      26.087 -51.860   5.986  1.00  0.00    -0.298 N 
ATOM      5  H7  UNL     1      25.541 -51.528   6.782  1.00  0.00     0.171 HD
HETATM    6  C5  UNL     1      27.129 -51.128   5.535  1.00  0.00     0.276 A 
HETATM    7  O1  UNL     1      27.457 -50.032   6.067  1.00  0.00    -0.266 OA
HETATM    8  C6  UNL     1      27.894 -51.546   4.455  1.00  0.00     0.128 A 
HETATM    9  N8  UNL     1      28.957 -51.038   3.806  1.00  0.00    -0.352 N 
ATOM     10  H8  UNL     1      29.419 -50.159   4.038  1.00  0.00     0.166 HD
HETATM   11  C7  UNL     1      29.323 -51.857   2.808  1.00  0.00     0.030 A 
HETATM   12  C12 UNL     1      28.450 -52.918   2.836  1.00  0.00     0.059 A 
HETATM   13  C13 UNL     1      27.554 -52.731   3.864  1.00  0.00     0.071 A 
ENDROOT
BRANCH   1  14
HETATM   14  C3  UNL     1      26.143 -54.679   3.729  1.00  0.00     0.154 C 
BRANCH  14  15
HETATM   15  C2  UNL     1      26.561 -55.850   4.620  1.00  0.00     0.190 C 
BRANCH  15  16
HETATM   16  N5  UNL     1      27.987 -55.764   4.924  1.00  0.00    -0.106 N 
HETATM   17  C1  UNL     1      28.500 -55.492   6.136  1.00  0.00     0.709 A 
HETATM   18  N2  UNL     1      29.831 -55.500   6.016  1.00  0.00    -0.115 N 
HETATM   19  N3  UNL     1      30.136 -55.767   4.765  1.00  0.00    -0.213 N 
ATOM     20  H2  UNL     1      30.498 -55.327   6.768  1.00  0.00     0.207 HD
HETATM   21  N4  UNL     1      29.007 -55.926   4.108  1.00  0.00    -0.211 N 
ATOM     22  H3  UNL     1      31.077 -55.838   4.375  1.00  0.00     0.210 HD
ATOM     23  H4  UNL     1      28.933 -56.143   3.114  1.00  0.00     0.210 HD
BRANCH  17  24
HETATM   24  N1  UNL     1      27.862 -55.263   7.233  1.00  0.00    -0.232 N 
ATOM     25  H12 UNL     1      28.120 -55.544   8.180  1.00  0.00     0.174 HD
ATOM     26  H11 UNL     1      26.984 -54.748   7.298  1.00  0.00     0.174 HD
ENDBRANCH  17  24
ENDBRANCH  15  16
ENDBRANCH  14  15
ENDBRANCH   1  14
BRANCH  11  27
HETATM   27  C8  UNL     1      30.455 -51.607   1.889  1.00  0.00     0.198 C 
BRANCH  27  28
HETATM   28  N9  UNL     1      31.471 -50.910   2.625  1.00  0.00    -0.209 N 
HETATM   29  C9  UNL     1      31.746 -49.487   2.594  1.00  0.00     0.161 C 
HETATM   30  C10 UNL     1      33.231 -49.450   2.884  1.00  0.00     0.158 C 
HETATM   31  N10 UNL     1      33.411 -50.644   3.684  1.00  0.00    -0.223 N 
HETATM   32  C11 UNL     1      32.415 -51.461   3.532  1.00  0.00     0.696 C 
ATOM     33  H10 UNL     1      34.214 -50.819   4.287  1.00  0.00     0.177 HD
BRANCH  32  34
HETATM   34  N11 UNL     1      32.231 -52.743   4.155  1.00  0.00    -0.072 N 
ATOM     35  H11 UNL     1      32.394 -53.611   3.646  1.00  0.00     0.212 HD
BRANCH  34  36
HETATM   36  N12 UNL     1      31.823 -52.749   5.480  1.00  0.00    -0.024 N 
HETATM   37  O2  UNL     1      32.235 -53.656   6.227  1.00  0.00    -0.516 OA
HETATM   38  O3  UNL     1      30.983 -51.808   6.023  1.00  0.00    -0.516 OA
ENDBRANCH  34  36
ENDBRANCH  32  34
ENDBRANCH  27  28
ENDBRANCH  11  27
TORSDOF 8
ENDMDL
MODEL 5
REMARK VINA RESULT: -6.879306154      1.928      2.294
REMARK  8 active torsions:
REMARK  status: ('A' for Active; 'I' for Inactive)
REMARK    1  A    between atoms: N1_1  and  C1_4 
REMARK    2  A    between atoms: N5_11  and  C2_12 
REMARK    3  A    between atoms: C2_12  and  C3_13 
REMARK    4  A    between atoms: C3_13  and  N6_14 
REMARK    5  A    between atoms: C7_24  and  C8_25 
REMARK    6  A    between atoms: C8_25  and  N9_26 
REMARK    7  A    between atoms: C11_31  and  N11_32 
REMARK    8  A    between atoms: N11_32  and  N12_34 
ROOT
HETATM    1  N6  UNL     1      26.259 -55.675   4.349  1.00  0.00    -0.320 N 
HETATM    2  C4  UNL     1      25.632 -56.161   3.270  1.00  0.00     0.181 A 
HETATM    3  S1  UNL     1      24.007 -56.345   3.201  1.00  0.00    -0.040 SA
HETATM    4  N7  UNL     1      26.377 -56.509   2.206  1.00  0.00    -0.298 N 
ATOM      5  H7  UNL     1      25.926 -56.882   1.370  1.00  0.00     0.171 HD
HETATM    6  C5  UNL     1      27.721 -56.367   2.235  1.00  0.00     0.276 A 
HETATM    7  O1  UNL     1      28.449 -56.683   1.255  1.00  0.00    -0.266 OA
HETATM    8  C6  UNL     1      28.370 -55.863   3.355  1.00  0.00     0.128 A 
HETATM    9  N8  UNL     1      29.657 -55.618   3.660  1.00  0.00    -0.352 N 
ATOM     10  H8  UNL     1      30.448 -55.787   3.039  1.00  0.00     0.166 HD
HETATM   11  C7  UNL     1      29.749 -55.120   4.902  1.00  0.00     0.030 A 
HETATM   12  C12 UNL     1      28.466 -55.052   5.390  1.00  0.00     0.059 A 
HETATM   13  C13 UNL     1      27.598 -55.515   4.427  1.00  0.00     0.071 A 
ENDROOT
BRANCH   1  14
HETATM   14  C3  UNL     1      25.442 -55.308   5.481  1.00  0.00     0.154 C 
BRANCH  14  15
HETATM   15  C2  UNL     1      25.502 -53.797   5.706  1.00  0.00     0.190 C 
BRANCH  15  16
HETATM   16  N5  UNL     1      24.228 -53.185   5.336  1.00  0.00    -0.106 N 
HETATM   17  C1  UNL     1      24.097 -52.018   4.683  1.00  0.00     0.709 A 
HETATM   18  N2  UNL     1      22.788 -51.794   4.528  1.00  0.00    -0.115 N 
HETATM   19  N3  UNL     1      22.126 -52.792   5.071  1.00  0.00    -0.213 N 
ATOM     20  H2  UNL     1      22.373 -50.984   4.067  1.00  0.00     0.207 HD
HETATM   21  N4  UNL     1      23.012 -53.634   5.560  1.00  0.00    -0.211 N 
ATOM     22  H3  UNL     1      21.112 -52.895   5.106  1.00  0.00     0.210 HD
ATOM     23  H4  UNL     1      22.789 -54.505   6.041  1.00  0.00     0.210 HD
BRANCH  17  24
HETATM   24  N1  UNL     1      25.031 -51.233   4.265  1.00  0.00    -0.232 N 
ATOM     25  H12 UNL     1      25.825 -51.463   3.667  1.00  0.00     0.174 HD
ATOM     26  H11 UNL     1      25.098 -50.240   4.489  1.00  0.00     0.174 HD
ENDBRANCH  17  24
ENDBRANCH  15  16
ENDBRANCH  14  15
ENDBRANCH   1  14
BRANCH  11  27
HETATM   27  C8  UNL     1      31.017 -54.737   5.562  1.00  0.00     0.198 C 
BRANCH  27  28
HETATM   28  N9  UNL     1      31.463 -53.506   4.973  1.00  0.00    -0.209 N 
HETATM   29  C9  UNL     1      30.668 -52.317   4.736  1.00  0.00     0.161 C 
HETATM   30  C10 UNL     1      31.348 -51.725   3.520  1.00  0.00     0.158 C 
HETATM   31  N10 UNL     1      32.710 -52.191   3.682  1.00  0.00    -0.223 N 
HETATM   32  C11 UNL     1      32.766 -53.195   4.502  1.00  0.00     0.696 C 
ATOM     33  H10 UNL     1      33.519 -51.783   3.213  1.00  0.00     0.177 HD
BRANCH  32  34
HETATM   34  N11 UNL     1      33.933 -53.925   4.914  1.00  0.00    -0.072 N 
ATOM     35  H11 UNL     1      33.865 -54.727   5.539  1.00  0.00     0.212 HD
BRANCH  34  36
HETATM   36  N12 UNL     1      35.155 -53.492   4.423  1.00  0.00    -0.024 N 
HETATM   37  O2  UNL     1      36.009 -53.082   5.231  1.00  0.00    -0.516 OA
HETATM   38  O3  UNL     1      35.483 -53.488   3.090  1.00  0.00    -0.516 OA
ENDBRANCH  34  36
ENDBRANCH  32  34
ENDBRANCH  27  28
ENDBRANCH  11  27
TORSDOF 8
ENDMDL
