MODEL 1
REMARK VINA RESULT: -7.288281935      0.000      0.000
REMARK  9 active torsions:
REMARK  status: ('A' for Active; 'I' for Inactive)
REMARK    1  A    between atoms: O1_2  and  C2_3 
REMARK    2  A    between atoms: C2_3  and  C3_5 
REMARK    3  A    between atoms: C3_5  and  C4_6 
REMARK    4  A    between atoms: C4_6  and  C5_7 
REMARK    5  A    between atoms: C5_7  and  N1_8 
REMARK    6  A    between atoms: N3_17  and  N4_19 
REMARK    7  A    between atoms: N4_19  and  C11_21 
REMARK    8  A    between atoms: C11_21  and  N5_23 
REMARK    9  A    between atoms: N5_23  and  N6_25 
REMARK       I    between atoms: N6_25  and  C12_27 
ROOT
HETATM    1  C3  UNL     1      11.424  46.545 -34.534  1.00  0.00     0.102 C 
HETATM    2  N3  UNL     1      12.156  46.173 -35.468  1.00  0.00    -0.297 N 
ATOM      3  H3  UNL     1      12.811  46.877 -35.810  1.00  0.00     0.187 HD
ENDROOT
BRANCH   1   4
HETATM    4  C2  UNL     1      10.435  45.693 -33.919  1.00  0.00     0.306 C 
HETATM    5  O2  UNL     1       9.321  45.553 -34.508  1.00  0.00    -0.258 OA
BRANCH   4   6
HETATM    6  O1  UNL     1      10.613  45.006 -32.717  1.00  0.00    -0.322 OA
HETATM    7  C1  UNL     1      11.580  43.970 -32.675  1.00  0.00     0.213 C 
ENDBRANCH   4   6
ENDBRANCH   1   4
BRANCH   1   8
HETATM    8  C4  UNL     1      11.617  47.947 -34.008  1.00  0.00     0.087 C 
BRANCH   8   9
HETATM    9  C5  UNL     1      10.305  48.599 -33.659  1.00  0.00     0.158 C 
BRANCH   9  10
HETATM   10  N1  UNL     1       9.642  49.138 -34.821  1.00  0.00    -0.257 N 
HETATM   11  N2  UNL     1       8.635  48.583 -35.452  1.00  0.00    -0.300 N 
HETATM   12  C6  UNL     1       8.262  49.370 -36.484  1.00  0.00     0.033 A 
ATOM     13  H2  UNL     1       8.201  47.694 -35.203  1.00  0.00     0.187 HD
HETATM   14  C7  UNL     1       7.150  49.056 -37.417  1.00  0.00     0.070 C 
HETATM   15  C8  UNL     1       9.082  50.470 -36.492  1.00  0.00     0.031 A 
HETATM   16  C9  UNL     1       9.027  51.580 -37.447  1.00  0.00     0.056 C 
HETATM   17  C10 UNL     1       9.947  50.286 -35.417  1.00  0.00     0.269 A 
HETATM   18  O3  UNL     1      10.839  51.128 -35.138  1.00  0.00    -0.266 OA
ENDBRANCH   9  10
ENDBRANCH   8   9
ENDBRANCH   1   8
BRANCH   2  19
HETATM   19  N4  UNL     1      12.221  44.964 -36.110  1.00  0.00    -0.275 N 
ATOM     20  H4  UNL     1      11.641  44.182 -35.806  1.00  0.00     0.189 HD
BRANCH  19  21
HETATM   21  C11 UNL     1      13.107  44.822 -37.202  1.00  0.00     0.205 C 
HETATM   22  S1  UNL     1      12.538  45.016 -38.710  1.00  0.00    -0.038 SA
BRANCH  21  23
HETATM   23  N5  UNL     1      14.468  44.513 -36.964  1.00  0.00    -0.273 N 
ATOM     24  H5  UNL     1      14.714  44.038 -36.095  1.00  0.00     0.189 HD
BRANCH  23  25
HETATM   25  N6  UNL     1      15.485  44.826 -37.858  1.00  0.00    -0.268 N 
HETATM   26  C12 UNL     1      16.331  43.794 -38.319  1.00  0.00     0.232 C 
HETATM   27  C13 UNL     1      17.430  44.072 -39.271  1.00  0.00     0.119 C 
HETATM   28  O4  UNL     1      16.141  42.625 -37.910  1.00  0.00    -0.272 OA
ATOM     29  H6  UNL     1      15.618  45.786 -38.175  1.00  0.00     0.190 HD
ENDBRANCH  23  25
ENDBRANCH  21  23
ENDBRANCH  19  21
ENDBRANCH   2  19
TORSDOF 9
ENDMDL
MODEL 2
REMARK VINA RESULT: -7.033653558      2.015      7.747
REMARK  9 active torsions:
REMARK  status: ('A' for Active; 'I' for Inactive)
REMARK    1  A    between atoms: O1_2  and  C2_3 
REMARK    2  A    between atoms: C2_3  and  C3_5 
REMARK    3  A    between atoms: C3_5  and  C4_6 
REMARK    4  A    between atoms: C4_6  and  C5_7 
REMARK    5  A    between atoms: C5_7  and  N1_8 
REMARK    6  A    between atoms: N3_17  and  N4_19 
REMARK    7  A    between atoms: N4_19  and  C11_21 
REMARK    8  A    between atoms: C11_21  and  N5_23 
REMARK    9  A    between atoms: N5_23  and  N6_25 
REMARK       I    between atoms: N6_25  and  C12_27 
ROOT
HETATM    1  C3  UNL     1      12.009  45.423 -35.785  1.00  0.00     0.102 C 
HETATM    2  N3  UNL     1      11.524  46.530 -36.083  1.00  0.00    -0.297 N 
ATOM      3  H3  UNL     1      12.155  47.156 -36.584  1.00  0.00     0.187 HD
ENDROOT
BRANCH   1   4
HETATM    4  C2  UNL     1      11.273  44.405 -35.077  1.00  0.00     0.306 C 
HETATM    5  O2  UNL     1      10.206  43.967 -35.604  1.00  0.00    -0.258 OA
BRANCH   4   6
HETATM    6  O1  UNL     1      11.648  43.859 -33.848  1.00  0.00    -0.322 OA
HETATM    7  C1  UNL     1      11.310  44.570 -32.669  1.00  0.00     0.213 C 
ENDBRANCH   4   6
ENDBRANCH   1   4
BRANCH   1   8
HETATM    8  C4  UNL     1      13.423  45.136 -36.227  1.00  0.00     0.087 C 
BRANCH   8   9
HETATM    9  C5  UNL     1      13.487  44.746 -37.680  1.00  0.00     0.158 C 
BRANCH   9  10
HETATM   10  N1  UNL     1      14.843  44.547 -38.130  1.00  0.00    -0.257 N 
HETATM   11  N2  UNL     1      15.891  45.220 -37.718  1.00  0.00    -0.300 N 
HETATM   12  C6  UNL     1      16.996  44.759 -38.344  1.00  0.00     0.033 A 
ATOM     13  H2  UNL     1      15.875  45.975 -37.033  1.00  0.00     0.187 HD
HETATM   14  C7  UNL     1      18.366  45.286 -38.120  1.00  0.00     0.070 C 
HETATM   15  C8  UNL     1      16.610  43.748 -39.187  1.00  0.00     0.031 A 
HETATM   16  C9  UNL     1      17.493  42.969 -40.060  1.00  0.00     0.056 C 
HETATM   17  C10 UNL     1      15.232  43.642 -39.022  1.00  0.00     0.269 A 
HETATM   18  O3  UNL     1      14.555  42.796 -39.660  1.00  0.00    -0.266 OA
ENDBRANCH   9  10
ENDBRANCH   8   9
ENDBRANCH   1   8
BRANCH   2  19
HETATM   19  N4  UNL     1      10.275  47.039 -35.843  1.00  0.00    -0.275 N 
ATOM     20  H4  UNL     1       9.459  46.661 -36.323  1.00  0.00     0.189 HD
BRANCH  19  21
HETATM   21  C11 UNL     1      10.140  48.098 -34.917  1.00  0.00     0.205 C 
HETATM   22  S1  UNL     1      11.187  48.204 -33.682  1.00  0.00    -0.038 SA
BRANCH  21  23
HETATM   23  N5  UNL     1       9.098  49.043 -35.082  1.00  0.00    -0.273 N 
ATOM     24  H5  UNL     1       8.148  48.767 -34.834  1.00  0.00     0.189 HD
BRANCH  23  25
HETATM   25  N6  UNL     1       9.309  50.328 -35.566  1.00  0.00    -0.268 N 
HETATM   26  C12 UNL     1       8.914  50.634 -36.887  1.00  0.00     0.232 C 
HETATM   27  C13 UNL     1       9.115  51.986 -37.454  1.00  0.00     0.119 C 
HETATM   28  O4  UNL     1       8.383  49.738 -37.585  1.00  0.00    -0.272 OA
ATOM     29  H6  UNL     1       9.743  51.039 -34.977  1.00  0.00     0.190 HD
ENDBRANCH  23  25
ENDBRANCH  21  23
ENDBRANCH  19  21
ENDBRANCH   2  19
TORSDOF 9
ENDMDL
MODEL 3
REMARK VINA RESULT: -6.591213410      2.236      7.237
REMARK  9 active torsions:
REMARK  status: ('A' for Active; 'I' for Inactive)
REMARK    1  A    between atoms: O1_2  and  C2_3 
REMARK    2  A    between atoms: C2_3  and  C3_5 
REMARK    3  A    between atoms: C3_5  and  C4_6 
REMARK    4  A    between atoms: C4_6  and  C5_7 
REMARK    5  A    between atoms: C5_7  and  N1_8 
REMARK    6  A    between atoms: N3_17  and  N4_19 
REMARK    7  A    between atoms: N4_19  and  C11_21 
REMARK    8  A    between atoms: C11_21  and  N5_23 
REMARK    9  A    between atoms: N5_23  and  N6_25 
REMARK       I    between atoms: N6_25  and  C12_27 
ROOT
HETATM    1  C3  UNL     1      10.857  45.948 -35.258  1.00  0.00     0.102 C 
HETATM    2  N3  UNL     1      10.645  47.134 -35.567  1.00  0.00    -0.297 N 
ATOM      3  H3  UNL     1      11.176  47.472 -36.370  1.00  0.00     0.187 HD
ENDROOT
BRANCH   1   4
HETATM    4  C2  UNL     1      10.202  45.291 -34.152  1.00  0.00     0.306 C 
HETATM    5  O2  UNL     1       9.000  45.607 -33.901  1.00  0.00    -0.258 OA
BRANCH   4   6
HETATM    6  O1  UNL     1      10.794  44.328 -33.334  1.00  0.00    -0.322 OA
HETATM    7  C1  UNL     1      11.963  44.686 -32.616  1.00  0.00     0.213 C 
ENDBRANCH   4   6
ENDBRANCH   1   4
BRANCH   1   8
HETATM    8  C4  UNL     1      11.821  45.163 -36.114  1.00  0.00     0.087 C 
BRANCH   8   9
HETATM    9  C5  UNL     1      12.852  46.053 -36.755  1.00  0.00     0.158 C 
BRANCH   9  10
HETATM   10  N1  UNL     1      13.824  45.301 -37.510  1.00  0.00    -0.257 N 
HETATM   11  N2  UNL     1      15.126  45.433 -37.427  1.00  0.00    -0.300 N 
HETATM   12  C6  UNL     1      15.722  44.562 -38.269  1.00  0.00     0.033 A 
ATOM     13  H2  UNL     1      15.614  46.092 -36.819  1.00  0.00     0.187 HD
HETATM   14  C7  UNL     1      17.192  44.430 -38.435  1.00  0.00     0.070 C 
HETATM   15  C8  UNL     1      14.737  43.854 -38.908  1.00  0.00     0.031 A 
HETATM   16  C9  UNL     1      14.940  42.804 -39.910  1.00  0.00     0.056 C 
HETATM   17  C10 UNL     1      13.541  44.353 -38.398  1.00  0.00     0.269 A 
HETATM   18  O3  UNL     1      12.427  43.912 -38.780  1.00  0.00    -0.266 OA
ENDBRANCH   9  10
ENDBRANCH   8   9
ENDBRANCH   1   8
BRANCH   2  19
HETATM   19  N4  UNL     1       9.809  48.058 -34.996  1.00  0.00    -0.275 N 
ATOM     20  H4  UNL     1       8.912  47.775 -34.603  1.00  0.00     0.189 HD
BRANCH  19  21
HETATM   21  C11 UNL     1      10.215  49.412 -34.963  1.00  0.00     0.205 C 
HETATM   22  S1  UNL     1      11.455  49.840 -34.008  1.00  0.00    -0.038 SA
BRANCH  21  23
HETATM   23  N5  UNL     1       9.536  50.366 -35.759  1.00  0.00    -0.273 N 
ATOM     24  H5  UNL     1      10.059  51.169 -36.108  1.00  0.00     0.189 HD
BRANCH  23  25
HETATM   25  N6  UNL     1       8.190  50.259 -36.087  1.00  0.00    -0.268 N 
HETATM   26  C12 UNL     1       7.790  49.279 -37.021  1.00  0.00     0.232 C 
HETATM   27  C13 UNL     1       6.370  49.121 -37.408  1.00  0.00     0.119 C 
HETATM   28  O4  UNL     1       8.660  48.531 -37.527  1.00  0.00    -0.272 OA
ATOM     29  H6  UNL     1       7.502  50.879 -35.661  1.00  0.00     0.190 HD
ENDBRANCH  23  25
ENDBRANCH  21  23
ENDBRANCH  19  21
ENDBRANCH   2  19
TORSDOF 9
ENDMDL
MODEL 4
REMARK VINA RESULT: -6.397973584      1.425      1.820
REMARK  9 active torsions:
REMARK  status: ('A' for Active; 'I' for Inactive)
REMARK    1  A    between atoms: O1_2  and  C2_3 
REMARK    2  A    between atoms: C2_3  and  C3_5 
REMARK    3  A    between atoms: C3_5  and  C4_6 
REMARK    4  A    between atoms: C4_6  and  C5_7 
REMARK    5  A    between atoms: C5_7  and  N1_8 
REMARK    6  A    between atoms: N3_17  and  N4_19 
REMARK    7  A    between atoms: N4_19  and  C11_21 
REMARK    8  A    between atoms: C11_21  and  N5_23 
REMARK    9  A    between atoms: N5_23  and  N6_25 
REMARK       I    between atoms: N6_25  and  C12_27 
ROOT
HETATM    1  C3  UNL     1      12.093  46.162 -35.439  1.00  0.00     0.102 C 
HETATM    2  N3  UNL     1      12.525  46.038 -36.599  1.00  0.00    -0.297 N 
ATOM      3  H3  UNL     1      12.949  46.879 -36.993  1.00  0.00     0.187 HD
ENDROOT
BRANCH   1   4
HETATM    4  C2  UNL     1      11.461  45.087 -34.714  1.00  0.00     0.306 C 
HETATM    5  O2  UNL     1      10.472  44.506 -35.255  1.00  0.00    -0.258 OA
BRANCH   4   6
HETATM    6  O1  UNL     1      11.857  44.634 -33.455  1.00  0.00    -0.322 OA
HETATM    7  C1  UNL     1      10.954  44.786 -32.373  1.00  0.00     0.213 C 
ENDBRANCH   4   6
ENDBRANCH   1   4
BRANCH   1   8
HETATM    8  C4  UNL     1      12.282  47.497 -34.760  1.00  0.00     0.087 C 
BRANCH   8   9
HETATM    9  C5  UNL     1      11.017  47.968 -34.092  1.00  0.00     0.158 C 
BRANCH   9  10
HETATM   10  N1  UNL     1      10.189  48.742 -34.983  1.00  0.00    -0.257 N 
HETATM   11  N2  UNL     1      10.378  50.000 -35.303  1.00  0.00    -0.300 N 
HETATM   12  C6  UNL     1       9.417  50.394 -36.166  1.00  0.00     0.033 A 
ATOM     13  H2  UNL     1      11.133  50.590 -34.953  1.00  0.00     0.187 HD
HETATM   14  C7  UNL     1       9.320  51.758 -36.744  1.00  0.00     0.070 C 
HETATM   15  C8  UNL     1       8.590  49.324 -36.392  1.00  0.00     0.031 A 
HETATM   16  C9  UNL     1       7.414  49.311 -37.266  1.00  0.00     0.056 C 
HETATM   17  C10 UNL     1       9.114  48.289 -35.621  1.00  0.00     0.269 A 
HETATM   18  O3  UNL     1       8.584  47.150 -35.600  1.00  0.00    -0.266 OA
ENDBRANCH   9  10
ENDBRANCH   8   9
ENDBRANCH   1   8
BRANCH   2  19
HETATM   19  N4  UNL     1      12.519  44.949 -37.431  1.00  0.00    -0.275 N 
ATOM     20  H4  UNL     1      11.651  44.455 -37.635  1.00  0.00     0.189 HD
BRANCH  19  21
HETATM   21  C11 UNL     1      13.741  44.524 -38.000  1.00  0.00     0.205 C 
HETATM   22  S1  UNL     1      13.725  43.808 -39.456  1.00  0.00    -0.038 SA
BRANCH  21  23
HETATM   23  N5  UNL     1      14.951  44.728 -37.294  1.00  0.00    -0.273 N 
ATOM     24  H5  UNL     1      14.962  44.558 -36.289  1.00  0.00     0.189 HD
BRANCH  23  25
HETATM   25  N6  UNL     1      16.125  45.150 -37.907  1.00  0.00    -0.268 N 
HETATM   26  C12 UNL     1      17.129  44.197 -38.187  1.00  0.00     0.232 C 
HETATM   27  C13 UNL     1      18.399  44.591 -38.838  1.00  0.00     0.119 C 
HETATM   28  O4  UNL     1      16.934  42.999 -37.877  1.00  0.00    -0.272 OA
ATOM     29  H6  UNL     1      16.260  46.131 -38.150  1.00  0.00     0.190 HD
ENDBRANCH  23  25
ENDBRANCH  21  23
ENDBRANCH  19  21
ENDBRANCH   2  19
TORSDOF 9
ENDMDL
MODEL 5
REMARK VINA RESULT: -6.389719487      1.452      1.826
REMARK  9 active torsions:
REMARK  status: ('A' for Active; 'I' for Inactive)
REMARK    1  A    between atoms: O1_2  and  C2_3 
REMARK    2  A    between atoms: C2_3  and  C3_5 
REMARK    3  A    between atoms: C3_5  and  C4_6 
REMARK    4  A    between atoms: C4_6  and  C5_7 
REMARK    5  A    between atoms: C5_7  and  N1_8 
REMARK    6  A    between atoms: N3_17  and  N4_19 
REMARK    7  A    between atoms: N4_19  and  C11_21 
REMARK    8  A    between atoms: C11_21  and  N5_23 
REMARK    9  A    between atoms: N5_23  and  N6_25 
REMARK       I    between atoms: N6_25  and  C12_27 
ROOT
HETATM    1  C3  UNL     1      11.463  46.706 -33.829  1.00  0.00     0.102 C 
HETATM    2  N3  UNL     1      12.188  46.604 -34.835  1.00  0.00    -0.297 N 
ATOM      3  H3  UNL     1      12.359  47.478 -35.333  1.00  0.00     0.187 HD
ENDROOT
BRANCH   1   4
HETATM    4  C2  UNL     1      11.108  45.583 -32.996  1.00  0.00     0.306 C 
HETATM    5  O2  UNL     1      10.084  45.693 -32.256  1.00  0.00    -0.258 OA
BRANCH   4   6
HETATM    6  O1  UNL     1      11.809  44.377 -32.942  1.00  0.00    -0.322 OA
HETATM    7  C1  UNL     1      11.358  43.304 -33.750  1.00  0.00     0.213 C 
ENDBRANCH   4   6
ENDBRANCH   1   4
BRANCH   1   8
HETATM    8  C4  UNL     1      10.971  48.083 -33.457  1.00  0.00     0.087 C 
BRANCH   8   9
HETATM    9  C5  UNL     1      11.470  49.133 -34.415  1.00  0.00     0.158 C 
BRANCH   9  10
HETATM   10  N1  UNL     1      10.423  49.621 -35.278  1.00  0.00    -0.257 N 
HETATM   11  N2  UNL     1      10.320  50.845 -35.738  1.00  0.00    -0.300 N 
HETATM   12  C6  UNL     1       9.225  50.941 -36.522  1.00  0.00     0.033 A 
ATOM     13  H2  UNL     1      10.967  51.607 -35.534  1.00  0.00     0.187 HD
HETATM   14  C7  UNL     1       8.798  52.183 -37.215  1.00  0.00     0.070 C 
HETATM   15  C8  UNL     1       8.618  49.711 -36.549  1.00  0.00     0.031 A 
HETATM   16  C9  UNL     1       7.396  49.368 -37.280  1.00  0.00     0.056 C 
HETATM   17  C10 UNL     1       9.411  48.897 -35.745  1.00  0.00     0.269 A 
HETATM   18  O3  UNL     1       9.131  47.686 -35.554  1.00  0.00    -0.266 OA
ENDBRANCH   9  10
ENDBRANCH   8   9
ENDBRANCH   1   8
BRANCH   2  19
HETATM   19  N4  UNL     1      12.793  45.501 -35.378  1.00  0.00    -0.275 N 
ATOM     20  H4  UNL     1      13.130  44.746 -34.781  1.00  0.00     0.189 HD
BRANCH  19  21
HETATM   21  C11 UNL     1      12.940  45.430 -36.782  1.00  0.00     0.205 C 
HETATM   22  S1  UNL     1      11.611  45.408 -37.714  1.00  0.00    -0.038 SA
BRANCH  21  23
HETATM   23  N5  UNL     1      14.237  45.378 -37.348  1.00  0.00    -0.273 N 
ATOM     24  H5  UNL     1      14.888  46.135 -37.142  1.00  0.00     0.189 HD
BRANCH  23  25
HETATM   25  N6  UNL     1      14.664  44.344 -38.172  1.00  0.00    -0.268 N 
HETATM   26  C12 UNL     1      16.017  44.304 -38.573  1.00  0.00     0.232 C 
HETATM   27  C13 UNL     1      16.526  43.226 -39.450  1.00  0.00     0.119 C 
HETATM   28  O4  UNL     1      16.795  45.203 -38.175  1.00  0.00    -0.272 OA
ATOM     29  H6  UNL     1      14.011  43.625 -38.482  1.00  0.00     0.190 HD
ENDBRANCH  23  25
ENDBRANCH  21  23
ENDBRANCH  19  21
ENDBRANCH   2  19
TORSDOF 9
ENDMDL
