MODEL 1
REMARK VINA RESULT: -7.762372871      0.000      0.000
REMARK  5 active torsions:
REMARK  status: ('A' for Active; 'I' for Inactive)
REMARK    1  A    between atoms: C1_2  and  C2_3 
REMARK       I    between atoms: C1_2  and  N4_21 
REMARK    2  A    between atoms: C2_3  and  S1_4 
REMARK    3  A    between atoms: S1_4  and  C3_5 
REMARK       I    between atoms: N3_11  and  C5_13 
REMARK    4  A    between atoms: C5_13  and  C6_15 
REMARK    5  A    between atoms: N4_21  and  C11_23 
ROOT
HETATM    1  C3  UNL     1     -14.121 -38.529 -12.725  1.00  0.00     0.130 A 
HETATM    2  N1  UNL     1     -15.341 -38.063 -12.509  1.00  0.00    -0.286 N 
ATOM      3  H1  UNL     1     -15.512 -37.057 -12.538  1.00  0.00     0.188 HD
HETATM    4  N2  UNL     1     -16.300 -38.858 -12.265  1.00  0.00    -0.278 N 
ATOM      5  H2  UNL     1     -17.242 -38.505 -12.098  1.00  0.00     0.189 HD
HETATM    6  C4  UNL     1     -16.045 -40.173 -12.232  1.00  0.00     0.168 A 
HETATM    7  N3  UNL     1     -16.901 -41.141 -11.996  1.00  0.00    -0.306 N 
ATOM      8  H3  UNL     1     -17.885 -40.953 -11.808  1.00  0.00     0.171 HD
HETATM    9  C5  UNL     1     -16.385 -42.461 -12.017  1.00  0.00     0.227 C 
HETATM   10  O2  UNL     1     -16.731 -43.202 -12.964  1.00  0.00    -0.273 OA
HETATM   11  S2  UNL     1     -14.371 -40.212 -12.568  1.00  0.00    -0.026 SA
ENDROOT
BRANCH   1  12
HETATM   12  S1  UNL     1     -12.611 -37.603 -13.089  1.00  0.00    -0.094 SA
BRANCH  12  13
HETATM   13  C2  UNL     1     -11.779 -37.273 -11.535  1.00  0.00     0.184 C 
BRANCH  13  14
HETATM   14  C1  UNL     1     -10.306 -37.335 -11.665  1.00  0.00     0.227 C 
HETATM   15  O1  UNL     1      -9.559 -37.760 -10.749  1.00  0.00    -0.273 OA
HETATM   16  N4  UNL     1      -9.673 -36.906 -12.861  1.00  0.00    -0.356 N 
ATOM     17  H4  UNL     1     -10.255 -36.558 -13.624  1.00  0.00     0.162 HD
BRANCH  16  18
HETATM   18  C11 UNL     1      -8.235 -36.942 -13.045  1.00  0.00     0.084 C 
HETATM   19  C12 UNL     1      -7.666 -35.565 -13.174  1.00  0.00     0.025 C 
HETATM   20  C13 UNL     1      -6.946 -35.369 -14.489  1.00  0.00     0.002 C 
HETATM   21  C14 UNL     1      -7.809 -35.790 -15.667  1.00  0.00     0.000 C 
HETATM   22  C15 UNL     1      -8.190 -37.236 -15.546  1.00  0.00     0.002 C 
HETATM   23  C16 UNL     1      -7.857 -37.834 -14.216  1.00  0.00     0.025 C 
ENDBRANCH  16  18
ENDBRANCH  13  14
ENDBRANCH  12  13
ENDBRANCH   1  12
BRANCH   9  24
HETATM   24  C6  UNL     1     -15.475 -42.985 -10.987  1.00  0.00     0.078 C 
HETATM   25  C7  UNL     1     -15.635 -44.484 -10.879  1.00  0.00     0.014 C 
HETATM   26  C8  UNL     1     -15.017 -44.781  -9.532  1.00  0.00     0.001 C 
HETATM   27  C9  UNL     1     -15.019 -43.483  -8.747  1.00  0.00     0.001 C 
HETATM   28  C10 UNL     1     -15.871 -42.524  -9.591  1.00  0.00     0.014 C 
ENDBRANCH   9  24
TORSDOF 5
ENDMDL
MODEL 2
REMARK VINA RESULT: -7.637657736      2.667      8.016
REMARK  5 active torsions:
REMARK  status: ('A' for Active; 'I' for Inactive)
REMARK    1  A    between atoms: C1_2  and  C2_3 
REMARK       I    between atoms: C1_2  and  N4_21 
REMARK    2  A    between atoms: C2_3  and  S1_4 
REMARK    3  A    between atoms: S1_4  and  C3_5 
REMARK       I    between atoms: N3_11  and  C5_13 
REMARK    4  A    between atoms: C5_13  and  C6_15 
REMARK    5  A    between atoms: N4_21  and  C11_23 
ROOT
HETATM    1  C3  UNL     1     -16.201 -36.140 -13.905  1.00  0.00     0.130 A 
HETATM    2  N1  UNL     1     -16.128 -34.818 -13.939  1.00  0.00    -0.286 N 
ATOM      3  H1  UNL     1     -16.785 -34.289 -14.513  1.00  0.00     0.188 HD
HETATM    4  N2  UNL     1     -15.246 -34.206 -13.263  1.00  0.00    -0.278 N 
ATOM      5  H2  UNL     1     -15.185 -33.188 -13.285  1.00  0.00     0.189 HD
HETATM    6  C4  UNL     1     -14.397 -34.927 -12.520  1.00  0.00     0.168 A 
HETATM    7  N3  UNL     1     -13.424 -34.475 -11.761  1.00  0.00    -0.306 N 
ATOM      8  H3  UNL     1     -13.230 -33.477 -11.676  1.00  0.00     0.171 HD
HETATM    9  C5  UNL     1     -12.659 -35.444 -11.067  1.00  0.00     0.227 C 
HETATM   10  O2  UNL     1     -12.790 -35.503  -9.824  1.00  0.00    -0.273 OA
HETATM   11  S2  UNL     1     -14.924 -36.521 -12.837  1.00  0.00    -0.026 SA
ENDROOT
BRANCH   1  12
HETATM   12  S1  UNL     1     -17.359 -37.224 -14.773  1.00  0.00    -0.094 SA
BRANCH  12  13
HETATM   13  C2  UNL     1     -17.787 -38.570 -13.667  1.00  0.00     0.184 C 
BRANCH  13  14
HETATM   14  C1  UNL     1     -16.785 -39.660 -13.698  1.00  0.00     0.227 C 
HETATM   15  O1  UNL     1     -15.999 -39.833 -14.662  1.00  0.00    -0.273 OA
HETATM   16  N4  UNL     1     -16.677 -40.566 -12.611  1.00  0.00    -0.356 N 
ATOM     17  H4  UNL     1     -17.302 -40.448 -11.812  1.00  0.00     0.162 HD
BRANCH  16  18
HETATM   18  C11 UNL     1     -15.716 -41.652 -12.587  1.00  0.00     0.084 C 
HETATM   19  C12 UNL     1     -16.349 -42.931 -12.138  1.00  0.00     0.025 C 
HETATM   20  C13 UNL     1     -15.687 -43.488 -10.899  1.00  0.00     0.002 C 
HETATM   21  C14 UNL     1     -15.579 -42.439  -9.804  1.00  0.00     0.000 C 
HETATM   22  C15 UNL     1     -14.778 -41.265 -10.283  1.00  0.00     0.002 C 
HETATM   23  C16 UNL     1     -14.500 -41.287 -11.752  1.00  0.00     0.025 C 
ENDBRANCH  16  18
ENDBRANCH  13  14
ENDBRANCH  12  13
ENDBRANCH   1  12
BRANCH   9  24
HETATM   24  C6  UNL     1     -11.734 -36.369 -11.739  1.00  0.00     0.078 C 
HETATM   25  C7  UNL     1     -11.661 -37.668 -10.968  1.00  0.00     0.014 C 
HETATM   26  C8  UNL     1     -10.386 -38.287 -11.494  1.00  0.00     0.001 C 
HETATM   27  C9  UNL     1      -9.562 -37.164 -12.093  1.00  0.00     0.001 C 
HETATM   28  C10 UNL     1     -10.293 -35.882 -11.671  1.00  0.00     0.014 C 
ENDBRANCH   9  24
TORSDOF 5
ENDMDL
MODEL 3
REMARK VINA RESULT: -7.587390335      2.777      7.834
REMARK  5 active torsions:
REMARK  status: ('A' for Active; 'I' for Inactive)
REMARK    1  A    between atoms: C1_2  and  C2_3 
REMARK       I    between atoms: C1_2  and  N4_21 
REMARK    2  A    between atoms: C2_3  and  S1_4 
REMARK    3  A    between atoms: S1_4  and  C3_5 
REMARK       I    between atoms: N3_11  and  C5_13 
REMARK    4  A    between atoms: C5_13  and  C6_15 
REMARK    5  A    between atoms: N4_21  and  C11_23 
ROOT
HETATM    1  C3  UNL     1     -16.197 -35.931 -13.900  1.00  0.00     0.130 A 
HETATM    2  N1  UNL     1     -16.058 -34.614 -13.919  1.00  0.00    -0.286 N 
ATOM      3  H1  UNL     1     -16.683 -34.046 -14.491  1.00  0.00     0.188 HD
HETATM    4  N2  UNL     1     -15.150 -34.054 -13.232  1.00  0.00    -0.278 N 
ATOM      5  H2  UNL     1     -15.038 -33.040 -13.242  1.00  0.00     0.189 HD
HETATM    6  C4  UNL     1     -14.343 -34.825 -12.491  1.00  0.00     0.168 A 
HETATM    7  N3  UNL     1     -13.354 -34.430 -11.722  1.00  0.00    -0.306 N 
ATOM      8  H3  UNL     1     -13.110 -33.444 -11.626  1.00  0.00     0.171 HD
HETATM    9  C5  UNL     1     -12.642 -35.444 -11.034  1.00  0.00     0.227 C 
HETATM   10  O2  UNL     1     -12.783 -35.508  -9.793  1.00  0.00    -0.273 OA
HETATM   11  S2  UNL     1     -14.947 -36.387 -12.828  1.00  0.00    -0.026 SA
ENDROOT
BRANCH   1  12
HETATM   12  S1  UNL     1     -17.403 -36.946 -14.785  1.00  0.00    -0.094 SA
BRANCH  12  13
HETATM   13  C2  UNL     1     -18.359 -37.853 -13.568  1.00  0.00     0.184 C 
BRANCH  13  14
HETATM   14  C1  UNL     1     -17.859 -39.234 -13.380  1.00  0.00     0.227 C 
HETATM   15  O1  UNL     1     -18.192 -40.186 -14.128  1.00  0.00    -0.273 OA
HETATM   16  N4  UNL     1     -16.964 -39.533 -12.320  1.00  0.00    -0.356 N 
ATOM     17  H4  UNL     1     -16.673 -38.779 -11.697  1.00  0.00     0.162 HD
BRANCH  16  18
HETATM   18  C11 UNL     1     -16.443 -40.867 -12.086  1.00  0.00     0.084 C 
HETATM   19  C12 UNL     1     -16.468 -41.216 -10.632  1.00  0.00     0.025 C 
HETATM   20  C13 UNL     1     -15.090 -41.537 -10.102  1.00  0.00     0.002 C 
HETATM   21  C14 UNL     1     -14.087 -40.451 -10.455  1.00  0.00     0.000 C 
HETATM   22  C15 UNL     1     -13.997 -40.288 -11.943  1.00  0.00     0.002 C 
HETATM   23  C16 UNL     1     -15.059 -41.027 -12.693  1.00  0.00     0.025 C 
ENDBRANCH  16  18
ENDBRANCH  13  14
ENDBRANCH  12  13
ENDBRANCH   1  12
BRANCH   9  24
HETATM   24  C6  UNL     1     -11.760 -36.407 -11.711  1.00  0.00     0.078 C 
HETATM   25  C7  UNL     1     -11.645 -37.665 -10.880  1.00  0.00     0.014 C 
HETATM   26  C8  UNL     1     -10.405 -38.317 -11.447  1.00  0.00     0.001 C 
HETATM   27  C9  UNL     1      -9.615 -37.230 -12.151  1.00  0.00     0.001 C 
HETATM   28  C10 UNL     1     -10.317 -35.925 -11.753  1.00  0.00     0.014 C 
ENDBRANCH   9  24
TORSDOF 5
ENDMDL
MODEL 4
REMARK VINA RESULT: -7.545889532      2.099      8.241
REMARK  5 active torsions:
REMARK  status: ('A' for Active; 'I' for Inactive)
REMARK    1  A    between atoms: C1_2  and  C2_3 
REMARK       I    between atoms: C1_2  and  N4_21 
REMARK    2  A    between atoms: C2_3  and  S1_4 
REMARK    3  A    between atoms: S1_4  and  C3_5 
REMARK       I    between atoms: N3_11  and  C5_13 
REMARK    4  A    between atoms: C5_13  and  C6_15 
REMARK    5  A    between atoms: N4_21  and  C11_23 
ROOT
HETATM    1  C3  UNL     1     -14.543 -35.977 -12.685  1.00  0.00     0.130 A 
HETATM    2  N1  UNL     1     -14.438 -35.227 -11.599  1.00  0.00    -0.286 N 
ATOM      3  H1  UNL     1     -15.224 -34.647 -11.305  1.00  0.00     0.188 HD
HETATM    4  N2  UNL     1     -13.365 -35.227 -10.920  1.00  0.00    -0.278 N 
ATOM      5  H2  UNL     1     -13.278 -34.652 -10.082  1.00  0.00     0.189 HD
HETATM    6  C4  UNL     1     -12.350 -35.999 -11.330  1.00  0.00     0.168 A 
HETATM    7  N3  UNL     1     -11.172 -36.127 -10.764  1.00  0.00    -0.306 N 
ATOM      8  H3  UNL     1     -10.926 -35.616  -9.916  1.00  0.00     0.171 HD
HETATM    9  C5  UNL     1     -10.261 -37.012 -11.392  1.00  0.00     0.227 C 
HETATM   10  O2  UNL     1      -9.992 -38.081 -10.799  1.00  0.00    -0.273 OA
HETATM   11  S2  UNL     1     -13.007 -36.723 -12.731  1.00  0.00    -0.026 SA
ENDROOT
BRANCH   1  12
HETATM   12  S1  UNL     1     -15.955 -36.144 -13.803  1.00  0.00    -0.094 SA
BRANCH  12  13
HETATM   13  C2  UNL     1     -16.904 -37.574 -13.282  1.00  0.00     0.184 C 
BRANCH  13  14
HETATM   14  C1  UNL     1     -16.144 -38.835 -13.437  1.00  0.00     0.227 C 
HETATM   15  O1  UNL     1     -15.342 -39.035 -14.382  1.00  0.00    -0.273 OA
HETATM   16  N4  UNL     1     -16.301 -39.886 -12.496  1.00  0.00    -0.356 N 
ATOM     17  H4  UNL     1     -16.944 -39.751 -11.715  1.00  0.00     0.162 HD
BRANCH  16  18
HETATM   18  C11 UNL     1     -15.584 -41.144 -12.597  1.00  0.00     0.084 C 
HETATM   19  C12 UNL     1     -16.468 -42.304 -12.265  1.00  0.00     0.025 C 
HETATM   20  C13 UNL     1     -15.938 -43.106 -11.099  1.00  0.00     0.002 C 
HETATM   21  C14 UNL     1     -15.619 -42.217  -9.908  1.00  0.00     0.000 C 
HETATM   22  C15 UNL     1     -14.592 -41.190 -10.283  1.00  0.00     0.002 C 
HETATM   23  C16 UNL     1     -14.321 -41.121 -11.752  1.00  0.00     0.025 C 
ENDBRANCH  16  18
ENDBRANCH  13  14
ENDBRANCH  12  13
ENDBRANCH   1  12
BRANCH   9  24
HETATM   24  C6  UNL     1      -9.630 -36.730 -12.690  1.00  0.00     0.078 C 
HETATM   25  C7  UNL     1      -9.176 -38.022 -13.330  1.00  0.00     0.014 C 
HETATM   26  C8  UNL     1      -8.186 -37.541 -14.366  1.00  0.00     0.001 C 
HETATM   27  C9  UNL     1      -7.741 -36.154 -13.945  1.00  0.00     0.001 C 
HETATM   28  C10 UNL     1      -8.316 -35.978 -12.533  1.00  0.00     0.014 C 
ENDBRANCH   9  24
TORSDOF 5
ENDMDL
MODEL 5
REMARK VINA RESULT: -7.509953040      3.184      4.660
REMARK  5 active torsions:
REMARK  status: ('A' for Active; 'I' for Inactive)
REMARK    1  A    between atoms: C1_2  and  C2_3 
REMARK       I    between atoms: C1_2  and  N4_21 
REMARK    2  A    between atoms: C2_3  and  S1_4 
REMARK    3  A    between atoms: S1_4  and  C3_5 
REMARK       I    between atoms: N3_11  and  C5_13 
REMARK    4  A    between atoms: C5_13  and  C6_15 
REMARK    5  A    between atoms: N4_21  and  C11_23 
ROOT
HETATM    1  C3  UNL     1     -13.989 -38.428 -12.790  1.00  0.00     0.130 A 
HETATM    2  N1  UNL     1     -15.171 -37.896 -12.518  1.00  0.00    -0.286 N 
ATOM      3  H1  UNL     1     -15.285 -36.882 -12.529  1.00  0.00     0.188 HD
HETATM    4  N2  UNL     1     -16.162 -38.639 -12.242  1.00  0.00    -0.278 N 
ATOM      5  H2  UNL     1     -17.075 -38.234 -12.032  1.00  0.00     0.189 HD
HETATM    6  C4  UNL     1     -15.982 -39.966 -12.233  1.00  0.00     0.168 A 
HETATM    7  N3  UNL     1     -16.881 -40.887 -11.972  1.00  0.00    -0.306 N 
ATOM      8  H3  UNL     1     -17.845 -40.646 -11.740  1.00  0.00     0.171 HD
HETATM    9  C5  UNL     1     -16.444 -42.234 -12.028  1.00  0.00     0.227 C 
HETATM   10  O2  UNL     1     -16.871 -42.941 -12.967  1.00  0.00    -0.273 OA
HETATM   11  S2  UNL     1     -14.328 -40.096 -12.640  1.00  0.00    -0.026 SA
ENDROOT
BRANCH   1  12
HETATM   12  S1  UNL     1     -12.446 -37.584 -13.208  1.00  0.00    -0.094 SA
BRANCH  12  13
HETATM   13  C2  UNL     1     -12.415 -36.023 -12.325  1.00  0.00     0.184 C 
BRANCH  13  14
HETATM   14  C1  UNL     1     -13.661 -35.247 -12.517  1.00  0.00     0.227 C 
HETATM   15  O1  UNL     1     -14.365 -34.843 -11.560  1.00  0.00    -0.273 OA
HETATM   16  N4  UNL     1     -14.110 -34.927 -13.825  1.00  0.00    -0.356 N 
ATOM     17  H4  UNL     1     -13.557 -35.241 -14.623  1.00  0.00     0.162 HD
BRANCH  16  18
HETATM   18  C11 UNL     1     -15.324 -34.172 -14.074  1.00  0.00     0.084 C 
HETATM   19  C12 UNL     1     -16.455 -35.069 -14.466  1.00  0.00     0.025 C 
HETATM   20  C13 UNL     1     -17.006 -34.724 -15.830  1.00  0.00     0.002 C 
HETATM   21  C14 UNL     1     -15.904 -34.635 -16.873  1.00  0.00     0.000 C 
HETATM   22  C15 UNL     1     -14.904 -33.586 -16.487  1.00  0.00     0.002 C 
HETATM   23  C16 UNL     1     -15.081 -33.072 -15.094  1.00  0.00     0.025 C 
ENDBRANCH  16  18
ENDBRANCH  13  14
ENDBRANCH  12  13
ENDBRANCH   1  12
BRANCH   9  24
HETATM   24  C6  UNL     1     -15.523 -42.821 -11.043  1.00  0.00     0.078 C 
HETATM   25  C7  UNL     1     -15.694 -44.324 -11.017  1.00  0.00     0.014 C 
HETATM   26  C8  UNL     1     -15.059 -44.700  -9.698  1.00  0.00     0.001 C 
HETATM   27  C9  UNL     1     -15.039 -43.448  -8.842  1.00  0.00     0.001 C 
HETATM   28  C10 UNL     1     -15.895 -42.437  -9.618  1.00  0.00     0.014 C 
ENDBRANCH   9  24
TORSDOF 5
ENDMDL
