MODEL 1
REMARK VINA RESULT: -7.867053790      0.000      0.000
REMARK  3 active torsions:
REMARK  status: ('A' for Active; 'I' for Inactive)
REMARK    1  A    between atoms: O1_2  and  C2_3 
REMARK    2  A    between atoms: C2_3  and  C3_5 
REMARK    3  A    between atoms: C8_17  and  N6_18 
ROOT
HETATM    1  C3  UNL     1      28.566 -20.616 -23.781  1.00  0.00     0.213 C 
HETATM    2  N1  UNL     1      29.498 -21.117 -24.568  1.00  0.00    -0.281 N 
ATOM      3  H1  UNL     1      29.593 -20.961 -25.571  1.00  0.00     0.184 HD
HETATM    4  N2  UNL     1      30.357 -21.924 -23.745  1.00  0.00    -0.109 NA
HETATM    5  C4  UNL     1      30.290 -21.230 -22.477  1.00  0.00     0.260 C 
HETATM    6  N3  UNL     1      28.824 -21.102 -22.458  1.00  0.00    -0.231 N 
HETATM    7  N4  UNL     1      28.063 -21.466 -21.366  1.00  0.00    -0.231 N 
ATOM      8  H4  UNL     1      27.066 -21.251 -21.360  1.00  0.00     0.209 HD
HETATM    9  N5  UNL     1      28.626 -22.124 -20.264  1.00  0.00    -0.252 N 
HETATM   10  C5  UNL     1      27.767 -22.543 -19.289  1.00  0.00     0.127 A 
HETATM   11  C6  UNL     1      28.210 -23.295 -18.227  1.00  0.00    -0.017 A 
HETATM   12  C7  UNL     1      27.296 -23.767 -17.145  1.00  0.00     0.052 C 
HETATM   13  C8  UNL     1      29.547 -23.598 -18.203  1.00  0.00     0.056 A 
HETATM   14  C9  UNL     1      30.393 -23.149 -19.221  1.00  0.00     0.098 A 
HETATM   15  C10 UNL     1      31.778 -23.551 -19.090  1.00  0.00     0.104 C 
HETATM   16  N7  UNL     1      32.875 -23.895 -18.967  1.00  0.00    -0.191 NA
HETATM   17  C11 UNL     1      29.930 -22.392 -20.277  1.00  0.00     0.091 A 
HETATM   18  C12 UNL     1      30.904 -21.842 -21.294  1.00  0.00     0.133 C 
HETATM   19  C13 UNL     1      31.642 -20.702 -20.582  1.00  0.00     0.208 C 
HETATM   20  O3  UNL     1      32.978 -20.780 -20.530  1.00  0.00    -0.387 OA
HETATM   21  C14 UNL     1      33.683 -21.273 -21.573  1.00  0.00     0.187 C 
HETATM   22  C15 UNL     1      32.980 -22.324 -22.377  1.00  0.00     0.141 C 
HETATM   23  N8  UNL     1      31.839 -22.820 -21.712  1.00  0.00    -0.401 N 
ATOM     24  H8  UNL     1      31.698 -23.816 -21.544  1.00  0.00     0.154 HD
ENDROOT
BRANCH  13  25
HETATM   25  N6  UNL     1      29.980 -24.302 -17.219  1.00  0.00    -0.397 N 
ATOM     26  H62 UNL     1      29.575 -25.209 -16.984  1.00  0.00     0.156 HD
ATOM     27  H61 UNL     1      30.753 -23.924 -16.671  1.00  0.00     0.156 HD
ENDBRANCH  13  25
BRANCH   1  28
HETATM   28  C2  UNL     1      27.456 -19.735 -24.123  1.00  0.00     0.330 C 
HETATM   29  O2  UNL     1      26.725 -19.315 -23.193  1.00  0.00    -0.256 OA
BRANCH  28  30
HETATM   30  O1  UNL     1      27.174 -19.340 -25.418  1.00  0.00    -0.320 OA
HETATM   31  C1  UNL     1      25.966 -19.747 -26.034  1.00  0.00     0.213 C 
ENDBRANCH  28  30
ENDBRANCH   1  28
TORSDOF 3
ENDMDL
MODEL 2
REMARK VINA RESULT: -7.566543892      2.171      4.417
REMARK  3 active torsions:
REMARK  status: ('A' for Active; 'I' for Inactive)
REMARK    1  A    between atoms: O1_2  and  C2_3 
REMARK    2  A    between atoms: C2_3  and  C3_5 
REMARK    3  A    between atoms: C8_17  and  N6_18 
ROOT
HETATM    1  C3  UNL     1      27.399 -21.536 -24.401  1.00  0.00     0.213 C 
HETATM    2  N1  UNL     1      26.433 -21.182 -23.574  1.00  0.00    -0.281 N 
ATOM      3  H1  UNL     1      25.448 -21.065 -23.809  1.00  0.00     0.184 HD
HETATM    4  N2  UNL     1      27.031 -20.993 -22.281  1.00  0.00    -0.109 NA
HETATM    5  C4  UNL     1      28.112 -21.955 -22.312  1.00  0.00     0.260 C 
HETATM    6  N3  UNL     1      28.613 -21.571 -23.641  1.00  0.00    -0.231 N 
HETATM    7  N4  UNL     1      29.944 -21.298 -23.881  1.00  0.00    -0.231 N 
ATOM      8  H4  UNL     1      30.257 -21.149 -24.841  1.00  0.00     0.209 HD
HETATM    9  N5  UNL     1      30.878 -21.220 -22.839  1.00  0.00    -0.252 N 
HETATM   10  C5  UNL     1      32.144 -20.831 -23.170  1.00  0.00     0.127 A 
HETATM   11  C6  UNL     1      33.097 -20.616 -22.204  1.00  0.00    -0.017 A 
HETATM   12  C7  UNL     1      34.490 -20.192 -22.534  1.00  0.00     0.052 C 
HETATM   13  C8  UNL     1      32.710 -20.812 -20.903  1.00  0.00     0.056 A 
HETATM   14  C9  UNL     1      31.403 -21.212 -20.606  1.00  0.00     0.098 A 
HETATM   15  C10 UNL     1      31.115 -21.366 -19.196  1.00  0.00     0.104 C 
HETATM   16  N7  UNL     1      30.908 -21.471 -18.063  1.00  0.00    -0.191 NA
HETATM   17  C11 UNL     1      30.461 -21.425 -21.590  1.00  0.00     0.091 A 
HETATM   18  C12 UNL     1      29.095 -21.959 -21.224  1.00  0.00     0.133 C 
HETATM   19  C13 UNL     1      29.312 -23.437 -20.875  1.00  0.00     0.208 C 
HETATM   20  O3  UNL     1      28.913 -23.841 -19.663  1.00  0.00    -0.387 OA
HETATM   21  C14 UNL     1      27.788 -23.343 -19.103  1.00  0.00     0.187 C 
HETATM   22  C15 UNL     1      27.461 -21.931 -19.480  1.00  0.00     0.141 C 
HETATM   23  N8  UNL     1      28.549 -21.286 -20.104  1.00  0.00    -0.401 N 
ATOM     24  H8  UNL     1      28.918 -20.396 -19.770  1.00  0.00     0.154 HD
ENDROOT
BRANCH  13  25
HETATM   25  N6  UNL     1      33.586 -20.615 -19.984  1.00  0.00    -0.397 N 
ATOM     26  H62 UNL     1      33.923 -19.680 -19.751  1.00  0.00     0.156 HD
ATOM     27  H61 UNL     1      33.942 -21.431 -19.487  1.00  0.00     0.156 HD
ENDBRANCH  13  25
BRANCH   1  28
HETATM   28  C2  UNL     1      27.319 -21.843 -25.824  1.00  0.00     0.330 C 
HETATM   29  O2  UNL     1      28.338 -21.650 -26.530  1.00  0.00    -0.256 OA
BRANCH  28  30
HETATM   30  O1  UNL     1      26.178 -22.339 -26.428  1.00  0.00    -0.320 OA
HETATM   31  C1  UNL     1      25.891 -22.009 -27.775  1.00  0.00     0.213 C 
ENDBRANCH  28  30
ENDBRANCH   1  28
TORSDOF 3
ENDMDL
MODEL 3
REMARK VINA RESULT: -7.494165340      1.180      1.279
REMARK  3 active torsions:
REMARK  status: ('A' for Active; 'I' for Inactive)
REMARK    1  A    between atoms: O1_2  and  C2_3 
REMARK    2  A    between atoms: C2_3  and  C3_5 
REMARK    3  A    between atoms: C8_17  and  N6_18 
ROOT
HETATM    1  C3  UNL     1      29.668 -20.814 -23.534  1.00  0.00     0.213 C 
HETATM    2  N1  UNL     1      30.863 -21.085 -24.020  1.00  0.00    -0.281 N 
ATOM      3  H1  UNL     1      31.178 -20.928 -24.977  1.00  0.00     0.184 HD
HETATM    4  N2  UNL     1      31.641 -21.641 -22.946  1.00  0.00    -0.109 NA
HETATM    5  C4  UNL     1      31.084 -20.962 -21.796  1.00  0.00     0.260 C 
HETATM    6  N3  UNL     1      29.676 -21.198 -22.153  1.00  0.00    -0.231 N 
HETATM    7  N4  UNL     1      28.762 -21.719 -21.260  1.00  0.00    -0.231 N 
ATOM      8  H4  UNL     1      27.776 -21.755 -21.521  1.00  0.00     0.209 HD
HETATM    9  N5  UNL     1      29.154 -22.198 -20.003  1.00  0.00    -0.252 N 
HETATM   10  C5  UNL     1      28.191 -22.798 -19.242  1.00  0.00     0.127 A 
HETATM   11  C6  UNL     1      28.504 -23.399 -18.046  1.00  0.00    -0.017 A 
HETATM   12  C7  UNL     1      27.475 -24.062 -17.191  1.00  0.00     0.052 C 
HETATM   13  C8  UNL     1      29.820 -23.364 -17.664  1.00  0.00     0.056 A 
HETATM   14  C9  UNL     1      30.775 -22.738 -18.473  1.00  0.00     0.098 A 
HETATM   15  C10 UNL     1      32.131 -22.785 -17.968  1.00  0.00     0.104 C 
HETATM   16  N7  UNL     1      33.206 -22.847 -17.547  1.00  0.00    -0.191 NA
HETATM   17  C11 UNL     1      30.442 -22.138 -19.668  1.00  0.00     0.091 A 
HETATM   18  C12 UNL     1      31.492 -21.384 -20.451  1.00  0.00     0.133 C 
HETATM   19  C13 UNL     1      31.732 -20.084 -19.672  1.00  0.00     0.208 C 
HETATM   20  O3  UNL     1      32.987 -19.831 -19.282  1.00  0.00    -0.387 OA
HETATM   21  C14 UNL     1      34.035 -20.153 -20.073  1.00  0.00     0.187 C 
HETATM   22  C15 UNL     1      33.832 -21.359 -20.939  1.00  0.00     0.141 C 
HETATM   23  N8  UNL     1      32.705 -22.109 -20.542  1.00  0.00    -0.401 N 
ATOM     24  H8  UNL     1      32.760 -23.106 -20.334  1.00  0.00     0.154 HD
ENDROOT
BRANCH  13  25
HETATM   25  N6  UNL     1      30.133 -23.922 -16.550  1.00  0.00    -0.397 N 
ATOM     26  H62 UNL     1      29.448 -24.066 -15.808  1.00  0.00     0.156 HD
ATOM     27  H61 UNL     1      31.100 -24.222 -16.427  1.00  0.00     0.156 HD
ENDBRANCH  13  25
BRANCH   1  28
HETATM   28  C2  UNL     1      28.512 -20.239 -24.212  1.00  0.00     0.330 C 
HETATM   29  O2  UNL     1      27.743 -19.501 -23.550  1.00  0.00    -0.256 OA
BRANCH  28  30
HETATM   30  O1  UNL     1      28.227 -20.467 -25.546  1.00  0.00    -0.320 OA
HETATM   31  C1  UNL     1      27.451 -21.589 -25.922  1.00  0.00     0.213 C 
ENDBRANCH  28  30
ENDBRANCH   1  28
TORSDOF 3
ENDMDL
MODEL 4
REMARK VINA RESULT: -7.484212341      2.285      5.852
REMARK  3 active torsions:
REMARK  status: ('A' for Active; 'I' for Inactive)
REMARK    1  A    between atoms: O1_2  and  C2_3 
REMARK    2  A    between atoms: C2_3  and  C3_5 
REMARK    3  A    between atoms: C8_17  and  N6_18 
ROOT
HETATM    1  C3  UNL     1      32.685 -21.075 -21.359  1.00  0.00     0.213 C 
HETATM    2  N1  UNL     1      32.810 -22.160 -20.618  1.00  0.00    -0.281 N 
ATOM      3  H1  UNL     1      33.656 -22.475 -20.143  1.00  0.00     0.184 HD
HETATM    4  N2  UNL     1      31.529 -22.812 -20.604  1.00  0.00    -0.109 NA
HETATM    5  C4  UNL     1      30.623 -21.688 -20.707  1.00  0.00     0.260 C 
HETATM    6  N3  UNL     1      31.329 -21.033 -21.820  1.00  0.00    -0.231 N 
HETATM    7  N4  UNL     1      30.680 -20.610 -22.962  1.00  0.00    -0.231 N 
ATOM      8  H4  UNL     1      31.194 -20.060 -23.652  1.00  0.00     0.209 HD
HETATM    9  N5  UNL     1      29.333 -20.914 -23.198  1.00  0.00    -0.252 N 
HETATM   10  C5  UNL     1      28.819 -20.548 -24.409  1.00  0.00     0.127 A 
HETATM   11  C6  UNL     1      27.543 -20.903 -24.776  1.00  0.00    -0.017 A 
HETATM   12  C7  UNL     1      26.951 -20.517 -26.091  1.00  0.00     0.052 C 
HETATM   13  C8  UNL     1      26.824 -21.639 -23.869  1.00  0.00     0.056 A 
HETATM   14  C9  UNL     1      27.387 -21.993 -22.638  1.00  0.00     0.098 A 
HETATM   15  C10 UNL     1      26.534 -22.785 -21.778  1.00  0.00     0.104 C 
HETATM   16  N7  UNL     1      25.836 -23.425 -21.116  1.00  0.00    -0.191 NA
HETATM   17  C11 UNL     1      28.669 -21.624 -22.287  1.00  0.00     0.091 A 
HETATM   18  C12 UNL     1      29.192 -21.941 -20.905  1.00  0.00     0.133 C 
HETATM   19  C13 UNL     1      28.473 -20.969 -19.961  1.00  0.00     0.208 C 
HETATM   20  O3  UNL     1      27.778 -21.505 -18.949  1.00  0.00    -0.387 OA
HETATM   21  C14 UNL     1      28.232 -22.603 -18.304  1.00  0.00     0.187 C 
HETATM   22  C15 UNL     1      29.031 -23.550 -19.146  1.00  0.00     0.141 C 
HETATM   23  N8  UNL     1      28.900 -23.272 -20.522  1.00  0.00    -0.401 N 
ATOM     24  H8  UNL     1      28.614 -23.982 -21.196  1.00  0.00     0.154 HD
ENDROOT
BRANCH  13  25
HETATM   25  N6  UNL     1      25.629 -21.983 -24.194  1.00  0.00    -0.397 N 
ATOM     26  H62 UNL     1      25.362 -22.961 -24.311  1.00  0.00     0.156 HD
ATOM     27  H61 UNL     1      24.945 -21.240 -24.334  1.00  0.00     0.156 HD
ENDBRANCH  13  25
BRANCH   1  28
HETATM   28  C2  UNL     1      33.689 -20.071 -21.689  1.00  0.00     0.330 C 
HETATM   29  O2  UNL     1      33.754 -19.042 -20.974  1.00  0.00    -0.256 OA
BRANCH  28  30
HETATM   30  O1  UNL     1      34.571 -20.202 -22.746  1.00  0.00    -0.320 OA
HETATM   31  C1  UNL     1      35.731 -19.393 -22.803  1.00  0.00     0.213 C 
ENDBRANCH  28  30
ENDBRANCH   1  28
TORSDOF 3
ENDMDL
MODEL 5
REMARK VINA RESULT: -7.477643214      2.331      5.909
REMARK  3 active torsions:
REMARK  status: ('A' for Active; 'I' for Inactive)
REMARK    1  A    between atoms: O1_2  and  C2_3 
REMARK    2  A    between atoms: C2_3  and  C3_5 
REMARK    3  A    between atoms: C8_17  and  N6_18 
ROOT
HETATM    1  C3  UNL     1      33.085 -22.673 -21.538  1.00  0.00     0.213 C 
HETATM    2  N1  UNL     1      32.968 -23.622 -20.629  1.00  0.00    -0.281 N 
ATOM      3  H1  UNL     1      33.730 -24.073 -20.123  1.00  0.00     0.184 HD
HETATM    4  N2  UNL     1      31.566 -23.899 -20.485  1.00  0.00    -0.109 NA
HETATM    5  C4  UNL     1      30.979 -22.605 -20.759  1.00  0.00     0.260 C 
HETATM    6  N3  UNL     1      31.761 -22.344 -21.978  1.00  0.00    -0.231 N 
HETATM    7  N4  UNL     1      31.177 -21.947 -23.163  1.00  0.00    -0.231 N 
ATOM      8  H4  UNL     1      31.773 -21.669 -23.943  1.00  0.00     0.209 HD
HETATM    9  N5  UNL     1      29.785 -21.914 -23.322  1.00  0.00    -0.252 N 
HETATM   10  C5  UNL     1      29.311 -21.618 -24.567  1.00  0.00     0.127 A 
HETATM   11  C6  UNL     1      27.967 -21.673 -24.848  1.00  0.00    -0.017 A 
HETATM   12  C7  UNL     1      27.418 -21.354 -26.199  1.00  0.00     0.052 C 
HETATM   13  C8  UNL     1      27.138 -22.040 -23.819  1.00  0.00     0.056 A 
HETATM   14  C9  UNL     1      27.664 -22.334 -22.557  1.00  0.00     0.098 A 
HETATM   15  C10 UNL     1      26.688 -22.725 -21.562  1.00  0.00     0.104 C 
HETATM   16  N7  UNL     1      25.888 -23.045 -20.790  1.00  0.00    -0.191 NA
HETATM   17  C11 UNL     1      29.016 -22.270 -22.294  1.00  0.00     0.091 A 
HETATM   18  C12 UNL     1      29.522 -22.494 -20.887  1.00  0.00     0.133 C 
HETATM   19  C13 UNL     1      29.138 -21.231 -20.106  1.00  0.00     0.208 C 
HETATM   20  O3  UNL     1      28.391 -21.397 -19.008  1.00  0.00    -0.387 OA
HETATM   21  C14 UNL     1      28.582 -22.462 -18.197  1.00  0.00     0.187 C 
HETATM   22  C15 UNL     1      29.055 -23.707 -18.882  1.00  0.00     0.141 C 
HETATM   23  N8  UNL     1      28.917 -23.623 -20.283  1.00  0.00    -0.401 N 
ATOM     24  H8  UNL     1      28.416 -24.327 -20.824  1.00  0.00     0.154 HD
ENDROOT
BRANCH  13  25
HETATM   25  N6  UNL     1      25.878 -22.099 -24.062  1.00  0.00    -0.397 N 
ATOM     26  H62 UNL     1      25.367 -22.982 -24.051  1.00  0.00     0.156 HD
ATOM     27  H61 UNL     1      25.394 -21.225 -24.269  1.00  0.00     0.156 HD
ENDBRANCH  13  25
BRANCH   1  28
HETATM   28  C2  UNL     1      34.294 -22.037 -22.048  1.00  0.00     0.330 C 
HETATM   29  O2  UNL     1      35.344 -22.722 -22.105  1.00  0.00    -0.256 OA
BRANCH  28  30
HETATM   30  O1  UNL     1      34.336 -20.722 -22.474  1.00  0.00    -0.320 OA
HETATM   31  C1  UNL     1      34.164 -19.672 -21.540  1.00  0.00     0.213 C 
ENDBRANCH  28  30
ENDBRANCH   1  28
TORSDOF 3
ENDMDL
