MODEL 1
REMARK VINA RESULT: -7.754376528      0.000      0.000
REMARK  2 active torsions:
REMARK  status: ('A' for Active; 'I' for Inactive)
REMARK    1  A    between atoms: C5_5  and  C6_6 
REMARK    2  A    between atoms: C6_6  and  N1_7 
ROOT
HETATM    1  N1  UNL     1      17.593   6.430  13.145  1.00  0.00    -0.412 N 
HETATM    2  C7  UNL     1      18.996   6.473  13.352  1.00  0.00     0.117 C 
HETATM    3  C8  UNL     1      19.321   7.646  14.258  1.00  0.00     0.029 C 
HETATM    4  C9  UNL     1      18.896   8.973  13.698  1.00  0.00    -0.032 C 
HETATM    5  C10 UNL     1      17.666   8.827  12.833  1.00  0.00     0.029 C 
HETATM    6  C11 UNL     1      16.887   7.641  13.369  1.00  0.00     0.117 C 
HETATM    7  C12 UNL     1      18.514   9.843  14.875  1.00  0.00     0.040 C 
HETATM    8  C13 UNL     1      19.730  10.563  15.406  1.00  0.00     0.276 C 
HETATM    9  N2  UNL     1      20.300  11.467  14.441  1.00  0.00     0.120 N 
HETATM   10  C14 UNL     1      19.772  12.794  14.536  1.00  0.00     0.377 C 
HETATM   11  C15 UNL     1      19.156  13.065  13.209  1.00  0.00     0.247 C 
HETATM   12  O1  UNL     1      18.702  14.183  12.802  1.00  0.00    -0.272 OA
HETATM   13  N3  UNL     1      19.183  11.827  12.509  1.00  0.00    -0.330 N 
ATOM     14  H3  UNL     1      18.576  11.556  11.736  1.00  0.00     0.164 HD
HETATM   15  C16 UNL     1      20.218  11.036  13.090  1.00  0.00     0.325 C 
HETATM   16  C17 UNL     1      20.030   9.555  12.923  1.00  0.00     0.067 C 
ENDROOT
BRANCH   1  17
HETATM   17  C6  UNL     1      16.938   5.222  13.485  1.00  0.00     0.121 C 
BRANCH  17  18
HETATM   18  C5  UNL     1      16.454   5.101  14.884  1.00  0.00     0.003 C 
HETATM   19  C4  UNL     1      17.050   3.966  15.663  1.00  0.00     0.006 C 
HETATM   20  C3  UNL     1      15.990   3.036  16.220  1.00  0.00     0.005 C 
HETATM   21  C2  UNL     1      14.969   3.763  17.072  1.00  0.00    -0.019 C 
HETATM   22  C1  UNL     1      13.891   2.774  17.461  1.00  0.00     0.010 C 
HETATM   23  C19 UNL     1      14.370   4.863  16.236  1.00  0.00     0.005 C 
HETATM   24  C18 UNL     1      14.947   4.867  14.835  1.00  0.00     0.006 C 
ENDBRANCH  17  18
ENDBRANCH   1  17
TORSDOF 2
ENDMDL
MODEL 2
REMARK VINA RESULT: -7.602950482      3.064      8.119
REMARK  2 active torsions:
REMARK  status: ('A' for Active; 'I' for Inactive)
REMARK    1  A    between atoms: C5_5  and  C6_6 
REMARK    2  A    between atoms: C6_6  and  N1_7 
ROOT
HETATM    1  N1  UNL     1      18.708   9.175  12.876  1.00  0.00    -0.412 N 
HETATM    2  C7  UNL     1      17.675   8.688  12.033  1.00  0.00     0.117 C 
HETATM    3  C8  UNL     1      16.586   8.078  12.895  1.00  0.00     0.029 C 
HETATM    4  C9  UNL     1      17.064   6.937  13.746  1.00  0.00    -0.032 C 
HETATM    5  C10 UNL     1      18.513   7.119  14.133  1.00  0.00     0.029 C 
HETATM    6  C11 UNL     1      18.774   8.612  14.176  1.00  0.00     0.117 C 
HETATM    7  C12 UNL     1      16.253   6.972  15.022  1.00  0.00     0.040 C 
HETATM    8  C13 UNL     1      14.976   6.184  14.848  1.00  0.00     0.276 C 
HETATM    9  N2  UNL     1      15.219   4.787  14.598  1.00  0.00     0.120 N 
HETATM   10  C14 UNL     1      15.257   4.001  15.793  1.00  0.00     0.377 C 
HETATM   11  C15 UNL     1      16.616   3.394  15.819  1.00  0.00     0.247 C 
HETATM   12  O1  UNL     1      17.027   2.501  16.628  1.00  0.00    -0.272 OA
HETATM   13  N3  UNL     1      17.338   4.016  14.764  1.00  0.00    -0.330 N 
ATOM     14  H3  UNL     1      18.352   4.095  14.690  1.00  0.00     0.164 HD
HETATM   15  C16 UNL     1      16.381   4.507  13.828  1.00  0.00     0.325 C 
HETATM   16  C17 UNL     1      16.867   5.661  12.998  1.00  0.00     0.067 C 
ENDROOT
BRANCH   1  17
HETATM   17  C6  UNL     1      19.047  10.542  12.739  1.00  0.00     0.121 C 
BRANCH  17  18
HETATM   18  C5  UNL     1      19.696  11.185  13.911  1.00  0.00     0.003 C 
HETATM   19  C4  UNL     1      19.132  12.522  14.291  1.00  0.00     0.006 C 
HETATM   20  C3  UNL     1      20.193  13.605  14.308  1.00  0.00     0.005 C 
HETATM   21  C2  UNL     1      21.358  13.262  15.215  1.00  0.00    -0.019 C 
HETATM   22  C1  UNL     1      22.413  14.337  15.055  1.00  0.00     0.010 C 
HETATM   23  C19 UNL     1      21.915  11.936  14.770  1.00  0.00     0.005 C 
HETATM   24  C18 UNL     1      21.166  11.400  13.567  1.00  0.00     0.006 C 
ENDBRANCH  17  18
ENDBRANCH   1  17
TORSDOF 2
ENDMDL
MODEL 3
REMARK VINA RESULT: -7.531715707      3.881      4.925
REMARK  2 active torsions:
REMARK  status: ('A' for Active; 'I' for Inactive)
REMARK    1  A    between atoms: C5_5  and  C6_6 
REMARK    2  A    between atoms: C6_6  and  N1_7 
ROOT
HETATM    1  N1  UNL     1      17.847   6.186  13.205  1.00  0.00    -0.412 N 
HETATM    2  C7  UNL     1      18.417   7.486  13.237  1.00  0.00     0.117 C 
HETATM    3  C8  UNL     1      19.029   7.785  11.881  1.00  0.00     0.029 C 
HETATM    4  C9  UNL     1      20.106   6.818  11.483  1.00  0.00    -0.032 C 
HETATM    5  C10 UNL     1      19.846   5.448  12.062  1.00  0.00     0.029 C 
HETATM    6  C11 UNL     1      18.343   5.308  12.207  1.00  0.00     0.117 C 
HETATM    7  C12 UNL     1      20.042   6.686   9.978  1.00  0.00     0.040 C 
HETATM    8  C13 UNL     1      20.890   7.753   9.325  1.00  0.00     0.276 C 
HETATM    9  N2  UNL     1      22.286   7.625   9.653  1.00  0.00     0.120 N 
HETATM   10  C14 UNL     1      23.010   6.820   8.718  1.00  0.00     0.377 C 
HETATM   11  C15 UNL     1      23.559   5.691   9.518  1.00  0.00     0.247 C 
HETATM   12  O1  UNL     1      24.393   4.817   9.115  1.00  0.00    -0.272 OA
HETATM   13  N3  UNL     1      22.960   5.799  10.803  1.00  0.00    -0.330 N 
ATOM     14  H3  UNL     1      22.842   5.047  11.481  1.00  0.00     0.164 HD
HETATM   15  C16 UNL     1      22.555   7.157  10.967  1.00  0.00     0.325 C 
HETATM   16  C17 UNL     1      21.425   7.350  11.937  1.00  0.00     0.067 C 
ENDROOT
BRANCH   1  17
HETATM   17  C6  UNL     1      16.476   6.087  13.539  1.00  0.00     0.121 C 
BRANCH  17  18
HETATM   18  C5  UNL     1      16.160   5.671  14.930  1.00  0.00     0.003 C 
HETATM   19  C4  UNL     1      16.882   4.445  15.403  1.00  0.00     0.006 C 
HETATM   20  C3  UNL     1      15.927   3.365  15.874  1.00  0.00     0.005 C 
HETATM   21  C2  UNL     1      14.985   3.855  16.955  1.00  0.00    -0.019 C 
HETATM   22  C1  UNL     1      13.994   2.750  17.254  1.00  0.00     0.010 C 
HETATM   23  C19 UNL     1      14.255   5.059  16.421  1.00  0.00     0.005 C 
HETATM   24  C18 UNL     1      14.667   5.365  14.995  1.00  0.00     0.006 C 
ENDBRANCH  17  18
ENDBRANCH   1  17
TORSDOF 2
ENDMDL
MODEL 4
REMARK VINA RESULT: -7.487516260      3.151      7.992
REMARK  2 active torsions:
REMARK  status: ('A' for Active; 'I' for Inactive)
REMARK    1  A    between atoms: C5_5  and  C6_6 
REMARK    2  A    between atoms: C6_6  and  N1_7 
ROOT
HETATM    1  N1  UNL     1      19.304   8.002  12.779  1.00  0.00    -0.412 N 
HETATM    2  C7  UNL     1      18.234   7.595  11.940  1.00  0.00     0.117 C 
HETATM    3  C8  UNL     1      17.011   7.335  12.799  1.00  0.00     0.029 C 
HETATM    4  C9  UNL     1      17.220   6.264  13.832  1.00  0.00    -0.032 C 
HETATM    5  C10 UNL     1      18.658   6.229  14.291  1.00  0.00     0.029 C 
HETATM    6  C11 UNL     1      19.203   7.637  14.146  1.00  0.00     0.117 C 
HETATM    7  C12 UNL     1      16.377   6.640  15.029  1.00  0.00     0.040 C 
HETATM    8  C13 UNL     1      14.980   6.087  14.876  1.00  0.00     0.276 C 
HETATM    9  N2  UNL     1      14.957   4.648  14.840  1.00  0.00     0.120 N 
HETATM   10  C14 UNL     1      14.789   4.057  16.132  1.00  0.00     0.377 C 
HETATM   11  C15 UNL     1      16.001   3.218  16.338  1.00  0.00     0.247 C 
HETATM   12  O1  UNL     1      16.195   2.395  17.291  1.00  0.00    -0.272 OA
HETATM   13  N3  UNL     1      16.876   3.529  15.261  1.00  0.00    -0.330 N 
ATOM     14  H3  UNL     1      17.888   3.407  15.250  1.00  0.00     0.164 HD
HETATM   15  C16 UNL     1      16.073   4.045  14.201  1.00  0.00     0.325 C 
HETATM   16  C17 UNL     1      16.810   4.950  13.255  1.00  0.00     0.067 C 
ENDROOT
BRANCH   1  17
HETATM   17  C6  UNL     1      19.908   9.245  12.479  1.00  0.00     0.121 C 
BRANCH  17  18
HETATM   18  C5  UNL     1      19.364  10.434  13.184  1.00  0.00     0.003 C 
HETATM   19  C4  UNL     1      18.797  11.496  12.289  1.00  0.00     0.006 C 
HETATM   20  C3  UNL     1      19.453  12.844  12.514  1.00  0.00     0.005 C 
HETATM   21  C2  UNL     1      19.373  13.294  13.959  1.00  0.00    -0.019 C 
HETATM   22  C1  UNL     1      20.169  14.574  14.099  1.00  0.00     0.010 C 
HETATM   23  C19 UNL     1      19.990  12.218  14.813  1.00  0.00     0.005 C 
HETATM   24  C18 UNL     1      20.507  11.073  13.967  1.00  0.00     0.006 C 
ENDBRANCH  17  18
ENDBRANCH   1  17
TORSDOF 2
ENDMDL
MODEL 5
REMARK VINA RESULT: -7.134306706      3.119      3.942
REMARK  2 active torsions:
REMARK  status: ('A' for Active; 'I' for Inactive)
REMARK    1  A    between atoms: C5_5  and  C6_6 
REMARK    2  A    between atoms: C6_6  and  N1_7 
ROOT
HETATM    1  N1  UNL     1      17.486   6.090  12.807  1.00  0.00    -0.412 N 
HETATM    2  C7  UNL     1      17.355   7.289  13.555  1.00  0.00     0.117 C 
HETATM    3  C8  UNL     1      16.220   8.109  12.972  1.00  0.00     0.029 C 
HETATM    4  C9  UNL     1      16.427   8.483  11.532  1.00  0.00    -0.032 C 
HETATM    5  C10 UNL     1      17.231   7.428  10.809  1.00  0.00     0.029 C 
HETATM    6  C11 UNL     1      16.944   6.106  11.496  1.00  0.00     0.117 C 
HETATM    7  C12 UNL     1      15.060   8.524  10.889  1.00  0.00     0.040 C 
HETATM    8  C13 UNL     1      14.445   9.893  11.058  1.00  0.00     0.276 C 
HETATM    9  N2  UNL     1      15.202  10.923  10.394  1.00  0.00     0.120 N 
HETATM   10  C14 UNL     1      14.769  11.160   9.051  1.00  0.00     0.377 C 
HETATM   11  C15 UNL     1      15.958  10.878   8.202  1.00  0.00     0.247 C 
HETATM   12  O1  UNL     1      16.064  11.108   6.953  1.00  0.00    -0.272 OA
HETATM   13  N3  UNL     1      16.928  10.308   9.071  1.00  0.00    -0.330 N 
ATOM     14  H3  UNL     1      17.707   9.709   8.797  1.00  0.00     0.164 HD
HETATM   15  C16 UNL     1      16.609  10.730  10.395  1.00  0.00     0.325 C 
HETATM   16  C17 UNL     1      17.108   9.809  11.472  1.00  0.00     0.067 C 
ENDROOT
BRANCH   1  17
HETATM   17  C6  UNL     1      17.402   4.878  13.531  1.00  0.00     0.121 C 
BRANCH  17  18
HETATM   18  C5  UNL     1      16.705   4.935  14.842  1.00  0.00     0.003 C 
HETATM   19  C4  UNL     1      17.195   3.950  15.862  1.00  0.00     0.006 C 
HETATM   20  C3  UNL     1      16.080   3.062  16.380  1.00  0.00     0.005 C 
HETATM   21  C2  UNL     1      14.922   3.857  16.949  1.00  0.00    -0.019 C 
HETATM   22  C1  UNL     1      13.817   2.888  17.310  1.00  0.00     0.010 C 
HETATM   23  C19 UNL     1      14.439   4.801  15.879  1.00  0.00     0.005 C 
HETATM   24  C18 UNL     1      15.230   4.631  14.598  1.00  0.00     0.006 C 
ENDBRANCH  17  18
ENDBRANCH   1  17
TORSDOF 2
ENDMDL
