MODEL 1
REMARK VINA RESULT: -7.350431126      0.000      0.000
REMARK  2 active torsions:
REMARK  status: ('A' for Active; 'I' for Inactive)
REMARK    1  A    between atoms: C12_14  and  C13_15 
REMARK    2  A    between atoms: C12_14  and  C14_18 
REMARK       I    between atoms: C14_18  and  N3_20 
ROOT
HETATM    1  N1  UNL     1      14.840   6.935  15.634  1.00  0.00    -0.197 NA
HETATM    2  C1  UNL     1      15.699   7.133  14.867  1.00  0.00     0.064 C 
HETATM    3  C2  UNL     1      16.769   7.378  13.879  1.00  0.00     0.099 C 
HETATM    4  C3  UNL     1      17.949   6.622  14.366  1.00  0.00     0.053 C 
HETATM    5  C4  UNL     1      19.066   6.470  13.372  1.00  0.00    -0.077 C 
HETATM    6  C5  UNL     1      19.637   7.725  12.870  1.00  0.00    -0.001 C 
HETATM    7  C6  UNL     1      18.935   8.577  11.922  1.00  0.00    -0.019 C 
HETATM    8  C7  UNL     1      17.905   8.063  11.040  1.00  0.00     0.046 C 
HETATM    9  C8  UNL     1      16.727   9.057  10.873  1.00  0.00     0.038 C 
HETATM   10  C9  UNL     1      15.764   8.110  10.163  1.00  0.00     0.169 C 
HETATM   11  O1  UNL     1      16.275   6.827  10.277  1.00  0.00    -0.378 OA
HETATM   12  C10 UNL     1      17.156   6.848  11.406  1.00  0.00     0.094 C 
HETATM   13  C11 UNL     1      16.242   6.962  12.559  1.00  0.00     0.060 C 
HETATM   14  C12 UNL     1      17.927   5.565  11.271  1.00  0.00     0.154 C 
HETATM   15  C19 UNL     1      18.867   5.340  12.417  1.00  0.00     0.066 C 
ENDROOT
BRANCH  14  16
HETATM   16  C13 UNL     1      18.743   5.677  10.029  1.00  0.00     0.252 C 
HETATM   17  N2  UNL     1      18.252   5.711   8.713  1.00  0.00    -0.061 NA
HETATM   18  O2  UNL     1      20.024   5.749  10.155  1.00  0.00    -0.275 OA
ENDBRANCH  14  16
BRANCH  14  19
HETATM   19  C14 UNL     1      17.048   4.396  11.015  1.00  0.00     0.240 C 
HETATM   20  O3  UNL     1      15.823   4.486  10.757  1.00  0.00    -0.272 OA
HETATM   21  N3  UNL     1      17.589   3.078  11.056  1.00  0.00    -0.351 N 
HETATM   22  C15 UNL     1      18.952   2.674  11.333  1.00  0.00     0.126 C 
HETATM   23  C18 UNL     1      16.804   1.845  10.794  1.00  0.00     0.126 C 
HETATM   24  C16 UNL     1      19.007   1.192  11.005  1.00  0.00     0.021 C 
HETATM   25  C17 UNL     1      17.615   0.795  11.503  1.00  0.00     0.021 C 
ENDBRANCH  14  19
TORSDOF 2
ENDMDL
MODEL 2
REMARK VINA RESULT: -6.900055830      2.550      3.728
REMARK  2 active torsions:
REMARK  status: ('A' for Active; 'I' for Inactive)
REMARK    1  A    between atoms: C12_14  and  C13_15 
REMARK    2  A    between atoms: C12_14  and  C14_18 
REMARK       I    between atoms: C14_18  and  N3_20 
ROOT
HETATM    1  N1  UNL     1      18.604  10.621  15.153  1.00  0.00    -0.197 NA
HETATM    2  C1  UNL     1      18.767   9.663  14.502  1.00  0.00     0.064 C 
HETATM    3  C2  UNL     1      18.948   8.455  13.672  1.00  0.00     0.099 C 
HETATM    4  C3  UNL     1      19.671   7.483  14.527  1.00  0.00     0.053 C 
HETATM    5  C4  UNL     1      19.702   6.072  14.008  1.00  0.00    -0.077 C 
HETATM    6  C5  UNL     1      20.316   5.901  12.687  1.00  0.00    -0.001 C 
HETATM    7  C6  UNL     1      19.654   6.319  11.459  1.00  0.00    -0.019 C 
HETATM    8  C7  UNL     1      18.214   6.459  11.371  1.00  0.00     0.046 C 
HETATM    9  C8  UNL     1      17.796   7.685  10.519  1.00  0.00     0.038 C 
HETATM   10  C9  UNL     1      16.312   7.682  10.876  1.00  0.00     0.169 C 
HETATM   11  O1  UNL     1      16.139   6.822  11.948  1.00  0.00    -0.378 OA
HETATM   12  C10 UNL     1      17.418   6.716  12.584  1.00  0.00     0.094 C 
HETATM   13  C11 UNL     1      17.601   8.033  13.222  1.00  0.00     0.060 C 
HETATM   14  C12 UNL     1      17.257   5.532  13.497  1.00  0.00     0.154 C 
HETATM   15  C19 UNL     1      18.475   5.289  14.337  1.00  0.00     0.066 C 
ENDROOT
BRANCH  14  16
HETATM   16  C13 UNL     1      17.058   4.338  12.628  1.00  0.00     0.252 C 
HETATM   17  N2  UNL     1      15.942   4.080  11.813  1.00  0.00    -0.061 NA
HETATM   18  O2  UNL     1      17.986   3.444  12.612  1.00  0.00    -0.275 OA
ENDBRANCH  14  16
BRANCH  14  19
HETATM   19  C14 UNL     1      16.012   5.599  14.303  1.00  0.00     0.240 C 
HETATM   20  O3  UNL     1      15.129   6.479  14.152  1.00  0.00    -0.272 OA
HETATM   21  N3  UNL     1      15.767   4.626  15.314  1.00  0.00    -0.351 N 
HETATM   22  C15 UNL     1      16.603   3.511  15.710  1.00  0.00     0.126 C 
HETATM   23  C18 UNL     1      14.547   4.589  16.159  1.00  0.00     0.126 C 
HETATM   24  C16 UNL     1      15.747   2.680  16.650  1.00  0.00     0.021 C 
HETATM   25  C17 UNL     1      15.016   3.821  17.364  1.00  0.00     0.021 C 
ENDBRANCH  14  19
TORSDOF 2
ENDMDL
MODEL 3
REMARK VINA RESULT: -6.765215105      1.922      2.811
REMARK  2 active torsions:
REMARK  status: ('A' for Active; 'I' for Inactive)
REMARK    1  A    between atoms: C12_14  and  C13_15 
REMARK    2  A    between atoms: C12_14  and  C14_18 
REMARK       I    between atoms: C14_18  and  N3_20 
ROOT
HETATM    1  N1  UNL     1      14.081   9.184   9.899  1.00  0.00    -0.197 NA
HETATM    2  C1  UNL     1      14.968   8.973  10.630  1.00  0.00     0.064 C 
HETATM    3  C2  UNL     1      16.104   8.699  11.534  1.00  0.00     0.099 C 
HETATM    4  C3  UNL     1      15.537   7.942  12.676  1.00  0.00     0.053 C 
HETATM    5  C4  UNL     1      16.549   7.287  13.575  1.00  0.00    -0.077 C 
HETATM    6  C5  UNL     1      17.514   8.197  14.202  1.00  0.00    -0.001 C 
HETATM    7  C6  UNL     1      18.603   8.812  13.457  1.00  0.00    -0.019 C 
HETATM    8  C7  UNL     1      19.123   8.234  12.233  1.00  0.00     0.046 C 
HETATM    9  C8  UNL     1      19.474   9.314  11.178  1.00  0.00     0.038 C 
HETATM   10  C9  UNL     1      19.694   8.375   9.995  1.00  0.00     0.169 C 
HETATM   11  O1  UNL     1      19.212   7.126  10.354  1.00  0.00    -0.378 OA
HETATM   12  C10 UNL     1      18.276   7.350  11.414  1.00  0.00     0.094 C 
HETATM   13  C11 UNL     1      17.128   7.985  10.737  1.00  0.00     0.060 C 
HETATM   14  C12 UNL     1      18.057   5.976  11.983  1.00  0.00     0.154 C 
HETATM   15  C19 UNL     1      17.028   5.966  13.073  1.00  0.00     0.066 C 
ENDROOT
BRANCH  14  16
HETATM   16  C13 UNL     1      19.354   5.542  12.578  1.00  0.00     0.252 C 
HETATM   17  N2  UNL     1      20.474   5.070  11.873  1.00  0.00    -0.061 NA
HETATM   18  O2  UNL     1      19.474   5.595  13.860  1.00  0.00    -0.275 OA
ENDBRANCH  14  16
BRANCH  14  19
HETATM   19  C14 UNL     1      17.788   4.960  10.934  1.00  0.00     0.240 C 
HETATM   20  O3  UNL     1      17.841   5.197   9.703  1.00  0.00    -0.272 OA
HETATM   21  N3  UNL     1      17.449   3.628  11.306  1.00  0.00    -0.351 N 
HETATM   22  C15 UNL     1      17.309   3.074  12.637  1.00  0.00     0.126 C 
HETATM   23  C18 UNL     1      17.184   2.533  10.339  1.00  0.00     0.126 C 
HETATM   24  C16 UNL     1      17.180   1.574  12.437  1.00  0.00     0.021 C 
HETATM   25  C17 UNL     1      16.346   1.584  11.153  1.00  0.00     0.021 C 
ENDBRANCH  14  19
TORSDOF 2
ENDMDL
MODEL 4
REMARK VINA RESULT: -6.712760422      2.271      4.200
REMARK  2 active torsions:
REMARK  status: ('A' for Active; 'I' for Inactive)
REMARK    1  A    between atoms: C12_14  and  C13_15 
REMARK    2  A    between atoms: C12_14  and  C14_18 
REMARK       I    between atoms: C14_18  and  N3_20 
ROOT
HETATM    1  N1  UNL     1      20.522  10.295  14.531  1.00  0.00    -0.197 NA
HETATM    2  C1  UNL     1      19.607   9.704  14.109  1.00  0.00     0.064 C 
HETATM    3  C2  UNL     1      18.461   8.934  13.584  1.00  0.00     0.099 C 
HETATM    4  C3  UNL     1      18.268   9.399  12.189  1.00  0.00     0.053 C 
HETATM    5  C4  UNL     1      17.356   8.546  11.351  1.00  0.00    -0.077 C 
HETATM    6  C5  UNL     1      15.989   8.396  11.863  1.00  0.00    -0.001 C 
HETATM    7  C6  UNL     1      15.675   7.565  13.016  1.00  0.00    -0.019 C 
HETATM    8  C7  UNL     1      16.530   6.471  13.433  1.00  0.00     0.046 C 
HETATM    9  C8  UNL     1      16.637   6.366  14.975  1.00  0.00     0.038 C 
HETATM   10  C9  UNL     1      17.780   5.355  15.029  1.00  0.00     0.169 C 
HETATM   11  O1  UNL     1      18.320   5.263  13.757  1.00  0.00    -0.378 OA
HETATM   12  C10 UNL     1      17.961   6.475  13.083  1.00  0.00     0.094 C 
HETATM   13  C11 UNL     1      18.794   7.500  13.741  1.00  0.00     0.060 C 
HETATM   14  C12 UNL     1      18.261   6.175  11.641  1.00  0.00     0.154 C 
HETATM   15  C19 UNL     1      18.032   7.359  10.751  1.00  0.00     0.066 C 
ENDROOT
BRANCH  14  16
HETATM   16  C13 UNL     1      17.321   5.098  11.217  1.00  0.00     0.252 C 
HETATM   17  N2  UNL     1      17.366   3.752  11.615  1.00  0.00    -0.061 NA
HETATM   18  O2  UNL     1      16.371   5.416  10.405  1.00  0.00    -0.275 OA
ENDBRANCH  14  16
BRANCH  14  19
HETATM   19  C14 UNL     1      19.604   5.570  11.452  1.00  0.00     0.240 C 
HETATM   20  O3  UNL     1      20.273   5.050  12.378  1.00  0.00    -0.272 OA
HETATM   21  N3  UNL     1      20.202   5.557  10.159  1.00  0.00    -0.351 N 
HETATM   22  C15 UNL     1      19.672   6.084   8.919  1.00  0.00     0.126 C 
HETATM   23  C18 UNL     1      21.527   4.959   9.858  1.00  0.00     0.126 C 
HETATM   24  C16 UNL     1      20.610   5.582   7.834  1.00  0.00     0.021 C 
HETATM   25  C17 UNL     1      21.929   5.689   8.605  1.00  0.00     0.021 C 
ENDBRANCH  14  19
TORSDOF 2
ENDMDL
MODEL 5
REMARK VINA RESULT: -6.653350378      2.391      3.422
REMARK  2 active torsions:
REMARK  status: ('A' for Active; 'I' for Inactive)
REMARK    1  A    between atoms: C12_14  and  C13_15 
REMARK    2  A    between atoms: C12_14  and  C14_18 
REMARK       I    between atoms: C14_18  and  N3_20 
ROOT
HETATM    1  N1  UNL     1      19.102  10.649  13.850  1.00  0.00    -0.197 NA
HETATM    2  C1  UNL     1      19.160   9.676  13.204  1.00  0.00     0.064 C 
HETATM    3  C2  UNL     1      19.208   8.448  12.386  1.00  0.00     0.099 C 
HETATM    4  C3  UNL     1      20.064   7.497  13.137  1.00  0.00     0.053 C 
HETATM    5  C4  UNL     1      20.015   6.073  12.654  1.00  0.00    -0.077 C 
HETATM    6  C5  UNL     1      20.407   5.870  11.255  1.00  0.00    -0.001 C 
HETATM    7  C6  UNL     1      19.554   6.257  10.141  1.00  0.00    -0.019 C 
HETATM    8  C7  UNL     1      18.118   6.397  10.283  1.00  0.00     0.046 C 
HETATM    9  C8  UNL     1      17.564   7.602   9.481  1.00  0.00     0.038 C 
HETATM   10  C9  UNL     1      16.158   7.609  10.073  1.00  0.00     0.169 C 
HETATM   11  O1  UNL     1      16.163   6.775  11.180  1.00  0.00    -0.378 OA
HETATM   12  C10 UNL     1      17.528   6.683  11.603  1.00  0.00     0.094 C 
HETATM   13  C11 UNL     1      17.808   8.016  12.170  1.00  0.00     0.060 C 
HETATM   14  C12 UNL     1      17.521   5.523  12.558  1.00  0.00     0.154 C 
HETATM   15  C19 UNL     1      18.860   5.299  13.196  1.00  0.00     0.066 C 
ENDROOT
BRANCH  14  16
HETATM   16  C13 UNL     1      17.187   4.307  11.762  1.00  0.00     0.252 C 
HETATM   17  N2  UNL     1      15.953   4.028  11.151  1.00  0.00    -0.061 NA
HETATM   18  O2  UNL     1      18.106   3.416  11.612  1.00  0.00    -0.275 OA
ENDBRANCH  14  16
BRANCH  14  19
HETATM   19  C14 UNL     1      16.422   5.610  13.553  1.00  0.00     0.240 C 
HETATM   20  O3  UNL     1      15.588   6.547  13.591  1.00  0.00    -0.272 OA
HETATM   21  N3  UNL     1      16.272   4.591  14.537  1.00  0.00    -0.351 N 
HETATM   22  C15 UNL     1      17.082   3.407  14.736  1.00  0.00     0.126 C 
HETATM   23  C18 UNL     1      15.197   4.571  15.561  1.00  0.00     0.126 C 
HETATM   24  C16 UNL     1      16.328   2.569  15.754  1.00  0.00     0.021 C 
HETATM   25  C17 UNL     1      15.795   3.703  16.634  1.00  0.00     0.021 C 
ENDBRANCH  14  19
TORSDOF 2
ENDMDL
