MODEL 1
REMARK VINA RESULT: -6.218304553      0.000      0.000
REMARK  4 active torsions:
REMARK  status: ('A' for Active; 'I' for Inactive)
REMARK    1  A    between atoms: C2_2  and  O1_3 
REMARK    2  A    between atoms: O1_3  and  C3_4 
REMARK       I    between atoms: C3_4  and  N1_6 
REMARK    3  A    between atoms: C4_7  and  C5_8 
REMARK    4  A    between atoms: C5_8  and  O3_9 
ROOT
HETATM    1  C3  UNL     1      18.828   3.842  11.551  1.00  0.00     0.367 C 
HETATM    2  O2  UNL     1      20.025   3.548  11.441  1.00  0.00    -0.238 OA
HETATM    3  N1  UNL     1      18.227   4.959  12.137  1.00  0.00    -0.293 N 
HETATM    4  C4  UNL     1      19.090   5.984  12.598  1.00  0.00     0.022 C 
HETATM    5  C6  UNL     1      19.045   6.338  14.045  1.00  0.00     0.040 C 
HETATM    6  C7  UNL     1      19.150   7.864  14.153  1.00  0.00     0.011 C 
HETATM    7  C8  UNL     1      18.013   8.562  13.525  1.00  0.00     0.001 C 
HETATM    8  C9  UNL     1      16.729   7.833  13.391  1.00  0.00     0.005 C 
HETATM    9  C10 UNL     1      16.589   6.536  14.069  1.00  0.00    -0.000 C 
HETATM   10  C11 UNL     1      17.788   5.993  14.786  1.00  0.00     0.026 C 
HETATM   11  C12 UNL     1      17.657   4.580  15.202  1.00  0.00     0.242 C 
HETATM   12  N2  UNL     1      16.318   4.048  15.148  1.00  0.00    -0.070 N 
HETATM   13  C13 UNL     1      16.477   2.587  15.289  1.00  0.00     0.272 C 
HETATM   14  C14 UNL     1      15.473   4.447  16.242  1.00  0.00     0.272 C 
HETATM   15  C15 UNL     1      15.643   4.238  13.893  1.00  0.00     0.198 C 
HETATM   16  C16 UNL     1      16.338   3.493  12.741  1.00  0.00     0.060 C 
HETATM   17  C17 UNL     1      16.783   4.826  12.181  1.00  0.00     0.103 C 
HETATM   18  C18 UNL     1      16.002   5.511  13.168  1.00  0.00     0.045 C 
ENDROOT
BRANCH   1  19
HETATM   19  O1  UNL     1      17.984   2.860  10.969  1.00  0.00    -0.304 OA
BRANCH  19  20
HETATM   20  C2  UNL     1      18.521   1.622  10.624  1.00  0.00     0.176 C 
HETATM   21  C1  UNL     1      17.815   0.450  11.211  1.00  0.00     0.034 C 
ENDBRANCH  19  20
ENDBRANCH   1  19
BRANCH   4  22
HETATM   22  C5  UNL     1      20.516   5.952  12.151  1.00  0.00     0.217 C 
BRANCH  22  23
HETATM   23  O3  UNL     1      20.740   6.587  10.915  1.00  0.00    -0.395 OA
ATOM     24  H3  UNL     1      21.283   6.086  10.318  1.00  0.00     0.209 HD
ENDBRANCH  22  23
ENDBRANCH   4  22
TORSDOF 4
ENDMDL
MODEL 2
REMARK VINA RESULT: -6.153870384      2.700      4.493
REMARK  4 active torsions:
REMARK  status: ('A' for Active; 'I' for Inactive)
REMARK    1  A    between atoms: C2_2  and  O1_3 
REMARK    2  A    between atoms: O1_3  and  C3_4 
REMARK       I    between atoms: C3_4  and  N1_6 
REMARK    3  A    between atoms: C4_7  and  C5_8 
REMARK    4  A    between atoms: C5_8  and  O3_9 
ROOT
HETATM    1  C3  UNL     1      15.662   7.768  11.076  1.00  0.00     0.367 C 
HETATM    2  O2  UNL     1      15.294   7.483   9.929  1.00  0.00    -0.238 OA
HETATM    3  N1  UNL     1      16.900   7.573  11.697  1.00  0.00    -0.293 N 
HETATM    4  C4  UNL     1      17.949   7.066  10.891  1.00  0.00     0.022 C 
HETATM    5  C6  UNL     1      18.573   5.773  11.287  1.00  0.00     0.040 C 
HETATM    6  C7  UNL     1      20.084   5.898  11.062  1.00  0.00     0.011 C 
HETATM    7  C8  UNL     1      20.706   6.931  11.911  1.00  0.00     0.001 C 
HETATM    8  C9  UNL     1      20.031   7.298  13.179  1.00  0.00     0.005 C 
HETATM    9  C10 UNL     1      18.894   6.479  13.626  1.00  0.00    -0.000 C 
HETATM   10  C11 UNL     1      18.439   5.371  12.726  1.00  0.00     0.026 C 
HETATM   11  C12 UNL     1      17.139   4.777  13.106  1.00  0.00     0.242 C 
HETATM   12  N2  UNL     1      16.674   5.117  14.428  1.00  0.00    -0.070 N 
HETATM   13  C13 UNL     1      15.261   4.692  14.461  1.00  0.00     0.272 C 
HETATM   14  C14 UNL     1      17.316   4.391  15.490  1.00  0.00     0.272 C 
HETATM   15  C15 UNL     1      16.656   6.525  14.717  1.00  0.00     0.198 C 
HETATM   16  C16 UNL     1      15.671   7.290  13.817  1.00  0.00     0.060 C 
HETATM   17  C17 UNL     1      16.849   7.919  13.105  1.00  0.00     0.103 C 
HETATM   18  C18 UNL     1      17.747   7.323  14.050  1.00  0.00     0.045 C 
ENDROOT
BRANCH   1  19
HETATM   19  O1  UNL     1      14.631   8.390  11.826  1.00  0.00    -0.304 OA
BRANCH  19  20
HETATM   20  C2  UNL     1      13.871   9.395  11.233  1.00  0.00     0.176 C 
HETATM   21  C1  UNL     1      14.656  10.550  10.717  1.00  0.00     0.034 C 
ENDBRANCH  19  20
ENDBRANCH   1  19
BRANCH   4  22
HETATM   22  C5  UNL     1      17.761   7.079   9.407  1.00  0.00     0.217 C 
BRANCH  22  23
HETATM   23  O3  UNL     1      17.322   5.850   8.879  1.00  0.00    -0.395 OA
ATOM     24  H3  UNL     1      16.777   5.938   8.106  1.00  0.00     0.209 HD
ENDBRANCH  22  23
ENDBRANCH   4  22
TORSDOF 4
ENDMDL
MODEL 3
REMARK VINA RESULT: -6.080877875      2.124      4.710
REMARK  4 active torsions:
REMARK  status: ('A' for Active; 'I' for Inactive)
REMARK    1  A    between atoms: C2_2  and  O1_3 
REMARK    2  A    between atoms: O1_3  and  C3_4 
REMARK       I    between atoms: C3_4  and  N1_6 
REMARK    3  A    between atoms: C4_7  and  C5_8 
REMARK    4  A    between atoms: C5_8  and  O3_9 
ROOT
HETATM    1  C3  UNL     1      17.239   4.521  12.562  1.00  0.00     0.367 C 
HETATM    2  O2  UNL     1      17.536   3.443  13.091  1.00  0.00    -0.238 OA
HETATM    3  N1  UNL     1      17.892   5.239  11.556  1.00  0.00    -0.293 N 
HETATM    4  C4  UNL     1      19.016   4.621  10.954  1.00  0.00     0.022 C 
HETATM    5  C6  UNL     1      20.328   5.320  11.041  1.00  0.00     0.040 C 
HETATM    6  C7  UNL     1      21.031   5.159   9.688  1.00  0.00     0.011 C 
HETATM    7  C8  UNL     1      20.298   5.803   8.583  1.00  0.00     0.001 C 
HETATM    8  C9  UNL     1      19.381   6.923   8.906  1.00  0.00     0.005 C 
HETATM    9  C10 UNL     1      19.401   7.468  10.271  1.00  0.00    -0.000 C 
HETATM   10  C11 UNL     1      20.292   6.801  11.274  1.00  0.00     0.026 C 
HETATM   11  C12 UNL     1      20.055   7.224  12.671  1.00  0.00     0.242 C 
HETATM   12  N2  UNL     1      19.255   8.414  12.822  1.00  0.00    -0.070 N 
HETATM   13  C13 UNL     1      18.893   8.456  14.253  1.00  0.00     0.272 C 
HETATM   14  C14 UNL     1      19.960   9.642  12.571  1.00  0.00     0.272 C 
HETATM   15  C15 UNL     1      18.005   8.394  12.114  1.00  0.00     0.198 C 
HETATM   16  C16 UNL     1      17.060   7.297  12.632  1.00  0.00     0.060 C 
HETATM   17  C17 UNL     1      17.277   6.536  11.342  1.00  0.00     0.103 C 
HETATM   18  C18 UNL     1      18.027   7.636  10.811  1.00  0.00     0.045 C 
ENDROOT
BRANCH   1  19
HETATM   19  O1  UNL     1      16.040   5.062  13.094  1.00  0.00    -0.304 OA
BRANCH  19  20
HETATM   20  C2  UNL     1      15.567   4.592  14.317  1.00  0.00     0.176 C 
HETATM   21  C1  UNL     1      14.887   5.614  15.159  1.00  0.00     0.034 C 
ENDBRANCH  19  20
ENDBRANCH   1  19
BRANCH   4  22
HETATM   22  C5  UNL     1      19.227   3.161  11.197  1.00  0.00     0.217 C 
BRANCH  22  23
HETATM   23  O3  UNL     1      18.553   2.329  10.284  1.00  0.00    -0.395 OA
ATOM     24  H3  UNL     1      18.447   1.434  10.585  1.00  0.00     0.209 HD
ENDBRANCH  22  23
ENDBRANCH   4  22
TORSDOF 4
ENDMDL
MODEL 4
REMARK VINA RESULT: -5.931618007      2.393      4.366
REMARK  4 active torsions:
REMARK  status: ('A' for Active; 'I' for Inactive)
REMARK    1  A    between atoms: C2_2  and  O1_3 
REMARK    2  A    between atoms: O1_3  and  C3_4 
REMARK       I    between atoms: C3_4  and  N1_6 
REMARK    3  A    between atoms: C4_7  and  C5_8 
REMARK    4  A    between atoms: C5_8  and  O3_9 
ROOT
HETATM    1  C3  UNL     1      16.508   4.129  11.690  1.00  0.00     0.367 C 
HETATM    2  O2  UNL     1      15.418   3.729  12.118  1.00  0.00    -0.238 OA
HETATM    3  N1  UNL     1      17.358   5.123  12.185  1.00  0.00    -0.293 N 
HETATM    4  C4  UNL     1      16.999   5.718  13.419  1.00  0.00     0.022 C 
HETATM    5  C6  UNL     1      16.760   7.188  13.444  1.00  0.00     0.040 C 
HETATM    6  C7  UNL     1      17.372   7.737  14.738  1.00  0.00     0.011 C 
HETATM    7  C8  UNL     1      18.835   7.559  14.799  1.00  0.00     0.001 C 
HETATM    8  C9  UNL     1      19.581   7.434  13.524  1.00  0.00     0.005 C 
HETATM    9  C10 UNL     1      18.864   7.697  12.268  1.00  0.00    -0.000 C 
HETATM   10  C11 UNL     1      17.398   7.995  12.353  1.00  0.00     0.026 C 
HETATM   11  C12 UNL     1      16.699   7.977  11.050  1.00  0.00     0.242 C 
HETATM   12  N2  UNL     1      17.560   7.996   9.893  1.00  0.00    -0.070 N 
HETATM   13  C13 UNL     1      16.685   7.655   8.755  1.00  0.00     0.272 C 
HETATM   14  C14 UNL     1      18.108   9.288   9.580  1.00  0.00     0.272 C 
HETATM   15  C15 UNL     1      18.592   6.996   9.894  1.00  0.00     0.198 C 
HETATM   16  C16 UNL     1      18.020   5.569   9.851  1.00  0.00     0.060 C 
HETATM   17  C17 UNL     1      18.467   5.373  11.283  1.00  0.00     0.103 C 
HETATM   18  C18 UNL     1      19.132   6.642  11.257  1.00  0.00     0.045 C 
ENDROOT
BRANCH   1  19
HETATM   19  O1  UNL     1      16.909   3.431  10.522  1.00  0.00    -0.304 OA
BRANCH  19  20
HETATM   20  C2  UNL     1      16.766   2.047  10.474  1.00  0.00     0.176 C 
HETATM   21  C1  UNL     1      17.960   1.279  10.920  1.00  0.00     0.034 C 
ENDBRANCH  19  20
ENDBRANCH   1  19
BRANCH   4  22
HETATM   22  C5  UNL     1      15.949   5.043  14.243  1.00  0.00     0.217 C 
BRANCH  22  23
HETATM   23  O3  UNL     1      14.705   5.700  14.230  1.00  0.00    -0.395 OA
ATOM     24  H3  UNL     1      13.983   5.163  14.535  1.00  0.00     0.209 HD
ENDBRANCH  22  23
ENDBRANCH   4  22
TORSDOF 4
ENDMDL
MODEL 5
REMARK VINA RESULT: -5.838080564      2.759      4.927
REMARK  4 active torsions:
REMARK  status: ('A' for Active; 'I' for Inactive)
REMARK    1  A    between atoms: C2_2  and  O1_3 
REMARK    2  A    between atoms: O1_3  and  C3_4 
REMARK       I    between atoms: C3_4  and  N1_6 
REMARK    3  A    between atoms: C4_7  and  C5_8 
REMARK    4  A    between atoms: C5_8  and  O3_9 
ROOT
HETATM    1  C3  UNL     1      17.170   4.933  10.920  1.00  0.00     0.367 C 
HETATM    2  O2  UNL     1      16.020   5.163  10.527  1.00  0.00    -0.238 OA
HETATM    3  N1  UNL     1      18.126   5.799  11.459  1.00  0.00    -0.293 N 
HETATM    4  C4  UNL     1      17.718   7.134  11.701  1.00  0.00     0.022 C 
HETATM    5  C6  UNL     1      18.450   8.227  11.003  1.00  0.00     0.040 C 
HETATM    6  C7  UNL     1      18.629   9.378  12.001  1.00  0.00     0.011 C 
HETATM    7  C8  UNL     1      19.458   9.005  13.161  1.00  0.00     0.001 C 
HETATM    8  C9  UNL     1      20.428   7.895  13.004  1.00  0.00     0.005 C 
HETATM    9  C10 UNL     1      20.661   7.359  11.654  1.00  0.00    -0.000 C 
HETATM   10  C11 UNL     1      19.839   7.917  10.533  1.00  0.00     0.026 C 
HETATM   11  C12 UNL     1      19.932   7.148   9.273  1.00  0.00     0.242 C 
HETATM   12  N2  UNL     1      21.015   6.197   9.214  1.00  0.00    -0.070 N 
HETATM   13  C13 UNL     1      20.722   5.351   8.041  1.00  0.00     0.272 C 
HETATM   14  C14 UNL     1      22.305   6.778   8.954  1.00  0.00     0.272 C 
HETATM   15  C15 UNL     1      21.083   5.293  10.329  1.00  0.00     0.198 C 
HETATM   16  C16 UNL     1      19.849   4.378  10.413  1.00  0.00     0.060 C 
HETATM   17  C17 UNL     1      19.403   5.136  11.644  1.00  0.00     0.103 C 
HETATM   18  C18 UNL     1      20.632   5.874  11.645  1.00  0.00     0.045 C 
ENDROOT
BRANCH   1  19
HETATM   19  O1  UNL     1      17.515   3.563  10.784  1.00  0.00    -0.304 OA
BRANCH  19  20
HETATM   20  C2  UNL     1      16.530   2.594  10.960  1.00  0.00     0.176 C 
HETATM   21  C1  UNL     1      17.039   1.244  11.323  1.00  0.00     0.034 C 
ENDBRANCH  19  20
ENDBRANCH   1  19
BRANCH   4  22
HETATM   22  C5  UNL     1      16.253   7.435  11.670  1.00  0.00     0.217 C 
BRANCH  22  23
HETATM   23  O3  UNL     1      15.603   7.228  12.901  1.00  0.00    -0.395 OA
ATOM     24  H3  UNL     1      15.495   6.312  13.129  1.00  0.00     0.209 HD
ENDBRANCH  22  23
ENDBRANCH   4  22
TORSDOF 4
ENDMDL
