MODEL 1
REMARK VINA RESULT: -6.532354826      0.000      0.000
REMARK  2 active torsions:
REMARK  status: ('A' for Active; 'I' for Inactive)
REMARK    1  A    between atoms: C10_12  and  C11_13 
REMARK    2  A    between atoms: C11_13  and  C12_14 
ROOT
HETATM    1  C1  UNL     1      11.827   9.982   8.053  1.00  0.00     0.143 C 
HETATM    2  N1  UNL     1      13.223  10.241   8.010  1.00  0.00    -0.412 N 
HETATM    3  C2  UNL     1      13.891   9.882   6.814  1.00  0.00     0.117 C 
HETATM    4  C3  UNL     1      15.184   9.144   6.996  1.00  0.00     0.029 C 
HETATM    5  C4  UNL     1      15.642   9.149   8.420  1.00  0.00    -0.028 C 
HETATM    6  C5  UNL     1      15.372  10.520   8.998  1.00  0.00     0.035 C 
HETATM    7  C6  UNL     1      13.935  10.019   9.211  1.00  0.00     0.085 C 
HETATM    8  C7  UNL     1      14.555   8.617   9.284  1.00  0.00     0.034 C 
HETATM    9  C8  UNL     1      15.008   8.357  10.723  1.00  0.00     0.125 C 
HETATM   10  N2  UNL     1      16.229   7.687  10.694  1.00  0.00    -0.404 N 
HETATM   11  C9  UNL     1      16.604   6.957  11.889  1.00  0.00     0.151 C 
HETATM   12  C10 UNL     1      17.382   5.776  11.370  1.00  0.00    -0.065 C 
HETATM   13  C17 UNL     1      18.552   6.216  10.503  1.00  0.00     0.037 C 
HETATM   14  C18 UNL     1      18.621   7.701  10.308  1.00  0.00     0.029 C 
HETATM   15  C19 UNL     1      17.323   8.375  10.086  1.00  0.00     0.080 C 
HETATM   16  C20 UNL     1      16.991   8.589   8.639  1.00  0.00     0.035 C 
ENDROOT
BRANCH  12  17
HETATM   17  C11 UNL     1      17.670   4.678  12.286  1.00  0.00    -0.011 C 
BRANCH  17  18
HETATM   18  C12 UNL     1      17.308   3.298  12.064  1.00  0.00    -0.001 C 
HETATM   19  C13 UNL     1      16.820   2.591  13.312  1.00  0.00     0.021 C 
HETATM   20  C14 UNL     1      18.242   2.382  11.379  1.00  0.00     0.042 C 
HETATM   21  C15 UNL     1      17.314   1.292  10.820  1.00  0.00     0.233 C 
HETATM   22  N3  UNL     1      16.096   1.993  10.490  1.00  0.00    -0.074 N 
HETATM   23  C16 UNL     1      16.097   3.266  11.110  1.00  0.00     0.245 C 
ATOM     24  H32 UNL     1      15.950   2.056   9.482  1.00  0.00     0.277 HD
ATOM     25  H31 UNL     1      15.265   1.451  10.726  1.00  0.00     0.277 HD
ENDBRANCH  17  18
ENDBRANCH  12  17
TORSDOF 2
ENDMDL
MODEL 2
REMARK VINA RESULT: -6.476947450      1.775      2.294
REMARK  2 active torsions:
REMARK  status: ('A' for Active; 'I' for Inactive)
REMARK    1  A    between atoms: C10_12  and  C11_13 
REMARK    2  A    between atoms: C11_13  and  C12_14 
ROOT
HETATM    1  C1  UNL     1      12.121   9.352   8.190  1.00  0.00     0.143 C 
HETATM    2  N1  UNL     1      13.503   9.668   8.273  1.00  0.00    -0.412 N 
HETATM    3  C2  UNL     1      14.351   9.031   7.334  1.00  0.00     0.117 C 
HETATM    4  C3  UNL     1      15.612   8.449   7.899  1.00  0.00     0.029 C 
HETATM    5  C4  UNL     1      15.849   8.874   9.313  1.00  0.00    -0.028 C 
HETATM    6  C5  UNL     1      15.473  10.332   9.437  1.00  0.00     0.035 C 
HETATM    7  C6  UNL     1      14.028   9.828   9.576  1.00  0.00     0.085 C 
HETATM    8  C7  UNL     1      14.651   8.539  10.129  1.00  0.00     0.034 C 
HETATM    9  C8  UNL     1      14.884   8.714  11.631  1.00  0.00     0.125 C 
HETATM   10  N2  UNL     1      16.106   8.133  11.966  1.00  0.00    -0.404 N 
HETATM   11  C9  UNL     1      16.306   7.785  13.359  1.00  0.00     0.151 C 
HETATM   12  C10 UNL     1      17.171   6.553  13.309  1.00  0.00    -0.065 C 
HETATM   13  C17 UNL     1      18.453   6.803  12.528  1.00  0.00     0.037 C 
HETATM   14  C18 UNL     1      18.528   8.177  11.935  1.00  0.00     0.029 C 
HETATM   15  C19 UNL     1      17.269   8.688  11.351  1.00  0.00     0.080 C 
HETATM   16  C20 UNL     1      17.157   8.474   9.870  1.00  0.00     0.035 C 
ENDROOT
BRANCH  12  17
HETATM   17  C11 UNL     1      17.334   5.770  14.529  1.00  0.00    -0.011 C 
BRANCH  17  18
HETATM   18  C12 UNL     1      16.626   4.547  14.829  1.00  0.00    -0.001 C 
HETATM   19  C13 UNL     1      15.129   4.734  14.972  1.00  0.00     0.021 C 
HETATM   20  C14 UNL     1      17.068   3.682  15.941  1.00  0.00     0.042 C 
HETATM   21  C15 UNL     1      16.508   2.304  15.555  1.00  0.00     0.233 C 
HETATM   22  N3  UNL     1      16.577   2.282  14.113  1.00  0.00    -0.074 N 
HETATM   23  C16 UNL     1      16.777   3.596  13.625  1.00  0.00     0.245 C 
ATOM     24  H32 UNL     1      17.286   1.632  13.771  1.00  0.00     0.277 HD
ATOM     25  H31 UNL     1      15.758   1.838  13.696  1.00  0.00     0.277 HD
ENDBRANCH  17  18
ENDBRANCH  12  17
TORSDOF 2
ENDMDL
MODEL 3
REMARK VINA RESULT: -6.426897540      2.564      3.440
REMARK  2 active torsions:
REMARK  status: ('A' for Active; 'I' for Inactive)
REMARK    1  A    between atoms: C10_12  and  C11_13 
REMARK    2  A    between atoms: C11_13  and  C12_14 
ROOT
HETATM    1  C1  UNL     1      13.998   8.720   7.849  1.00  0.00     0.143 C 
HETATM    2  N1  UNL     1      15.119   9.298   8.503  1.00  0.00    -0.412 N 
HETATM    3  C2  UNL     1      16.385   9.048   7.920  1.00  0.00     0.117 C 
HETATM    4  C3  UNL     1      17.466   8.647   8.879  1.00  0.00     0.029 C 
HETATM    5  C4  UNL     1      17.055   8.831  10.305  1.00  0.00    -0.028 C 
HETATM    6  C5  UNL     1      16.282  10.126  10.410  1.00  0.00     0.035 C 
HETATM    7  C6  UNL     1      15.077   9.311   9.917  1.00  0.00     0.085 C 
HETATM    8  C7  UNL     1      15.782   8.101  10.544  1.00  0.00     0.034 C 
HETATM    9  C8  UNL     1      15.403   8.027  12.024  1.00  0.00     0.125 C 
HETATM   10  N2  UNL     1      16.531   7.664  12.758  1.00  0.00    -0.404 N 
HETATM   11  C9  UNL     1      16.302   7.104  14.075  1.00  0.00     0.151 C 
HETATM   12  C10 UNL     1      17.425   6.115  14.254  1.00  0.00    -0.065 C 
HETATM   13  C17 UNL     1      18.784   6.775  14.072  1.00  0.00     0.037 C 
HETATM   14  C18 UNL     1      18.695   8.223  13.693  1.00  0.00     0.029 C 
HETATM   15  C19 UNL     1      17.642   8.559  12.710  1.00  0.00     0.080 C 
HETATM   16  C20 UNL     1      18.132   8.616  11.293  1.00  0.00     0.035 C 
ENDROOT
BRANCH  12  17
HETATM   17  C11 UNL     1      17.343   5.164  15.356  1.00  0.00    -0.011 C 
BRANCH  17  18
HETATM   18  C12 UNL     1      16.414   4.060  15.431  1.00  0.00    -0.001 C 
HETATM   19  C13 UNL     1      16.262   3.307  14.125  1.00  0.00     0.021 C 
HETATM   20  C14 UNL     1      15.059   4.261  15.981  1.00  0.00     0.042 C 
HETATM   21  C15 UNL     1      14.656   2.850  16.439  1.00  0.00     0.233 C 
HETATM   22  N3  UNL     1      15.893   2.250  16.880  1.00  0.00    -0.074 N 
HETATM   23  C16 UNL     1      16.987   3.014  16.408  1.00  0.00     0.245 C 
ATOM     24  H32 UNL     1      15.919   2.125  17.892  1.00  0.00     0.277 HD
ATOM     25  H31 UNL     1      15.963   1.270  16.608  1.00  0.00     0.277 HD
ENDBRANCH  17  18
ENDBRANCH  12  17
TORSDOF 2
ENDMDL
MODEL 4
REMARK VINA RESULT: -6.354736045      4.158      5.741
REMARK  2 active torsions:
REMARK  status: ('A' for Active; 'I' for Inactive)
REMARK    1  A    between atoms: C10_12  and  C11_13 
REMARK    2  A    between atoms: C11_13  and  C12_14 
ROOT
HETATM    1  C1  UNL     1      21.331   5.244   7.102  1.00  0.00     0.143 C 
HETATM    2  N1  UNL     1      21.647   6.223   8.082  1.00  0.00    -0.412 N 
HETATM    3  C2  UNL     1      22.761   5.944   8.911  1.00  0.00     0.117 C 
HETATM    4  C3  UNL     1      22.549   6.188  10.376  1.00  0.00     0.029 C 
HETATM    5  C4  UNL     1      21.273   6.919  10.649  1.00  0.00    -0.028 C 
HETATM    6  C5  UNL     1      21.103   7.984   9.590  1.00  0.00     0.035 C 
HETATM    7  C6  UNL     1      20.548   6.855   8.709  1.00  0.00     0.085 C 
HETATM    8  C7  UNL     1      20.144   6.179  10.025  1.00  0.00     0.034 C 
HETATM    9  C8  UNL     1      18.773   6.712  10.448  1.00  0.00     0.125 C 
HETATM   10  N2  UNL     1      18.771   6.897  11.829  1.00  0.00    -0.404 N 
HETATM   11  C9  UNL     1      17.476   6.952  12.480  1.00  0.00     0.151 C 
HETATM   12  C10 UNL     1      17.720   6.338  13.834  1.00  0.00    -0.065 C 
HETATM   13  C17 UNL     1      18.835   7.055  14.579  1.00  0.00     0.037 C 
HETATM   14  C18 UNL     1      19.477   8.149  13.780  1.00  0.00     0.029 C 
HETATM   15  C19 UNL     1      19.705   7.841  12.351  1.00  0.00     0.080 C 
HETATM   16  C20 UNL     1      21.088   7.340  12.053  1.00  0.00     0.035 C 
ENDROOT
BRANCH  12  17
HETATM   17  C11 UNL     1      16.566   5.976  14.649  1.00  0.00    -0.011 C 
BRANCH  17  18
HETATM   18  C12 UNL     1      16.230   4.632  15.059  1.00  0.00    -0.001 C 
HETATM   19  C13 UNL     1      14.791   4.477  15.509  1.00  0.00     0.021 C 
HETATM   20  C14 UNL     1      17.075   3.917  16.037  1.00  0.00     0.042 C 
HETATM   21  C15 UNL     1      16.776   2.439  15.741  1.00  0.00     0.233 C 
HETATM   22  N3  UNL     1      16.552   2.398  14.315  1.00  0.00    -0.074 N 
HETATM   23  C16 UNL     1      16.345   3.711  13.828  1.00  0.00     0.245 C 
ATOM     24  H32 UNL     1      17.305   1.919  13.821  1.00  0.00     0.277 HD
ATOM     25  H31 UNL     1      15.788   1.770  14.064  1.00  0.00     0.277 HD
ENDBRANCH  17  18
ENDBRANCH  12  17
TORSDOF 2
ENDMDL
MODEL 5
REMARK VINA RESULT: -6.273921416      4.387      6.220
REMARK  2 active torsions:
REMARK  status: ('A' for Active; 'I' for Inactive)
REMARK    1  A    between atoms: C10_12  and  C11_13 
REMARK    2  A    between atoms: C11_13  and  C12_14 
ROOT
HETATM    1  C1  UNL     1      23.233   5.342   9.168  1.00  0.00     0.143 C 
HETATM    2  N1  UNL     1      22.849   6.594   9.719  1.00  0.00    -0.412 N 
HETATM    3  C2  UNL     1      23.623   7.064  10.808  1.00  0.00     0.117 C 
HETATM    4  C3  UNL     1      22.839   7.596  11.971  1.00  0.00     0.029 C 
HETATM    5  C4  UNL     1      21.387   7.754  11.650  1.00  0.00    -0.028 C 
HETATM    6  C5  UNL     1      21.271   8.299  10.245  1.00  0.00     0.035 C 
HETATM    7  C6  UNL     1      21.459   6.844   9.790  1.00  0.00     0.085 C 
HETATM    8  C7  UNL     1      20.854   6.460  11.147  1.00  0.00     0.034 C 
HETATM    9  C8  UNL     1      19.329   6.451  11.017  1.00  0.00     0.125 C 
HETATM   10  N2  UNL     1      18.778   6.997  12.175  1.00  0.00    -0.404 N 
HETATM   11  C9  UNL     1      17.393   6.675  12.455  1.00  0.00     0.151 C 
HETATM   12  C10 UNL     1      17.323   6.633  13.960  1.00  0.00    -0.065 C 
HETATM   13  C17 UNL     1      17.809   7.935  14.577  1.00  0.00     0.037 C 
HETATM   14  C18 UNL     1      18.305   8.924  13.566  1.00  0.00     0.029 C 
HETATM   15  C19 UNL     1      19.111   8.356  12.463  1.00  0.00     0.080 C 
HETATM   16  C20 UNL     1      20.591   8.432  12.694  1.00  0.00     0.035 C 
ENDROOT
BRANCH  12  17
HETATM   17  C11 UNL     1      16.137   6.057  14.584  1.00  0.00    -0.011 C 
BRANCH  17  18
HETATM   18  C12 UNL     1      16.039   4.708  15.090  1.00  0.00    -0.001 C 
HETATM   19  C13 UNL     1      14.710   4.403  15.750  1.00  0.00     0.021 C 
HETATM   20  C14 UNL     1      17.097   4.159  15.961  1.00  0.00     0.042 C 
HETATM   21  C15 UNL     1      16.954   2.641  15.769  1.00  0.00     0.233 C 
HETATM   22  N3  UNL     1      16.541   2.492  14.394  1.00  0.00    -0.074 N 
HETATM   23  C16 UNL     1      16.099   3.740  13.892  1.00  0.00     0.245 C 
ATOM     24  H32 UNL     1      17.274   2.081  13.815  1.00  0.00     0.277 HD
ATOM     25  H31 UNL     1      15.837   1.762  14.281  1.00  0.00     0.277 HD
ENDBRANCH  17  18
ENDBRANCH  12  17
TORSDOF 2
ENDMDL
