MODEL 1
REMARK VINA RESULT: -7.301755482      0.000      0.000
REMARK  8 active torsions:
REMARK  status: ('A' for Active; 'I' for Inactive)
REMARK    1  A    between atoms: C2_2  and  C3_3 
REMARK    2  A    between atoms: C2_2  and  C11_12 
REMARK    3  A    between atoms: C3_3  and  C4_4 
REMARK    4  A    between atoms: C4_4  and  C5_5 
REMARK    5  A    between atoms: C5_5  and  N1_6 
REMARK    6  A    between atoms: C14_15  and  C15_16 
REMARK    7  A    between atoms: C22_23  and  C24_25 
REMARK    8  A    between atoms: C24_25  and  O1_26 
ROOT
HETATM    1  C11 UNL     1      -9.793 -18.464   5.800  1.00  0.00     0.125 C 
HETATM    2  C12 UNL     1     -10.135 -19.447   6.912  1.00  0.00     0.035 C 
HETATM    3  C13 UNL     1      -9.113 -20.542   6.552  1.00  0.00     0.035 C 
HETATM    4  C14 UNL     1      -8.751 -20.344   5.166  1.00  0.00     0.130 C 
HETATM    5  O2  UNL     1      -9.530 -19.245   4.695  1.00  0.00    -0.379 OA
ENDROOT
BRANCH   4   6
HETATM    6  C15 UNL     1      -8.830 -21.352   4.135  1.00  0.00    -0.013 C 
HETATM    7  C16 UNL     1     -10.286 -21.227   3.605  1.00  0.00     0.018 C 
HETATM    8  C17 UNL     1      -8.854 -22.741   4.805  1.00  0.00     0.012 C 
HETATM    9  C18 UNL     1      -7.443 -23.265   4.670  1.00  0.00     0.006 C 
HETATM   10  C19 UNL     1      -6.975 -22.687   3.388  1.00  0.00    -0.009 C 
HETATM   11  C20 UNL     1      -5.604 -22.112   3.365  1.00  0.00     0.006 C 
HETATM   12  C25 UNL     1      -7.953 -21.559   3.018  1.00  0.00     0.010 C 
HETATM   13  C21 UNL     1      -5.680 -20.680   2.932  1.00  0.00     0.012 C 
HETATM   14  C22 UNL     1      -7.099 -20.585   2.374  1.00  0.00    -0.018 C 
HETATM   15  C23 UNL     1      -6.893 -21.001   0.892  1.00  0.00     0.018 C 
BRANCH  14  16
HETATM   16  C24 UNL     1      -7.529 -19.155   2.285  1.00  0.00     0.173 C 
BRANCH  16  17
HETATM   17  O1  UNL     1      -6.640 -18.498   1.394  1.00  0.00    -0.400 OA
ATOM     18  H1  UNL     1      -6.426 -17.655   1.775  1.00  0.00     0.209 HD
ENDBRANCH  16  17
ENDBRANCH  14  16
ENDBRANCH   4   6
BRANCH   1  19
HETATM   19  C2  UNL     1     -11.030 -17.609   5.618  1.00  0.00     0.011 C 
HETATM   20  C1  UNL     1     -11.614 -17.773   4.233  1.00  0.00     0.012 C 
BRANCH  19  21
HETATM   21  C3  UNL     1     -10.725 -16.154   5.862  1.00  0.00     0.008 C 
BRANCH  21  22
HETATM   22  C4  UNL     1     -10.827 -15.906   7.364  1.00  0.00     0.031 C 
BRANCH  22  23
HETATM   23  C5  UNL     1      -9.803 -14.846   7.684  1.00  0.00     0.272 C 
BRANCH  23  24
HETATM   24  N1  UNL     1      -9.125 -15.188   8.889  1.00  0.00     0.088 N 
HETATM   25  C6  UNL     1      -7.815 -14.640   9.012  1.00  0.00     0.272 C 
HETATM   26  C7  UNL     1      -6.874 -15.177   7.954  1.00  0.00     0.030 C 
HETATM   27  C8  UNL     1      -7.084 -16.664   7.759  1.00  0.00     0.003 C 
HETATM   28  C9  UNL     1      -7.871 -17.289   8.880  1.00  0.00     0.030 C 
HETATM   29  C10 UNL     1      -9.171 -16.613   9.162  1.00  0.00     0.272 C 
ENDBRANCH  23  24
ENDBRANCH  22  23
ENDBRANCH  21  22
ENDBRANCH  19  21
ENDBRANCH   1  19
TORSDOF 8
ENDMDL
MODEL 2
REMARK VINA RESULT: -7.281031615      3.549      6.986
REMARK  8 active torsions:
REMARK  status: ('A' for Active; 'I' for Inactive)
REMARK    1  A    between atoms: C2_2  and  C3_3 
REMARK    2  A    between atoms: C2_2  and  C11_12 
REMARK    3  A    between atoms: C3_3  and  C4_4 
REMARK    4  A    between atoms: C4_4  and  C5_5 
REMARK    5  A    between atoms: C5_5  and  N1_6 
REMARK    6  A    between atoms: C14_15  and  C15_16 
REMARK    7  A    between atoms: C22_23  and  C24_25 
REMARK    8  A    between atoms: C24_25  and  O1_26 
ROOT
HETATM    1  C11 UNL     1     -10.891 -18.730   6.703  1.00  0.00     0.125 C 
HETATM    2  C12 UNL     1     -11.929 -19.843   6.670  1.00  0.00     0.035 C 
HETATM    3  C13 UNL     1     -11.725 -20.370   8.102  1.00  0.00     0.035 C 
HETATM    4  C14 UNL     1     -10.414 -19.937   8.531  1.00  0.00     0.130 C 
HETATM    5  O2  UNL     1      -9.834 -19.242   7.427  1.00  0.00    -0.379 OA
ENDROOT
BRANCH   4   6
HETATM    6  C15 UNL     1      -9.377 -20.804   9.037  1.00  0.00    -0.013 C 
HETATM    7  C16 UNL     1      -8.260 -19.822   9.490  1.00  0.00     0.018 C 
HETATM    8  C17 UNL     1      -8.707 -21.519   7.845  1.00  0.00     0.012 C 
HETATM    9  C18 UNL     1      -9.317 -22.901   7.824  1.00  0.00     0.006 C 
HETATM   10  C19 UNL     1      -9.581 -23.191   9.254  1.00  0.00    -0.009 C 
HETATM   11  C20 UNL     1     -10.895 -23.799   9.591  1.00  0.00     0.006 C 
HETATM   12  C25 UNL     1      -9.486 -21.854  10.010  1.00  0.00     0.010 C 
HETATM   13  C21 UNL     1     -11.601 -22.924  10.581  1.00  0.00     0.012 C 
HETATM   14  C22 UNL     1     -10.483 -21.996  11.049  1.00  0.00    -0.018 C 
HETATM   15  C23 UNL     1      -9.867 -22.798  12.228  1.00  0.00     0.018 C 
BRANCH  14  16
HETATM   16  C24 UNL     1     -11.055 -20.780  11.706  1.00  0.00     0.173 C 
BRANCH  16  17
HETATM   17  O1  UNL     1     -12.469 -20.867  11.602  1.00  0.00    -0.400 OA
ATOM     18  H1  UNL     1     -12.798 -19.987  11.461  1.00  0.00     0.209 HD
ENDBRANCH  16  17
ENDBRANCH  14  16
ENDBRANCH   4   6
BRANCH   1  19
HETATM   19  C2  UNL     1     -10.524 -18.471   5.257  1.00  0.00     0.011 C 
HETATM   20  C1  UNL     1     -11.510 -17.533   4.598  1.00  0.00     0.012 C 
BRANCH  19  21
HETATM   21  C3  UNL     1     -10.459 -19.757   4.474  1.00  0.00     0.008 C 
BRANCH  21  22
HETATM   22  C4  UNL     1      -9.527 -19.528   3.287  1.00  0.00     0.031 C 
BRANCH  22  23
HETATM   23  C5  UNL     1      -8.152 -19.945   3.748  1.00  0.00     0.272 C 
BRANCH  23  24
HETATM   24  N1  UNL     1      -7.638 -20.941   2.869  1.00  0.00     0.088 N 
HETATM   25  C6  UNL     1      -8.358 -22.171   2.876  1.00  0.00     0.272 C 
HETATM   26  C7  UNL     1      -8.283 -22.864   4.220  1.00  0.00     0.030 C 
HETATM   27  C8  UNL     1      -6.883 -22.775   4.789  1.00  0.00     0.003 C 
HETATM   28  C9  UNL     1      -5.863 -22.373   3.756  1.00  0.00     0.030 C 
HETATM   29  C10 UNL     1      -6.206 -21.122   3.018  1.00  0.00     0.272 C 
ENDBRANCH  23  24
ENDBRANCH  22  23
ENDBRANCH  21  22
ENDBRANCH  19  21
ENDBRANCH   1  19
TORSDOF 8
ENDMDL
MODEL 3
REMARK VINA RESULT: -7.258740376      1.669      2.501
REMARK  8 active torsions:
REMARK  status: ('A' for Active; 'I' for Inactive)
REMARK    1  A    between atoms: C2_2  and  C3_3 
REMARK    2  A    between atoms: C2_2  and  C11_12 
REMARK    3  A    between atoms: C3_3  and  C4_4 
REMARK    4  A    between atoms: C4_4  and  C5_5 
REMARK    5  A    between atoms: C5_5  and  N1_6 
REMARK    6  A    between atoms: C14_15  and  C15_16 
REMARK    7  A    between atoms: C22_23  and  C24_25 
REMARK    8  A    between atoms: C24_25  and  O1_26 
ROOT
HETATM    1  C11 UNL     1      -9.904 -18.995   6.303  1.00  0.00     0.125 C 
HETATM    2  C12 UNL     1      -9.822 -20.108   7.338  1.00  0.00     0.035 C 
HETATM    3  C13 UNL     1      -8.715 -20.943   6.668  1.00  0.00     0.035 C 
HETATM    4  C14 UNL     1      -8.691 -20.572   5.272  1.00  0.00     0.130 C 
HETATM    5  O2  UNL     1      -9.738 -19.620   5.085  1.00  0.00    -0.379 OA
ENDROOT
BRANCH   4   6
HETATM    6  C15 UNL     1      -8.796 -21.493   4.165  1.00  0.00    -0.013 C 
HETATM    7  C16 UNL     1     -10.263 -21.323   3.679  1.00  0.00     0.018 C 
HETATM    8  C17 UNL     1      -8.812 -22.932   4.722  1.00  0.00     0.012 C 
HETATM    9  C18 UNL     1      -7.407 -23.447   4.514  1.00  0.00     0.006 C 
HETATM   10  C19 UNL     1      -6.964 -22.769   3.273  1.00  0.00    -0.009 C 
HETATM   11  C20 UNL     1      -5.591 -22.199   3.266  1.00  0.00     0.006 C 
HETATM   12  C25 UNL     1      -7.945 -21.613   3.016  1.00  0.00     0.010 C 
HETATM   13  C21 UNL     1      -5.670 -20.736   2.950  1.00  0.00     0.012 C 
HETATM   14  C22 UNL     1      -7.100 -20.592   2.433  1.00  0.00    -0.018 C 
HETATM   15  C23 UNL     1      -6.929 -20.889   0.918  1.00  0.00     0.018 C 
BRANCH  14  16
HETATM   16  C24 UNL     1      -7.526 -19.159   2.469  1.00  0.00     0.173 C 
BRANCH  16  17
HETATM   17  O1  UNL     1      -6.805 -18.476   1.454  1.00  0.00    -0.400 OA
ATOM     18  H1  UNL     1      -7.298 -17.695   1.232  1.00  0.00     0.209 HD
ENDBRANCH  16  17
ENDBRANCH  14  16
ENDBRANCH   4   6
BRANCH   1  19
HETATM   19  C2  UNL     1     -11.286 -18.396   6.457  1.00  0.00     0.011 C 
HETATM   20  C1  UNL     1     -12.355 -19.466   6.453  1.00  0.00     0.012 C 
BRANCH  19  21
HETATM   21  C3  UNL     1     -11.572 -17.401   5.362  1.00  0.00     0.008 C 
BRANCH  21  22
HETATM   22  C4  UNL     1     -10.659 -16.198   5.582  1.00  0.00     0.031 C 
BRANCH  22  23
HETATM   23  C5  UNL     1     -11.079 -15.590   6.898  1.00  0.00     0.272 C 
BRANCH  23  24
HETATM   24  N1  UNL     1     -10.305 -14.420   7.148  1.00  0.00     0.088 N 
HETATM   25  C6  UNL     1     -10.842 -13.554   8.144  1.00  0.00     0.272 C 
HETATM   26  C7  UNL     1     -12.175 -12.969   7.729  1.00  0.00     0.030 C 
HETATM   27  C8  UNL     1     -12.149 -12.562   6.271  1.00  0.00     0.003 C 
HETATM   28  C9  UNL     1     -10.751 -12.486   5.717  1.00  0.00     0.030 C 
HETATM   29  C10 UNL     1      -9.944 -13.725   5.926  1.00  0.00     0.272 C 
ENDBRANCH  23  24
ENDBRANCH  22  23
ENDBRANCH  21  22
ENDBRANCH  19  21
ENDBRANCH   1  19
TORSDOF 8
ENDMDL
MODEL 4
REMARK VINA RESULT: -7.081232016      1.716      2.827
REMARK  8 active torsions:
REMARK  status: ('A' for Active; 'I' for Inactive)
REMARK    1  A    between atoms: C2_2  and  C3_3 
REMARK    2  A    between atoms: C2_2  and  C11_12 
REMARK    3  A    between atoms: C3_3  and  C4_4 
REMARK    4  A    between atoms: C4_4  and  C5_5 
REMARK    5  A    between atoms: C5_5  and  N1_6 
REMARK    6  A    between atoms: C14_15  and  C15_16 
REMARK    7  A    between atoms: C22_23  and  C24_25 
REMARK    8  A    between atoms: C24_25  and  O1_26 
ROOT
HETATM    1  C11 UNL     1      -9.758 -18.819   6.843  1.00  0.00     0.125 C 
HETATM    2  C12 UNL     1      -9.332 -20.234   7.208  1.00  0.00     0.035 C 
HETATM    3  C13 UNL     1      -8.407 -20.497   6.006  1.00  0.00     0.035 C 
HETATM    4  C14 UNL     1      -8.789 -19.568   4.966  1.00  0.00     0.130 C 
HETATM    5  O2  UNL     1      -9.899 -18.826   5.471  1.00  0.00    -0.379 OA
ENDROOT
BRANCH   4   6
HETATM    6  C15 UNL     1      -9.143 -19.933   3.615  1.00  0.00    -0.013 C 
HETATM    7  C16 UNL     1      -9.940 -18.703   3.095  1.00  0.00     0.018 C 
HETATM    8  C17 UNL     1     -10.236 -21.020   3.668  1.00  0.00     0.012 C 
HETATM    9  C18 UNL     1      -9.507 -22.320   3.417  1.00  0.00     0.006 C 
HETATM   10  C19 UNL     1      -8.405 -21.934   2.505  1.00  0.00    -0.009 C 
HETATM   11  C20 UNL     1      -7.059 -22.494   2.794  1.00  0.00     0.006 C 
HETATM   12  C25 UNL     1      -8.288 -20.401   2.562  1.00  0.00     0.010 C 
HETATM   13  C21 UNL     1      -6.086 -21.368   2.968  1.00  0.00     0.012 C 
HETATM   14  C22 UNL     1      -6.866 -20.177   2.414  1.00  0.00    -0.018 C 
HETATM   15  C23 UNL     1      -6.506 -20.229   0.904  1.00  0.00     0.018 C 
BRANCH  14  16
HETATM   16  C24 UNL     1      -6.259 -18.893   2.881  1.00  0.00     0.173 C 
BRANCH  16  17
HETATM   17  O1  UNL     1      -5.000 -18.759   2.237  1.00  0.00    -0.400 OA
ATOM     18  H1  UNL     1      -4.725 -19.627   1.966  1.00  0.00     0.209 HD
ENDBRANCH  16  17
ENDBRANCH  14  16
ENDBRANCH   4   6
BRANCH   1  19
HETATM   19  C2  UNL     1     -11.076 -18.594   7.554  1.00  0.00     0.011 C 
HETATM   20  C1  UNL     1     -12.239 -19.104   6.734  1.00  0.00     0.012 C 
BRANCH  19  21
HETATM   21  C3  UNL     1     -11.285 -17.134   7.863  1.00  0.00     0.008 C 
BRANCH  21  22
HETATM   22  C4  UNL     1     -10.020 -16.390   7.446  1.00  0.00     0.031 C 
BRANCH  22  23
HETATM   23  C5  UNL     1     -10.462 -15.328   6.469  1.00  0.00     0.272 C 
BRANCH  23  24
HETATM   24  N1  UNL     1      -9.898 -14.074   6.842  1.00  0.00     0.088 N 
HETATM   25  C6  UNL     1     -10.536 -13.439   7.946  1.00  0.00     0.272 C 
HETATM   26  C7  UNL     1     -11.969 -13.061   7.633  1.00  0.00     0.030 C 
HETATM   27  C8  UNL     1     -12.077 -12.492   6.234  1.00  0.00     0.003 C 
HETATM   28  C9  UNL     1     -10.739 -12.102   5.663  1.00  0.00     0.030 C 
HETATM   29  C10 UNL     1      -9.718 -13.191   5.705  1.00  0.00     0.272 C 
ENDBRANCH  23  24
ENDBRANCH  22  23
ENDBRANCH  21  22
ENDBRANCH  19  21
ENDBRANCH   1  19
TORSDOF 8
ENDMDL
MODEL 5
REMARK VINA RESULT: -7.076990915      3.390      6.682
REMARK  8 active torsions:
REMARK  status: ('A' for Active; 'I' for Inactive)
REMARK    1  A    between atoms: C2_2  and  C3_3 
REMARK    2  A    between atoms: C2_2  and  C11_12 
REMARK    3  A    between atoms: C3_3  and  C4_4 
REMARK    4  A    between atoms: C4_4  and  C5_5 
REMARK    5  A    between atoms: C5_5  and  N1_6 
REMARK    6  A    between atoms: C14_15  and  C15_16 
REMARK    7  A    between atoms: C22_23  and  C24_25 
REMARK    8  A    between atoms: C24_25  and  O1_26 
ROOT
HETATM    1  C11 UNL     1     -10.726 -18.969   6.839  1.00  0.00     0.125 C 
HETATM    2  C12 UNL     1     -11.970 -19.846   6.847  1.00  0.00     0.035 C 
HETATM    3  C13 UNL     1     -11.715 -20.568   8.183  1.00  0.00     0.035 C 
HETATM    4  C14 UNL     1     -10.302 -20.453   8.464  1.00  0.00     0.130 C 
HETATM    5  O2  UNL     1      -9.723 -19.758   7.359  1.00  0.00    -0.379 OA
ENDROOT
BRANCH   4   6
HETATM    6  C15 UNL     1      -9.416 -21.560   8.739  1.00  0.00    -0.013 C 
HETATM    7  C16 UNL     1      -8.625 -21.741   7.413  1.00  0.00     0.018 C 
HETATM    8  C17 UNL     1     -10.250 -22.857   8.791  1.00  0.00     0.012 C 
HETATM    9  C18 UNL     1     -10.438 -23.143  10.262  1.00  0.00     0.006 C 
HETATM   10  C19 UNL     1      -9.194 -22.628  10.882  1.00  0.00    -0.009 C 
HETATM   11  C20 UNL     1      -9.337 -21.833  12.130  1.00  0.00     0.006 C 
HETATM   12  C25 UNL     1      -8.510 -21.728   9.839  1.00  0.00     0.010 C 
HETATM   13  C21 UNL     1      -8.711 -20.487  11.928  1.00  0.00     0.012 C 
HETATM   14  C22 UNL     1      -7.903 -20.693  10.649  1.00  0.00    -0.018 C 
HETATM   15  C23 UNL     1      -6.550 -21.219  11.201  1.00  0.00     0.018 C 
BRANCH  14  16
HETATM   16  C24 UNL     1      -7.551 -19.375  10.037  1.00  0.00     0.173 C 
BRANCH  16  17
HETATM   17  O1  UNL     1      -6.211 -19.081  10.404  1.00  0.00    -0.400 OA
ATOM     18  H1  UNL     1      -5.653 -19.724   9.982  1.00  0.00     0.209 HD
ENDBRANCH  16  17
ENDBRANCH  14  16
ENDBRANCH   4   6
BRANCH   1  19
HETATM   19  C2  UNL     1     -10.485 -18.616   5.386  1.00  0.00     0.011 C 
HETATM   20  C1  UNL     1     -11.523 -17.642   4.876  1.00  0.00     0.012 C 
BRANCH  19  21
HETATM   21  C3  UNL     1     -10.489 -19.849   4.520  1.00  0.00     0.008 C 
BRANCH  21  22
HETATM   22  C4  UNL     1      -9.569 -19.582   3.333  1.00  0.00     0.031 C 
BRANCH  22  23
HETATM   23  C5  UNL     1      -8.186 -19.991   3.775  1.00  0.00     0.272 C 
BRANCH  23  24
HETATM   24  N1  UNL     1      -7.607 -20.847   2.795  1.00  0.00     0.088 N 
HETATM   25  C6  UNL     1      -8.216 -22.132   2.692  1.00  0.00     0.272 C 
HETATM   26  C7  UNL     1      -8.049 -22.942   3.960  1.00  0.00     0.030 C 
HETATM   27  C8  UNL     1      -6.649 -22.783   4.514  1.00  0.00     0.003 C 
HETATM   28  C9  UNL     1      -5.693 -22.193   3.511  1.00  0.00     0.030 C 
HETATM   29  C10 UNL     1      -6.161 -20.912   2.904  1.00  0.00     0.272 C 
ENDBRANCH  23  24
ENDBRANCH  22  23
ENDBRANCH  21  22
ENDBRANCH  19  21
ENDBRANCH   1  19
TORSDOF 8
ENDMDL
