MODEL 1
REMARK VINA RESULT: -6.507479187      0.000      0.000
REMARK  5 active torsions:
REMARK  status: ('A' for Active; 'I' for Inactive)
REMARK    1  A    between atoms: C2_2  and  C4_4 
REMARK    2  A    between atoms: C4_4  and  C5_5 
REMARK    3  A    between atoms: C5_5  and  C6_6 
REMARK    4  A    between atoms: C6_6  and  O1_7 
REMARK    5  A    between atoms: C6_6  and  C7_10 
ROOT
HETATM    1  C7  UNL     1      36.124  -6.946  54.568  1.00  0.00     0.206 C 
HETATM    2  O2  UNL     1      37.313  -7.630  54.272  1.00  0.00    -0.367 OA
HETATM    3  C8  UNL     1      37.217  -8.865  54.850  1.00  0.00     0.152 C 
HETATM    4  C9  UNL     1      36.537  -9.897  53.968  1.00  0.00     0.045 C 
HETATM    5  C10 UNL     1      36.357  -8.684  56.042  1.00  0.00    -0.018 A 
HETATM    6  C11 UNL     1      36.150  -9.452  57.195  1.00  0.00     0.052 A 
HETATM    7  C12 UNL     1      35.271  -9.048  58.176  1.00  0.00     0.117 A 
HETATM    8  F1  UNL     1      35.064  -9.789  59.300  1.00  0.00    -0.206 F 
HETATM    9  C13 UNL     1      34.599  -7.860  57.988  1.00  0.00     0.043 A 
HETATM   10  C14 UNL     1      34.806  -7.108  56.852  1.00  0.00     0.013 A 
HETATM   11  C15 UNL     1      35.684  -7.494  55.855  1.00  0.00    -0.016 A 
ENDROOT
BRANCH   1  12
HETATM   12  C6  UNL     1      36.404  -5.463  54.624  1.00  0.00     0.164 C 
HETATM   13 CL1  UNL     1      37.664  -5.002  53.468  1.00  0.00    -0.085 Cl
BRANCH  12  14
HETATM   14  C5  UNL     1      35.174  -4.643  54.301  1.00  0.00     0.058 C 
BRANCH  14  15
HETATM   15  C4  UNL     1      35.446  -3.885  53.044  1.00  0.00     0.008 C 
BRANCH  15  16
HETATM   16  C2  UNL     1      34.457  -2.784  52.771  1.00  0.00    -0.023 C 
HETATM   17  C1  UNL     1      34.344  -2.417  51.331  1.00  0.00     0.009 C 
HETATM   18  C3  UNL     1      33.109  -3.213  53.312  1.00  0.00     0.009 C 
ENDBRANCH  15  16
ENDBRANCH  14  15
ENDBRANCH  12  14
BRANCH  12  19
HETATM   19  O1  UNL     1      36.760  -5.153  55.934  1.00  0.00    -0.372 OA
ATOM     20  H1  UNL     1      37.549  -5.647  56.127  1.00  0.00     0.212 HD
ENDBRANCH  12  19
ENDBRANCH   1  12
TORSDOF 5
ENDMDL
MODEL 2
REMARK VINA RESULT: -6.495884419      2.067      3.219
REMARK  5 active torsions:
REMARK  status: ('A' for Active; 'I' for Inactive)
REMARK    1  A    between atoms: C2_2  and  C4_4 
REMARK    2  A    between atoms: C4_4  and  C5_5 
REMARK    3  A    between atoms: C5_5  and  C6_6 
REMARK    4  A    between atoms: C6_6  and  O1_7 
REMARK    5  A    between atoms: C6_6  and  C7_10 
ROOT
HETATM    1  C7  UNL     1      34.988  -5.356  55.399  1.00  0.00     0.206 C 
HETATM    2  O2  UNL     1      33.814  -5.666  56.103  1.00  0.00    -0.367 OA
HETATM    3  C8  UNL     1      34.136  -6.644  57.002  1.00  0.00     0.152 C 
HETATM    4  C9  UNL     1      34.652  -6.107  58.325  1.00  0.00     0.045 C 
HETATM    5  C10 UNL     1      35.245  -7.408  56.385  1.00  0.00    -0.018 A 
HETATM    6  C11 UNL     1      35.781  -8.678  56.629  1.00  0.00     0.052 A 
HETATM    7  C12 UNL     1      36.841  -9.162  55.895  1.00  0.00     0.117 A 
HETATM    8  F1  UNL     1      37.367 -10.397  56.126  1.00  0.00    -0.206 F 
HETATM    9  C13 UNL     1      37.361  -8.353  54.907  1.00  0.00     0.043 A 
HETATM   10  C14 UNL     1      36.831  -7.104  54.671  1.00  0.00     0.013 A 
HETATM   11  C15 UNL     1      35.766  -6.599  55.396  1.00  0.00    -0.016 A 
ENDROOT
BRANCH   1  12
HETATM   12  C6  UNL     1      34.626  -4.884  54.011  1.00  0.00     0.164 C 
HETATM   13 CL1  UNL     1      33.329  -3.678  54.060  1.00  0.00    -0.085 Cl
BRANCH  12  14
HETATM   14  C5  UNL     1      35.804  -4.251  53.303  1.00  0.00     0.058 C 
BRANCH  14  15
HETATM   15  C4  UNL     1      35.368  -2.919  52.789  1.00  0.00     0.008 C 
BRANCH  15  16
HETATM   16  C2  UNL     1      35.006  -2.921  51.328  1.00  0.00    -0.023 C 
HETATM   17  C1  UNL     1      33.893  -1.992  50.982  1.00  0.00     0.009 C 
HETATM   18  C3  UNL     1      36.246  -2.575  50.531  1.00  0.00     0.009 C 
ENDBRANCH  15  16
ENDBRANCH  14  15
ENDBRANCH  12  14
BRANCH  12  19
HETATM   19  O1  UNL     1      34.266  -6.006  53.268  1.00  0.00    -0.372 OA
ATOM     20  H1  UNL     1      34.350  -5.765  52.352  1.00  0.00     0.212 HD
ENDBRANCH  12  19
ENDBRANCH   1  12
TORSDOF 5
ENDMDL
MODEL 3
REMARK VINA RESULT: -6.486547597      1.560      1.820
REMARK  5 active torsions:
REMARK  status: ('A' for Active; 'I' for Inactive)
REMARK    1  A    between atoms: C2_2  and  C4_4 
REMARK    2  A    between atoms: C4_4  and  C5_5 
REMARK    3  A    between atoms: C5_5  and  C6_6 
REMARK    4  A    between atoms: C6_6  and  O1_7 
REMARK    5  A    between atoms: C6_6  and  C7_10 
ROOT
HETATM    1  C7  UNL     1      34.422  -7.184  55.480  1.00  0.00     0.206 C 
HETATM    2  O2  UNL     1      35.234  -8.050  54.731  1.00  0.00    -0.367 OA
HETATM    3  C8  UNL     1      35.358  -9.204  55.455  1.00  0.00     0.152 C 
HETATM    4  C9  UNL     1      34.247 -10.205  55.197  1.00  0.00     0.045 C 
HETATM    5  C10 UNL     1      35.253  -8.799  56.875  1.00  0.00    -0.018 A 
HETATM    6  C11 UNL     1      35.614  -9.425  58.075  1.00  0.00     0.052 A 
HETATM    7  C12 UNL     1      35.400  -8.818  59.293  1.00  0.00     0.117 A 
HETATM    8  F1  UNL     1      35.748  -9.420  60.464  1.00  0.00    -0.206 F 
HETATM    9  C13 UNL     1      34.817  -7.569  59.294  1.00  0.00     0.043 A 
HETATM   10  C14 UNL     1      34.464  -6.957  58.112  1.00  0.00     0.013 A 
HETATM   11  C15 UNL     1      34.670  -7.549  56.878  1.00  0.00    -0.016 A 
ENDROOT
BRANCH   1  12
HETATM   12  C6  UNL     1      34.800  -5.756  55.168  1.00  0.00     0.164 C 
HETATM   13 CL1  UNL     1      36.462  -5.404  55.670  1.00  0.00    -0.085 Cl
BRANCH  12  14
HETATM   14  C5  UNL     1      34.703  -5.455  53.688  1.00  0.00     0.058 C 
BRANCH  14  15
HETATM   15  C4  UNL     1      33.998  -4.148  53.531  1.00  0.00     0.008 C 
BRANCH  15  16
HETATM   16  C2  UNL     1      34.827  -3.087  52.859  1.00  0.00    -0.023 C 
HETATM   17  C1  UNL     1      36.191  -3.544  52.469  1.00  0.00     0.009 C 
HETATM   18  C3  UNL     1      34.070  -2.593  51.644  1.00  0.00     0.009 C 
ENDBRANCH  15  16
ENDBRANCH  14  15
ENDBRANCH  12  14
BRANCH  12  19
HETATM   19  O1  UNL     1      33.877  -4.930  55.806  1.00  0.00    -0.372 OA
ATOM     20  H1  UNL     1      34.032  -5.018  56.740  1.00  0.00     0.212 HD
ENDBRANCH  12  19
ENDBRANCH   1  12
TORSDOF 5
ENDMDL
MODEL 4
REMARK VINA RESULT: -6.404473816      2.979      5.946
REMARK  5 active torsions:
REMARK  status: ('A' for Active; 'I' for Inactive)
REMARK    1  A    between atoms: C2_2  and  C4_4 
REMARK    2  A    between atoms: C4_4  and  C5_5 
REMARK    3  A    between atoms: C5_5  and  C6_6 
REMARK    4  A    between atoms: C6_6  and  O1_7 
REMARK    5  A    between atoms: C6_6  and  C7_10 
ROOT
HETATM    1  C7  UNL     1      35.674  -6.709  54.726  1.00  0.00     0.206 C 
HETATM    2  O2  UNL     1      36.996  -6.792  54.264  1.00  0.00    -0.367 OA
HETATM    3  C8  UNL     1      37.425  -5.511  54.053  1.00  0.00     0.152 C 
HETATM    4  C9  UNL     1      38.018  -4.858  55.289  1.00  0.00     0.045 C 
HETATM    5  C10 UNL     1      36.215  -4.737  53.694  1.00  0.00    -0.018 A 
HETATM    6  C11 UNL     1      36.024  -3.500  53.064  1.00  0.00     0.052 A 
HETATM    7  C12 UNL     1      34.762  -2.994  52.848  1.00  0.00     0.117 A 
HETATM    8  F1  UNL     1      34.569  -1.792  52.236  1.00  0.00    -0.206 F 
HETATM    9  C13 UNL     1      33.687  -3.744  53.272  1.00  0.00     0.043 A 
HETATM   10  C14 UNL     1      33.879  -4.960  53.892  1.00  0.00     0.013 A 
HETATM   11  C15 UNL     1      35.138  -5.487  54.118  1.00  0.00    -0.016 A 
ENDROOT
BRANCH   1  12
HETATM   12  C6  UNL     1      34.923  -7.952  54.312  1.00  0.00     0.164 C 
HETATM   13 CL1  UNL     1      36.036  -9.265  53.892  1.00  0.00    -0.085 Cl
BRANCH  12  14
HETATM   14  C5  UNL     1      34.020  -8.461  55.413  1.00  0.00     0.058 C 
BRANCH  14  15
HETATM   15  C4  UNL     1      34.487  -7.868  56.701  1.00  0.00     0.008 C 
BRANCH  15  16
HETATM   16  C2  UNL     1      34.755  -8.885  57.777  1.00  0.00    -0.023 C 
HETATM   17  C1  UNL     1      36.013  -9.659  57.577  1.00  0.00     0.009 C 
HETATM   18  C3  UNL     1      34.784  -8.169  59.111  1.00  0.00     0.009 C 
ENDBRANCH  15  16
ENDBRANCH  14  15
ENDBRANCH  12  14
BRANCH  12  19
HETATM   19  O1  UNL     1      34.099  -7.607  53.244  1.00  0.00    -0.372 OA
ATOM     20  H1  UNL     1      34.462  -6.815  52.863  1.00  0.00     0.212 HD
ENDBRANCH  12  19
ENDBRANCH   1  12
TORSDOF 5
ENDMDL
MODEL 5
REMARK VINA RESULT: -6.371695833      3.131      6.021
REMARK  5 active torsions:
REMARK  status: ('A' for Active; 'I' for Inactive)
REMARK    1  A    between atoms: C2_2  and  C4_4 
REMARK    2  A    between atoms: C4_4  and  C5_5 
REMARK    3  A    between atoms: C5_5  and  C6_6 
REMARK    4  A    between atoms: C6_6  and  O1_7 
REMARK    5  A    between atoms: C6_6  and  C7_10 
ROOT
HETATM    1  C7  UNL     1      35.725  -6.771  54.957  1.00  0.00     0.206 C 
HETATM    2  O2  UNL     1      37.025  -6.874  54.438  1.00  0.00    -0.367 OA
HETATM    3  C8  UNL     1      37.442  -5.604  54.153  1.00  0.00     0.152 C 
HETATM    4  C9  UNL     1      38.090  -4.899  55.332  1.00  0.00     0.045 C 
HETATM    5  C10 UNL     1      36.215  -4.845  53.819  1.00  0.00    -0.018 A 
HETATM    6  C11 UNL     1      35.994  -3.636  53.147  1.00  0.00     0.052 A 
HETATM    7  C12 UNL     1      34.723  -3.137  52.968  1.00  0.00     0.117 A 
HETATM    8  F1  UNL     1      34.500  -1.963  52.316  1.00  0.00    -0.206 F 
HETATM    9  C13 UNL     1      33.669  -3.869  53.473  1.00  0.00     0.043 A 
HETATM   10  C14 UNL     1      33.891  -5.057  54.133  1.00  0.00     0.013 A 
HETATM   11  C15 UNL     1      35.160  -5.576  54.323  1.00  0.00    -0.016 A 
ENDROOT
BRANCH   1  12
HETATM   12  C6  UNL     1      34.958  -8.030  54.630  1.00  0.00     0.164 C 
HETATM   13 CL1  UNL     1      34.227  -7.938  53.019  1.00  0.00    -0.085 Cl
BRANCH  12  14
HETATM   14  C5  UNL     1      35.845  -9.256  54.653  1.00  0.00     0.058 C 
BRANCH  14  15
HETATM   15  C4  UNL     1      35.826  -9.860  53.288  1.00  0.00     0.008 C 
BRANCH  15  16
HETATM   16  C2  UNL     1      35.431 -11.312  53.272  1.00  0.00    -0.023 C 
HETATM   17  C1  UNL     1      34.576 -11.718  54.423  1.00  0.00     0.009 C 
HETATM   18  C3  UNL     1      34.723 -11.597  51.963  1.00  0.00     0.009 C 
ENDBRANCH  15  16
ENDBRANCH  14  15
ENDBRANCH  12  14
BRANCH  12  19
HETATM   19  O1  UNL     1      34.002  -8.208  55.627  1.00  0.00    -0.372 OA
ATOM     20  H1  UNL     1      33.445  -8.926  55.347  1.00  0.00     0.212 HD
ENDBRANCH  12  19
ENDBRANCH   1  12
TORSDOF 5
ENDMDL
