MODEL 1
REMARK VINA RESULT: -8.998908808      0.000      0.000
REMARK  15 active torsions:
REMARK  status: ('A' for Active; 'I' for Inactive)
REMARK    1  A    between atoms: C2_2  and  N1_3 
REMARK    2  A    between atoms: C2_2  and  C13_28 
REMARK       I    between atoms: N1_3  and  C3_5 
REMARK    3  A    between atoms: C3_5  and  C4_7 
REMARK    4  A    between atoms: C4_7  and  O2_8 
REMARK    5  A    between atoms: C4_7  and  C5_10 
REMARK    6  A    between atoms: C7_12  and  C8_13 
REMARK    7  A    between atoms: N2_14  and  N3_16 
REMARK    8  A    between atoms: C11_22  and  O3_23 
REMARK    9  A    between atoms: C12_25  and  O4_26 
REMARK       I    between atoms: C13_28  and  N6_30 
REMARK   10  A    between atoms: C14_32  and  C15_33 
REMARK   11  A    between atoms: C14_32  and  C18_44 
REMARK   12  A    between atoms: C15_33  and  C16_34 
REMARK   13  A    between atoms: C16_34  and  C17_35 
REMARK   14  A    between atoms: C18_44  and  N11_45 
REMARK   15  A    between atoms: C18_44  and  O6_49 
ROOT
HETATM    1  C1  UNL     1      13.067  20.996  51.310  1.00  0.00     0.042 C 
HETATM    2  C2  UNL     1      13.270  21.469  52.728  1.00  0.00     0.173 C 
ENDROOT
BRANCH   2   3
HETATM    3  N1  UNL     1      14.624  21.944  52.825  1.00  0.00    -0.346 N 
HETATM    4  C3  UNL     1      15.558  21.428  53.772  1.00  0.00     0.251 C 
HETATM    5  O1  UNL     1      15.131  20.515  54.528  1.00  0.00    -0.270 OA
ATOM      6  H1  UNL     1      14.929  22.681  52.189  1.00  0.00     0.163 HD
BRANCH   4   7
HETATM    7  C4  UNL     1      16.939  21.934  53.858  1.00  0.00     0.245 C 
BRANCH   7   8
HETATM    8  O2  UNL     1      17.525  21.658  55.092  1.00  0.00    -0.381 OA
ATOM      9  H2  UNL     1      18.472  21.729  55.063  1.00  0.00     0.211 HD
ENDBRANCH   7   8
BRANCH   7  10
HETATM   10  C5  UNL     1      17.828  21.630  52.732  1.00  0.00     0.016 A 
HETATM   11  C6  UNL     1      17.800  22.473  51.611  1.00  0.00     0.026 A 
HETATM   12  C7  UNL     1      18.629  22.306  50.524  1.00  0.00    -0.016 A 
HETATM   13  C10 UNL     1      19.535  21.249  50.554  1.00  0.00     0.052 A 
HETATM   14  C11 UNL     1      19.570  20.422  51.636  1.00  0.00     0.100 A 
HETATM   15  C12 UNL     1      18.737  20.590  52.724  1.00  0.00     0.108 A 
BRANCH  12  16
HETATM   16  C8  UNL     1      18.575  23.205  49.388  1.00  0.00     0.118 C 
HETATM   17  N2  UNL     1      17.603  23.636  48.784  1.00  0.00    -0.309 N 
ATOM     18  H2  UNL     1      17.928  24.247  48.035  1.00  0.00     0.186 HD
BRANCH  17  19
HETATM   19  N3  UNL     1      16.264  23.594  48.756  1.00  0.00    -0.276 N 
HETATM   20  C9  UNL     1      15.455  24.374  49.383  1.00  0.00     0.215 C 
HETATM   21  N4  UNL     1      15.973  25.397  50.195  1.00  0.00    -0.065 NA
HETATM   22  N5  UNL     1      14.069  24.179  49.259  1.00  0.00    -0.065 NA
ATOM     23  H3  UNL     1      15.842  22.868  48.176  1.00  0.00     0.189 HD
ENDBRANCH  17  19
ENDBRANCH  12  16
BRANCH  14  24
HETATM   24  O3  UNL     1      20.510  19.385  51.587  1.00  0.00    -0.358 OA
ATOM     25  H3  UNL     1      21.222  19.438  52.215  1.00  0.00     0.217 HD
ENDBRANCH  14  24
BRANCH  15  26
HETATM   26  O4  UNL     1      18.820  19.707  53.792  1.00  0.00    -0.357 OA
ATOM     27  H4  UNL     1      18.041  19.428  54.258  1.00  0.00     0.217 HD
ENDBRANCH  15  26
ENDBRANCH   7  10
ENDBRANCH   4   7
ENDBRANCH   2   3
BRANCH   2  28
HETATM   28  C13 UNL     1      12.296  22.517  53.146  1.00  0.00     0.244 C 
HETATM   29  O5  UNL     1      12.575  23.288  54.120  1.00  0.00    -0.271 OA
HETATM   30  N6  UNL     1      11.073  22.666  52.490  1.00  0.00    -0.325 N 
HETATM   31  C14 UNL     1      10.670  23.760  51.855  1.00  0.00     0.064 C 
ATOM     32  H6  UNL     1      10.437  21.869  52.499  1.00  0.00     0.168 HD
BRANCH  31  33
HETATM   33  C15 UNL     1       9.353  23.644  51.258  1.00  0.00     0.010 C 
BRANCH  33  34
HETATM   34  C16 UNL     1       8.390  24.736  51.111  1.00  0.00     0.108 C 
BRANCH  34  35
HETATM   35  C17 UNL     1       8.349  25.536  49.876  1.00  0.00     0.116 A 
HETATM   36  N7  UNL     1       8.768  26.774  49.595  1.00  0.00    -0.272 N 
HETATM   37  N8  UNL     1       8.519  27.027  48.330  1.00  0.00    -0.227 N 
ATOM     38  H7  UNL     1       9.208  27.416  50.254  1.00  0.00     0.190 HD
HETATM   39  N9  UNL     1       7.946  26.011  47.741  1.00  0.00    -0.227 N 
ATOM     40  H8  UNL     1       8.744  27.906  47.865  1.00  0.00     0.210 HD
HETATM   41  N10 UNL     1       7.833  25.084  48.674  1.00  0.00    -0.272 N 
ATOM     42  H9  UNL     1       7.649  25.948  46.768  1.00  0.00     0.210 HD
ATOM     43  H10 UNL     1       7.421  24.162  48.530  1.00  0.00     0.190 HD
ENDBRANCH  34  35
ENDBRANCH  33  34
ENDBRANCH  31  33
BRANCH  31  44
HETATM   44  C18 UNL     1      11.620  24.867  51.850  1.00  0.00     0.367 C 
BRANCH  44  45
HETATM   45  N11 UNL     1      11.412  25.908  52.812  1.00  0.00    -0.047 N 
ATOM     46 3H11 UNL     1      10.637  26.499  52.510  1.00  0.00     0.277 HD
ATOM     47 2H11 UNL     1      11.024  25.509  53.666  1.00  0.00     0.277 HD
ATOM     48 1H11 UNL     1      12.215  26.492  53.044  1.00  0.00     0.277 HD
ENDBRANCH  44  45
BRANCH  44  49
HETATM   49  O6  UNL     1      11.639  25.487  50.583  1.00  0.00    -0.365 OA
ATOM     50  H6  UNL     1      12.335  25.122  50.050  1.00  0.00     0.212 HD
ENDBRANCH  44  49
ENDBRANCH  31  44
ENDBRANCH   2  28
TORSDOF 15
ENDMDL
MODEL 2
REMARK VINA RESULT: -8.889385815      2.842      5.110
REMARK  15 active torsions:
REMARK  status: ('A' for Active; 'I' for Inactive)
REMARK    1  A    between atoms: C2_2  and  N1_3 
REMARK    2  A    between atoms: C2_2  and  C13_28 
REMARK       I    between atoms: N1_3  and  C3_5 
REMARK    3  A    between atoms: C3_5  and  C4_7 
REMARK    4  A    between atoms: C4_7  and  O2_8 
REMARK    5  A    between atoms: C4_7  and  C5_10 
REMARK    6  A    between atoms: C7_12  and  C8_13 
REMARK    7  A    between atoms: N2_14  and  N3_16 
REMARK    8  A    between atoms: C11_22  and  O3_23 
REMARK    9  A    between atoms: C12_25  and  O4_26 
REMARK       I    between atoms: C13_28  and  N6_30 
REMARK   10  A    between atoms: C14_32  and  C15_33 
REMARK   11  A    between atoms: C14_32  and  C18_44 
REMARK   12  A    between atoms: C15_33  and  C16_34 
REMARK   13  A    between atoms: C16_34  and  C17_35 
REMARK   14  A    between atoms: C18_44  and  N11_45 
REMARK   15  A    between atoms: C18_44  and  O6_49 
ROOT
HETATM    1  C1  UNL     1      16.523  23.778  46.372  1.00  0.00     0.042 C 
HETATM    2  C2  UNL     1      16.323  22.808  47.509  1.00  0.00     0.173 C 
ENDROOT
BRANCH   2   3
HETATM    3  N1  UNL     1      17.293  23.135  48.519  1.00  0.00    -0.346 N 
HETATM    4  C3  UNL     1      17.667  22.227  49.555  1.00  0.00     0.251 C 
HETATM    5  O1  UNL     1      17.100  21.103  49.535  1.00  0.00    -0.270 OA
ATOM      6  H1  UNL     1      17.732  24.056  48.494  1.00  0.00     0.163 HD
BRANCH   4   7
HETATM    7  C4  UNL     1      18.659  22.587  50.583  1.00  0.00     0.245 C 
BRANCH   7   8
HETATM    8  O2  UNL     1      18.452  23.870  51.088  1.00  0.00    -0.381 OA
ATOM      9  H2  UNL     1      18.567  23.907  52.031  1.00  0.00     0.211 HD
ENDBRANCH   7   8
BRANCH   7  10
HETATM   10  C5  UNL     1      18.907  21.600  51.639  1.00  0.00     0.016 A 
HETATM   11  C6  UNL     1      18.160  21.687  52.824  1.00  0.00     0.026 A 
HETATM   12  C7  UNL     1      18.279  20.781  53.855  1.00  0.00    -0.016 A 
HETATM   13  C10 UNL     1      19.183  19.735  53.700  1.00  0.00     0.052 A 
HETATM   14  C11 UNL     1      19.916  19.641  52.555  1.00  0.00     0.100 A 
HETATM   15  C12 UNL     1      19.797  20.551  51.523  1.00  0.00     0.108 A 
BRANCH  12  16
HETATM   16  C8  UNL     1      17.482  20.901  55.060  1.00  0.00     0.118 C 
HETATM   17  N2  UNL     1      16.284  21.111  55.182  1.00  0.00    -0.309 N 
ATOM     18  H2  UNL     1      16.055  21.134  56.175  1.00  0.00     0.186 HD
BRANCH  17  19
HETATM   19  N3  UNL     1      15.164  21.321  54.477  1.00  0.00    -0.276 N 
HETATM   20  C9  UNL     1      13.978  20.923  54.777  1.00  0.00     0.215 C 
HETATM   21  N4  UNL     1      13.775  20.190  55.960  1.00  0.00    -0.065 NA
HETATM   22  N5  UNL     1      12.909  21.212  53.913  1.00  0.00    -0.065 NA
ATOM     23  H3  UNL     1      15.262  21.851  53.610  1.00  0.00     0.189 HD
ENDBRANCH  17  19
ENDBRANCH  12  16
BRANCH  14  24
HETATM   24  O3  UNL     1      20.802  18.559  52.479  1.00  0.00    -0.358 OA
ATOM     25  H3  UNL     1      21.044  18.280  51.603  1.00  0.00     0.217 HD
ENDBRANCH  14  24
BRANCH  15  26
HETATM   26  O4  UNL     1      20.580  20.401  50.386  1.00  0.00    -0.357 OA
ATOM     27  H4  UNL     1      21.077  19.605  50.237  1.00  0.00     0.217 HD
ENDBRANCH  15  26
ENDBRANCH   7  10
ENDBRANCH   4   7
ENDBRANCH   2   3
BRANCH   2  28
HETATM   28  C13 UNL     1      14.938  22.822  48.061  1.00  0.00     0.244 C 
HETATM   29  O5  UNL     1      14.154  21.846  47.825  1.00  0.00    -0.271 OA
HETATM   30  N6  UNL     1      14.480  23.892  48.830  1.00  0.00    -0.325 N 
HETATM   31  C14 UNL     1      14.060  23.812  50.087  1.00  0.00     0.064 C 
ATOM     32  H6  UNL     1      14.467  24.812  48.390  1.00  0.00     0.168 HD
BRANCH  31  33
HETATM   33  C15 UNL     1      13.638  25.080  50.650  1.00  0.00     0.010 C 
BRANCH  33  34
HETATM   34  C16 UNL     1      12.277  25.407  51.077  1.00  0.00     0.108 C 
BRANCH  34  35
HETATM   35  C17 UNL     1      11.805  25.034  52.420  1.00  0.00     0.116 A 
HETATM   36  N7  UNL     1      11.913  23.903  53.127  1.00  0.00    -0.272 N 
HETATM   37  N8  UNL     1      11.335  24.079  54.294  1.00  0.00    -0.227 N 
ATOM     38  H7  UNL     1      12.368  23.047  52.811  1.00  0.00     0.190 HD
HETATM   39  N9  UNL     1      10.838  25.281  54.407  1.00  0.00    -0.227 N 
ATOM     40  H8  UNL     1      11.281  23.366  55.020  1.00  0.00     0.210 HD
HETATM   41  N10 UNL     1      11.116  25.884  53.266  1.00  0.00    -0.272 N 
ATOM     42  H9  UNL     1      10.340  25.671  55.208  1.00  0.00     0.210 HD
ATOM     43  H10 UNL     1      10.859  26.845  53.039  1.00  0.00     0.190 HD
ENDBRANCH  34  35
ENDBRANCH  33  34
ENDBRANCH  31  33
BRANCH  31  44
HETATM   44  C18 UNL     1      14.116  22.481  50.681  1.00  0.00     0.367 C 
BRANCH  44  45
HETATM   45  N11 UNL     1      12.877  21.775  50.817  1.00  0.00    -0.047 N 
ATOM     46 3H11 UNL     1      12.123  22.332  50.413  1.00  0.00     0.277 HD
ATOM     47 2H11 UNL     1      12.874  20.970  50.192  1.00  0.00     0.277 HD
ATOM     48 1H11 UNL     1      12.614  21.477  51.756  1.00  0.00     0.277 HD
ENDBRANCH  44  45
BRANCH  44  49
HETATM   49  O6  UNL     1      14.686  22.546  51.970  1.00  0.00    -0.365 OA
ATOM     50  H6  UNL     1      14.138  22.087  52.595  1.00  0.00     0.212 HD
ENDBRANCH  44  49
ENDBRANCH  31  44
ENDBRANCH   2  28
TORSDOF 15
ENDMDL
MODEL 3
REMARK VINA RESULT: -8.454094413      3.974      6.917
REMARK  15 active torsions:
REMARK  status: ('A' for Active; 'I' for Inactive)
REMARK    1  A    between atoms: C2_2  and  N1_3 
REMARK    2  A    between atoms: C2_2  and  C13_28 
REMARK       I    between atoms: N1_3  and  C3_5 
REMARK    3  A    between atoms: C3_5  and  C4_7 
REMARK    4  A    between atoms: C4_7  and  O2_8 
REMARK    5  A    between atoms: C4_7  and  C5_10 
REMARK    6  A    between atoms: C7_12  and  C8_13 
REMARK    7  A    between atoms: N2_14  and  N3_16 
REMARK    8  A    between atoms: C11_22  and  O3_23 
REMARK    9  A    between atoms: C12_25  and  O4_26 
REMARK       I    between atoms: C13_28  and  N6_30 
REMARK   10  A    between atoms: C14_32  and  C15_33 
REMARK   11  A    between atoms: C14_32  and  C18_44 
REMARK   12  A    between atoms: C15_33  and  C16_34 
REMARK   13  A    between atoms: C16_34  and  C17_35 
REMARK   14  A    between atoms: C18_44  and  N11_45 
REMARK   15  A    between atoms: C18_44  and  O6_49 
ROOT
HETATM    1  C1  UNL     1      14.530  23.230  50.233  1.00  0.00     0.042 C 
HETATM    2  C2  UNL     1      15.513  23.507  49.123  1.00  0.00     0.173 C 
ENDROOT
BRANCH   2   3
HETATM    3  N1  UNL     1      16.691  22.729  49.398  1.00  0.00    -0.346 N 
HETATM    4  C3  UNL     1      17.921  23.313  49.824  1.00  0.00     0.251 C 
HETATM    5  O1  UNL     1      17.921  24.566  49.955  1.00  0.00    -0.270 OA
ATOM      6  H1  UNL     1      16.644  21.716  49.284  1.00  0.00     0.163 HD
BRANCH   4   7
HETATM    7  C4  UNL     1      19.117  22.497  50.094  1.00  0.00     0.245 C 
BRANCH   7   8
HETATM    8  O2  UNL     1      20.294  23.235  49.982  1.00  0.00    -0.381 OA
ATOM      9  H2  UNL     1      20.556  23.359  49.077  1.00  0.00     0.211 HD
ENDBRANCH   7   8
BRANCH   7  10
HETATM   10  C5  UNL     1      19.091  21.659  51.297  1.00  0.00     0.016 A 
HETATM   11  C6  UNL     1      18.164  21.966  52.305  1.00  0.00     0.026 A 
HETATM   12  C7  UNL     1      18.021  21.214  53.450  1.00  0.00    -0.016 A 
HETATM   13  C10 UNL     1      18.840  20.097  53.600  1.00  0.00     0.052 A 
HETATM   14  C11 UNL     1      19.745  19.790  52.630  1.00  0.00     0.100 A 
HETATM   15  C12 UNL     1      19.887  20.547  51.483  1.00  0.00     0.108 A 
BRANCH  12  16
HETATM   16  C8  UNL     1      17.045  21.560  54.464  1.00  0.00     0.118 C 
HETATM   17  N2  UNL     1      15.830  21.651  54.374  1.00  0.00    -0.309 N 
ATOM     18  H2  UNL     1      15.453  21.916  55.284  1.00  0.00     0.186 HD
BRANCH  17  19
HETATM   19  N3  UNL     1      14.815  21.529  53.507  1.00  0.00    -0.276 N 
HETATM   20  C9  UNL     1      13.588  21.266  53.789  1.00  0.00     0.215 C 
HETATM   21  N4  UNL     1      13.213  21.082  55.131  1.00  0.00    -0.065 NA
HETATM   22  N5  UNL     1      12.647  21.151  52.752  1.00  0.00    -0.065 NA
ATOM     23  H3  UNL     1      15.040  21.656  52.520  1.00  0.00     0.189 HD
ENDBRANCH  17  19
ENDBRANCH  12  16
BRANCH  14  24
HETATM   24  O3  UNL     1      20.528  18.652  52.857  1.00  0.00    -0.358 OA
ATOM     25  H3  UNL     1      20.054  17.852  53.053  1.00  0.00     0.217 HD
ENDBRANCH  14  24
BRANCH  15  26
HETATM   26  O4  UNL     1      20.835  20.182  50.536  1.00  0.00    -0.357 OA
ATOM     27  H4  UNL     1      20.769  20.482  49.637  1.00  0.00     0.217 HD
ENDBRANCH  15  26
ENDBRANCH   7  10
ENDBRANCH   4   7
ENDBRANCH   2   3
BRANCH   2  28
HETATM   28  C13 UNL     1      14.971  23.211  47.767  1.00  0.00     0.244 C 
HETATM   29  O5  UNL     1      13.725  23.347  47.540  1.00  0.00    -0.271 OA
HETATM   30  N6  UNL     1      15.806  22.779  46.736  1.00  0.00    -0.325 N 
HETATM   31  C14 UNL     1      15.995  23.410  45.584  1.00  0.00     0.064 C 
ATOM     32  H6  UNL     1      16.313  21.905  46.880  1.00  0.00     0.168 HD
BRANCH  31  33
HETATM   33  C15 UNL     1      16.919  22.740  44.688  1.00  0.00     0.010 C 
BRANCH  33  34
HETATM   34  C16 UNL     1      16.937  22.879  43.232  1.00  0.00     0.108 C 
BRANCH  34  35
HETATM   35  C17 UNL     1      16.953  24.212  42.608  1.00  0.00     0.116 A 
HETATM   36  N7  UNL     1      16.016  24.907  41.954  1.00  0.00    -0.272 N 
HETATM   37  N8  UNL     1      16.522  26.069  41.604  1.00  0.00    -0.227 N 
ATOM     38  H7  UNL     1      15.067  24.588  41.759  1.00  0.00     0.190 HD
HETATM   39  N9  UNL     1      17.763  26.190  41.991  1.00  0.00    -0.227 N 
ATOM     40  H8  UNL     1      16.009  26.787  41.093  1.00  0.00     0.210 HD
HETATM   41  N10 UNL     1      18.047  25.059  42.611  1.00  0.00    -0.272 N 
ATOM     42  H9  UNL     1      18.381  26.988  41.846  1.00  0.00     0.210 HD
ATOM     43  H10 UNL     1      18.950  24.839  43.033  1.00  0.00     0.190 HD
ENDBRANCH  34  35
ENDBRANCH  33  34
ENDBRANCH  31  33
BRANCH  31  44
HETATM   44  C18 UNL     1      15.266  24.664  45.431  1.00  0.00     0.367 C 
BRANCH  44  45
HETATM   45  N11 UNL     1      14.058  24.626  44.661  1.00  0.00    -0.047 N 
ATOM     46 3H11 UNL     1      14.092  23.837  44.015  1.00  0.00     0.277 HD
ATOM     47 2H11 UNL     1      13.282  24.347  45.260  1.00  0.00     0.277 HD
ATOM     48 1H11 UNL     1      13.807  25.472  44.150  1.00  0.00     0.277 HD
ENDBRANCH  44  45
BRANCH  44  49
HETATM   49  O6  UNL     1      16.093  25.639  44.834  1.00  0.00    -0.365 OA
ATOM     50  H6  UNL     1      15.894  26.499  45.187  1.00  0.00     0.212 HD
ENDBRANCH  44  49
ENDBRANCH  31  44
ENDBRANCH   2  28
TORSDOF 15
ENDMDL
MODEL 4
REMARK VINA RESULT: -8.425077058      3.524      8.203
REMARK  15 active torsions:
REMARK  status: ('A' for Active; 'I' for Inactive)
REMARK    1  A    between atoms: C2_2  and  N1_3 
REMARK    2  A    between atoms: C2_2  and  C13_28 
REMARK       I    between atoms: N1_3  and  C3_5 
REMARK    3  A    between atoms: C3_5  and  C4_7 
REMARK    4  A    between atoms: C4_7  and  O2_8 
REMARK    5  A    between atoms: C4_7  and  C5_10 
REMARK    6  A    between atoms: C7_12  and  C8_13 
REMARK    7  A    between atoms: N2_14  and  N3_16 
REMARK    8  A    between atoms: C11_22  and  O3_23 
REMARK    9  A    between atoms: C12_25  and  O4_26 
REMARK       I    between atoms: C13_28  and  N6_30 
REMARK   10  A    between atoms: C14_32  and  C15_33 
REMARK   11  A    between atoms: C14_32  and  C18_44 
REMARK   12  A    between atoms: C15_33  and  C16_34 
REMARK   13  A    between atoms: C16_34  and  C17_35 
REMARK   14  A    between atoms: C18_44  and  N11_45 
REMARK   15  A    between atoms: C18_44  and  O6_49 
ROOT
HETATM    1  C1  UNL     1      16.296  20.280  55.338  1.00  0.00     0.042 C 
HETATM    2  C2  UNL     1      16.276  20.711  53.893  1.00  0.00     0.173 C 
ENDROOT
BRANCH   2   3
HETATM    3  N1  UNL     1      15.279  21.741  53.774  1.00  0.00    -0.346 N 
HETATM    4  C3  UNL     1      14.308  21.759  52.728  1.00  0.00     0.251 C 
HETATM    5  O1  UNL     1      14.365  20.808  51.905  1.00  0.00    -0.270 OA
ATOM      6  H1  UNL     1      15.266  22.489  54.467  1.00  0.00     0.163 HD
BRANCH   4   7
HETATM    7  C4  UNL     1      13.300  22.828  52.623  1.00  0.00     0.245 C 
BRANCH   7   8
HETATM    8  O2  UNL     1      12.928  23.073  51.302  1.00  0.00    -0.381 OA
ATOM      9  H2  UNL     1      13.666  23.018  50.705  1.00  0.00     0.211 HD
ENDBRANCH   7   8
BRANCH   7  10
HETATM   10  C5  UNL     1      12.147  22.744  53.525  1.00  0.00     0.016 A 
HETATM   11  C6  UNL     1      11.740  21.478  53.973  1.00  0.00     0.026 A 
HETATM   12  C7  UNL     1      10.703  21.292  54.861  1.00  0.00    -0.016 A 
HETATM   13  C10 UNL     1      10.039  22.422  55.330  1.00  0.00     0.052 A 
HETATM   14  C11 UNL     1      10.423  23.657  54.900  1.00  0.00     0.100 A 
HETATM   15  C12 UNL     1      11.462  23.841  54.009  1.00  0.00     0.108 A 
BRANCH  12  16
HETATM   16  C8  UNL     1      10.319  19.968  55.306  1.00  0.00     0.118 C 
HETATM   17  N2  UNL     1      10.586  19.390  56.350  1.00  0.00    -0.309 N 
ATOM     18  H2  UNL     1      10.152  18.468  56.334  1.00  0.00     0.186 HD
BRANCH  17  19
HETATM   19  N3  UNL     1      11.244  19.537  57.508  1.00  0.00    -0.276 N 
HETATM   20  C9  UNL     1      12.499  19.338  57.712  1.00  0.00     0.215 C 
HETATM   21  N4  UNL     1      13.314  18.927  56.644  1.00  0.00    -0.065 NA
HETATM   22  N5  UNL     1      13.029  19.519  59.000  1.00  0.00    -0.065 NA
ATOM     23  H3  UNL     1      10.692  19.837  58.313  1.00  0.00     0.189 HD
ENDBRANCH  17  19
ENDBRANCH  12  16
BRANCH  14  24
HETATM   24  O3  UNL     1       9.705  24.740  55.420  1.00  0.00    -0.358 OA
ATOM     25  H3  UNL     1       9.700  25.530  54.892  1.00  0.00     0.217 HD
ENDBRANCH  14  24
BRANCH  15  26
HETATM   26  O4  UNL     1      11.797  25.127  53.607  1.00  0.00    -0.357 OA
ATOM     27  H4  UNL     1      11.732  25.859  54.207  1.00  0.00     0.217 HD
ENDBRANCH  15  26
ENDBRANCH   7  10
ENDBRANCH   4   7
ENDBRANCH   2   3
BRANCH   2  28
HETATM   28  C13 UNL     1      17.601  21.178  53.397  1.00  0.00     0.244 C 
HETATM   29  O5  UNL     1      18.649  20.505  53.665  1.00  0.00    -0.271 OA
HETATM   30  N6  UNL     1      17.718  22.348  52.646  1.00  0.00    -0.325 N 
HETATM   31  C14 UNL     1      18.189  22.422  51.407  1.00  0.00     0.064 C 
ATOM     32  H6  UNL     1      17.416  23.217  53.086  1.00  0.00     0.168 HD
BRANCH  31  33
HETATM   33  C15 UNL     1      18.199  23.766  50.860  1.00  0.00     0.010 C 
BRANCH  33  34
HETATM   34  C16 UNL     1      17.250  24.287  49.876  1.00  0.00     0.108 C 
BRANCH  34  35
HETATM   35  C17 UNL     1      16.353  23.375  49.146  1.00  0.00     0.116 A 
HETATM   36  N7  UNL     1      16.364  22.925  47.887  1.00  0.00    -0.272 N 
HETATM   37  N8  UNL     1      15.348  22.108  47.724  1.00  0.00    -0.227 N 
ATOM     38  H7  UNL     1      17.048  23.174  47.173  1.00  0.00     0.190 HD
HETATM   39  N9  UNL     1      14.647  21.987  48.819  1.00  0.00    -0.227 N 
ATOM     40  H8  UNL     1      15.133  21.628  46.850  1.00  0.00     0.210 HD
HETATM   41  N10 UNL     1      15.248  22.759  49.706  1.00  0.00    -0.272 N 
ATOM     42  H9  UNL     1      13.812  21.418  48.959  1.00  0.00     0.210 HD
ATOM     43  H10 UNL     1      14.941  22.883  50.670  1.00  0.00     0.190 HD
ENDBRANCH  34  35
ENDBRANCH  33  34
ENDBRANCH  31  33
BRANCH  31  44
HETATM   44  C18 UNL     1      18.588  21.152  50.812  1.00  0.00     0.367 C 
BRANCH  44  45
HETATM   45  N11 UNL     1      19.906  21.080  50.255  1.00  0.00    -0.047 N 
ATOM     46 3H11 UNL     1      20.286  22.022  50.157  1.00  0.00     0.277 HD
ATOM     47 2H11 UNL     1      20.546  20.688  50.945  1.00  0.00     0.277 HD
ATOM     48 1H11 UNL     1      20.009  20.579  49.373  1.00  0.00     0.277 HD
ENDBRANCH  44  45
BRANCH  44  49
HETATM   49  O6  UNL     1      17.694  20.794  49.781  1.00  0.00    -0.365 OA
ATOM     50  H6  UNL     1      17.738  19.860  49.618  1.00  0.00     0.212 HD
ENDBRANCH  44  49
ENDBRANCH  31  44
ENDBRANCH   2  28
TORSDOF 15
ENDMDL
MODEL 5
REMARK VINA RESULT: -8.419935727      4.016      8.990
REMARK  15 active torsions:
REMARK  status: ('A' for Active; 'I' for Inactive)
REMARK    1  A    between atoms: C2_2  and  N1_3 
REMARK    2  A    between atoms: C2_2  and  C13_28 
REMARK       I    between atoms: N1_3  and  C3_5 
REMARK    3  A    between atoms: C3_5  and  C4_7 
REMARK    4  A    between atoms: C4_7  and  O2_8 
REMARK    5  A    between atoms: C4_7  and  C5_10 
REMARK    6  A    between atoms: C7_12  and  C8_13 
REMARK    7  A    between atoms: N2_14  and  N3_16 
REMARK    8  A    between atoms: C11_22  and  O3_23 
REMARK    9  A    between atoms: C12_25  and  O4_26 
REMARK       I    between atoms: C13_28  and  N6_30 
REMARK   10  A    between atoms: C14_32  and  C15_33 
REMARK   11  A    between atoms: C14_32  and  C18_44 
REMARK   12  A    between atoms: C15_33  and  C16_34 
REMARK   13  A    between atoms: C16_34  and  C17_35 
REMARK   14  A    between atoms: C18_44  and  N11_45 
REMARK   15  A    between atoms: C18_44  and  O6_49 
ROOT
HETATM    1  C1  UNL     1      14.572  20.584  49.073  1.00  0.00     0.042 C 
HETATM    2  C2  UNL     1      15.298  21.740  49.715  1.00  0.00     0.173 C 
ENDROOT
BRANCH   2   3
HETATM    3  N1  UNL     1      15.124  21.610  51.137  1.00  0.00    -0.346 N 
HETATM    4  C3  UNL     1      13.959  22.075  51.818  1.00  0.00     0.251 C 
HETATM    5  O1  UNL     1      13.073  22.606  51.097  1.00  0.00    -0.270 OA
ATOM      6  H1  UNL     1      15.865  21.168  51.681  1.00  0.00     0.163 HD
BRANCH   4   7
HETATM    7  C4  UNL     1      13.805  21.937  53.277  1.00  0.00     0.245 C 
BRANCH   7   8
HETATM    8  O2  UNL     1      14.701  22.742  53.979  1.00  0.00    -0.381 OA
ATOM      9  H2  UNL     1      15.476  22.264  54.251  1.00  0.00     0.211 HD
ENDBRANCH   7   8
BRANCH   7  10
HETATM   10  C5  UNL     1      12.441  22.016  53.810  1.00  0.00     0.016 A 
HETATM   11  C6  UNL     1      11.891  20.874  54.411  1.00  0.00     0.026 A 
HETATM   12  C7  UNL     1      10.641  20.856  54.988  1.00  0.00    -0.016 A 
HETATM   13  C10 UNL     1       9.900  22.035  54.970  1.00  0.00     0.052 A 
HETATM   14  C11 UNL     1      10.422  23.150  54.388  1.00  0.00     0.100 A 
HETATM   15  C12 UNL     1      11.676  23.165  53.808  1.00  0.00     0.108 A 
BRANCH  12  16
HETATM   16  C8  UNL     1      10.112  19.656  55.606  1.00  0.00     0.118 C 
HETATM   17  N2  UNL     1      10.385  19.154  56.687  1.00  0.00    -0.309 N 
ATOM     18  H2  UNL     1       9.824  18.311  56.807  1.00  0.00     0.186 HD
BRANCH  17  19
HETATM   19  N3  UNL     1      11.157  19.314  57.770  1.00  0.00    -0.276 N 
HETATM   20  C9  UNL     1      12.435  19.183  57.831  1.00  0.00     0.215 C 
HETATM   21  N4  UNL     1      13.150  18.839  56.671  1.00  0.00    -0.065 NA
HETATM   22  N5  UNL     1      13.093  19.368  59.059  1.00  0.00    -0.065 NA
ATOM     23  H3  UNL     1      10.682  19.567  58.637  1.00  0.00     0.189 HD
ENDBRANCH  17  19
ENDBRANCH  12  16
BRANCH  14  24
HETATM   24  O3  UNL     1       9.614  24.293  54.413  1.00  0.00    -0.358 OA
ATOM     25  H3  UNL     1       9.846  24.954  55.055  1.00  0.00     0.217 HD
ENDBRANCH  14  24
BRANCH  15  26
HETATM   26  O4  UNL     1      12.145  24.335  53.225  1.00  0.00    -0.357 OA
ATOM     27  H4  UNL     1      12.874  24.811  53.604  1.00  0.00     0.217 HD
ENDBRANCH  15  26
ENDBRANCH   7  10
ENDBRANCH   4   7
ENDBRANCH   2   3
BRANCH   2  28
HETATM   28  C13 UNL     1      16.741  21.808  49.349  1.00  0.00     0.244 C 
HETATM   29  O5  UNL     1      17.115  22.562  48.393  1.00  0.00    -0.271 OA
HETATM   30  N6  UNL     1      17.694  21.052  50.032  1.00  0.00    -0.325 N 
HETATM   31  C14 UNL     1      18.725  21.544  50.708  1.00  0.00     0.064 C 
ATOM     32  H6  UNL     1      17.590  20.037  50.010  1.00  0.00     0.168 HD
BRANCH  31  33
HETATM   33  C15 UNL     1      19.562  20.533  51.326  1.00  0.00     0.010 C 
BRANCH  33  34
HETATM   34  C16 UNL     1      19.277  19.853  52.590  1.00  0.00     0.108 C 
BRANCH  34  35
HETATM   35  C17 UNL     1      18.372  20.463  53.578  1.00  0.00     0.116 A 
HETATM   36  N7  UNL     1      18.350  21.674  54.146  1.00  0.00    -0.272 N 
HETATM   37  N8  UNL     1      17.320  21.738  54.960  1.00  0.00    -0.227 N 
ATOM     38  H7  UNL     1      19.022  22.422  53.977  1.00  0.00     0.190 HD
HETATM   39  N9  UNL     1      16.644  20.621  54.968  1.00  0.00    -0.227 N 
ATOM     40  H8  UNL     1      17.079  22.558  55.516  1.00  0.00     0.210 HD
HETATM   41  N10 UNL     1      17.274  19.824  54.126  1.00  0.00    -0.272 N 
ATOM     42  H9  UNL     1      15.807  20.410  55.511  1.00  0.00     0.210 HD
ATOM     43  H10 UNL     1      16.991  18.869  53.908  1.00  0.00     0.190 HD
ENDBRANCH  34  35
ENDBRANCH  33  34
ENDBRANCH  31  33
BRANCH  31  44
HETATM   44  C18 UNL     1      18.822  22.999  50.728  1.00  0.00     0.367 C 
BRANCH  44  45
HETATM   45  N11 UNL     1      19.710  23.607  49.782  1.00  0.00    -0.047 N 
ATOM     46 3H11 UNL     1      20.572  23.063  49.727  1.00  0.00     0.277 HD
ATOM     47 2H11 UNL     1      19.343  23.475  48.840  1.00  0.00     0.277 HD
ATOM     48 1H11 UNL     1      19.937  24.590  49.924  1.00  0.00     0.277 HD
ENDBRANCH  44  45
BRANCH  44  49
HETATM   49  O6  UNL     1      19.231  23.442  52.005  1.00  0.00    -0.365 OA
ATOM     50  H6  UNL     1      19.490  24.355  51.967  1.00  0.00     0.212 HD
ENDBRANCH  44  49
ENDBRANCH  31  44
ENDBRANCH   2  28
TORSDOF 15
ENDMDL
