MODEL 1
REMARK VINA RESULT: -8.674953219      0.000      0.000
REMARK  7 active torsions:
REMARK  status: ('A' for Active; 'I' for Inactive)
REMARK    1  A    between atoms: C9_9  and  O1_10 
REMARK    2  A    between atoms: O1_10  and  C10_11 
REMARK    3  A    between atoms: C10_11  and  C11_12 
REMARK    4  A    between atoms: C11_12  and  C12_13 
REMARK    5  A    between atoms: C13_14  and  C14_15 
REMARK    6  A    between atoms: C24_29  and  C25_30 
REMARK    7  A    between atoms: C29_37  and  O2_38 
ROOT
HETATM    1  C12 UNL     1       9.172   3.102 -25.973  1.00  0.00     0.002 A 
HETATM    2  C13 UNL     1       9.176   2.572 -24.707  1.00  0.00     0.043 A 
HETATM    3  N1  UNL     1      10.371   2.982 -24.144  1.00  0.00    -0.303 N 
ATOM      4  H1  UNL     1      10.664   2.740 -23.198  1.00  0.00     0.186 HD
HETATM    5  N2  UNL     1      11.068   3.702 -24.946  1.00  0.00    -0.296 N 
ATOM      6  H2  UNL     1      11.980   4.113 -24.745  1.00  0.00     0.187 HD
HETATM    7  C24 UNL     1      10.376   3.819 -26.111  1.00  0.00     0.140 A 
ENDROOT
BRANCH   1   8
HETATM    8  C11 UNL     1       8.218   2.967 -27.059  1.00  0.00     0.070 C 
BRANCH   8   9
HETATM    9  C10 UNL     1       8.381   1.766 -27.960  1.00  0.00     0.180 C 
BRANCH   9  10
HETATM   10  O1  UNL     1       7.267   1.281 -28.541  1.00  0.00    -0.350 OA
BRANCH  10  11
HETATM   11  C9  UNL     1       6.632   1.330 -29.717  1.00  0.00     0.076 A 
HETATM   12  C4  UNL     1       5.246   1.513 -29.842  1.00  0.00    -0.008 A 
HETATM   13  C2  UNL     1       4.543   1.619 -28.573  1.00  0.00     0.009 C 
HETATM   14  C5  UNL     1       4.668   1.558 -31.121  1.00  0.00    -0.048 A 
HETATM   15  C1  UNL     1       4.062   3.034 -28.293  1.00  0.00     0.023 C 
HETATM   16  C3  UNL     1       5.213   1.128 -27.330  1.00  0.00     0.023 C 
HETATM   17  C29 UNL     1       3.297   0.702 -28.683  1.00  0.00     0.130 C 
HETATM   18  C28 UNL     1       2.183   1.290 -29.454  1.00  0.00     0.033 C 
HETATM   19  C27 UNL     1       2.346   0.790 -30.901  1.00  0.00     0.007 C 
HETATM   20  C26 UNL     1       3.270   1.775 -31.548  1.00  0.00     0.039 C 
HETATM   21  C6  UNL     1       5.461   1.419 -32.237  1.00  0.00     0.008 A 
HETATM   22  C7  UNL     1       6.818   1.236 -32.160  1.00  0.00     0.003 A 
HETATM   23  C8  UNL     1       7.366   1.197 -30.901  1.00  0.00     0.037 A 
BRANCH  17  24
HETATM   24  O2  UNL     1       3.718  -0.536 -29.099  1.00  0.00    -0.394 OA
ATOM     25  H2  UNL     1       3.485  -1.167 -28.428  1.00  0.00     0.210 HD
ENDBRANCH  17  24
ENDBRANCH  10  11
ENDBRANCH   9  10
ENDBRANCH   8   9
ENDBRANCH   1   8
BRANCH   2  26
HETATM   26  C14 UNL     1       8.122   1.827 -24.005  1.00  0.00     0.005 C 
HETATM   27  C15 UNL     1       6.990   2.695 -23.492  1.00  0.00     0.020 C 
HETATM   28  C16 UNL     1       5.999   1.872 -22.741  1.00  0.00    -0.013 C 
HETATM   29  C17 UNL     1       6.628   1.513 -21.414  1.00  0.00     0.009 C 
HETATM   30  C21 UNL     1       5.550   0.623 -23.416  1.00  0.00     0.009 C 
HETATM   31  C18 UNL     1       7.881   0.749 -21.722  1.00  0.00    -0.013 C 
HETATM   32  C19 UNL     1       7.482  -0.592 -22.352  1.00  0.00     0.009 C 
HETATM   33  C23 UNL     1       8.813   1.389 -22.677  1.00  0.00     0.020 C 
HETATM   34  C20 UNL     1       6.802  -0.235 -23.634  1.00  0.00    -0.013 C 
HETATM   35  C22 UNL     1       7.667   0.550 -24.598  1.00  0.00     0.020 C 
ENDBRANCH   2  26
BRANCH   7  36
HETATM   36  C25 UNL     1      10.851   4.616 -27.261  1.00  0.00     0.434 C 
HETATM   37  F1  UNL     1      12.145   5.079 -26.984  1.00  0.00    -0.165 F 
HETATM   38  F2  UNL     1      10.104   5.781 -27.435  1.00  0.00    -0.165 F 
HETATM   39  F3  UNL     1      10.940   3.979 -28.448  1.00  0.00    -0.165 F 
ENDBRANCH   7  36
TORSDOF 7
ENDMDL
MODEL 2
REMARK VINA RESULT: -8.615329658      3.165      7.034
REMARK  7 active torsions:
REMARK  status: ('A' for Active; 'I' for Inactive)
REMARK    1  A    between atoms: C9_9  and  O1_10 
REMARK    2  A    between atoms: O1_10  and  C10_11 
REMARK    3  A    between atoms: C10_11  and  C11_12 
REMARK    4  A    between atoms: C11_12  and  C12_13 
REMARK    5  A    between atoms: C13_14  and  C14_15 
REMARK    6  A    between atoms: C24_29  and  C25_30 
REMARK    7  A    between atoms: C29_37  and  O2_38 
ROOT
HETATM    1  C12 UNL     1      11.810   4.130 -28.668  1.00  0.00     0.002 A 
HETATM    2  C13 UNL     1      11.449   3.086 -29.481  1.00  0.00     0.043 A 
HETATM    3  N1  UNL     1      12.553   2.253 -29.518  1.00  0.00    -0.303 N 
ATOM      4  H1  UNL     1      12.590   1.385 -30.050  1.00  0.00     0.186 HD
HETATM    5  N2  UNL     1      13.525   2.697 -28.807  1.00  0.00    -0.296 N 
ATOM      6  H2  UNL     1      14.434   2.250 -28.686  1.00  0.00     0.187 HD
HETATM    7  C24 UNL     1      13.128   3.870 -28.244  1.00  0.00     0.140 A 
ENDROOT
BRANCH   1   8
HETATM    8  C11 UNL     1      11.099   5.341 -28.300  1.00  0.00     0.070 C 
BRANCH   8   9
HETATM    9  C10 UNL     1      10.043   5.209 -27.229  1.00  0.00     0.180 C 
BRANCH   9  10
HETATM   10  O1  UNL     1       9.916   4.006 -26.639  1.00  0.00    -0.350 OA
BRANCH  10  11
HETATM   11  C9  UNL     1      10.056   3.448 -25.432  1.00  0.00     0.076 A 
HETATM   12  C4  UNL     1       9.014   2.795 -24.754  1.00  0.00    -0.008 A 
HETATM   13  C2  UNL     1       7.747   2.798 -25.468  1.00  0.00     0.009 C 
HETATM   14  C5  UNL     1       9.258   2.233 -23.491  1.00  0.00    -0.048 A 
HETATM   15  C1  UNL     1       7.390   1.428 -26.022  1.00  0.00     0.023 C 
HETATM   16  C3  UNL     1       7.537   3.787 -26.570  1.00  0.00     0.023 C 
HETATM   17  C29 UNL     1       6.661   3.195 -24.433  1.00  0.00     0.130 C 
HETATM   18  C28 UNL     1       6.257   2.095 -23.534  1.00  0.00     0.033 C 
HETATM   19  C27 UNL     1       7.127   2.227 -22.270  1.00  0.00     0.007 C 
HETATM   20  C26 UNL     1       8.379   1.467 -22.583  1.00  0.00     0.039 C 
HETATM   21  C6  UNL     1      10.509   2.329 -22.928  1.00  0.00     0.008 A 
HETATM   22  C7  UNL     1      11.554   2.959 -23.553  1.00  0.00     0.003 A 
HETATM   23  C8  UNL     1      11.298   3.502 -24.789  1.00  0.00     0.037 A 
BRANCH  17  24
HETATM   24  O2  UNL     1       7.068   4.349 -23.813  1.00  0.00    -0.394 OA
ATOM     25  H2  UNL     1       6.454   5.038 -24.040  1.00  0.00     0.210 HD
ENDBRANCH  17  24
ENDBRANCH  10  11
ENDBRANCH   9  10
ENDBRANCH   8   9
ENDBRANCH   1   8
BRANCH   2  26
HETATM   26  C14 UNL     1      10.152   2.797 -30.108  1.00  0.00     0.005 C 
HETATM   27  C15 UNL     1       9.225   1.960 -29.248  1.00  0.00     0.020 C 
HETATM   28  C16 UNL     1       7.960   1.662 -29.980  1.00  0.00    -0.013 C 
HETATM   29  C17 UNL     1       8.286   0.628 -31.036  1.00  0.00     0.009 C 
HETATM   30  C21 UNL     1       7.299   2.826 -30.633  1.00  0.00     0.009 C 
HETATM   31  C18 UNL     1       9.327   1.236 -31.927  1.00  0.00    -0.013 C 
HETATM   32  C19 UNL     1       8.683   2.400 -32.692  1.00  0.00     0.009 C 
HETATM   33  C23 UNL     1      10.515   1.798 -31.249  1.00  0.00     0.020 C 
HETATM   34  C20 UNL     1       8.303   3.394 -31.642  1.00  0.00    -0.013 C 
HETATM   35  C22 UNL     1       9.466   3.900 -30.816  1.00  0.00     0.020 C 
ENDBRANCH   2  26
BRANCH   7  36
HETATM   36  C25 UNL     1      13.974   4.655 -27.321  1.00  0.00     0.434 C 
HETATM   37  F1  UNL     1      14.203   5.918 -27.885  1.00  0.00    -0.165 F 
HETATM   38  F2  UNL     1      15.250   4.107 -27.186  1.00  0.00    -0.165 F 
HETATM   39  F3  UNL     1      13.473   4.893 -26.090  1.00  0.00    -0.165 F 
ENDBRANCH   7  36
TORSDOF 7
ENDMDL
MODEL 3
REMARK VINA RESULT: -8.535887050      3.096      5.135
REMARK  7 active torsions:
REMARK  status: ('A' for Active; 'I' for Inactive)
REMARK    1  A    between atoms: C9_9  and  O1_10 
REMARK    2  A    between atoms: O1_10  and  C10_11 
REMARK    3  A    between atoms: C10_11  and  C11_12 
REMARK    4  A    between atoms: C11_12  and  C12_13 
REMARK    5  A    between atoms: C13_14  and  C14_15 
REMARK    6  A    between atoms: C24_29  and  C25_30 
REMARK    7  A    between atoms: C29_37  and  O2_38 
ROOT
HETATM    1  C12 UNL     1       9.332   2.884 -26.146  1.00  0.00     0.002 A 
HETATM    2  C13 UNL     1       9.265   2.602 -24.805  1.00  0.00     0.043 A 
HETATM    3  N1  UNL     1      10.371   3.217 -24.247  1.00  0.00    -0.303 N 
ATOM      4  H1  UNL     1      10.598   3.182 -23.254  1.00  0.00     0.186 HD
HETATM    5  N2  UNL     1      11.080   3.836 -25.120  1.00  0.00    -0.296 N 
ATOM      6  H2  UNL     1      11.937   4.358 -24.937  1.00  0.00     0.187 HD
HETATM    7  C24 UNL     1      10.486   3.670 -26.333  1.00  0.00     0.140 A 
ENDROOT
BRANCH   1   8
HETATM    8  C11 UNL     1       8.491   2.463 -27.252  1.00  0.00     0.070 C 
BRANCH   8   9
HETATM    9  C10 UNL     1       7.356   3.384 -27.630  1.00  0.00     0.180 C 
BRANCH   9  10
HETATM   10  O1  UNL     1       7.023   4.341 -26.745  1.00  0.00    -0.350 OA
BRANCH  10  11
HETATM   11  C9  UNL     1       5.994   4.687 -25.963  1.00  0.00     0.076 A 
HETATM   12  C4  UNL     1       5.793   5.989 -25.477  1.00  0.00    -0.008 A 
HETATM   13  C2  UNL     1       6.821   6.937 -25.875  1.00  0.00     0.009 C 
HETATM   14  C5  UNL     1       4.678   6.258 -24.668  1.00  0.00    -0.048 A 
HETATM   15  C1  UNL     1       6.324   7.931 -26.913  1.00  0.00     0.023 C 
HETATM   16  C3  UNL     1       8.138   6.419 -26.359  1.00  0.00     0.023 C 
HETATM   17  C29 UNL     1       7.206   7.729 -24.598  1.00  0.00     0.130 C 
HETATM   18  C28 UNL     1       6.242   8.787 -24.233  1.00  0.00     0.033 C 
HETATM   19  C27 UNL     1       5.267   8.155 -23.222  1.00  0.00     0.007 C 
HETATM   20  C26 UNL     1       4.201   7.518 -24.060  1.00  0.00     0.039 C 
HETATM   21  C6  UNL     1       3.797   5.249 -24.354  1.00  0.00     0.008 A 
HETATM   22  C7  UNL     1       3.957   3.964 -24.805  1.00  0.00     0.003 A 
HETATM   23  C8  UNL     1       5.052   3.718 -25.597  1.00  0.00     0.037 A 
BRANCH  17  24
HETATM   24  O2  UNL     1       7.495   6.823 -23.609  1.00  0.00    -0.394 OA
ATOM     25  H2  UNL     1       7.728   6.000 -24.023  1.00  0.00     0.210 HD
ENDBRANCH  17  24
ENDBRANCH  10  11
ENDBRANCH   9  10
ENDBRANCH   8   9
ENDBRANCH   1   8
BRANCH   2  26
HETATM   26  C14 UNL     1       8.213   1.908 -24.050  1.00  0.00     0.005 C 
HETATM   27  C15 UNL     1       7.304   2.833 -23.267  1.00  0.00     0.020 C 
HETATM   28  C16 UNL     1       6.307   2.047 -22.483  1.00  0.00    -0.013 C 
HETATM   29  C17 UNL     1       7.045   1.418 -21.322  1.00  0.00     0.009 C 
HETATM   30  C21 UNL     1       5.589   0.980 -23.233  1.00  0.00     0.009 C 
HETATM   31  C18 UNL     1       8.115   0.549 -21.911  1.00  0.00    -0.013 C 
HETATM   32  C19 UNL     1       7.438  -0.621 -22.636  1.00  0.00     0.009 C 
HETATM   33  C23 UNL     1       8.999   1.194 -22.908  1.00  0.00     0.020 C 
HETATM   34  C20 UNL     1       6.657   0.006 -23.746  1.00  0.00    -0.013 C 
HETATM   35  C22 UNL     1       7.495   0.803 -24.723  1.00  0.00     0.020 C 
ENDBRANCH   2  26
BRANCH   7  36
HETATM   36  C25 UNL     1      10.999   4.280 -27.577  1.00  0.00     0.434 C 
HETATM   37  F1  UNL     1      11.516   3.265 -28.395  1.00  0.00    -0.165 F 
HETATM   38  F2  UNL     1      12.091   5.115 -27.341  1.00  0.00    -0.165 F 
HETATM   39  F3  UNL     1      10.106   4.942 -28.343  1.00  0.00    -0.165 F 
ENDBRANCH   7  36
TORSDOF 7
ENDMDL
MODEL 4
REMARK VINA RESULT: -8.499801890      1.574      2.927
REMARK  7 active torsions:
REMARK  status: ('A' for Active; 'I' for Inactive)
REMARK    1  A    between atoms: C9_9  and  O1_10 
REMARK    2  A    between atoms: O1_10  and  C10_11 
REMARK    3  A    between atoms: C10_11  and  C11_12 
REMARK    4  A    between atoms: C11_12  and  C12_13 
REMARK    5  A    between atoms: C13_14  and  C14_15 
REMARK    6  A    between atoms: C24_29  and  C25_30 
REMARK    7  A    between atoms: C29_37  and  O2_38 
ROOT
HETATM    1  C12 UNL     1       9.632   3.029 -25.904  1.00  0.00     0.002 A 
HETATM    2  C13 UNL     1       9.425   2.599 -24.618  1.00  0.00     0.043 A 
HETATM    3  N1  UNL     1      10.542   3.007 -23.912  1.00  0.00    -0.303 N 
ATOM      4  H1  UNL     1      10.682   2.827 -22.918  1.00  0.00     0.186 HD
HETATM    5  N2  UNL     1      11.384   3.636 -24.649  1.00  0.00    -0.296 N 
ATOM      6  H2  UNL     1      12.276   4.027 -24.343  1.00  0.00     0.187 HD
HETATM    7  C24 UNL     1      10.877   3.689 -25.910  1.00  0.00     0.140 A 
ENDROOT
BRANCH   1   8
HETATM    8  C11 UNL     1       8.843   2.847 -27.109  1.00  0.00     0.070 C 
BRANCH   8   9
HETATM    9  C10 UNL     1       8.018   4.026 -27.565  1.00  0.00     0.180 C 
BRANCH   9  10
HETATM   10  O1  UNL     1       6.692   3.832 -27.694  1.00  0.00    -0.350 OA
BRANCH  10  11
HETATM   11  C9  UNL     1       5.605   3.707 -26.925  1.00  0.00     0.076 A 
HETATM   12  C4  UNL     1       4.610   2.739 -27.139  1.00  0.00    -0.008 A 
HETATM   13  C2  UNL     1       4.847   1.890 -28.295  1.00  0.00     0.009 C 
HETATM   14  C5  UNL     1       3.507   2.681 -26.273  1.00  0.00    -0.048 A 
HETATM   15  C1  UNL     1       5.245   0.475 -27.905  1.00  0.00     0.023 C 
HETATM   16  C3  UNL     1       5.812   2.344 -29.344  1.00  0.00     0.023 C 
HETATM   17  C29 UNL     1       3.504   1.815 -29.068  1.00  0.00     0.130 C 
HETATM   18  C28 UNL     1       2.519   0.888 -28.474  1.00  0.00     0.033 C 
HETATM   19  C27 UNL     1       1.630   1.737 -27.546  1.00  0.00     0.007 C 
HETATM   20  C26 UNL     1       2.352   1.760 -26.234  1.00  0.00     0.039 C 
HETATM   21  C6  UNL     1       3.406   3.570 -25.229  1.00  0.00     0.008 A 
HETATM   22  C7  UNL     1       4.352   4.532 -24.985  1.00  0.00     0.003 A 
HETATM   23  C8  UNL     1       5.426   4.574 -25.840  1.00  0.00     0.037 A 
BRANCH  17  24
HETATM   24  O2  UNL     1       3.062   3.098 -29.274  1.00  0.00    -0.394 OA
ATOM     25  H2  UNL     1       2.639   3.130 -30.125  1.00  0.00     0.210 HD
ENDBRANCH  17  24
ENDBRANCH  10  11
ENDBRANCH   9  10
ENDBRANCH   8   9
ENDBRANCH   1   8
BRANCH   2  26
HETATM   26  C14 UNL     1       8.245   1.950 -24.030  1.00  0.00     0.005 C 
HETATM   27  C15 UNL     1       7.328   2.898 -23.283  1.00  0.00     0.020 C 
HETATM   28  C16 UNL     1       6.192   2.152 -22.668  1.00  0.00    -0.013 C 
HETATM   29  C17 UNL     1       6.745   1.391 -21.484  1.00  0.00     0.009 C 
HETATM   30  C21 UNL     1       5.482   1.199 -23.566  1.00  0.00     0.009 C 
HETATM   31  C18 UNL     1       7.804   0.473 -22.017  1.00  0.00    -0.013 C 
HETATM   32  C19 UNL     1       7.123  -0.588 -22.893  1.00  0.00     0.009 C 
HETATM   33  C23 UNL     1       8.841   1.101 -22.866  1.00  0.00     0.020 C 
HETATM   34  C20 UNL     1       6.521   0.172 -24.030  1.00  0.00    -0.013 C 
HETATM   35  C22 UNL     1       7.523   0.955 -24.854  1.00  0.00     0.020 C 
ENDBRANCH   2  26
BRANCH   7  36
HETATM   36  C25 UNL     1      11.554   4.377 -27.029  1.00  0.00     0.434 C 
HETATM   37  F1  UNL     1      12.836   4.760 -26.612  1.00  0.00    -0.165 F 
HETATM   38  F2  UNL     1      10.930   5.580 -27.358  1.00  0.00    -0.165 F 
HETATM   39  F3  UNL     1      11.739   3.663 -28.160  1.00  0.00    -0.165 F 
ENDBRANCH   7  36
TORSDOF 7
ENDMDL
MODEL 5
REMARK VINA RESULT: -8.491445121      1.620      2.178
REMARK  7 active torsions:
REMARK  status: ('A' for Active; 'I' for Inactive)
REMARK    1  A    between atoms: C9_9  and  O1_10 
REMARK    2  A    between atoms: O1_10  and  C10_11 
REMARK    3  A    between atoms: C10_11  and  C11_12 
REMARK    4  A    between atoms: C11_12  and  C12_13 
REMARK    5  A    between atoms: C13_14  and  C14_15 
REMARK    6  A    between atoms: C24_29  and  C25_30 
REMARK    7  A    between atoms: C29_37  and  O2_38 
ROOT
HETATM    1  C12 UNL     1       9.345   2.971 -25.952  1.00  0.00     0.002 A 
HETATM    2  C13 UNL     1       9.243   2.541 -24.653  1.00  0.00     0.043 A 
HETATM    3  N1  UNL     1      10.375   3.020 -24.020  1.00  0.00    -0.303 N 
ATOM      4  H1  UNL     1      10.585   2.858 -23.036  1.00  0.00     0.186 HD
HETATM    5  N2  UNL     1      11.131   3.692 -24.810  1.00  0.00    -0.296 N 
ATOM      6  H2  UNL     1      12.014   4.138 -24.561  1.00  0.00     0.187 HD
HETATM    7  C24 UNL     1      10.546   3.703 -26.038  1.00  0.00     0.140 A 
ENDROOT
BRANCH   1   8
HETATM    8  C11 UNL     1       8.496   2.731 -27.105  1.00  0.00     0.070 C 
BRANCH   8   9
HETATM    9  C10 UNL     1       7.235   3.554 -27.203  1.00  0.00     0.180 C 
BRANCH   9  10
HETATM   10  O1  UNL     1       6.069   2.915 -26.996  1.00  0.00    -0.350 OA
BRANCH  10  11
HETATM   11  C9  UNL     1       5.229   2.100 -27.643  1.00  0.00     0.076 A 
HETATM   12  C4  UNL     1       3.833   2.251 -27.624  1.00  0.00    -0.008 A 
HETATM   13  C2  UNL     1       3.367   3.362 -26.811  1.00  0.00     0.009 C 
HETATM   14  C5  UNL     1       3.032   1.348 -28.341  1.00  0.00    -0.048 A 
HETATM   15  C1  UNL     1       2.842   4.516 -27.651  1.00  0.00     0.023 C 
HETATM   16  C3  UNL     1       4.285   3.948 -25.786  1.00  0.00     0.023 C 
HETATM   17  C29 UNL     1       2.192   2.819 -25.956  1.00  0.00     0.130 C 
HETATM   18  C28 UNL     1       0.917   2.701 -26.691  1.00  0.00     0.033 C 
HETATM   19  C27 UNL     1       0.851   1.255 -27.216  1.00  0.00     0.007 C 
HETATM   20  C26 UNL     1       1.567   1.289 -28.531  1.00  0.00     0.039 C 
HETATM   21  C6  UNL     1       3.617   0.326 -29.051  1.00  0.00     0.008 A 
HETATM   22  C7  UNL     1       4.975   0.141 -29.095  1.00  0.00     0.003 A 
HETATM   23  C8  UNL     1       5.744   1.034 -28.390  1.00  0.00     0.037 A 
BRANCH  17  24
HETATM   24  O2  UNL     1       2.620   1.677 -25.325  1.00  0.00    -0.394 OA
ATOM     25  H2  UNL     1       1.898   1.060 -25.313  1.00  0.00     0.210 HD
ENDBRANCH  17  24
ENDBRANCH  10  11
ENDBRANCH   9  10
ENDBRANCH   8   9
ENDBRANCH   1   8
BRANCH   2  26
HETATM   26  C14 UNL     1       8.142   1.828 -23.991  1.00  0.00     0.005 C 
HETATM   27  C15 UNL     1       7.036   2.734 -23.486  1.00  0.00     0.020 C 
HETATM   28  C16 UNL     1       5.993   1.939 -22.776  1.00  0.00    -0.013 C 
HETATM   29  C17 UNL     1       6.574   1.526 -21.442  1.00  0.00     0.009 C 
HETATM   30  C21 UNL     1       5.506   0.725 -23.487  1.00  0.00     0.009 C 
HETATM   31  C18 UNL     1       7.800   0.715 -21.739  1.00  0.00    -0.013 C 
HETATM   32  C19 UNL     1       7.358  -0.595 -22.406  1.00  0.00     0.009 C 
HETATM   33  C23 UNL     1       8.781   1.333 -22.658  1.00  0.00     0.020 C 
HETATM   34  C20 UNL     1       6.725  -0.181 -23.696  1.00  0.00    -0.013 C 
HETATM   35  C22 UNL     1       7.646   0.585 -24.623  1.00  0.00     0.020 C 
ENDBRANCH   2  26
BRANCH   7  36
HETATM   36  C25 UNL     1      11.111   4.420 -27.200  1.00  0.00     0.434 C 
HETATM   37  F1  UNL     1      12.386   4.892 -26.861  1.00  0.00    -0.165 F 
HETATM   38  F2  UNL     1      10.391   5.576 -27.503  1.00  0.00    -0.165 F 
HETATM   39  F3  UNL     1      11.278   3.706 -28.334  1.00  0.00    -0.165 F 
ENDBRANCH   7  36
TORSDOF 7
ENDMDL
