MODEL 1
REMARK VINA RESULT: -6.453844694      0.000      0.000
REMARK  4 active torsions:
REMARK  status: ('A' for Active; 'I' for Inactive)
REMARK    1  A    between atoms: S1_2  and  C2_3 
REMARK    2  A    between atoms: C3_6  and  N2_7 
REMARK    3  A    between atoms: N5_13  and  C4_14 
REMARK    4  A    between atoms: C5_15  and  O1_16 
ROOT
HETATM    1  C2  UNL     1      18.291 -11.332   5.336  1.00  0.00     0.174 A 
HETATM    2  N1  UNL     1      17.487 -10.465   5.965  1.00  0.00    -0.168 N 
ATOM      3  H1  UNL     1      17.680  -9.466   5.889  1.00  0.00     0.186 HD
HETATM    4  C3  UNL     1      16.443 -10.868   6.688  1.00  0.00     0.715 A 
HETATM    5  N3  UNL     1      16.220 -12.212   6.765  1.00  0.00     0.107 N 
HETATM    6  N4  UNL     1      15.495 -13.211   7.224  1.00  0.00    -0.184 N 
ATOM      7  H4  UNL     1      14.666 -13.275   7.815  1.00  0.00     0.211 HD
HETATM    8  N5  UNL     1      16.262 -14.097   6.619  1.00  0.00    -0.059 N 
HETATM    9  C8  UNL     1      17.009 -13.099   6.145  1.00  0.00     0.745 A 
HETATM   10  N7  UNL     1      18.073 -12.653   5.411  1.00  0.00    -0.166 N 
ATOM     11  H7  UNL     1      18.688 -13.311   4.930  1.00  0.00     0.186 HD
ENDROOT
BRANCH   8  12
HETATM   12  C4  UNL     1      16.257 -15.541   6.535  1.00  0.00     0.182 A 
HETATM   13  C5  UNL     1      15.704 -16.275   5.572  1.00  0.00     0.170 A 
HETATM   14  C6  UNL     1      15.911 -17.685   5.845  1.00  0.00     0.284 A 
HETATM   15  O2  UNL     1      15.519 -18.643   5.138  1.00  0.00    -0.265 OA
HETATM   16  N6  UNL     1      16.640 -17.764   7.060  1.00  0.00    -0.286 N 
HETATM   17  C7  UNL     1      16.868 -16.430   7.510  1.00  0.00     0.280 A 
ATOM     18  H6  UNL     1      16.946 -18.618   7.526  1.00  0.00     0.172 HD
HETATM   19  O3  UNL     1      17.481 -16.143   8.550  1.00  0.00    -0.265 OA
BRANCH  13  20
HETATM   20  O1  UNL     1      15.035 -15.720   4.480  1.00  0.00    -0.354 OA
ATOM     21  H1  UNL     1      14.915 -16.178   3.657  1.00  0.00     0.218 HD
ENDBRANCH  13  20
ENDBRANCH   8  12
BRANCH   4  22
HETATM   22  N2  UNL     1      15.640 -10.082   7.312  1.00  0.00    -0.232 N 
ATOM     23  H22 UNL     1      16.027  -9.249   7.754  1.00  0.00     0.174 HD
ATOM     24  H21 UNL     1      14.634 -10.230   7.398  1.00  0.00     0.174 HD
ENDBRANCH   4  22
BRANCH   1  25
HETATM   25  S1  UNL     1      19.664 -10.725   4.390  1.00  0.00    -0.097 SA
HETATM   26  C1  UNL     1      19.954  -8.996   4.852  1.00  0.00     0.099 C 
ENDBRANCH   1  25
TORSDOF 4
ENDMDL
MODEL 2
REMARK VINA RESULT: -6.434679794      3.469      6.082
REMARK  4 active torsions:
REMARK  status: ('A' for Active; 'I' for Inactive)
REMARK    1  A    between atoms: S1_2  and  C2_3 
REMARK    2  A    between atoms: C3_6  and  N2_7 
REMARK    3  A    between atoms: N5_13  and  C4_14 
REMARK    4  A    between atoms: C5_15  and  O1_16 
ROOT
HETATM    1  C2  UNL     1      16.792 -15.067   6.942  1.00  0.00     0.174 A 
HETATM    2  N1  UNL     1      15.555 -14.817   7.388  1.00  0.00    -0.168 N 
ATOM      3  H1  UNL     1      15.027 -15.570   7.831  1.00  0.00     0.186 HD
HETATM    4  C3  UNL     1      14.991 -13.615   7.270  1.00  0.00     0.715 A 
HETATM    5  N3  UNL     1      15.730 -12.637   6.670  1.00  0.00     0.107 N 
HETATM    6  N4  UNL     1      15.830 -11.390   6.259  1.00  0.00    -0.184 N 
ATOM      7  H4  UNL     1      15.207 -10.582   6.282  1.00  0.00     0.211 HD
HETATM    8  N5  UNL     1      17.051 -11.595   5.808  1.00  0.00    -0.059 N 
HETATM    9  C8  UNL     1      16.970 -12.862   6.216  1.00  0.00     0.745 A 
HETATM   10  N7  UNL     1      17.520 -14.107   6.352  1.00  0.00    -0.166 N 
ATOM     11  H7  UNL     1      18.462 -14.301   6.013  1.00  0.00     0.186 HD
ENDROOT
BRANCH   8  12
HETATM   12  C4  UNL     1      18.033 -10.762   5.148  1.00  0.00     0.182 A 
HETATM   13  C5  UNL     1      18.722 -11.069   4.052  1.00  0.00     0.170 A 
HETATM   14  C6  UNL     1      19.606  -9.973   3.700  1.00  0.00     0.284 A 
HETATM   15  O2  UNL     1      20.392  -9.937   2.724  1.00  0.00    -0.265 OA
HETATM   16  N6  UNL     1      19.405  -8.958   4.672  1.00  0.00    -0.286 N 
HETATM   17  C7  UNL     1      18.422  -9.432   5.590  1.00  0.00     0.280 A 
ATOM     18  H6  UNL     1      19.878  -8.055   4.708  1.00  0.00     0.172 HD
HETATM   19  O3  UNL     1      18.015  -8.785   6.566  1.00  0.00    -0.265 OA
BRANCH  13  20
HETATM   20  O1  UNL     1      18.579 -12.282   3.376  1.00  0.00    -0.354 OA
ATOM     21  H1  UNL     1      18.736 -12.379   2.444  1.00  0.00     0.218 HD
ENDBRANCH  13  20
ENDBRANCH   8  12
BRANCH   4  22
HETATM   22  N2  UNL     1      13.809 -13.320   7.679  1.00  0.00    -0.232 N 
ATOM     23  H22 UNL     1      13.719 -12.677   8.466  1.00  0.00     0.174 HD
ATOM     24  H21 UNL     1      12.947 -13.682   7.272  1.00  0.00     0.174 HD
ENDBRANCH   4  22
BRANCH   1  25
HETATM   25  S1  UNL     1      17.480 -16.691   7.132  1.00  0.00    -0.097 SA
HETATM   26  C1  UNL     1      16.468 -17.854   6.176  1.00  0.00     0.099 C 
ENDBRANCH   1  25
TORSDOF 4
ENDMDL
MODEL 3
REMARK VINA RESULT: -6.423358799      2.016      2.999
REMARK  4 active torsions:
REMARK  status: ('A' for Active; 'I' for Inactive)
REMARK    1  A    between atoms: S1_2  and  C2_3 
REMARK    2  A    between atoms: C3_6  and  N2_7 
REMARK    3  A    between atoms: N5_13  and  C4_14 
REMARK    4  A    between atoms: C5_15  and  O1_16 
ROOT
HETATM    1  C2  UNL     1      15.041 -11.103   7.192  1.00  0.00     0.174 A 
HETATM    2  N1  UNL     1      16.073 -10.378   6.742  1.00  0.00    -0.168 N 
ATOM      3  H1  UNL     1      16.025  -9.360   6.795  1.00  0.00     0.186 HD
HETATM    4  C3  UNL     1      17.162 -10.946   6.224  1.00  0.00     0.715 A 
HETATM    5  N3  UNL     1      17.188 -12.310   6.170  1.00  0.00     0.107 N 
HETATM    6  N4  UNL     1      17.825 -13.415   5.842  1.00  0.00    -0.184 N 
ATOM      7  H4  UNL     1      18.731 -13.613   5.419  1.00  0.00     0.211 HD
HETATM    8  N5  UNL     1      16.830 -14.163   6.275  1.00  0.00    -0.059 N 
HETATM    9  C8  UNL     1      16.168 -13.056   6.614  1.00  0.00     0.745 A 
HETATM   10  N7  UNL     1      15.064 -12.442   7.139  1.00  0.00    -0.166 N 
ATOM     11  H7  UNL     1      14.276 -12.992   7.483  1.00  0.00     0.186 HD
ENDROOT
BRANCH   8  12
HETATM   12  C4  UNL     1      16.598 -15.590   6.335  1.00  0.00     0.182 A 
HETATM   13  C5  UNL     1      16.048 -16.342   5.384  1.00  0.00     0.170 A 
HETATM   14  C6  UNL     1      15.988 -17.725   5.820  1.00  0.00     0.284 A 
HETATM   15  O2  UNL     1      15.530 -18.691   5.165  1.00  0.00    -0.265 OA
HETATM   16  N6  UNL     1      16.549 -17.767   7.123  1.00  0.00    -0.286 N 
HETATM   17  C7  UNL     1      16.937 -16.439   7.466  1.00  0.00     0.280 A 
ATOM     18  H6  UNL     1      16.655 -18.596   7.709  1.00  0.00     0.172 HD
HETATM   19  O3  UNL     1      17.464 -16.125   8.545  1.00  0.00    -0.265 OA
BRANCH  13  20
HETATM   20  O1  UNL     1      15.610 -15.827   4.163  1.00  0.00    -0.354 OA
ATOM     21  H1  UNL     1      15.647 -14.903   3.945  1.00  0.00     0.218 HD
ENDBRANCH  13  20
ENDBRANCH   8  12
BRANCH   4  22
HETATM   22  N2  UNL     1      18.181 -10.302   5.778  1.00  0.00    -0.232 N 
ATOM     23  H22 UNL     1      18.367 -10.328   4.776  1.00  0.00     0.174 HD
ATOM     24  H21 UNL     1      18.823  -9.760   6.357  1.00  0.00     0.174 HD
ENDBRANCH   4  22
BRANCH   1  25
HETATM   25  S1  UNL     1      13.623 -10.280   7.868  1.00  0.00    -0.097 SA
HETATM   26  C1  UNL     1      12.152 -11.268   7.480  1.00  0.00     0.099 C 
ENDBRANCH   1  25
TORSDOF 4
ENDMDL
MODEL 4
REMARK VINA RESULT: -6.340045396      7.444      9.686
REMARK  4 active torsions:
REMARK  status: ('A' for Active; 'I' for Inactive)
REMARK    1  A    between atoms: S1_2  and  C2_3 
REMARK    2  A    between atoms: C3_6  and  N2_7 
REMARK    3  A    between atoms: N5_13  and  C4_14 
REMARK    4  A    between atoms: C5_15  and  O1_16 
ROOT
HETATM    1  C2  UNL     1      12.516 -18.927   1.682  1.00  0.00     0.174 A 
HETATM    2  N1  UNL     1      11.890 -19.768   0.849  1.00  0.00    -0.168 N 
ATOM      3  H1  UNL     1      10.948 -20.085   1.081  1.00  0.00     0.186 HD
HETATM    4  C3  UNL     1      12.460 -20.203  -0.274  1.00  0.00     0.715 A 
HETATM    5  N3  UNL     1      13.720 -19.756  -0.547  1.00  0.00     0.107 N 
HETATM    6  N4  UNL     1      14.767 -19.750  -1.346  1.00  0.00    -0.184 N 
ATOM      7  H4  UNL     1      14.988 -20.206  -2.231  1.00  0.00     0.211 HD
HETATM    8  N5  UNL     1      15.417 -18.922  -0.552  1.00  0.00    -0.059 N 
HETATM    9  C8  UNL     1      14.367 -18.915   0.271  1.00  0.00     0.745 A 
HETATM   10  N7  UNL     1      13.755 -18.487   1.416  1.00  0.00    -0.166 N 
ATOM     11  H7  UNL     1      14.229 -17.847   2.053  1.00  0.00     0.186 HD
ENDROOT
BRANCH   8  12
HETATM   12  C4  UNL     1      16.725 -18.306  -0.596  1.00  0.00     0.182 A 
HETATM   13  C5  UNL     1      17.847 -18.867  -1.040  1.00  0.00     0.170 A 
HETATM   14  C6  UNL     1      18.949 -17.929  -0.922  1.00  0.00     0.284 A 
HETATM   15  O2  UNL     1      20.140 -18.138  -1.250  1.00  0.00    -0.265 OA
HETATM   16  N6  UNL     1      18.413 -16.737  -0.367  1.00  0.00    -0.286 N 
HETATM   17  C7  UNL     1      17.020 -16.952  -0.155  1.00  0.00     0.280 A 
ATOM     18  H6  UNL     1      18.930 -15.883  -0.158  1.00  0.00     0.172 HD
HETATM   19  O3  UNL     1      16.251 -16.103   0.322  1.00  0.00    -0.265 OA
BRANCH  13  20
HETATM   20  O1  UNL     1      17.904 -20.170  -1.538  1.00  0.00    -0.354 OA
ATOM     21  H1  UNL     1      18.095 -20.371  -2.446  1.00  0.00     0.218 HD
ENDBRANCH  13  20
ENDBRANCH   8  12
BRANCH   4  22
HETATM   22  N2  UNL     1      11.906 -21.008  -1.109  1.00  0.00    -0.232 N 
ATOM     23  H22 UNL     1      11.995 -22.011  -0.943  1.00  0.00     0.174 HD
ATOM     24  H21 UNL     1      11.380 -20.718  -1.933  1.00  0.00     0.174 HD
ENDBRANCH   4  22
BRANCH   1  25
HETATM   25  S1  UNL     1      11.698 -18.388   3.161  1.00  0.00    -0.097 SA
HETATM   26  C1  UNL     1      12.694 -17.074   3.917  1.00  0.00     0.099 C 
ENDBRANCH   1  25
TORSDOF 4
ENDMDL
MODEL 5
REMARK VINA RESULT: -6.139298959      3.627      6.222
REMARK  4 active torsions:
REMARK  status: ('A' for Active; 'I' for Inactive)
REMARK    1  A    between atoms: S1_2  and  C2_3 
REMARK    2  A    between atoms: C3_6  and  N2_7 
REMARK    3  A    between atoms: N5_13  and  C4_14 
REMARK    4  A    between atoms: C5_15  and  O1_16 
ROOT
HETATM    1  C2  UNL     1      15.110 -14.623   4.767  1.00  0.00     0.174 A 
HETATM    2  N1  UNL     1      14.715 -14.793   6.035  1.00  0.00    -0.168 N 
ATOM      3  H1  UNL     1      14.059 -15.543   6.253  1.00  0.00     0.186 HD
HETATM    4  C3  UNL     1      15.154 -14.012   7.022  1.00  0.00     0.715 A 
HETATM    5  N3  UNL     1      16.031 -13.020   6.688  1.00  0.00     0.107 N 
HETATM    6  N4  UNL     1      16.782 -12.006   7.062  1.00  0.00    -0.184 N 
ATOM      7  H4  UNL     1      16.971 -11.553   7.956  1.00  0.00     0.211 HD
HETATM    8  N5  UNL     1      17.195 -11.806   5.826  1.00  0.00    -0.059 N 
HETATM    9  C8  UNL     1      16.440 -12.830   5.427  1.00  0.00     0.745 A 
HETATM   10  N7  UNL     1      15.971 -13.649   4.437  1.00  0.00    -0.166 N 
ATOM     11  H7  UNL     1      16.269 -13.522   3.470  1.00  0.00     0.186 HD
ENDROOT
BRANCH   8  12
HETATM   12  C4  UNL     1      18.094 -10.855   5.208  1.00  0.00     0.182 A 
HETATM   13  C5  UNL     1      18.880 -11.079   4.158  1.00  0.00     0.170 A 
HETATM   14  C6  UNL     1      19.631  -9.878   3.837  1.00  0.00     0.284 A 
HETATM   15  O2  UNL     1      20.459  -9.747   2.906  1.00  0.00    -0.265 OA
HETATM   16  N6  UNL     1      19.242  -8.890   4.779  1.00  0.00    -0.286 N 
HETATM   17  C7  UNL     1      18.279  -9.482   5.648  1.00  0.00     0.280 A 
ATOM     18  H6  UNL     1      19.588  -7.932   4.826  1.00  0.00     0.172 HD
HETATM   19  O3  UNL     1      17.734  -8.885   6.590  1.00  0.00    -0.265 OA
BRANCH  13  20
HETATM   20  O1  UNL     1      18.938 -12.306   3.495  1.00  0.00    -0.354 OA
ATOM     21  H1  UNL     1      19.591 -12.969   3.685  1.00  0.00     0.218 HD
ENDBRANCH  13  20
ENDBRANCH   8  12
BRANCH   4  22
HETATM   22  N2  UNL     1      14.810 -14.130   8.254  1.00  0.00    -0.232 N 
ATOM     23  H22 UNL     1      14.773 -15.066   8.657  1.00  0.00     0.174 HD
ATOM     24  H21 UNL     1      14.569 -13.350   8.866  1.00  0.00     0.174 HD
ENDBRANCH   4  22
BRANCH   1  25
HETATM   25  S1  UNL     1      14.485 -15.700   3.503  1.00  0.00    -0.097 SA
HETATM   26  C1  UNL     1      13.013 -16.540   4.148  1.00  0.00     0.099 C 
ENDBRANCH   1  25
TORSDOF 4
ENDMDL
