MODEL 1
REMARK VINA RESULT: -4.155080965      0.000      0.000
REMARK  0 active torsions:
REMARK  status: ('A' for Active; 'I' for Inactive)
ROOT
HETATM    1  C1  UNL     1     -16.163  15.410  -6.052  1.00  0.00     0.152 C 
HETATM    2  N1  UNL     1     -15.091  14.606  -5.465  1.00  0.00    -0.163 NA
HETATM    3  N2  UNL     1     -15.891  14.191  -4.375  1.00  0.00    -0.224 NA
HETATM    4  C2  UNL     1     -15.792  14.988  -3.196  1.00  0.00     0.144 C 
HETATM    5  C3  UNL     1     -17.163  15.435  -2.840  1.00  0.00     0.167 A 
HETATM    6  O1  UNL     1     -18.274  14.668  -3.054  1.00  0.00    -0.372 OA
HETATM    7  C4  UNL     1     -17.883  15.408  -4.170  1.00  0.00     0.172 A 
HETATM    8  C5  UNL     1     -17.038  14.630  -5.125  1.00  0.00     0.123 C 
ENDROOT
TORSDOF 0
ENDMDL
MODEL 2
REMARK VINA RESULT: -4.152272861      2.225      2.661
REMARK  0 active torsions:
REMARK  status: ('A' for Active; 'I' for Inactive)
ROOT
HETATM    1  C1  UNL     1     -17.023  14.311  -4.450  1.00  0.00     0.152 C 
HETATM    2  N1  UNL     1     -18.377  14.596  -3.972  1.00  0.00    -0.163 NA
HETATM    3  N2  UNL     1     -17.924  15.509  -2.992  1.00  0.00    -0.224 NA
HETATM    4  C2  UNL     1     -17.698  14.961  -1.694  1.00  0.00     0.144 C 
HETATM    5  C3  UNL     1     -16.299  15.280  -1.310  1.00  0.00     0.167 A 
HETATM    6  O1  UNL     1     -15.670  16.435  -1.683  1.00  0.00    -0.372 OA
HETATM    7  C4  UNL     1     -15.607  15.429  -2.648  1.00  0.00     0.172 A 
HETATM    8  C5  UNL     1     -16.669  15.550  -3.693  1.00  0.00     0.123 C 
ENDROOT
TORSDOF 0
ENDMDL
MODEL 3
REMARK VINA RESULT: -4.056543127      2.010      3.071
REMARK  0 active torsions:
REMARK  status: ('A' for Active; 'I' for Inactive)
ROOT
HETATM    1  C1  UNL     1     -17.040  15.411  -2.793  1.00  0.00     0.152 C 
HETATM    2  N1  UNL     1     -18.224  14.718  -3.302  1.00  0.00    -0.163 NA
HETATM    3  N2  UNL     1     -17.599  14.381  -4.526  1.00  0.00    -0.224 NA
HETATM    4  C2  UNL     1     -17.808  15.297  -5.599  1.00  0.00     0.144 C 
HETATM    5  C3  UNL     1     -16.473  15.718  -6.095  1.00  0.00     0.167 A 
HETATM    6  O1  UNL     1     -15.388  14.886  -6.108  1.00  0.00    -0.372 OA
HETATM    7  C4  UNL     1     -15.586  15.525  -4.884  1.00  0.00     0.172 A 
HETATM    8  C5  UNL     1     -16.341  14.692  -3.900  1.00  0.00     0.123 C 
ENDROOT
TORSDOF 0
ENDMDL
MODEL 4
REMARK VINA RESULT: -4.007472291      2.348      2.796
REMARK  0 active torsions:
REMARK  status: ('A' for Active; 'I' for Inactive)
ROOT
HETATM    1  C1  UNL     1     -18.677  15.025  -6.809  1.00  0.00     0.152 C 
HETATM    2  N1  UNL     1     -19.483  15.014  -5.588  1.00  0.00    -0.163 NA
HETATM    3  N2  UNL     1     -18.392  15.385  -4.768  1.00  0.00    -0.224 NA
HETATM    4  C2  UNL     1     -17.672  14.307  -4.173  1.00  0.00     0.144 C 
HETATM    5  C3  UNL     1     -16.244  14.456  -4.555  1.00  0.00     0.167 A 
HETATM    6  O1  UNL     1     -15.641  15.672  -4.720  1.00  0.00    -0.372 OA
HETATM    7  C4  UNL     1     -16.321  15.228  -5.855  1.00  0.00     0.172 A 
HETATM    8  C5  UNL     1     -17.704  15.784  -5.967  1.00  0.00     0.123 C 
ENDROOT
TORSDOF 0
ENDMDL
MODEL 5
REMARK VINA RESULT: -3.951645674      1.510      2.256
REMARK  0 active torsions:
REMARK  status: ('A' for Active; 'I' for Inactive)
ROOT
HETATM    1  C1  UNL     1     -15.445  14.359  -4.863  1.00  0.00     0.152 C 
HETATM    2  N1  UNL     1     -15.234  15.317  -5.949  1.00  0.00    -0.163 NA
HETATM    3  N2  UNL     1     -16.526  15.876  -5.815  1.00  0.00    -0.224 NA
HETATM    4  C2  UNL     1     -17.533  15.312  -6.653  1.00  0.00     0.144 C 
HETATM    5  C3  UNL     1     -18.644  14.859  -5.778  1.00  0.00     0.167 A 
HETATM    6  O1  UNL     1     -18.998  15.509  -4.628  1.00  0.00    -0.372 OA
HETATM    7  C4  UNL     1     -17.951  14.602  -4.457  1.00  0.00     0.172 A 
HETATM    8  C5  UNL     1     -16.602  15.242  -4.525  1.00  0.00     0.123 C 
ENDROOT
TORSDOF 0
ENDMDL
