MODEL 1
REMARK VINA RESULT: -8.009322748      0.000      0.000
REMARK  6 active torsions:
REMARK  status: ('A' for Active; 'I' for Inactive)
REMARK    1  A    between atoms: C4_4  and  C5_5 
REMARK    2  A    between atoms: C7_8  and  C8_9 
REMARK    3  A    between atoms: C8_9  and  C9_10 
REMARK    4  A    between atoms: C9_10  and  N1_12 
REMARK       I    between atoms: N1_12  and  C11_14 
REMARK       I    between atoms: C11_14  and  N2_16 
REMARK    5  A    between atoms: N2_16  and  C12_18 
REMARK    6  A    between atoms: C15_25  and  C16_26 
ROOT
HETATM    1  C1  UNL     1     -15.020  16.098  16.754  1.00  0.00     0.017 C 
HETATM    2  C2  UNL     1     -14.890  16.384  17.914  1.00  0.00    -0.090 C 
HETATM    3  C3  UNL     1     -14.743  16.705  19.307  1.00  0.00     0.060 C 
HETATM    4  C4  UNL     1     -13.578  16.618  19.909  1.00  0.00    -0.011 C 
ENDROOT
BRANCH   4   5
HETATM    5  C5  UNL     1     -13.482  16.964  21.356  1.00  0.00     0.033 A 
HETATM    6  C6  UNL     1     -14.066  18.189  21.914  1.00  0.00     0.095 A 
HETATM    7 CL1  UNL     1     -14.536  18.191  23.636  1.00  0.00    -0.124 Cl
HETATM    8  C7  UNL     1     -12.573  18.140  21.626  1.00  0.00     0.016 A 
BRANCH   8   9
HETATM    9  C8  UNL     1     -12.148  18.997  20.452  1.00  0.00     0.031 C 
BRANCH   9  10
HETATM   10  C9  UNL     1     -10.646  19.142  20.411  1.00  0.00     0.082 C 
HETATM   11  C10 UNL     1     -10.070  18.162  21.417  1.00  0.00     0.032 C 
BRANCH  10  12
HETATM   12  N1  UNL     1     -10.125  18.833  19.115  1.00  0.00    -0.339 N 
HETATM   13  C11 UNL     1      -9.343  19.786  18.418  1.00  0.00     0.322 C 
HETATM   14  O1  UNL     1      -9.123  20.896  18.961  1.00  0.00    -0.247 OA
HETATM   15  N2  UNL     1      -8.798  19.560  17.144  1.00  0.00    -0.295 N 
ATOM     16  H2  UNL     1      -9.077  20.191  16.392  1.00  0.00     0.172 HD
ATOM     17  H1  UNL     1     -10.316  17.924  18.693  1.00  0.00     0.164 HD
BRANCH  15  18
HETATM   18  C12 UNL     1      -7.980  18.626  16.857  1.00  0.00     0.111 A 
HETATM   19  C13 UNL     1      -6.913  18.322  17.660  1.00  0.00     0.080 A 
HETATM   20  C14 UNL     1      -6.088  17.284  17.285  1.00  0.00     0.065 A 
HETATM   21  N3  UNL     1      -4.968  16.734  17.843  1.00  0.00    -0.299 N 
HETATM   22  C21 UNL     1      -6.319  16.560  16.132  1.00  0.00     0.035 A 
HETATM   23  N4  UNL     1      -4.549  15.741  17.078  1.00  0.00    -0.300 N 
ATOM     24  H3  UNL     1      -4.527  17.040  18.709  1.00  0.00     0.187 HD
HETATM   25  C15 UNL     1      -5.349  15.596  16.010  1.00  0.00     0.079 A 
ATOM     26  H4  UNL     1      -3.730  15.164  17.273  1.00  0.00     0.186 HD
HETATM   27  C22 UNL     1      -7.402  16.903  15.358  1.00  0.00     0.105 A 
HETATM   28  N6  UNL     1      -8.204  17.911  15.723  1.00  0.00    -0.351 N 
ATOM     29  H6  UNL     1      -9.002  18.149  15.136  1.00  0.00     0.166 HD
BRANCH  25  30
HETATM   30  C16 UNL     1      -5.238  14.617  14.924  1.00  0.00     0.150 C 
HETATM   31  F1  UNL     1      -5.686  15.128  13.710  1.00  0.00    -0.236 F 
HETATM   32  C17 UNL     1      -6.039  13.404  15.246  1.00  0.00     0.077 C 
HETATM   33  C18 UNL     1      -5.257  12.128  15.004  1.00  0.00     0.236 C 
HETATM   34  N5  UNL     1      -4.663  12.266  13.665  1.00  0.00    -0.075 N 
HETATM   35  C19 UNL     1      -3.517  13.138  13.830  1.00  0.00     0.236 C 
ATOM     36  H52 UNL     1      -4.438  11.374  13.223  1.00  0.00     0.277 HD
ATOM     37  H51 UNL     1      -5.323  12.588  12.956  1.00  0.00     0.277 HD
HETATM   38  C20 UNL     1      -3.770  14.312  14.707  1.00  0.00     0.077 C 
ENDBRANCH  25  30
ENDBRANCH  15  18
ENDBRANCH  10  12
ENDBRANCH   9  10
ENDBRANCH   8   9
ENDBRANCH   4   5
TORSDOF 6
ENDMDL
MODEL 2
REMARK VINA RESULT: -7.709008705      1.294      1.475
REMARK  6 active torsions:
REMARK  status: ('A' for Active; 'I' for Inactive)
REMARK    1  A    between atoms: C4_4  and  C5_5 
REMARK    2  A    between atoms: C7_8  and  C8_9 
REMARK    3  A    between atoms: C8_9  and  C9_10 
REMARK    4  A    between atoms: C9_10  and  N1_12 
REMARK       I    between atoms: N1_12  and  C11_14 
REMARK       I    between atoms: C11_14  and  N2_16 
REMARK    5  A    between atoms: N2_16  and  C12_18 
REMARK    6  A    between atoms: C15_25  and  C16_26 
ROOT
HETATM    1  C1  UNL     1     -15.386  15.216  18.238  1.00  0.00     0.017 C 
HETATM    2  C2  UNL     1     -15.023  15.922  19.139  1.00  0.00    -0.090 C 
HETATM    3  C3  UNL     1     -14.603  16.756  20.233  1.00  0.00     0.060 C 
HETATM    4  C4  UNL     1     -13.464  16.546  20.853  1.00  0.00    -0.011 C 
ENDROOT
BRANCH   4   5
HETATM    5  C5  UNL     1     -13.078  17.442  21.981  1.00  0.00     0.033 A 
HETATM    6  C6  UNL     1     -13.173  18.904  21.894  1.00  0.00     0.095 A 
HETATM    7 CL1  UNL     1     -13.390  19.827  23.407  1.00  0.00    -0.124 Cl
HETATM    8  C7  UNL     1     -11.821  18.234  21.705  1.00  0.00     0.016 A 
BRANCH   8   9
HETATM    9  C8  UNL     1     -11.306  18.283  20.282  1.00  0.00     0.031 C 
BRANCH   9  10
HETATM   10  C9  UNL     1      -9.836  18.626  20.254  1.00  0.00     0.082 C 
HETATM   11  C10 UNL     1      -9.162  17.811  21.343  1.00  0.00     0.032 C 
BRANCH  10  12
HETATM   12  N1  UNL     1      -9.244  18.294  18.996  1.00  0.00    -0.339 N 
HETATM   13  C11 UNL     1      -8.227  19.115  18.451  1.00  0.00     0.322 C 
HETATM   14  O1  UNL     1      -7.864  20.129  19.095  1.00  0.00    -0.247 OA
HETATM   15  N2  UNL     1      -7.597  18.859  17.222  1.00  0.00    -0.295 N 
ATOM     16  H2  UNL     1      -7.669  19.573  16.497  1.00  0.00     0.172 HD
ATOM     17  H1  UNL     1      -9.554  17.465  18.489  1.00  0.00     0.164 HD
BRANCH  15  18
HETATM   18  C12 UNL     1      -6.942  17.801  16.946  1.00  0.00     0.111 A 
HETATM   19  C13 UNL     1      -5.633  17.640  17.316  1.00  0.00     0.080 A 
HETATM   20  C14 UNL     1      -5.004  16.456  16.993  1.00  0.00     0.065 A 
HETATM   21  N3  UNL     1      -3.741  15.982  17.207  1.00  0.00    -0.299 N 
HETATM   22  C21 UNL     1      -5.665  15.451  16.314  1.00  0.00     0.035 A 
HETATM   23  N4  UNL     1      -3.643  14.769  16.693  1.00  0.00    -0.300 N 
ATOM     24  H3  UNL     1      -2.994  16.484  17.687  1.00  0.00     0.187 HD
HETATM   25  C15 UNL     1      -4.804  14.398  16.131  1.00  0.00     0.079 A 
ATOM     26  H4  UNL     1      -2.800  14.194  16.721  1.00  0.00     0.186 HD
HETATM   27  C22 UNL     1      -6.978  15.661  15.964  1.00  0.00     0.105 A 
HETATM   28  N6  UNL     1      -7.588  16.810  16.278  1.00  0.00    -0.351 N 
ATOM     29  H6  UNL     1      -8.562  16.945  16.010  1.00  0.00     0.166 HD
BRANCH  25  30
HETATM   30  C16 UNL     1      -5.117  13.135  15.455  1.00  0.00     0.150 C 
HETATM   31  F1  UNL     1      -6.483  12.984  15.235  1.00  0.00    -0.236 F 
HETATM   32  C17 UNL     1      -4.645  11.986  16.278  1.00  0.00     0.077 C 
HETATM   33  C18 UNL     1      -3.880  10.973  15.449  1.00  0.00     0.236 C 
HETATM   34  N5  UNL     1      -4.707  10.717  14.259  1.00  0.00    -0.075 N 
HETATM   35  C19 UNL     1      -4.494  11.850  13.381  1.00  0.00     0.236 C 
ATOM     36  H52 UNL     1      -4.521   9.816  13.818  1.00  0.00     0.277 HD
ATOM     37  H51 UNL     1      -5.690  10.545  14.474  1.00  0.00     0.277 HD
HETATM   38  C20 UNL     1      -4.494  13.165  14.075  1.00  0.00     0.077 C 
ENDBRANCH  25  30
ENDBRANCH  15  18
ENDBRANCH  10  12
ENDBRANCH   9  10
ENDBRANCH   8   9
ENDBRANCH   4   5
TORSDOF 6
ENDMDL
MODEL 3
REMARK VINA RESULT: -7.599078949      7.106      9.893
REMARK  6 active torsions:
REMARK  status: ('A' for Active; 'I' for Inactive)
REMARK    1  A    between atoms: C4_4  and  C5_5 
REMARK    2  A    between atoms: C7_8  and  C8_9 
REMARK    3  A    between atoms: C8_9  and  C9_10 
REMARK    4  A    between atoms: C9_10  and  N1_12 
REMARK       I    between atoms: N1_12  and  C11_14 
REMARK       I    between atoms: C11_14  and  N2_16 
REMARK    5  A    between atoms: N2_16  and  C12_18 
REMARK    6  A    between atoms: C15_25  and  C16_26 
ROOT
HETATM    1  C1  UNL     1     -11.901  21.602  19.357  1.00  0.00     0.017 C 
HETATM    2  C2  UNL     1     -12.078  20.471  18.991  1.00  0.00    -0.090 C 
HETATM    3  C3  UNL     1     -12.296  19.112  18.577  1.00  0.00     0.060 C 
HETATM    4  C4  UNL     1     -13.414  18.748  17.991  1.00  0.00    -0.011 C 
ENDROOT
BRANCH   4   5
HETATM    5  C5  UNL     1     -13.587  17.325  17.581  1.00  0.00     0.033 A 
HETATM    6  C6  UNL     1     -14.882  16.777  17.162  1.00  0.00     0.095 A 
HETATM    7 CL1  UNL     1     -14.888  15.376  16.055  1.00  0.00    -0.124 Cl
HETATM    8  C7  UNL     1     -14.386  16.514  18.575  1.00  0.00     0.016 A 
BRANCH   8   9
HETATM    9  C8  UNL     1     -15.160  17.257  19.644  1.00  0.00     0.031 C 
BRANCH   9  10
HETATM   10  C9  UNL     1     -14.559  17.015  21.008  1.00  0.00     0.082 C 
HETATM   11  C10 UNL     1     -13.217  16.336  20.795  1.00  0.00     0.032 C 
BRANCH  10  12
HETATM   12  N1  UNL     1     -14.348  18.240  21.713  1.00  0.00    -0.339 N 
HETATM   13  C11 UNL     1     -14.335  18.251  23.129  1.00  0.00     0.322 C 
HETATM   14  O1  UNL     1     -14.511  17.169  23.740  1.00  0.00    -0.247 OA
HETATM   15  N2  UNL     1     -14.137  19.411  23.895  1.00  0.00    -0.295 N 
ATOM     16  H2  UNL     1     -14.879  19.684  24.541  1.00  0.00     0.172 HD
ATOM     17  H1  UNL     1     -14.207  19.108  21.196  1.00  0.00     0.164 HD
BRANCH  15  18
HETATM   18  C12 UNL     1     -13.100  20.149  23.844  1.00  0.00     0.111 A 
HETATM   19  C13 UNL     1     -12.131  19.975  22.892  1.00  0.00     0.080 A 
HETATM   20  C14 UNL     1     -11.049  20.829  22.896  1.00  0.00     0.065 A 
HETATM   21  N3  UNL     1      -9.937  20.931  22.109  1.00  0.00    -0.299 N 
HETATM   22  C21 UNL     1     -10.932  21.839  23.831  1.00  0.00     0.035 A 
HETATM   23  N4  UNL     1      -9.196  21.937  22.538  1.00  0.00    -0.300 N 
ATOM     24  H3  UNL     1      -9.715  20.327  21.318  1.00  0.00     0.187 HD
HETATM   25  C15 UNL     1      -9.768  22.528  23.599  1.00  0.00     0.079 A 
ATOM     26  H4  UNL     1      -8.311  22.226  22.120  1.00  0.00     0.186 HD
HETATM   27  C22 UNL     1     -11.931  21.974  24.767  1.00  0.00     0.105 A 
HETATM   28  N6  UNL     1     -12.981  21.144  24.761  1.00  0.00    -0.351 N 
ATOM     29  H6  UNL     1     -13.711  21.262  25.464  1.00  0.00     0.166 HD
BRANCH  25  30
HETATM   30  C16 UNL     1      -9.276  23.675  24.368  1.00  0.00     0.150 C 
HETATM   31  F1  UNL     1      -9.430  23.491  25.739  1.00  0.00    -0.236 F 
HETATM   32  C17 UNL     1     -10.012  24.907  23.975  1.00  0.00     0.077 C 
HETATM   33  C18 UNL     1      -9.074  26.071  23.719  1.00  0.00     0.236 C 
HETATM   34  N5  UNL     1      -8.161  26.114  24.872  1.00  0.00    -0.075 N 
HETATM   35  C19 UNL     1      -7.190  25.061  24.644  1.00  0.00     0.236 C 
ATOM     36  H52 UNL     1      -7.741  27.030  25.027  1.00  0.00     0.277 HD
ATOM     37  H51 UNL     1      -8.635  26.044  25.773  1.00  0.00     0.277 HD
HETATM   38  C20 UNL     1      -7.781  23.788  24.150  1.00  0.00     0.077 C 
ENDBRANCH  25  30
ENDBRANCH  15  18
ENDBRANCH  10  12
ENDBRANCH   9  10
ENDBRANCH   8   9
ENDBRANCH   4   5
TORSDOF 6
ENDMDL
MODEL 4
REMARK VINA RESULT: -7.536194570      1.480      2.148
REMARK  6 active torsions:
REMARK  status: ('A' for Active; 'I' for Inactive)
REMARK    1  A    between atoms: C4_4  and  C5_5 
REMARK    2  A    between atoms: C7_8  and  C8_9 
REMARK    3  A    between atoms: C8_9  and  C9_10 
REMARK    4  A    between atoms: C9_10  and  N1_12 
REMARK       I    between atoms: N1_12  and  C11_14 
REMARK       I    between atoms: C11_14  and  N2_16 
REMARK    5  A    between atoms: N2_16  and  C12_18 
REMARK    6  A    between atoms: C15_25  and  C16_26 
ROOT
HETATM    1  C1  UNL     1     -14.856  16.771  16.931  1.00  0.00     0.017 C 
HETATM    2  C2  UNL     1     -14.789  16.693  18.128  1.00  0.00    -0.090 C 
HETATM    3  C3  UNL     1     -14.697  16.580  19.558  1.00  0.00     0.060 C 
HETATM    4  C4  UNL     1     -13.818  17.276  20.243  1.00  0.00    -0.011 C 
ENDROOT
BRANCH   4   5
HETATM    5  C5  UNL     1     -13.767  17.119  21.725  1.00  0.00     0.033 A 
HETATM    6  C6  UNL     1     -14.371  18.092  22.642  1.00  0.00     0.095 A 
HETATM    7 CL1  UNL     1     -14.892  17.524  24.252  1.00  0.00    -0.124 Cl
HETATM    8  C7  UNL     1     -12.871  18.133  22.397  1.00  0.00     0.016 A 
BRANCH   8   9
HETATM    9  C8  UNL     1     -12.413  19.329  21.589  1.00  0.00     0.031 C 
BRANCH   9  10
HETATM   10  C9  UNL     1     -10.911  19.469  21.640  1.00  0.00     0.082 C 
HETATM   11  C10 UNL     1     -10.361  18.202  22.269  1.00  0.00     0.032 C 
BRANCH  10  12
HETATM   12  N1  UNL     1     -10.353  19.615  20.332  1.00  0.00    -0.339 N 
HETATM   13  C11 UNL     1      -9.153  20.343  20.149  1.00  0.00     0.322 C 
HETATM   14  O1  UNL     1      -8.599  20.851  21.154  1.00  0.00    -0.247 OA
HETATM   15  N2  UNL     1      -8.542  20.533  18.899  1.00  0.00    -0.295 N 
ATOM     16  H2  UNL     1      -8.418  21.492  18.575  1.00  0.00     0.172 HD
ATOM     17  H1  UNL     1     -10.820  19.193  19.529  1.00  0.00     0.164 HD
BRANCH  15  18
HETATM   18  C12 UNL     1      -8.132  19.595  18.139  1.00  0.00     0.111 A 
HETATM   19  C13 UNL     1      -8.645  19.400  16.884  1.00  0.00     0.080 A 
HETATM   20  C14 UNL     1      -8.132  18.373  16.121  1.00  0.00     0.065 A 
HETATM   21  N3  UNL     1      -8.408  17.917  14.864  1.00  0.00    -0.299 N 
HETATM   22  C21 UNL     1      -7.127  17.554  16.598  1.00  0.00     0.035 A 
HETATM   23  N4  UNL     1      -7.622  16.890  14.595  1.00  0.00    -0.300 N 
ATOM     24  H3  UNL     1      -9.109  18.307  14.234  1.00  0.00     0.187 HD
HETATM   25  C15 UNL     1      -6.814  16.628  15.634  1.00  0.00     0.079 A 
ATOM     26  H4  UNL     1      -7.627  16.369  13.717  1.00  0.00     0.186 HD
HETATM   27  C22 UNL     1      -6.646  17.789  17.864  1.00  0.00     0.105 A 
HETATM   28  N6  UNL     1      -7.144  18.787  18.604  1.00  0.00    -0.351 N 
ATOM     29  H6  UNL     1      -6.772  18.945  19.540  1.00  0.00     0.166 HD
BRANCH  25  30
HETATM   30  C16 UNL     1      -5.797  15.577  15.745  1.00  0.00     0.150 C 
HETATM   31  F1  UNL     1      -4.767  15.934  16.611  1.00  0.00    -0.236 F 
HETATM   32  C17 UNL     1      -5.207  15.295  14.407  1.00  0.00     0.077 C 
HETATM   33  C18 UNL     1      -5.139  13.808  14.120  1.00  0.00     0.236 C 
HETATM   34  N5  UNL     1      -4.541  13.193  15.316  1.00  0.00    -0.075 N 
HETATM   35  C19 UNL     1      -5.606  13.127  16.298  1.00  0.00     0.236 C 
ATOM     36  H52 UNL     1      -4.097  12.293  15.134  1.00  0.00     0.277 HD
ATOM     37  H51 UNL     1      -3.707  13.675  15.650  1.00  0.00     0.277 HD
HETATM   38  C20 UNL     1      -6.438  14.358  16.374  1.00  0.00     0.077 C 
ENDBRANCH  25  30
ENDBRANCH  15  18
ENDBRANCH  10  12
ENDBRANCH   9  10
ENDBRANCH   8   9
ENDBRANCH   4   5
TORSDOF 6
ENDMDL
MODEL 5
REMARK VINA RESULT: -7.369406087      6.658      8.320
REMARK  6 active torsions:
REMARK  status: ('A' for Active; 'I' for Inactive)
REMARK    1  A    between atoms: C4_4  and  C5_5 
REMARK    2  A    between atoms: C7_8  and  C8_9 
REMARK    3  A    between atoms: C8_9  and  C9_10 
REMARK    4  A    between atoms: C9_10  and  N1_12 
REMARK       I    between atoms: N1_12  and  C11_14 
REMARK       I    between atoms: C11_14  and  N2_16 
REMARK    5  A    between atoms: N2_16  and  C12_18 
REMARK    6  A    between atoms: C15_25  and  C16_26 
ROOT
HETATM    1  C1  UNL     1     -11.829  21.700  19.387  1.00  0.00     0.017 C 
HETATM    2  C2  UNL     1     -12.012  20.562  19.046  1.00  0.00    -0.090 C 
HETATM    3  C3  UNL     1     -12.235  19.196  18.661  1.00  0.00     0.060 C 
HETATM    4  C4  UNL     1     -13.371  18.815  18.121  1.00  0.00    -0.011 C 
ENDROOT
BRANCH   4   5
HETATM    5  C5  UNL     1     -13.549  17.384  17.740  1.00  0.00     0.033 A 
HETATM    6  C6  UNL     1     -14.845  16.834  17.328  1.00  0.00     0.095 A 
HETATM    7 CL1  UNL     1     -14.853  15.410  16.251  1.00  0.00    -0.124 Cl
HETATM    8  C7  UNL     1     -14.355  16.598  18.748  1.00  0.00     0.016 A 
BRANCH   8   9
HETATM    9  C8  UNL     1     -15.129  17.367  19.799  1.00  0.00     0.031 C 
BRANCH   9  10
HETATM   10  C9  UNL     1     -14.465  17.248  21.149  1.00  0.00     0.082 C 
HETATM   11  C10 UNL     1     -13.316  16.267  21.002  1.00  0.00     0.032 C 
BRANCH  10  12
HETATM   12  N1  UNL     1     -13.946  18.504  21.591  1.00  0.00    -0.339 N 
HETATM   13  C11 UNL     1     -14.145  18.925  22.928  1.00  0.00     0.322 C 
HETATM   14  O1  UNL     1     -14.782  18.173  23.706  1.00  0.00    -0.247 OA
HETATM   15  N2  UNL     1     -13.669  20.143  23.439  1.00  0.00    -0.295 N 
ATOM     16  H2  UNL     1     -14.355  20.801  23.808  1.00  0.00     0.172 HD
ATOM     17  H1  UNL     1     -13.430  19.099  20.942  1.00  0.00     0.164 HD
BRANCH  15  18
HETATM   18  C12 UNL     1     -12.443  20.488  23.474  1.00  0.00     0.111 A 
HETATM   19  C13 UNL     1     -11.996  21.505  24.276  1.00  0.00     0.080 A 
HETATM   20  C14 UNL     1     -10.650  21.801  24.267  1.00  0.00     0.065 A 
HETATM   21  N3  UNL     1      -9.895  22.727  24.929  1.00  0.00    -0.299 N 
HETATM   22  C21 UNL     1      -9.763  21.099  23.475  1.00  0.00     0.035 A 
HETATM   23  N4  UNL     1      -8.632  22.594  24.563  1.00  0.00    -0.300 N 
ATOM     24  H3  UNL     1     -10.248  23.411  25.597  1.00  0.00     0.187 HD
HETATM   25  C15 UNL     1      -8.501  21.603  23.667  1.00  0.00     0.079 A 
ATOM     26  H4  UNL     1      -7.863  23.166  24.913  1.00  0.00     0.186 HD
HETATM   27  C22 UNL     1     -10.259  20.087  22.688  1.00  0.00     0.105 A 
HETATM   28  N6  UNL     1     -11.566  19.800  22.697  1.00  0.00    -0.351 N 
ATOM     29  H6  UNL     1     -11.913  19.045  22.106  1.00  0.00     0.166 HD
BRANCH  25  30
HETATM   30  C16 UNL     1      -7.275  21.133  23.014  1.00  0.00     0.150 C 
HETATM   31  F1  UNL     1      -7.453  20.933  21.648  1.00  0.00    -0.236 F 
HETATM   32  C17 UNL     1      -6.835  19.847  23.622  1.00  0.00     0.077 C 
HETATM   33  C18 UNL     1      -5.354  19.852  23.947  1.00  0.00     0.236 C 
HETATM   34  N5  UNL     1      -4.677  20.348  22.739  1.00  0.00    -0.075 N 
HETATM   35  C19 UNL     1      -4.857  21.787  22.749  1.00  0.00     0.236 C 
ATOM     36  H52 UNL     1      -3.701  20.059  22.670  1.00  0.00     0.277 HD
ATOM     37  H51 UNL     1      -4.996  19.903  21.879  1.00  0.00     0.277 HD
HETATM   38  C20 UNL     1      -6.230  22.223  23.122  1.00  0.00     0.077 C 
ENDBRANCH  25  30
ENDBRANCH  15  18
ENDBRANCH  10  12
ENDBRANCH   9  10
ENDBRANCH   8   9
ENDBRANCH   4   5
TORSDOF 6
ENDMDL
