MODEL 1
REMARK VINA RESULT: -9.408545818      0.000      0.000
REMARK  5 active torsions:
REMARK  status: ('A' for Active; 'I' for Inactive)
REMARK    1  A    between atoms: N1_1  and  C1_4 
REMARK    2  A    between atoms: C2_9  and  S1_10 
REMARK    3  A    between atoms: S1_10  and  C3_11 
REMARK    4  A    between atoms: C3_11  and  C4_12 
REMARK    5  A    between atoms: C15_25  and  C16_26 
ROOT
HETATM    1  S1  UNL     1      16.853   8.469  11.999  1.00  0.00    -0.106 SA
ENDROOT
BRANCH   1   2
HETATM    2  C2  UNL     1      16.515   7.449  10.602  1.00  0.00     0.095 A 
HETATM    3  N3  UNL     1      16.343   6.113  10.565  1.00  0.00    -0.292 N 
HETATM    4  N2  UNL     1      16.093   5.725   9.330  1.00  0.00    -0.284 N 
ATOM      5  H3  UNL     1      16.397   5.494  11.373  1.00  0.00     0.187 HD
HETATM    6  C1  UNL     1      16.094   6.780   8.522  1.00  0.00     0.123 A 
ATOM      7  H2  UNL     1      15.926   4.762   9.039  1.00  0.00     0.188 HD
HETATM    8  C15 UNL     1      16.363   7.907   9.314  1.00  0.00     0.026 A 
BRANCH   6   9
HETATM    9  N1  UNL     1      15.908   6.871   7.239  1.00  0.00    -0.384 N 
ATOM     10  H12 UNL     1      15.644   6.064   6.673  1.00  0.00     0.157 HD
ATOM     11  H11 UNL     1      15.969   7.671   6.609  1.00  0.00     0.157 HD
ENDBRANCH   6   9
BRANCH   8  12
HETATM   12  C16 UNL     1      16.413   9.301   8.803  1.00  0.00     0.025 A 
HETATM   13  C17 UNL     1      17.399  10.264   9.294  1.00  0.00     0.010 A 
HETATM   14  C18 UNL     1      17.435   9.718   7.816  1.00  0.00     0.010 A 
ENDBRANCH   8  12
ENDBRANCH   1   2
BRANCH   1  15
HETATM   15  C3  UNL     1      15.480   8.350  13.219  1.00  0.00     0.120 C 
BRANCH  15  16
HETATM   16  C4  UNL     1      14.564   9.500  13.048  1.00  0.00    -0.034 A 
HETATM   17  C5  UNL     1      14.532  10.080  11.790  1.00  0.00     0.091 A 
HETATM   18  C6  UNL     1      13.739  11.142  11.502  1.00  0.00     0.288 A 
HETATM   19  O1  UNL     1      13.750  11.630  10.346  1.00  0.00    -0.260 OA
HETATM   20  O2  UNL     1      13.004  11.591  12.475  1.00  0.00    -0.279 OA
HETATM   21  C7  UNL     1      12.983  11.099  13.671  1.00  0.00     0.064 A 
HETATM   22  C8  UNL     1      13.755  10.007  14.084  1.00  0.00    -0.021 A 
HETATM   23  C14 UNL     1      12.006  11.941  14.394  1.00  0.00     0.066 C 
HETATM   24  C9  UNL     1      14.114   9.109  15.177  1.00  0.00     0.042 C 
HETATM   25  C10 UNL     1      13.627   9.466  16.594  1.00  0.00     0.005 C 
HETATM   26  C11 UNL     1      13.081  10.741  16.467  1.00  0.00     0.000 C 
HETATM   27  C12 UNL     1      12.518  11.960  16.911  1.00  0.00     0.000 C 
HETATM   28  C13 UNL     1      12.414  12.758  15.565  1.00  0.00     0.006 C 
ENDBRANCH  15  16
ENDBRANCH   1  15
TORSDOF 5
ENDMDL
MODEL 2
REMARK VINA RESULT: -9.248126714      3.229      7.311
REMARK  5 active torsions:
REMARK  status: ('A' for Active; 'I' for Inactive)
REMARK    1  A    between atoms: N1_1  and  C1_4 
REMARK    2  A    between atoms: C2_9  and  S1_10 
REMARK    3  A    between atoms: S1_10  and  C3_11 
REMARK    4  A    between atoms: C3_11  and  C4_12 
REMARK    5  A    between atoms: C15_25  and  C16_26 
ROOT
HETATM    1  S1  UNL     1      15.987  10.154  12.207  1.00  0.00    -0.106 SA
ENDROOT
BRANCH   1   2
HETATM    2  C2  UNL     1      14.608  11.164  11.773  1.00  0.00     0.095 A 
HETATM    3  N3  UNL     1      14.471  11.976  10.707  1.00  0.00    -0.292 N 
HETATM    4  N2  UNL     1      13.284  12.551  10.729  1.00  0.00    -0.284 N 
ATOM      5  H3  UNL     1      15.179  12.125   9.989  1.00  0.00     0.187 HD
HETATM    6  C1  UNL     1      12.609  12.141  11.798  1.00  0.00     0.123 A 
ATOM      7  H2  UNL     1      12.937  13.209  10.031  1.00  0.00     0.188 HD
HETATM    8  C15 UNL     1      13.438  11.245  12.491  1.00  0.00     0.026 A 
BRANCH   6   9
HETATM    9  N1  UNL     1      11.421  12.449  12.225  1.00  0.00    -0.384 N 
ATOM     10  H12 UNL     1      10.863  13.181  11.786  1.00  0.00     0.157 HD
ATOM     11  H11 UNL     1      10.864  12.064  12.988  1.00  0.00     0.157 HD
ENDBRANCH   6   9
BRANCH   8  12
HETATM   12  C16 UNL     1      13.046  10.524  13.729  1.00  0.00     0.025 A 
HETATM   13  C17 UNL     1      14.025   9.794  14.535  1.00  0.00     0.010 A 
HETATM   14  C18 UNL     1      13.317  11.097  15.067  1.00  0.00     0.010 A 
ENDBRANCH   8  12
ENDBRANCH   1   2
BRANCH   1  15
HETATM   15  C3  UNL     1      15.788   8.469  11.495  1.00  0.00     0.120 C 
BRANCH  15  16
HETATM   16  C4  UNL     1      16.334   8.444  10.119  1.00  0.00    -0.034 A 
HETATM   17  C5  UNL     1      16.617   9.673   9.547  1.00  0.00     0.091 A 
HETATM   18  C6  UNL     1      17.118   9.791   8.293  1.00  0.00     0.288 A 
HETATM   19  O1  UNL     1      17.355  10.929   7.821  1.00  0.00    -0.260 OA
HETATM   20  O2  UNL     1      17.320   8.680   7.648  1.00  0.00    -0.279 OA
HETATM   21  C7  UNL     1      17.079   7.499   8.120  1.00  0.00     0.064 A 
HETATM   22  C8  UNL     1      16.564   7.255   9.399  1.00  0.00    -0.021 A 
HETATM   23  C14 UNL     1      17.467   6.584   7.026  1.00  0.00     0.066 C 
HETATM   24  C9  UNL     1      16.135   6.257  10.372  1.00  0.00     0.042 C 
HETATM   25  C10 UNL     1      15.992   4.799   9.895  1.00  0.00     0.005 C 
HETATM   26  C11 UNL     1      16.155   4.864   8.514  1.00  0.00     0.000 C 
HETATM   27  C12 UNL     1      16.157   4.381   7.185  1.00  0.00     0.000 C 
HETATM   28  C13 UNL     1      16.472   5.691   6.382  1.00  0.00     0.006 C 
ENDBRANCH  15  16
ENDBRANCH   1  15
TORSDOF 5
ENDMDL
MODEL 3
REMARK VINA RESULT: -9.122933129      3.760      6.813
REMARK  5 active torsions:
REMARK  status: ('A' for Active; 'I' for Inactive)
REMARK    1  A    between atoms: N1_1  and  C1_4 
REMARK    2  A    between atoms: C2_9  and  S1_10 
REMARK    3  A    between atoms: S1_10  and  C3_11 
REMARK    4  A    between atoms: C3_11  and  C4_12 
REMARK    5  A    between atoms: C15_25  and  C16_26 
ROOT
HETATM    1  S1  UNL     1      16.003  10.347  12.447  1.00  0.00    -0.106 SA
ENDROOT
BRANCH   1   2
HETATM    2  C2  UNL     1      14.618  11.245  11.828  1.00  0.00     0.095 A 
HETATM    3  N3  UNL     1      14.499  11.887  10.649  1.00  0.00    -0.292 N 
HETATM    4  N2  UNL     1      13.300  12.428  10.550  1.00  0.00    -0.284 N 
ATOM      5  H3  UNL     1      15.227  11.946   9.938  1.00  0.00     0.187 HD
HETATM    6  C1  UNL     1      12.599  12.163  11.648  1.00  0.00     0.123 A 
ATOM      7  H2  UNL     1      12.962  12.966   9.753  1.00  0.00     0.188 HD
HETATM    8  C15 UNL     1      13.424  11.402  12.491  1.00  0.00     0.026 A 
BRANCH   6   9
HETATM    9  N1  UNL     1      11.391  12.500  11.990  1.00  0.00    -0.384 N 
ATOM     10  H12 UNL     1      10.854  13.189  11.463  1.00  0.00     0.157 HD
ATOM     11  H11 UNL     1      10.798  12.178  12.755  1.00  0.00     0.157 HD
ENDBRANCH   6   9
BRANCH   8  12
HETATM   12  C16 UNL     1      13.007  10.862  13.811  1.00  0.00     0.025 A 
HETATM   13  C17 UNL     1      13.733  11.188  15.038  1.00  0.00     0.010 A 
HETATM   14  C18 UNL     1      12.265  11.699  14.781  1.00  0.00     0.010 A 
ENDBRANCH   8  12
ENDBRANCH   1   2
BRANCH   1  15
HETATM   15  C3  UNL     1      16.127   8.714  11.609  1.00  0.00     0.120 C 
BRANCH  15  16
HETATM   16  C4  UNL     1      15.604   7.657  12.503  1.00  0.00    -0.034 A 
HETATM   17  C5  UNL     1      15.232   8.056  13.776  1.00  0.00     0.091 A 
HETATM   18  C6  UNL     1      14.741   7.186  14.693  1.00  0.00     0.288 A 
HETATM   19  O1  UNL     1      14.420   7.600  15.834  1.00  0.00    -0.260 OA
HETATM   20  O2  UNL     1      14.636   5.948  14.313  1.00  0.00    -0.279 OA
HETATM   21  C7  UNL     1      14.964   5.506  13.142  1.00  0.00     0.064 A 
HETATM   22  C8  UNL     1      15.480   6.308  12.116  1.00  0.00    -0.021 A 
HETATM   23  C14 UNL     1      14.665   4.059  13.201  1.00  0.00     0.066 C 
HETATM   24  C9  UNL     1      15.973   6.368  10.745  1.00  0.00     0.042 C 
HETATM   25  C10 UNL     1      16.238   5.038  10.014  1.00  0.00     0.005 C 
HETATM   26  C11 UNL     1      16.089   4.062  10.996  1.00  0.00     0.000 C 
HETATM   27  C12 UNL     1      16.143   2.762  11.550  1.00  0.00     0.000 C 
HETATM   28  C13 UNL     1      15.736   3.045  13.038  1.00  0.00     0.006 C 
ENDBRANCH  15  16
ENDBRANCH   1  15
TORSDOF 5
ENDMDL
MODEL 4
REMARK VINA RESULT: -9.117470661      3.505      7.659
REMARK  5 active torsions:
REMARK  status: ('A' for Active; 'I' for Inactive)
REMARK    1  A    between atoms: N1_1  and  C1_4 
REMARK    2  A    between atoms: C2_9  and  S1_10 
REMARK    3  A    between atoms: S1_10  and  C3_11 
REMARK    4  A    between atoms: C3_11  and  C4_12 
REMARK    5  A    between atoms: C15_25  and  C16_26 
ROOT
HETATM    1  S1  UNL     1      15.888   9.581  12.390  1.00  0.00    -0.106 SA
ENDROOT
BRANCH   1   2
HETATM    2  C2  UNL     1      14.722  10.801  11.882  1.00  0.00     0.095 A 
HETATM    3  N3  UNL     1      14.739  11.561  10.768  1.00  0.00    -0.292 N 
HETATM    4  N2  UNL     1      13.679  12.346  10.742  1.00  0.00    -0.284 N 
ATOM      5  H3  UNL     1      15.464  11.532  10.051  1.00  0.00     0.187 HD
HETATM    6  C1  UNL     1      12.939  12.132  11.825  1.00  0.00     0.123 A 
ATOM      7  H2  UNL     1      13.462  13.014  10.003  1.00  0.00     0.188 HD
HETATM    8  C15 UNL     1      13.586  11.141  12.579  1.00  0.00     0.026 A 
BRANCH   6   9
HETATM    9  N1  UNL     1      11.829  12.680  12.219  1.00  0.00    -0.384 N 
ATOM     10  H12 UNL     1      11.490  13.557  11.824  1.00  0.00     0.157 HD
ATOM     11  H11 UNL     1      11.143  12.379  12.912  1.00  0.00     0.157 HD
ENDBRANCH   6   9
BRANCH   8  12
HETATM   12  C16 UNL     1      13.066  10.580  13.852  1.00  0.00     0.025 A 
HETATM   13  C17 UNL     1      13.904   9.764  14.731  1.00  0.00     0.010 A 
HETATM   14  C18 UNL     1      13.404  11.197  15.155  1.00  0.00     0.010 A 
ENDBRANCH   8  12
ENDBRANCH   1   2
BRANCH   1  15
HETATM   15  C3  UNL     1      16.875   9.006  10.947  1.00  0.00     0.120 C 
BRANCH  15  16
HETATM   16  C4  UNL     1      16.507   7.611  10.619  1.00  0.00    -0.034 A 
HETATM   17  C5  UNL     1      16.281   6.765  11.693  1.00  0.00     0.091 A 
HETATM   18  C6  UNL     1      15.941   5.462  11.530  1.00  0.00     0.288 A 
HETATM   19  O1  UNL     1      15.749   4.739  12.537  1.00  0.00    -0.260 OA
HETATM   20  O2  UNL     1      15.837   5.044  10.304  1.00  0.00    -0.279 OA
HETATM   21  C7  UNL     1      16.033   5.777   9.256  1.00  0.00     0.064 A 
HETATM   22  C8  UNL     1      16.387   7.131   9.300  1.00  0.00    -0.021 A 
HETATM   23  C14 UNL     1      15.798   4.860   8.120  1.00  0.00     0.066 C 
HETATM   24  C9  UNL     1      16.703   8.336   8.540  1.00  0.00     0.042 C 
HETATM   25  C10 UNL     1      16.925   8.193   7.022  1.00  0.00     0.005 C 
HETATM   26  C11 UNL     1      16.937   6.820   6.796  1.00  0.00     0.000 C 
HETATM   27  C12 UNL     1      17.108   5.631   6.050  1.00  0.00     0.000 C 
HETATM   28  C13 UNL     1      16.878   4.541   7.154  1.00  0.00     0.006 C 
ENDBRANCH  15  16
ENDBRANCH   1  15
TORSDOF 5
ENDMDL
MODEL 5
REMARK VINA RESULT: -9.105974515      1.199      1.604
REMARK  5 active torsions:
REMARK  status: ('A' for Active; 'I' for Inactive)
REMARK    1  A    between atoms: N1_1  and  C1_4 
REMARK    2  A    between atoms: C2_9  and  S1_10 
REMARK    3  A    between atoms: S1_10  and  C3_11 
REMARK    4  A    between atoms: C3_11  and  C4_12 
REMARK    5  A    between atoms: C15_25  and  C16_26 
ROOT
HETATM    1  S1  UNL     1      16.552   7.963  11.983  1.00  0.00    -0.106 SA
ENDROOT
BRANCH   1   2
HETATM    2  C2  UNL     1      16.219   6.346  11.364  1.00  0.00     0.095 A 
HETATM    3  N3  UNL     1      15.808   5.259  12.046  1.00  0.00    -0.292 N 
HETATM    4  N2  UNL     1      15.656   4.241  11.222  1.00  0.00    -0.284 N 
ATOM      5  H3  UNL     1      15.640   5.228  13.052  1.00  0.00     0.187 HD
HETATM    6  C1  UNL     1      15.958   4.619   9.984  1.00  0.00     0.123 A 
ATOM      7  H2  UNL     1      15.353   3.305  11.493  1.00  0.00     0.188 HD
HETATM    8  C15 UNL     1      16.325   5.973  10.044  1.00  0.00     0.026 A 
BRANCH   6   9
HETATM    9  N1  UNL     1      15.963   3.955   8.868  1.00  0.00    -0.384 N 
ATOM     10  H12 UNL     1      16.570   3.148   8.723  1.00  0.00     0.157 HD
ATOM     11  H11 UNL     1      15.420   4.079   8.013  1.00  0.00     0.157 HD
ENDBRANCH   6   9
BRANCH   8  12
HETATM   12  C16 UNL     1      16.699   6.795   8.865  1.00  0.00     0.025 A 
HETATM   13  C17 UNL     1      15.823   6.908   7.699  1.00  0.00     0.010 A 
HETATM   14  C18 UNL     1      16.106   8.134   8.648  1.00  0.00     0.010 A 
ENDBRANCH   8  12
ENDBRANCH   1   2
BRANCH   1  15
HETATM   15  C3  UNL     1      15.521   8.299  13.469  1.00  0.00     0.120 C 
BRANCH  15  16
HETATM   16  C4  UNL     1      14.618   9.440  13.198  1.00  0.00    -0.034 A 
HETATM   17  C5  UNL     1      14.645   9.955  11.912  1.00  0.00     0.091 A 
HETATM   18  C6  UNL     1      13.870  11.001  11.534  1.00  0.00     0.288 A 
HETATM   19  O1  UNL     1      13.934  11.429  10.356  1.00  0.00    -0.260 OA
HETATM   20  O2  UNL     1      13.094  11.502  12.449  1.00  0.00    -0.279 OA
HETATM   21  C7  UNL     1      13.017  11.072  13.667  1.00  0.00     0.064 A 
HETATM   22  C8  UNL     1      13.766  10.002  14.170  1.00  0.00    -0.021 A 
HETATM   23  C14 UNL     1      12.014  11.953  14.302  1.00  0.00     0.066 C 
HETATM   24  C9  UNL     1      14.073   9.161  15.323  1.00  0.00     0.042 C 
HETATM   25  C10 UNL     1      13.524   9.592  16.696  1.00  0.00     0.005 C 
HETATM   26  C11 UNL     1      12.990  10.859  16.479  1.00  0.00     0.000 C 
HETATM   27  C12 UNL     1      12.413  12.100  16.834  1.00  0.00     0.000 C 
HETATM   28  C13 UNL     1      12.372  12.828  15.445  1.00  0.00     0.006 C 
ENDBRANCH  15  16
ENDBRANCH   1  15
TORSDOF 5
ENDMDL
