MODEL 1
REMARK VINA RESULT: -8.641469348      0.000      0.000
REMARK  6 active torsions:
REMARK  status: ('A' for Active; 'I' for Inactive)
REMARK    1  A    between atoms: C4_4  and  N1_5 
REMARK    2  A    between atoms: C5_7  and  C6_8 
REMARK    3  A    between atoms: C10_13  and  O2_14 
REMARK    4  A    between atoms: C11_16  and  S1_17 
REMARK    5  A    between atoms: S1_17  and  C12_18 
REMARK    6  A    between atoms: C16_22  and  O3_23 
ROOT
HETATM    1  C1  UNL     1      90.552 116.937 133.161  1.00  0.00     0.037 C 
HETATM    2  C2  UNL     1      90.979 117.307 131.814  1.00  0.00    -0.016 C 
HETATM    3  C3  UNL     1      90.443 118.237 131.081  1.00  0.00     0.006 A 
HETATM    4  C4  UNL     1      89.318 119.008 131.588  1.00  0.00     0.047 A 
HETATM    5  C8  UNL     1      88.694 119.952 130.890  1.00  0.00     0.088 A 
HETATM    6  C9  UNL     1      89.179 120.211 129.552  1.00  0.00     0.208 A 
HETATM    7  O1  UNL     1      88.625 121.108 128.816  1.00  0.00    -0.285 OA
HETATM    8  C10 UNL     1      90.279 119.503 128.972  1.00  0.00     0.134 A 
HETATM    9  C11 UNL     1      90.913 118.532 129.709  1.00  0.00     0.050 A 
ENDROOT
BRANCH   9  10
HETATM   10  S1  UNL     1      92.271 117.814 128.961  1.00  0.00    -0.119 SA
BRANCH  10  11
HETATM   11  C12 UNL     1      92.344 116.518 127.842  1.00  0.00     0.085 C 
HETATM   12  C13 UNL     1      92.708 116.876 126.411  1.00  0.00     0.050 C 
HETATM   13  C14 UNL     1      91.473 116.823 125.582  1.00  0.00     0.190 C 
HETATM   14  C15 UNL     1      91.276 115.477 124.912  1.00  0.00     0.064 C 
HETATM   15  N2  UNL     1      90.414 116.954 126.556  1.00  0.00    -0.065 N 
HETATM   16  C16 UNL     1      91.522 114.357 125.904  1.00  0.00     0.122 C 
HETATM   17  C17 UNL     1      90.849 114.607 127.209  1.00  0.00     0.066 C 
HETATM   18  C18 UNL     1      90.865 116.049 127.582  1.00  0.00     0.203 C 
ATOM     19  H22 UNL     1      90.220 117.906 126.866  1.00  0.00     0.278 HD
ATOM     20  H21 UNL     1      89.472 116.782 126.203  1.00  0.00     0.278 HD
BRANCH  16  21
HETATM   21  O3  UNL     1      91.102 113.149 125.389  1.00  0.00    -0.395 OA
ATOM     22  H3  UNL     1      90.393 112.791 125.909  1.00  0.00     0.210 HD
ENDBRANCH  16  21
ENDBRANCH  10  11
ENDBRANCH   9  10
BRANCH   8  23
HETATM   23  O2  UNL     1      90.735 119.774 127.663  1.00  0.00    -0.356 OA
ATOM     24  H2  UNL     1      91.103 120.617 127.424  1.00  0.00     0.218 HD
ENDBRANCH   8  23
BRANCH   4  25
HETATM   25  N1  UNL     1      88.786 118.803 132.908  1.00  0.00    -0.369 N 
HETATM   26  C5  UNL     1      88.473 119.793 133.682  1.00  0.00     0.061 C 
ATOM     27  H1  UNL     1      88.651 117.850 133.244  1.00  0.00     0.165 HD
BRANCH  26  28
HETATM   28  C6  UNL     1      87.924 119.580 135.044  1.00  0.00     0.040 C 
HETATM   29  C7  UNL     1      87.008 120.767 135.348  1.00  0.00     0.010 C 
ENDBRANCH  26  28
ENDBRANCH   4  25
TORSDOF 6
ENDMDL
MODEL 2
REMARK VINA RESULT: -8.501930296      1.209      1.655
REMARK  6 active torsions:
REMARK  status: ('A' for Active; 'I' for Inactive)
REMARK    1  A    between atoms: C4_4  and  N1_5 
REMARK    2  A    between atoms: C5_7  and  C6_8 
REMARK    3  A    between atoms: C10_13  and  O2_14 
REMARK    4  A    between atoms: C11_16  and  S1_17 
REMARK    5  A    between atoms: S1_17  and  C12_18 
REMARK    6  A    between atoms: C16_22  and  O3_23 
ROOT
HETATM    1  C1  UNL     1      89.674 117.042 133.568  1.00  0.00     0.037 C 
HETATM    2  C2  UNL     1      90.027 117.388 132.193  1.00  0.00    -0.016 C 
HETATM    3  C3  UNL     1      89.646 118.458 131.562  1.00  0.00     0.006 A 
HETATM    4  C4  UNL     1      88.791 119.431 132.226  1.00  0.00     0.047 A 
HETATM    5  C8  UNL     1      88.332 120.533 131.641  1.00  0.00     0.088 A 
HETATM    6  C9  UNL     1      88.716 120.756 130.264  1.00  0.00     0.208 A 
HETATM    7  O1  UNL     1      88.309 121.799 129.631  1.00  0.00    -0.285 OA
HETATM    8  C10 UNL     1      89.553 119.855 129.533  1.00  0.00     0.134 A 
HETATM    9  C11 UNL     1      90.020 118.722 130.155  1.00  0.00     0.050 A 
ENDROOT
BRANCH   9  10
HETATM   10  S1  UNL     1      91.085 117.763 129.225  1.00  0.00    -0.119 SA
BRANCH  10  11
HETATM   11  C12 UNL     1      90.798 116.911 127.767  1.00  0.00     0.085 C 
HETATM   12  C13 UNL     1      90.941 115.400 127.823  1.00  0.00     0.050 C 
HETATM   13  C14 UNL     1      92.225 115.023 127.169  1.00  0.00     0.190 C 
HETATM   14  C15 UNL     1      92.055 114.684 125.702  1.00  0.00     0.064 C 
HETATM   15  N2  UNL     1      92.995 116.244 127.222  1.00  0.00    -0.065 N 
HETATM   16  C16 UNL     1      91.183 115.720 125.021  1.00  0.00     0.122 C 
HETATM   17  C17 UNL     1      91.574 117.110 125.390  1.00  0.00     0.066 C 
HETATM   18  C18 UNL     1      92.011 117.212 126.811  1.00  0.00     0.203 C 
ATOM     19  H22 UNL     1      93.452 116.435 128.113  1.00  0.00     0.278 HD
ATOM     20  H21 UNL     1      93.859 116.239 126.678  1.00  0.00     0.278 HD
BRANCH  16  21
HETATM   21  O3  UNL     1      91.229 115.574 123.652  1.00  0.00    -0.395 OA
ATOM     22  H3  UNL     1      91.900 116.132 123.276  1.00  0.00     0.210 HD
ENDBRANCH  16  21
ENDBRANCH  10  11
ENDBRANCH   9  10
BRANCH   8  23
HETATM   23  O2  UNL     1      89.914 120.095 128.189  1.00  0.00    -0.356 OA
ATOM     24  H2  UNL     1      89.273 120.342 127.533  1.00  0.00     0.218 HD
ENDBRANCH   8  23
BRANCH   4  25
HETATM   25  N1  UNL     1      88.372 119.272 133.592  1.00  0.00    -0.369 N 
HETATM   26  C5  UNL     1      87.971 120.274 134.307  1.00  0.00     0.061 C 
ATOM     27  H1  UNL     1      88.392 118.342 134.010  1.00  0.00     0.165 HD
BRANCH  26  28
HETATM   28  C6  UNL     1      87.539 120.108 135.717  1.00  0.00     0.040 C 
HETATM   29  C7  UNL     1      86.357 121.053 135.937  1.00  0.00     0.010 C 
ENDBRANCH  26  28
ENDBRANCH   4  25
TORSDOF 6
ENDMDL
MODEL 3
REMARK VINA RESULT: -8.371000257      1.453      1.920
REMARK  6 active torsions:
REMARK  status: ('A' for Active; 'I' for Inactive)
REMARK    1  A    between atoms: C4_4  and  N1_5 
REMARK    2  A    between atoms: C5_7  and  C6_8 
REMARK    3  A    between atoms: C10_13  and  O2_14 
REMARK    4  A    between atoms: C11_16  and  S1_17 
REMARK    5  A    between atoms: S1_17  and  C12_18 
REMARK    6  A    between atoms: C16_22  and  O3_23 
ROOT
HETATM    1  C1  UNL     1      88.880 118.189 134.086  1.00  0.00     0.037 C 
HETATM    2  C2  UNL     1      89.444 118.254 132.740  1.00  0.00    -0.016 C 
HETATM    3  C3  UNL     1      89.142 119.139 131.837  1.00  0.00     0.006 A 
HETATM    4  C4  UNL     1      88.165 120.176 132.131  1.00  0.00     0.047 A 
HETATM    5  C8  UNL     1      87.778 121.097 131.253  1.00  0.00     0.088 A 
HETATM    6  C9  UNL     1      88.376 121.045 129.937  1.00  0.00     0.208 A 
HETATM    7  O1  UNL     1      88.051 121.902 129.034  1.00  0.00    -0.285 OA
HETATM    8  C10 UNL     1      89.345 120.062 129.561  1.00  0.00     0.134 A 
HETATM    9  C11 UNL     1      89.735 119.119 130.482  1.00  0.00     0.050 A 
ENDROOT
BRANCH   9  10
HETATM   10  S1  UNL     1      90.963 118.052 129.962  1.00  0.00    -0.119 SA
BRANCH  10  11
HETATM   11  C12 UNL     1      90.836 116.571 129.110  1.00  0.00     0.085 C 
HETATM   12  C13 UNL     1      91.896 115.524 129.406  1.00  0.00     0.050 C 
HETATM   13  C14 UNL     1      92.852 115.485 128.265  1.00  0.00     0.190 C 
HETATM   14  C15 UNL     1      92.488 114.438 127.232  1.00  0.00     0.064 C 
HETATM   15  N2  UNL     1      92.664 116.770 127.631  1.00  0.00    -0.065 N 
HETATM   16  C16 UNL     1      91.005 114.500 126.922  1.00  0.00     0.122 C 
HETATM   17  C17 UNL     1      90.536 115.899 126.713  1.00  0.00     0.066 C 
HETATM   18  C18 UNL     1      91.226 116.863 127.615  1.00  0.00     0.203 C 
ATOM     19  H22 UNL     1      93.148 117.551 128.071  1.00  0.00     0.278 HD
ATOM     20  H21 UNL     1      93.120 116.881 126.725  1.00  0.00     0.278 HD
BRANCH  16  21
HETATM   21  O3  UNL     1      90.707 113.740 125.812  1.00  0.00    -0.395 OA
ATOM     22  H3  UNL     1      90.249 112.946 126.062  1.00  0.00     0.210 HD
ENDBRANCH  16  21
ENDBRANCH  10  11
ENDBRANCH   9  10
BRANCH   8  23
HETATM   23  O2  UNL     1      89.916 120.032 128.269  1.00  0.00    -0.356 OA
ATOM     24  H2  UNL     1      90.566 120.668 127.992  1.00  0.00     0.218 HD
ENDBRANCH   8  23
BRANCH   4  25
HETATM   25  N1  UNL     1      87.532 120.287 133.417  1.00  0.00    -0.369 N 
HETATM   26  C5  UNL     1      87.090 121.417 133.868  1.00  0.00     0.061 C 
ATOM     27  H1  UNL     1      87.429 119.450 133.991  1.00  0.00     0.165 HD
BRANCH  26  28
HETATM   28  C6  UNL     1      86.437 121.529 135.196  1.00  0.00     0.040 C 
HETATM   29  C7  UNL     1      86.982 120.391 136.061  1.00  0.00     0.010 C 
ENDBRANCH  26  28
ENDBRANCH   4  25
TORSDOF 6
ENDMDL
MODEL 4
REMARK VINA RESULT: -8.126007919      2.451      3.322
REMARK  6 active torsions:
REMARK  status: ('A' for Active; 'I' for Inactive)
REMARK    1  A    between atoms: C4_4  and  N1_5 
REMARK    2  A    between atoms: C5_7  and  C6_8 
REMARK    3  A    between atoms: C10_13  and  O2_14 
REMARK    4  A    between atoms: C11_16  and  S1_17 
REMARK    5  A    between atoms: S1_17  and  C12_18 
REMARK    6  A    between atoms: C16_22  and  O3_23 
ROOT
HETATM    1  C1  UNL     1      88.946 120.467 130.176  1.00  0.00     0.037 C 
HETATM    2  C2  UNL     1      89.735 119.239 130.155  1.00  0.00    -0.016 C 
HETATM    3  C3  UNL     1      89.806 118.371 131.120  1.00  0.00     0.006 A 
HETATM    4  C4  UNL     1      89.063 118.587 132.352  1.00  0.00     0.047 A 
HETATM    5  C8  UNL     1      89.109 117.766 133.396  1.00  0.00     0.088 A 
HETATM    6  C9  UNL     1      89.952 116.596 133.279  1.00  0.00     0.208 A 
HETATM    7  O1  UNL     1      90.048 115.756 134.248  1.00  0.00    -0.285 OA
HETATM    8  C10 UNL     1      90.717 116.303 132.106  1.00  0.00     0.134 A 
HETATM    9  C11 UNL     1      90.656 117.162 131.035  1.00  0.00     0.050 A 
ENDROOT
BRANCH   9  10
HETATM   10  S1  UNL     1      91.532 116.672 129.652  1.00  0.00    -0.119 SA
BRANCH  10  11
HETATM   11  C12 UNL     1      90.998 116.466 128.037  1.00  0.00     0.085 C 
HETATM   12  C13 UNL     1      90.837 115.035 127.554  1.00  0.00     0.050 C 
HETATM   13  C14 UNL     1      91.979 114.707 126.657  1.00  0.00     0.190 C 
HETATM   14  C15 UNL     1      91.664 114.954 125.195  1.00  0.00     0.064 C 
HETATM   15  N2  UNL     1      92.982 115.678 127.029  1.00  0.00    -0.065 N 
HETATM   16  C16 UNL     1      90.982 116.297 125.025  1.00  0.00     0.122 C 
HETATM   17  C17 UNL     1      91.665 117.373 125.797  1.00  0.00     0.066 C 
HETATM   18  C18 UNL     1      92.192 116.881 127.100  1.00  0.00     0.203 C 
ATOM     19  H22 UNL     1      93.516 115.456 127.869  1.00  0.00     0.278 HD
ATOM     20  H21 UNL     1      93.796 115.724 126.415  1.00  0.00     0.278 HD
BRANCH  16  21
HETATM   21  O3  UNL     1      90.921 116.648 123.694  1.00  0.00    -0.395 OA
ATOM     22  H3  UNL     1      90.140 116.292 123.288  1.00  0.00     0.210 HD
ENDBRANCH  16  21
ENDBRANCH  10  11
ENDBRANCH   9  10
BRANCH   8  23
HETATM   23  O2  UNL     1      91.533 115.154 132.014  1.00  0.00    -0.356 OA
ATOM     24  H2  UNL     1      92.015 114.819 132.762  1.00  0.00     0.218 HD
ENDBRANCH   8  23
BRANCH   4  25
HETATM   25  N1  UNL     1      88.207 119.727 132.537  1.00  0.00    -0.369 N 
HETATM   26  C5  UNL     1      87.970 120.223 133.709  1.00  0.00     0.061 C 
ATOM     27  H1  UNL     1      87.773 120.156 131.720  1.00  0.00     0.165 HD
BRANCH  26  28
HETATM   28  C6  UNL     1      87.085 121.399 133.898  1.00  0.00     0.040 C 
HETATM   29  C7  UNL     1      86.504 121.301 135.309  1.00  0.00     0.010 C 
ENDBRANCH  26  28
ENDBRANCH   4  25
TORSDOF 6
ENDMDL
MODEL 5
REMARK VINA RESULT: -8.048749855      2.177      2.831
REMARK  6 active torsions:
REMARK  status: ('A' for Active; 'I' for Inactive)
REMARK    1  A    between atoms: C4_4  and  N1_5 
REMARK    2  A    between atoms: C5_7  and  C6_8 
REMARK    3  A    between atoms: C10_13  and  O2_14 
REMARK    4  A    between atoms: C11_16  and  S1_17 
REMARK    5  A    between atoms: S1_17  and  C12_18 
REMARK    6  A    between atoms: C16_22  and  O3_23 
ROOT
HETATM    1  C1  UNL     1      88.947 118.167 134.120  1.00  0.00     0.037 C 
HETATM    2  C2  UNL     1      89.511 118.139 132.773  1.00  0.00    -0.016 C 
HETATM    3  C3  UNL     1      89.228 118.974 131.818  1.00  0.00     0.006 A 
HETATM    4  C4  UNL     1      88.274 120.048 132.048  1.00  0.00     0.047 A 
HETATM    5  C8  UNL     1      87.907 120.922 131.115  1.00  0.00     0.088 A 
HETATM    6  C9  UNL     1      88.503 120.778 129.806  1.00  0.00     0.208 A 
HETATM    7  O1  UNL     1      88.195 121.585 128.852  1.00  0.00    -0.285 OA
HETATM    8  C10 UNL     1      89.450 119.753 129.490  1.00  0.00     0.134 A 
HETATM    9  C11 UNL     1      89.819 118.859 130.467  1.00  0.00     0.050 A 
ENDROOT
BRANCH   9  10
HETATM   10  S1  UNL     1      91.023 117.735 130.013  1.00  0.00    -0.119 SA
BRANCH  10  11
HETATM   11  C12 UNL     1      90.865 116.098 129.534  1.00  0.00     0.085 C 
HETATM   12  C13 UNL     1      90.414 115.118 130.604  1.00  0.00     0.050 C 
HETATM   13  C14 UNL     1      91.593 114.323 131.044  1.00  0.00     0.190 C 
HETATM   14  C15 UNL     1      91.732 113.017 130.286  1.00  0.00     0.064 C 
HETATM   15  N2  UNL     1      92.713 115.146 130.652  1.00  0.00    -0.065 N 
HETATM   16  C16 UNL     1      91.539 113.250 128.800  1.00  0.00     0.122 C 
HETATM   17  C17 UNL     1      92.297 114.438 128.317  1.00  0.00     0.066 C 
HETATM   18  C18 UNL     1      92.319 115.537 129.322  1.00  0.00     0.203 C 
ATOM     19  H22 UNL     1      92.936 115.913 131.286  1.00  0.00     0.278 HD
ATOM     20  H21 UNL     1      93.629 114.701 130.725  1.00  0.00     0.278 HD
BRANCH  16  21
HETATM   21  O3  UNL     1      91.912 112.136 128.080  1.00  0.00    -0.395 OA
ATOM     22  H3  UNL     1      91.161 111.748 127.648  1.00  0.00     0.210 HD
ENDBRANCH  16  21
ENDBRANCH  10  11
ENDBRANCH   9  10
BRANCH   8  23
HETATM   23  O2  UNL     1      90.018 119.632 128.203  1.00  0.00    -0.356 OA
ATOM     24  H2  UNL     1      89.516 119.320 127.459  1.00  0.00     0.218 HD
ENDBRANCH   8  23
BRANCH   4  25
HETATM   25  N1  UNL     1      87.644 120.250 133.324  1.00  0.00    -0.369 N 
HETATM   26  C5  UNL     1      87.161 121.399 133.676  1.00  0.00     0.061 C 
ATOM     27  H1  UNL     1      87.577 119.465 133.972  1.00  0.00     0.165 HD
BRANCH  26  28
HETATM   28  C6  UNL     1      86.512 121.606 134.995  1.00  0.00     0.040 C 
HETATM   29  C7  UNL     1      86.970 120.464 135.904  1.00  0.00     0.010 C 
ENDBRANCH  26  28
ENDBRANCH   4  25
TORSDOF 6
ENDMDL
