MODEL 1
REMARK VINA RESULT: -7.607810133      0.000      0.000
REMARK  18 active torsions:
REMARK  status: ('A' for Active; 'I' for Inactive)
REMARK    1  A    between atoms: N1_2  and  C2_3 
REMARK    2  A    between atoms: N1_2  and  C23_43 
REMARK    3  A    between atoms: C2_3  and  C3_4 
REMARK    4  A    between atoms: C3_4  and  O1_5 
REMARK    5  A    between atoms: O1_5  and  C4_6 
REMARK    6  A    between atoms: C4_6  and  C5_7 
REMARK    7  A    between atoms: C5_7  and  N2_8 
REMARK    8  A    between atoms: N2_8  and  C6_9 
REMARK    9  A    between atoms: N2_8  and  C19_35 
REMARK   10  A    between atoms: C6_9  and  C7_10 
REMARK   11  A    between atoms: C7_10  and  N3_11 
REMARK   12  A    between atoms: C13_21  and  N6_22 
REMARK   13  A    between atoms: C23_43  and  O3_44 
REMARK   14  A    between atoms: C23_43  and  C24_46 
REMARK   15  A    between atoms: C24_46  and  O4_47 
REMARK   16  A    between atoms: O4_47  and  C25_48 
REMARK   17  A    between atoms: C25_48  and  C26_49 
REMARK   18  A    between atoms: C26_49  and  O5_50 
ROOT
HETATM    1  N3  UNL     1       8.288   4.413  76.995  1.00  0.00    -0.375 N 
ATOM      2  H3  UNL     1       8.668   5.150  76.401  1.00  0.00     0.161 HD
HETATM    3  C8  UNL     1       8.532   3.193  76.697  1.00  0.00     0.104 A 
HETATM    4  C9  UNL     1       9.318   3.023  75.549  1.00  0.00     0.073 A 
HETATM    5  C10 UNL     1       9.609   1.736  75.172  1.00  0.00     0.079 A 
HETATM    6  C11 UNL     1      10.407   1.444  74.013  1.00  0.00     0.102 C 
HETATM    7  N4  UNL     1      11.067   1.217  73.088  1.00  0.00    -0.191 NA
HETATM    8  C12 UNL     1       9.132   0.664  75.918  1.00  0.00     0.115 A 
HETATM    9  N5  UNL     1       9.399  -0.610  75.570  1.00  0.00    -0.185 N 
ATOM     10  H5  UNL     1       9.969  -0.773  74.740  1.00  0.00     0.184 HD
HETATM   11  C13 UNL     1       8.958  -1.679  76.254  1.00  0.00     0.695 A 
HETATM   12  N7  UNL     1       8.220  -1.448  77.331  1.00  0.00    -0.130 N 
ATOM     13  H7  UNL     1       7.873  -2.243  77.868  1.00  0.00     0.205 HD
HETATM   14  N8  UNL     1       7.913  -0.208  77.739  1.00  0.00    -0.269 N 
ATOM     15  H8  UNL     1       7.342  -0.073  78.574  1.00  0.00     0.189 HD
HETATM   16  C18 UNL     1       8.359   0.864  77.046  1.00  0.00     0.151 A 
HETATM   17  N9  UNL     1       8.084   2.140  77.398  1.00  0.00    -0.326 N 
ATOM     18  H9  UNL     1       7.516   2.308  78.228  1.00  0.00     0.169 HD
ENDROOT
BRANCH   1  19
HETATM   19  C7  UNL     1       7.502   4.778  78.129  1.00  0.00     0.141 C 
BRANCH  19  20
HETATM   20  C6  UNL     1       7.930   6.170  78.620  1.00  0.00     0.143 C 
BRANCH  20  21
HETATM   21  N2  UNL     1       7.070   6.641  79.670  1.00  0.00    -0.375 N 
BRANCH  21  22
HETATM   22  C5  UNL     1       5.625   6.408  79.561  1.00  0.00     0.149 C 
BRANCH  22  23
HETATM   23  C4  UNL     1       5.149   5.510  80.659  1.00  0.00     0.187 C 
BRANCH  23  24
HETATM   24  O1  UNL     1       3.802   5.294  80.597  1.00  0.00    -0.388 OA
BRANCH  24  25
HETATM   25  C3  UNL     1       3.045   6.346  80.103  1.00  0.00     0.187 C 
BRANCH  25  26
HETATM   26  C2  UNL     1       1.763   6.409  80.907  1.00  0.00     0.150 C 
BRANCH  26  27
HETATM   27  N1  UNL     1       1.953   6.896  82.228  1.00  0.00    -0.366 N 
HETATM   28  C1  UNL     1       2.079   8.378  82.423  1.00  0.00     0.151 C 
BRANCH  27  29
HETATM   29  C23 UNL     1       2.034   6.124  83.365  1.00  0.00     0.137 C 
BRANCH  29  30
HETATM   30  O3  UNL     1       3.217   5.701  83.709  1.00  0.00    -0.348 OA
ATOM     31  H3  UNL     1       3.276   4.817  84.050  1.00  0.00     0.219 HD
ENDBRANCH  29  30
BRANCH  29  32
HETATM   32  C24 UNL     1       0.950   5.717  84.240  1.00  0.00     0.251 C 
BRANCH  32  33
HETATM   33  O4  UNL     1       1.159   4.726  85.148  1.00  0.00    -0.381 OA
BRANCH  33  34
HETATM   34  C25 UNL     1      -0.077   4.220  85.592  1.00  0.00     0.194 C 
BRANCH  34  35
HETATM   35  C26 UNL     1      -0.240   2.776  85.265  1.00  0.00     0.190 C 
BRANCH  35  36
HETATM   36  O5  UNL     1       0.837   2.015  85.639  1.00  0.00    -0.399 OA
ATOM     37  H5  UNL     1       0.855   1.825  86.569  1.00  0.00     0.209 HD
ENDBRANCH  35  36
ENDBRANCH  34  35
ENDBRANCH  33  34
ENDBRANCH  32  33
ENDBRANCH  29  32
ENDBRANCH  27  29
ENDBRANCH  26  27
ENDBRANCH  25  26
ENDBRANCH  24  25
ENDBRANCH  23  24
ENDBRANCH  22  23
ENDBRANCH  21  22
BRANCH  21  38
HETATM   38  C19 UNL     1       7.595   7.317  80.787  1.00  0.00     0.061 A 
HETATM   39  C20 UNL     1       8.569   6.647  81.537  1.00  0.00     0.119 A 
HETATM   40  N10 UNL     1       9.075   7.268  82.592  1.00  0.00    -0.360 N 
HETATM   41  C21 UNL     1       8.670   8.515  82.946  1.00  0.00     0.180 A 
ATOM     42  H10 UNL     1       9.786   6.799  83.153  1.00  0.00     0.166 HD
HETATM   43  N11 UNL     1       7.720   9.160  82.208  1.00  0.00    -0.360 N 
HETATM   44  C22 UNL     1       7.177   8.579  81.133  1.00  0.00     0.119 A 
ATOM     45  H11 UNL     1       7.421  10.096  82.478  1.00  0.00     0.166 HD
ENDBRANCH  21  38
ENDBRANCH  20  21
ENDBRANCH  19  20
ENDBRANCH   1  19
BRANCH  11  46
HETATM   46  N6  UNL     1       9.306  -2.981  75.775  1.00  0.00    -0.212 N 
HETATM   47  C14 UNL     1       9.918  -3.151  74.470  1.00  0.00     0.167 C 
HETATM   48  C15 UNL     1      11.128  -4.022  74.624  1.00  0.00     0.188 C 
HETATM   49  O2  UNL     1      10.788  -5.213  75.264  1.00  0.00    -0.388 OA
HETATM   50  C16 UNL     1      10.323  -5.008  76.545  1.00  0.00     0.188 C 
HETATM   51  C17 UNL     1       9.066  -4.179  76.556  1.00  0.00     0.167 C 
ENDBRANCH  11  46
TORSDOF 18
ENDMDL
MODEL 2
REMARK VINA RESULT: -7.601872523      1.442      1.716
REMARK  18 active torsions:
REMARK  status: ('A' for Active; 'I' for Inactive)
REMARK    1  A    between atoms: N1_2  and  C2_3 
REMARK    2  A    between atoms: N1_2  and  C23_43 
REMARK    3  A    between atoms: C2_3  and  C3_4 
REMARK    4  A    between atoms: C3_4  and  O1_5 
REMARK    5  A    between atoms: O1_5  and  C4_6 
REMARK    6  A    between atoms: C4_6  and  C5_7 
REMARK    7  A    between atoms: C5_7  and  N2_8 
REMARK    8  A    between atoms: N2_8  and  C6_9 
REMARK    9  A    between atoms: N2_8  and  C19_35 
REMARK   10  A    between atoms: C6_9  and  C7_10 
REMARK   11  A    between atoms: C7_10  and  N3_11 
REMARK   12  A    between atoms: C13_21  and  N6_22 
REMARK   13  A    between atoms: C23_43  and  O3_44 
REMARK   14  A    between atoms: C23_43  and  C24_46 
REMARK   15  A    between atoms: C24_46  and  O4_47 
REMARK   16  A    between atoms: O4_47  and  C25_48 
REMARK   17  A    between atoms: C25_48  and  C26_49 
REMARK   18  A    between atoms: C26_49  and  O5_50 
ROOT
HETATM    1  N3  UNL     1       7.998   3.944  76.660  1.00  0.00    -0.375 N 
ATOM      2  H3  UNL     1       8.349   4.674  76.040  1.00  0.00     0.161 HD
HETATM    3  C8  UNL     1       8.321   2.729  76.427  1.00  0.00     0.104 A 
HETATM    4  C9  UNL     1       9.145   2.552  75.307  1.00  0.00     0.073 A 
HETATM    5  C10 UNL     1       9.520   1.269  75.000  1.00  0.00     0.079 A 
HETATM    6  C11 UNL     1      10.363   0.970  73.875  1.00  0.00     0.102 C 
HETATM    7  N4  UNL     1      11.058   0.740  72.977  1.00  0.00    -0.191 NA
HETATM    8  C12 UNL     1       9.088   0.206  75.786  1.00  0.00     0.115 A 
HETATM    9  N5  UNL     1       9.439  -1.065  75.506  1.00  0.00    -0.185 N 
ATOM     10  H5  UNL     1      10.038  -1.232  74.698  1.00  0.00     0.184 HD
HETATM   11  C13 UNL     1       9.043  -2.124  76.232  1.00  0.00     0.695 A 
HETATM   12  N7  UNL     1       8.266  -1.888  77.279  1.00  0.00    -0.130 N 
ATOM     13  H7  UNL     1       7.953  -2.676  77.846  1.00  0.00     0.205 HD
HETATM   14  N8  UNL     1       7.877  -0.650  77.619  1.00  0.00    -0.269 N 
ATOM     15  H8  UNL     1       7.278  -0.511  78.434  1.00  0.00     0.189 HD
HETATM   16  C18 UNL     1       8.276   0.412  76.885  1.00  0.00     0.151 A 
HETATM   17  N9  UNL     1       7.918   1.685  77.168  1.00  0.00    -0.326 N 
ATOM     18  H9  UNL     1       7.320   1.858  77.976  1.00  0.00     0.169 HD
ENDROOT
BRANCH   1  19
HETATM   19  C7  UNL     1       7.164   4.315  77.757  1.00  0.00     0.141 C 
BRANCH  19  20
HETATM   20  C6  UNL     1       7.345   5.812  78.053  1.00  0.00     0.143 C 
BRANCH  20  21
HETATM   21  N2  UNL     1       7.398   6.061  79.467  1.00  0.00    -0.375 N 
BRANCH  21  22
HETATM   22  C5  UNL     1       6.197   5.823  80.275  1.00  0.00     0.149 C 
BRANCH  22  23
HETATM   23  C4  UNL     1       5.025   6.566  79.715  1.00  0.00     0.187 C 
BRANCH  23  24
HETATM   24  O1  UNL     1       3.942   5.754  79.534  1.00  0.00    -0.388 OA
BRANCH  24  25
HETATM   25  C3  UNL     1       2.741   6.230  80.040  1.00  0.00     0.187 C 
BRANCH  25  26
HETATM   26  C2  UNL     1       2.411   5.422  81.278  1.00  0.00     0.150 C 
BRANCH  26  27
HETATM   27  N1  UNL     1       1.021   5.381  81.567  1.00  0.00    -0.366 N 
HETATM   28  C1  UNL     1       0.401   6.578  82.226  1.00  0.00     0.151 C 
BRANCH  27  29
HETATM   29  C23 UNL     1       0.175   4.330  81.296  1.00  0.00     0.137 C 
BRANCH  29  30
HETATM   30  O3  UNL     1      -0.479   4.371  80.171  1.00  0.00    -0.348 OA
ATOM     31  H3  UNL     1      -1.396   4.126  80.196  1.00  0.00     0.219 HD
ENDBRANCH  29  30
BRANCH  29  32
HETATM   32  C24 UNL     1      -0.083   3.164  82.122  1.00  0.00     0.251 C 
BRANCH  32  33
HETATM   33  O4  UNL     1       0.477   3.083  83.359  1.00  0.00    -0.381 OA
BRANCH  33  34
HETATM   34  C25 UNL     1      -0.419   3.590  84.320  1.00  0.00     0.194 C 
BRANCH  34  35
HETATM   35  C26 UNL     1       0.007   3.264  85.709  1.00  0.00     0.190 C 
BRANCH  35  36
HETATM   36  O5  UNL     1       0.866   2.198  85.773  1.00  0.00    -0.399 OA
ATOM     37  H5  UNL     1       1.299   2.116  86.614  1.00  0.00     0.209 HD
ENDBRANCH  35  36
ENDBRANCH  34  35
ENDBRANCH  33  34
ENDBRANCH  32  33
ENDBRANCH  29  32
ENDBRANCH  27  29
ENDBRANCH  26  27
ENDBRANCH  25  26
ENDBRANCH  24  25
ENDBRANCH  23  24
ENDBRANCH  22  23
ENDBRANCH  21  22
BRANCH  21  38
HETATM   38  C19 UNL     1       8.578   6.528  80.075  1.00  0.00     0.061 A 
HETATM   39  C20 UNL     1       9.731   6.571  79.282  1.00  0.00     0.119 A 
HETATM   40  N10 UNL     1      10.851   7.009  79.838  1.00  0.00    -0.360 N 
HETATM   41  C21 UNL     1      10.893   7.405  81.136  1.00  0.00     0.180 A 
ATOM     42  H10 UNL     1      11.702   7.048  79.278  1.00  0.00     0.166 HD
HETATM   43  N11 UNL     1       9.764   7.360  81.901  1.00  0.00    -0.360 N 
HETATM   44  C22 UNL     1       8.607   6.928  81.390  1.00  0.00     0.119 A 
ATOM     45  H11 UNL     1       9.803   7.660  82.875  1.00  0.00     0.166 HD
ENDBRANCH  21  38
ENDBRANCH  20  21
ENDBRANCH  19  20
ENDBRANCH   1  19
BRANCH  11  46
HETATM   46  N6  UNL     1       9.480  -3.425  75.824  1.00  0.00    -0.212 N 
HETATM   47  C14 UNL     1      10.171  -3.612  74.562  1.00  0.00     0.167 C 
HETATM   48  C15 UNL     1      11.411  -4.416  74.816  1.00  0.00     0.188 C 
HETATM   49  O2  UNL     1      11.092  -5.598  75.484  1.00  0.00    -0.388 OA
HETATM   50  C16 UNL     1      10.546  -5.368  76.729  1.00  0.00     0.188 C 
HETATM   51  C17 UNL     1       9.253  -4.603  76.638  1.00  0.00     0.167 C 
ENDBRANCH  11  46
TORSDOF 18
ENDMDL
MODEL 3
REMARK VINA RESULT: -7.392554359      8.153     12.378
REMARK  18 active torsions:
REMARK  status: ('A' for Active; 'I' for Inactive)
REMARK    1  A    between atoms: N1_2  and  C2_3 
REMARK    2  A    between atoms: N1_2  and  C23_43 
REMARK    3  A    between atoms: C2_3  and  C3_4 
REMARK    4  A    between atoms: C3_4  and  O1_5 
REMARK    5  A    between atoms: O1_5  and  C4_6 
REMARK    6  A    between atoms: C4_6  and  C5_7 
REMARK    7  A    between atoms: C5_7  and  N2_8 
REMARK    8  A    between atoms: N2_8  and  C6_9 
REMARK    9  A    between atoms: N2_8  and  C19_35 
REMARK   10  A    between atoms: C6_9  and  C7_10 
REMARK   11  A    between atoms: C7_10  and  N3_11 
REMARK   12  A    between atoms: C13_21  and  N6_22 
REMARK   13  A    between atoms: C23_43  and  O3_44 
REMARK   14  A    between atoms: C23_43  and  C24_46 
REMARK   15  A    between atoms: C24_46  and  O4_47 
REMARK   16  A    between atoms: O4_47  and  C25_48 
REMARK   17  A    between atoms: C25_48  and  C26_49 
REMARK   18  A    between atoms: C26_49  and  O5_50 
ROOT
HETATM    1  N3  UNL     1      -0.981   9.447  82.288  1.00  0.00    -0.375 N 
ATOM      2  H3  UNL     1      -0.489  10.151  82.839  1.00  0.00     0.161 HD
HETATM    3  C8  UNL     1      -1.312   9.726  81.085  1.00  0.00     0.104 A 
HETATM    4  C9  UNL     1      -0.943  11.010  80.664  1.00  0.00     0.073 A 
HETATM    5  C10 UNL     1      -1.277  11.371  79.383  1.00  0.00     0.079 A 
HETATM    6  C11 UNL     1      -0.948  12.663  78.846  1.00  0.00     0.102 C 
HETATM    7  N4  UNL     1      -0.662  13.700  78.414  1.00  0.00    -0.191 NA
HETATM    8  C12 UNL     1      -1.954  10.479  78.559  1.00  0.00     0.115 A 
HETATM    9  N5  UNL     1      -2.297  10.808  77.297  1.00  0.00    -0.185 N 
ATOM     10  H5  UNL     1      -2.044  11.735  76.956  1.00  0.00     0.184 HD
HETATM   11  C13 UNL     1      -2.953   9.984  76.464  1.00  0.00     0.695 A 
HETATM   12  N7  UNL     1      -3.273   8.782  76.924  1.00  0.00    -0.130 N 
ATOM     13  H7  UNL     1      -3.771   8.138  76.311  1.00  0.00     0.205 HD
HETATM   14  N8  UNL     1      -2.964   8.384  78.167  1.00  0.00    -0.269 N 
ATOM     15  H8  UNL     1      -3.227   7.450  78.483  1.00  0.00     0.189 HD
HETATM   16  C18 UNL     1      -2.304   9.218  79.002  1.00  0.00     0.151 A 
HETATM   17  N9  UNL     1      -1.965   8.884  80.267  1.00  0.00    -0.326 N 
ATOM     18  H9  UNL     1      -2.214   7.957  80.614  1.00  0.00     0.169 HD
ENDROOT
BRANCH   1  19
HETATM   19  C7  UNL     1      -1.276   8.186  82.890  1.00  0.00     0.141 C 
BRANCH  19  20
HETATM   20  C6  UNL     1      -0.550   8.082  84.240  1.00  0.00     0.143 C 
BRANCH  20  21
HETATM   21  N2  UNL     1       0.315   6.936  84.279  1.00  0.00    -0.375 N 
BRANCH  21  22
HETATM   22  C5  UNL     1       1.656   7.039  83.691  1.00  0.00     0.149 C 
BRANCH  22  23
HETATM   23  C4  UNL     1       2.111   8.463  83.654  1.00  0.00     0.187 C 
BRANCH  23  24
HETATM   24  O1  UNL     1       2.149   8.957  82.382  1.00  0.00    -0.388 OA
BRANCH  24  25
HETATM   25  C3  UNL     1       2.626   8.088  81.412  1.00  0.00     0.187 C 
BRANCH  25  26
HETATM   26  C2  UNL     1       1.769   8.262  80.175  1.00  0.00     0.150 C 
BRANCH  26  27
HETATM   27  N1  UNL     1       1.469   7.036  79.523  1.00  0.00    -0.366 N 
HETATM   28  C1  UNL     1       2.315   6.634  78.352  1.00  0.00     0.151 C 
BRANCH  27  29
HETATM   29  C23 UNL     1       0.457   6.169  79.869  1.00  0.00     0.137 C 
BRANCH  29  30
HETATM   30  O3  UNL     1      -0.688   6.327  79.269  1.00  0.00    -0.348 OA
ATOM     31  H3  UNL     1      -1.470   6.199  79.792  1.00  0.00     0.219 HD
ENDBRANCH  29  30
BRANCH  29  32
HETATM   32  C24 UNL     1       0.510   5.085  80.833  1.00  0.00     0.251 C 
BRANCH  32  33
HETATM   33  O4  UNL     1      -0.434   4.106  80.791  1.00  0.00    -0.381 OA
BRANCH  33  34
HETATM   34  C25 UNL     1      -0.503   3.460  82.040  1.00  0.00     0.194 C 
BRANCH  34  35
HETATM   35  C26 UNL     1       0.217   2.157  82.035  1.00  0.00     0.190 C 
BRANCH  35  36
HETATM   36  O5  UNL     1       0.255   1.558  83.267  1.00  0.00    -0.399 OA
ATOM     37  H5  UNL     1       1.111   1.210  83.487  1.00  0.00     0.209 HD
ENDBRANCH  35  36
ENDBRANCH  34  35
ENDBRANCH  33  34
ENDBRANCH  32  33
ENDBRANCH  29  32
ENDBRANCH  27  29
ENDBRANCH  26  27
ENDBRANCH  25  26
ENDBRANCH  24  25
ENDBRANCH  23  24
ENDBRANCH  22  23
ENDBRANCH  21  22
BRANCH  21  38
HETATM   38  C19 UNL     1      -0.107   5.730  84.867  1.00  0.00     0.061 A 
HETATM   39  C20 UNL     1       0.866   4.744  85.071  1.00  0.00     0.119 A 
HETATM   40  N10 UNL     1       0.486   3.602  85.624  1.00  0.00    -0.360 N 
HETATM   41  C21 UNL     1      -0.804   3.381  85.987  1.00  0.00     0.180 A 
ATOM     42  H10 UNL     1       1.179   2.870  85.781  1.00  0.00     0.166 HD
HETATM   43  N11 UNL     1      -1.745   4.349  85.786  1.00  0.00    -0.360 N 
HETATM   44  C22 UNL     1      -1.416   5.519  85.231  1.00  0.00     0.119 A 
ATOM     45  H11 UNL     1      -2.712   4.176  86.061  1.00  0.00     0.166 HD
ENDBRANCH  21  38
ENDBRANCH  20  21
ENDBRANCH  19  20
ENDBRANCH   1  19
BRANCH  11  46
HETATM   46  N6  UNL     1      -3.266  10.457  75.150  1.00  0.00    -0.212 N 
HETATM   47  C14 UNL     1      -3.675  11.833  74.937  1.00  0.00     0.167 C 
HETATM   48  C15 UNL     1      -2.856  12.402  73.818  1.00  0.00     0.188 C 
HETATM   49  O2  UNL     1      -2.947  11.588  72.690  1.00  0.00    -0.388 OA
HETATM   50  C16 UNL     1      -2.436  10.327  72.908  1.00  0.00     0.188 C 
HETATM   51  C17 UNL     1      -3.195   9.598  73.985  1.00  0.00     0.167 C 
ENDBRANCH  11  46
TORSDOF 18
ENDMDL
MODEL 4
REMARK VINA RESULT: -7.301351353      4.308      9.858
REMARK  18 active torsions:
REMARK  status: ('A' for Active; 'I' for Inactive)
REMARK    1  A    between atoms: N1_2  and  C2_3 
REMARK    2  A    between atoms: N1_2  and  C23_43 
REMARK    3  A    between atoms: C2_3  and  C3_4 
REMARK    4  A    between atoms: C3_4  and  O1_5 
REMARK    5  A    between atoms: O1_5  and  C4_6 
REMARK    6  A    between atoms: C4_6  and  C5_7 
REMARK    7  A    between atoms: C5_7  and  N2_8 
REMARK    8  A    between atoms: N2_8  and  C6_9 
REMARK    9  A    between atoms: N2_8  and  C19_35 
REMARK   10  A    between atoms: C6_9  and  C7_10 
REMARK   11  A    between atoms: C7_10  and  N3_11 
REMARK   12  A    between atoms: C13_21  and  N6_22 
REMARK   13  A    between atoms: C23_43  and  O3_44 
REMARK   14  A    between atoms: C23_43  and  C24_46 
REMARK   15  A    between atoms: C24_46  and  O4_47 
REMARK   16  A    between atoms: O4_47  and  C25_48 
REMARK   17  A    between atoms: C25_48  and  C26_49 
REMARK   18  A    between atoms: C26_49  and  O5_50 
ROOT
HETATM    1  N3  UNL     1       5.097   7.210  79.933  1.00  0.00    -0.375 N 
ATOM      2  H3  UNL     1       5.010   7.290  78.919  1.00  0.00     0.161 HD
HETATM    3  C8  UNL     1       4.116   6.732  80.600  1.00  0.00     0.104 A 
HETATM    4  C9  UNL     1       3.007   6.368  79.824  1.00  0.00     0.073 A 
HETATM    5  C10 UNL     1       1.920   5.855  80.483  1.00  0.00     0.079 A 
HETATM    6  C11 UNL     1       0.729   5.448  79.788  1.00  0.00     0.102 C 
HETATM    7  N4  UNL     1      -0.219   5.106  79.218  1.00  0.00    -0.191 NA
HETATM    8  C12 UNL     1       1.943   5.712  81.866  1.00  0.00     0.115 A 
HETATM    9  N5  UNL     1       0.888   5.214  82.541  1.00  0.00    -0.185 N 
ATOM     10  H5  UNL     1       0.064   4.938  82.008  1.00  0.00     0.184 HD
HETATM   11  C13 UNL     1       0.861   5.061  83.875  1.00  0.00     0.695 A 
HETATM   12  N7  UNL     1       1.942   5.424  84.551  1.00  0.00    -0.130 N 
ATOM     13  H7  UNL     1       1.947   5.317  85.565  1.00  0.00     0.205 HD
HETATM   14  N8  UNL     1       3.030   5.926  83.948  1.00  0.00    -0.269 N 
ATOM     15  H8  UNL     1       3.843   6.193  84.505  1.00  0.00     0.189 HD
HETATM   16  C18 UNL     1       3.052   6.080  82.605  1.00  0.00     0.151 A 
HETATM   17  N9  UNL     1       4.112   6.583  81.935  1.00  0.00    -0.326 N 
ATOM     18  H9  UNL     1       4.940   6.860  82.462  1.00  0.00     0.169 HD
ENDROOT
BRANCH   1  19
HETATM   19  C7  UNL     1       6.308   7.636  80.555  1.00  0.00     0.141 C 
BRANCH  19  20
HETATM   20  C6  UNL     1       7.381   6.549  80.382  1.00  0.00     0.143 C 
BRANCH  20  21
HETATM   21  N2  UNL     1       7.961   6.593  79.069  1.00  0.00    -0.375 N 
BRANCH  21  22
HETATM   22  C5  UNL     1       8.109   7.891  78.401  1.00  0.00     0.149 C 
BRANCH  22  23
HETATM   23  C4  UNL     1       7.542   7.843  77.018  1.00  0.00     0.187 C 
BRANCH  23  24
HETATM   24  O1  UNL     1       6.192   7.636  77.023  1.00  0.00    -0.388 OA
BRANCH  24  25
HETATM   25  C3  UNL     1       5.701   6.841  75.997  1.00  0.00     0.187 C 
BRANCH  25  26
HETATM   26  C2  UNL     1       4.405   6.220  76.476  1.00  0.00     0.150 C 
BRANCH  26  27
HETATM   27  N1  UNL     1       3.256   6.755  75.835  1.00  0.00    -0.366 N 
HETATM   28  C1  UNL     1       3.390   7.217  74.415  1.00  0.00     0.151 C 
BRANCH  27  29
HETATM   29  C23 UNL     1       2.010   6.894  76.404  1.00  0.00     0.137 C 
BRANCH  29  30
HETATM   30  O3  UNL     1       1.274   5.823  76.484  1.00  0.00    -0.348 OA
ATOM     31  H3  UNL     1       0.379   5.891  76.174  1.00  0.00     0.219 HD
ENDBRANCH  29  30
BRANCH  29  32
HETATM   32  C24 UNL     1       1.407   8.103  76.934  1.00  0.00     0.251 C 
BRANCH  32  33
HETATM   33  O4  UNL     1       0.167   8.044  77.491  1.00  0.00    -0.381 OA
BRANCH  33  34
HETATM   34  C25 UNL     1       0.086   8.946  78.568  1.00  0.00     0.194 C 
BRANCH  34  35
HETATM   35  C26 UNL     1      -1.148   8.744  79.376  1.00  0.00     0.190 C 
BRANCH  35  36
HETATM   36  O5  UNL     1      -1.896   7.675  78.958  1.00  0.00    -0.399 OA
ATOM     37  H5  UNL     1      -2.517   7.376  79.611  1.00  0.00     0.209 HD
ENDBRANCH  35  36
ENDBRANCH  34  35
ENDBRANCH  33  34
ENDBRANCH  32  33
ENDBRANCH  29  32
ENDBRANCH  27  29
ENDBRANCH  26  27
ENDBRANCH  25  26
ENDBRANCH  24  25
ENDBRANCH  23  24
ENDBRANCH  22  23
ENDBRANCH  21  22
BRANCH  21  38
HETATM   38  C19 UNL     1       8.383   5.415  78.425  1.00  0.00     0.061 A 
HETATM   39  C20 UNL     1       9.754   5.282  78.172  1.00  0.00     0.119 A 
HETATM   40  N10 UNL     1      10.169   4.179  77.567  1.00  0.00    -0.360 N 
HETATM   41  C21 UNL     1       9.302   3.201  77.197  1.00  0.00     0.180 A 
ATOM     42  H10 UNL     1      11.163   4.062  77.373  1.00  0.00     0.166 HD
HETATM   43  N11 UNL     1       7.968   3.340  77.448  1.00  0.00    -0.360 N 
HETATM   44  C22 UNL     1       7.496   4.433  78.056  1.00  0.00     0.119 A 
ATOM     45  H11 UNL     1       7.323   2.601  77.168  1.00  0.00     0.166 HD
ENDBRANCH  21  38
ENDBRANCH  20  21
ENDBRANCH  19  20
ENDBRANCH   1  19
BRANCH  11  46
HETATM   46  N6  UNL     1      -0.325   4.527  84.472  1.00  0.00    -0.212 N 
HETATM   47  C14 UNL     1      -0.427   3.112  84.779  1.00  0.00     0.167 C 
HETATM   48  C15 UNL     1      -0.901   2.968  86.194  1.00  0.00     0.188 C 
HETATM   49  O2  UNL     1      -2.078   3.689  86.386  1.00  0.00    -0.388 OA
HETATM   50  C16 UNL     1      -1.902   5.043  86.198  1.00  0.00     0.188 C 
HETATM   51  C17 UNL     1      -1.469   5.359  84.791  1.00  0.00     0.167 C 
ENDBRANCH  11  46
TORSDOF 18
ENDMDL
MODEL 5
REMARK VINA RESULT: -7.297524091      2.042      3.155
REMARK  18 active torsions:
REMARK  status: ('A' for Active; 'I' for Inactive)
REMARK    1  A    between atoms: N1_2  and  C2_3 
REMARK    2  A    between atoms: N1_2  and  C23_43 
REMARK    3  A    between atoms: C2_3  and  C3_4 
REMARK    4  A    between atoms: C3_4  and  O1_5 
REMARK    5  A    between atoms: O1_5  and  C4_6 
REMARK    6  A    between atoms: C4_6  and  C5_7 
REMARK    7  A    between atoms: C5_7  and  N2_8 
REMARK    8  A    between atoms: N2_8  and  C6_9 
REMARK    9  A    between atoms: N2_8  and  C19_35 
REMARK   10  A    between atoms: C6_9  and  C7_10 
REMARK   11  A    between atoms: C7_10  and  N3_11 
REMARK   12  A    between atoms: C13_21  and  N6_22 
REMARK   13  A    between atoms: C23_43  and  O3_44 
REMARK   14  A    between atoms: C23_43  and  C24_46 
REMARK   15  A    between atoms: C24_46  and  O4_47 
REMARK   16  A    between atoms: O4_47  and  C25_48 
REMARK   17  A    between atoms: C25_48  and  C26_49 
REMARK   18  A    between atoms: C26_49  and  O5_50 
ROOT
HETATM    1  N3  UNL     1       7.858   3.657  76.537  1.00  0.00    -0.375 N 
ATOM      2  H3  UNL     1       8.208   4.397  75.929  1.00  0.00     0.161 HD
HETATM    3  C8  UNL     1       8.216   2.450  76.310  1.00  0.00     0.104 A 
HETATM    4  C9  UNL     1       9.074   2.296  75.212  1.00  0.00     0.073 A 
HETATM    5  C10 UNL     1       9.487   1.023  74.912  1.00  0.00     0.079 A 
HETATM    6  C11 UNL     1      10.368   0.748  73.810  1.00  0.00     0.102 C 
HETATM    7  N4  UNL     1      11.093   0.537  72.931  1.00  0.00    -0.191 NA
HETATM    8  C12 UNL     1       9.058  -0.052  75.683  1.00  0.00     0.115 A 
HETATM    9  N5  UNL     1       9.447  -1.313  75.410  1.00  0.00    -0.185 N 
ATOM     10  H5  UNL     1      10.072  -1.463  74.619  1.00  0.00     0.184 HD
HETATM   11  C13 UNL     1       9.057  -2.384  76.122  1.00  0.00     0.695 A 
HETATM   12  N7  UNL     1       8.246  -2.169  77.148  1.00  0.00    -0.130 N 
ATOM     13  H7  UNL     1       7.935  -2.966  77.704  1.00  0.00     0.205 HD
HETATM   14  N8  UNL     1       7.818  -0.942  77.481  1.00  0.00    -0.269 N 
ATOM     15  H8  UNL     1       7.194  -0.819  78.279  1.00  0.00     0.189 HD
HETATM   16  C18 UNL     1       8.213   0.132  76.760  1.00  0.00     0.151 A 
HETATM   17  N9  UNL     1       7.817   1.394  77.037  1.00  0.00    -0.326 N 
ATOM     18  H9  UNL     1       7.193   1.551  77.828  1.00  0.00     0.169 HD
ENDROOT
BRANCH   1  19
HETATM   19  C7  UNL     1       6.985   4.005  77.612  1.00  0.00     0.141 C 
BRANCH  19  20
HETATM   20  C6  UNL     1       7.198   5.480  77.985  1.00  0.00     0.143 C 
BRANCH  20  21
HETATM   21  N2  UNL     1       5.946   6.176  78.098  1.00  0.00    -0.375 N 
BRANCH  21  22
HETATM   22  C5  UNL     1       5.518   6.657  79.417  1.00  0.00     0.149 C 
BRANCH  22  23
HETATM   23  C4  UNL     1       5.360   5.517  80.372  1.00  0.00     0.187 C 
BRANCH  23  24
HETATM   24  O1  UNL     1       4.055   5.134  80.502  1.00  0.00    -0.388 OA
BRANCH  24  25
HETATM   25  C3  UNL     1       3.143   6.161  80.696  1.00  0.00     0.187 C 
BRANCH  25  26
HETATM   26  C2  UNL     1       2.470   5.932  82.033  1.00  0.00     0.150 C 
BRANCH  26  27
HETATM   27  N1  UNL     1       1.053   5.872  81.946  1.00  0.00    -0.366 N 
HETATM   28  C1  UNL     1       0.264   7.039  82.462  1.00  0.00     0.151 C 
BRANCH  27  29
HETATM   29  C23 UNL     1       0.324   4.828  81.425  1.00  0.00     0.137 C 
BRANCH  29  30
HETATM   30  O3  UNL     1      -0.173   4.990  80.232  1.00  0.00    -0.348 OA
ATOM     31  H3  UNL     1      -0.082   4.266  79.625  1.00  0.00     0.219 HD
ENDBRANCH  29  30
BRANCH  29  32
HETATM   32  C24 UNL     1       0.036   3.549  82.049  1.00  0.00     0.251 C 
BRANCH  32  33
HETATM   33  O4  UNL     1       0.551   3.273  83.278  1.00  0.00    -0.381 OA
BRANCH  33  34
HETATM   34  C25 UNL     1      -0.425   3.503  84.265  1.00  0.00     0.194 C 
BRANCH  34  35
HETATM   35  C26 UNL     1       0.123   3.352  85.641  1.00  0.00     0.190 C 
BRANCH  35  36
HETATM   36  O5  UNL     1       0.828   2.190  85.815  1.00  0.00    -0.399 OA
ATOM     37  H5  UNL     1       0.702   1.801  86.672  1.00  0.00     0.209 HD
ENDBRANCH  35  36
ENDBRANCH  34  35
ENDBRANCH  33  34
ENDBRANCH  32  33
ENDBRANCH  29  32
ENDBRANCH  27  29
ENDBRANCH  26  27
ENDBRANCH  25  26
ENDBRANCH  24  25
ENDBRANCH  23  24
ENDBRANCH  22  23
ENDBRANCH  21  22
BRANCH  21  38
HETATM   38  C19 UNL     1       5.136   6.395  76.969  1.00  0.00     0.061 A 
HETATM   39  C20 UNL     1       5.778   6.801  75.792  1.00  0.00     0.119 A 
HETATM   40  N10 UNL     1       5.032   7.011  74.719  1.00  0.00    -0.360 N 
HETATM   41  C21 UNL     1       3.684   6.843  74.745  1.00  0.00     0.180 A 
ATOM     42  H10 UNL     1       5.479   7.308  73.852  1.00  0.00     0.166 HD
HETATM   43  N11 UNL     1       3.068   6.447  75.896  1.00  0.00    -0.360 N 
HETATM   44  C22 UNL     1       3.774   6.220  77.008  1.00  0.00     0.119 A 
ATOM     45  H11 UNL     1       2.056   6.322  75.908  1.00  0.00     0.166 HD
ENDBRANCH  21  38
ENDBRANCH  20  21
ENDBRANCH  19  20
ENDBRANCH   1  19
BRANCH  11  46
HETATM   46  N6  UNL     1       9.534  -3.673  75.723  1.00  0.00    -0.212 N 
HETATM   47  C14 UNL     1      10.202  -3.853  74.447  1.00  0.00     0.167 C 
HETATM   48  C15 UNL     1      11.478  -4.603  74.682  1.00  0.00     0.188 C 
HETATM   49  O2  UNL     1      11.224  -5.786  75.376  1.00  0.00    -0.388 OA
HETATM   50  C16 UNL     1      10.700  -5.558  76.630  1.00  0.00     0.188 C 
HETATM   51  C17 UNL     1       9.375  -4.846  76.560  1.00  0.00     0.167 C 
ENDBRANCH  11  46
TORSDOF 18
ENDMDL
