MODEL 1
REMARK VINA RESULT: -8.405806746      0.000      0.000
REMARK  11 active torsions:
REMARK  status: ('A' for Active; 'I' for Inactive)
REMARK    1  A    between atoms: N1_4  and  C4_5 
REMARK    2  A    between atoms: C4_5  and  N2_6 
REMARK    3  A    between atoms: N2_6  and  N3_8 
REMARK    4  A    between atoms: C5_10  and  C6_11 
REMARK    5  A    between atoms: C5_10  and  N6_18 
REMARK    6  A    between atoms: N4_12  and  N5_13 
REMARK    7  A    between atoms: N4_12  and  O1_16 
REMARK    8  A    between atoms: N6_18  and  N7_20 
REMARK       I    between atoms: N7_20  and  C7_21 
REMARK    9  A    between atoms: C7_21  and  C8_23 
REMARK   10  A    between atoms: C8_23  and  C9_24 
REMARK   11  A    between atoms: N10_29  and  C10_30 
ROOT
HETATM    1  N3  UNL     1      -1.135   4.046  82.758  1.00  0.00    -0.285 N 
ATOM      2  H3  UNL     1      -1.813   3.433  83.210  1.00  0.00     0.188 HD
HETATM    3  C5  UNL     1      -0.452   3.617  81.781  1.00  0.00     0.165 C 
ENDROOT
BRANCH   3   4
HETATM    4  C6  UNL     1      -0.606   2.249  81.261  1.00  0.00     0.194 C 
HETATM    5  N4  UNL     1      -0.275   1.228  81.955  1.00  0.00    -0.178 N 
BRANCH   5   6
HETATM    6  N5  UNL     1      -0.428  -0.053  81.448  1.00  0.00    -0.319 N 
ATOM      7  H52 UNL     1      -0.055  -0.280  80.526  1.00  0.00     0.179 HD
ATOM      8  H51 UNL     1      -0.914  -0.771  81.984  1.00  0.00     0.179 HD
ENDBRANCH   5   6
BRANCH   5   9
HETATM    9  O1  UNL     1       0.243   1.405  83.208  1.00  0.00    -0.269 OA
ATOM     10  H1  UNL     1      -0.331   1.356  83.962  1.00  0.00     0.247 HD
ENDBRANCH   5   9
ENDBRANCH   3   4
BRANCH   3  11
HETATM   11  N6  UNL     1       0.543   4.489  81.213  1.00  0.00    -0.213 N 
ATOM     12  H6  UNL     1       0.248   5.284  80.646  1.00  0.00     0.204 HD
BRANCH  11  13
HETATM   13  N7  UNL     1       1.842   4.277  81.416  1.00  0.00    -0.285 NA
HETATM   14  C7  UNL     1       3.130   4.066  81.616  1.00  0.00     0.319 C 
HETATM   15  O2  UNL     1       3.771   2.976  81.823  1.00  0.00    -0.255 OA
BRANCH  14  16
HETATM   16  C8  UNL     1       4.077   5.261  81.614  1.00  0.00     0.200 C 
BRANCH  16  17
HETATM   17  C9  UNL     1       3.498   6.276  82.510  1.00  0.00     0.123 A 
HETATM   18  N8  UNL     1       3.005   5.980  83.768  1.00  0.00    -0.271 N 
HETATM   19  N9  UNL     1       2.523   7.100  84.249  1.00  0.00    -0.220 N 
ATOM     20  H8  UNL     1       3.014   5.070  84.229  1.00  0.00     0.190 HD
HETATM   21  N10 UNL     1       2.659   8.117  83.409  1.00  0.00    -0.181 N 
ATOM     22  H9  UNL     1       2.091   7.181  85.170  1.00  0.00     0.210 HD
HETATM   23  N11 UNL     1       3.255   7.585  82.365  1.00  0.00    -0.265 N 
ATOM     24  H11 UNL     1       3.507   8.114  81.531  1.00  0.00     0.190 HD
BRANCH  21  25
HETATM   25  C10 UNL     1       2.196   9.445  83.618  1.00  0.00     0.076 A 
HETATM   26  C11 UNL     1       3.034  10.492  83.845  1.00  0.00     0.033 A 
HETATM   27  C12 UNL     1       2.516  11.773  84.021  1.00  0.00     0.002 A 
HETATM   28  C13 UNL     1       1.143  11.978  83.962  1.00  0.00     0.000 A 
HETATM   29  C14 UNL     1       0.295  10.927  83.734  1.00  0.00     0.002 A 
HETATM   30  C15 UNL     1       0.792   9.675  83.563  1.00  0.00     0.033 A 
ENDBRANCH  21  25
ENDBRANCH  16  17
ENDBRANCH  14  16
ENDBRANCH  11  13
ENDBRANCH   3  11
BRANCH   1  31
HETATM   31  N2  UNL     1      -0.966   5.352  83.219  1.00  0.00    -0.316 N 
ATOM     32  H2  UNL     1      -0.847   6.134  82.574  1.00  0.00     0.182 HD
BRANCH  31  33
HETATM   33  C4  UNL     1      -0.965   5.544  84.645  1.00  0.00     0.273 C 
BRANCH  33  34
HETATM   34  N1  UNL     1      -0.981   4.272  85.323  1.00  0.00    -0.291 N 
HETATM   35  C3  UNL     1      -2.103   3.691  85.794  1.00  0.00     0.109 A 
HETATM   36  C2  UNL     1      -1.967   2.475  86.454  1.00  0.00     0.022 A 
HETATM   37  C1  UNL     1      -3.174   1.783  86.989  1.00  0.00     0.056 C 
HETATM   38  C17 UNL     1      -0.725   1.899  86.611  1.00  0.00     0.256 A 
HETATM   39  N12 UNL     1       0.391   2.491  86.133  1.00  0.00    -0.275 N 
HETATM   40  O4  UNL     1      -0.613   0.780  87.220  1.00  0.00    -0.267 OA
HETATM   41  C16 UNL     1       0.199   3.662  85.508  1.00  0.00     0.330 A 
ATOM     42  H12 UNL     1       1.317   2.076  86.241  1.00  0.00     0.173 HD
HETATM   43  O3  UNL     1       1.264   4.211  85.064  1.00  0.00    -0.246 OA
ENDBRANCH  33  34
ENDBRANCH  31  33
ENDBRANCH   1  31
TORSDOF 11
ENDMDL
MODEL 2
REMARK VINA RESULT: -8.368698880      2.419      4.922
REMARK  11 active torsions:
REMARK  status: ('A' for Active; 'I' for Inactive)
REMARK    1  A    between atoms: N1_4  and  C4_5 
REMARK    2  A    between atoms: C4_5  and  N2_6 
REMARK    3  A    between atoms: N2_6  and  N3_8 
REMARK    4  A    between atoms: C5_10  and  C6_11 
REMARK    5  A    between atoms: C5_10  and  N6_18 
REMARK    6  A    between atoms: N4_12  and  N5_13 
REMARK    7  A    between atoms: N4_12  and  O1_16 
REMARK    8  A    between atoms: N6_18  and  N7_20 
REMARK       I    between atoms: N7_20  and  C7_21 
REMARK    9  A    between atoms: C7_21  and  C8_23 
REMARK   10  A    between atoms: C8_23  and  C9_24 
REMARK   11  A    between atoms: N10_29  and  C10_30 
ROOT
HETATM    1  N3  UNL     1      -1.329   4.681  85.630  1.00  0.00    -0.285 N 
ATOM      2  H3  UNL     1      -2.035   4.863  86.343  1.00  0.00     0.188 HD
HETATM    3  C5  UNL     1      -0.967   3.490  85.390  1.00  0.00     0.165 C 
ENDROOT
BRANCH   3   4
HETATM    4  C6  UNL     1      -1.541   2.341  86.107  1.00  0.00     0.194 C 
HETATM    5  N4  UNL     1      -0.803   1.415  86.587  1.00  0.00    -0.178 N 
BRANCH   5   6
HETATM    6  N5  UNL     1      -1.362   0.340  87.259  1.00  0.00    -0.319 N 
ATOM      7  H52 UNL     1      -1.387  -0.577  86.814  1.00  0.00     0.179 HD
ATOM      8  H51 UNL     1      -1.755   0.456  88.194  1.00  0.00     0.179 HD
ENDBRANCH   5   6
BRANCH   5   9
HETATM    9  O1  UNL     1       0.553   1.485  86.427  1.00  0.00    -0.269 OA
ATOM     10  H1  UNL     1       1.113   1.506  87.194  1.00  0.00     0.247 HD
ENDBRANCH   5   9
ENDBRANCH   3   4
BRANCH   3  11
HETATM   11  N6  UNL     1       0.081   3.280  84.425  1.00  0.00    -0.213 N 
ATOM     12  H6  UNL     1       1.050   3.236  84.739  1.00  0.00     0.204 HD
BRANCH  11  13
HETATM   13  N7  UNL     1      -0.193   3.143  83.128  1.00  0.00    -0.285 NA
HETATM   14  C7  UNL     1      -0.467   3.007  81.844  1.00  0.00     0.319 C 
HETATM   15  O2  UNL     1      -1.250   2.190  81.243  1.00  0.00    -0.255 OA
BRANCH  14  16
HETATM   16  C8  UNL     1       0.219   3.935  80.848  1.00  0.00     0.200 C 
BRANCH  16  17
HETATM   17  C9  UNL     1       1.267   4.664  81.582  1.00  0.00     0.123 A 
HETATM   18  N8  UNL     1       2.414   4.057  82.061  1.00  0.00    -0.271 N 
HETATM   19  N9  UNL     1       3.082   4.985  82.703  1.00  0.00    -0.220 N 
ATOM     20  H8  UNL     1       2.686   3.082  81.940  1.00  0.00     0.190 HD
HETATM   21  N10 UNL     1       2.467   6.160  82.686  1.00  0.00    -0.181 N 
ATOM     22  H9  UNL     1       3.977   4.821  83.165  1.00  0.00     0.210 HD
HETATM   23  N11 UNL     1       1.372   5.932  81.997  1.00  0.00    -0.265 N 
ATOM     24  H11 UNL     1       0.673   6.648  81.799  1.00  0.00     0.190 HD
BRANCH  21  25
HETATM   25  C10 UNL     1       2.911   7.348  83.331  1.00  0.00     0.076 A 
HETATM   26  C11 UNL     1       3.934   8.108  82.855  1.00  0.00     0.033 A 
HETATM   27  C12 UNL     1       4.305   9.272  83.524  1.00  0.00     0.002 A 
HETATM   28  C13 UNL     1       3.627   9.655  84.675  1.00  0.00     0.000 A 
HETATM   29  C14 UNL     1       2.597   8.892  85.158  1.00  0.00     0.002 A 
HETATM   30  C15 UNL     1       2.230   7.756  84.512  1.00  0.00     0.033 A 
ENDBRANCH  21  25
ENDBRANCH  16  17
ENDBRANCH  14  16
ENDBRANCH  11  13
ENDBRANCH   3  11
BRANCH   1  31
HETATM   31  N2  UNL     1      -0.767   5.745  84.924  1.00  0.00    -0.316 N 
ATOM     32  H2  UNL     1       0.155   5.672  84.491  1.00  0.00     0.182 HD
BRANCH  31  33
HETATM   33  C4  UNL     1      -1.547   6.951  84.834  1.00  0.00     0.273 C 
BRANCH  33  34
HETATM   34  N1  UNL     1      -1.484   7.492  83.499  1.00  0.00    -0.291 N 
HETATM   35  C3  UNL     1      -0.919   8.678  83.200  1.00  0.00     0.109 A 
HETATM   36  C2  UNL     1      -0.955   9.090  81.872  1.00  0.00     0.022 A 
HETATM   37  C1  UNL     1      -0.338  10.390  81.483  1.00  0.00     0.056 C 
HETATM   38  C17 UNL     1      -1.550   8.302  80.912  1.00  0.00     0.256 A 
HETATM   39  N12 UNL     1      -2.113   7.114  81.224  1.00  0.00    -0.275 N 
HETATM   40  O4  UNL     1      -1.577   8.692  79.694  1.00  0.00    -0.267 OA
HETATM   41  C16 UNL     1      -2.049   6.771  82.519  1.00  0.00     0.330 A 
ATOM     42  H12 UNL     1      -2.556   6.520  80.523  1.00  0.00     0.173 HD
HETATM   43  O3  UNL     1      -2.587   5.647  82.800  1.00  0.00    -0.246 OA
ENDBRANCH  33  34
ENDBRANCH  31  33
ENDBRANCH   1  31
TORSDOF 11
ENDMDL
MODEL 3
REMARK VINA RESULT: -8.266653915      2.436      3.686
REMARK  11 active torsions:
REMARK  status: ('A' for Active; 'I' for Inactive)
REMARK    1  A    between atoms: N1_4  and  C4_5 
REMARK    2  A    between atoms: C4_5  and  N2_6 
REMARK    3  A    between atoms: N2_6  and  N3_8 
REMARK    4  A    between atoms: C5_10  and  C6_11 
REMARK    5  A    between atoms: C5_10  and  N6_18 
REMARK    6  A    between atoms: N4_12  and  N5_13 
REMARK    7  A    between atoms: N4_12  and  O1_16 
REMARK    8  A    between atoms: N6_18  and  N7_20 
REMARK       I    between atoms: N7_20  and  C7_21 
REMARK    9  A    between atoms: C7_21  and  C8_23 
REMARK   10  A    between atoms: C8_23  and  C9_24 
REMARK   11  A    between atoms: N10_29  and  C10_30 
ROOT
HETATM    1  N3  UNL     1      -0.074   4.839  80.597  1.00  0.00    -0.285 N 
ATOM      2  H3  UNL     1      -0.877   5.283  81.042  1.00  0.00     0.188 HD
HETATM    3  C5  UNL     1       0.621   5.488  79.760  1.00  0.00     0.165 C 
ENDROOT
BRANCH   3   4
HETATM    4  C6  UNL     1       0.313   6.882  79.404  1.00  0.00     0.194 C 
HETATM    5  N4  UNL     1      -0.888   7.275  79.216  1.00  0.00    -0.178 N 
BRANCH   5   6
HETATM    6  N5  UNL     1      -1.159   8.592  78.880  1.00  0.00    -0.319 N 
ATOM      7  H52 UNL     1      -1.184   9.305  79.609  1.00  0.00     0.179 HD
ATOM      8  H51 UNL     1      -1.339   8.857  77.912  1.00  0.00     0.179 HD
ENDBRANCH   5   6
BRANCH   5   9
HETATM    9  O1  UNL     1      -1.916   6.381  79.340  1.00  0.00    -0.269 OA
ATOM     10  H1  UNL     1      -2.811   6.682  79.237  1.00  0.00     0.247 HD
ENDBRANCH   5   9
ENDBRANCH   3   4
BRANCH   3  11
HETATM   11  N6  UNL     1       1.706   4.805  79.103  1.00  0.00    -0.213 N 
ATOM     12  H6  UNL     1       1.538   4.340  78.211  1.00  0.00     0.204 HD
BRANCH  11  13
HETATM   13  N7  UNL     1       2.924   4.770  79.640  1.00  0.00    -0.285 NA
HETATM   14  C7  UNL     1       4.133   4.735  80.169  1.00  0.00     0.319 C 
HETATM   15  O2  UNL     1       5.142   3.998  79.890  1.00  0.00    -0.255 OA
BRANCH  14  16
HETATM   16  C8  UNL     1       4.462   5.698  81.305  1.00  0.00     0.200 C 
BRANCH  16  17
HETATM   17  C9  UNL     1       3.309   5.701  82.221  1.00  0.00     0.123 A 
HETATM   18  N8  UNL     1       2.961   4.613  82.999  1.00  0.00    -0.271 N 
HETATM   19  N9  UNL     1       1.866   4.950  83.637  1.00  0.00    -0.220 N 
ATOM     20  H8  UNL     1       3.456   3.724  83.064  1.00  0.00     0.190 HD
HETATM   21  N10 UNL     1       1.462   6.178  83.343  1.00  0.00    -0.181 N 
ATOM     22  H9  UNL     1       1.378   4.335  84.289  1.00  0.00     0.210 HD
HETATM   23  N11 UNL     1       2.359   6.607  82.484  1.00  0.00    -0.265 N 
ATOM     24  H11 UNL     1       2.334   7.535  82.060  1.00  0.00     0.190 HD
BRANCH  21  25
HETATM   25  C10 UNL     1       0.287   6.814  83.832  1.00  0.00     0.076 A 
HETATM   26  C11 UNL     1       0.195   7.329  85.087  1.00  0.00     0.033 A 
HETATM   27  C12 UNL     1      -0.979   7.959  85.496  1.00  0.00     0.002 A 
HETATM   28  C13 UNL     1      -2.052   8.061  84.619  1.00  0.00     0.000 A 
HETATM   29  C14 UNL     1      -1.963   7.542  83.354  1.00  0.00     0.002 A 
HETATM   30  C15 UNL     1      -0.824   6.926  82.948  1.00  0.00     0.033 A 
ENDBRANCH  21  25
ENDBRANCH  16  17
ENDBRANCH  14  16
ENDBRANCH  11  13
ENDBRANCH   3  11
BRANCH   1  31
HETATM   31  N2  UNL     1       0.254   3.520  80.915  1.00  0.00    -0.316 N 
ATOM     32  H2  UNL     1       1.203   3.163  80.800  1.00  0.00     0.182 HD
BRANCH  31  33
HETATM   33  C4  UNL     1      -0.810   2.687  81.413  1.00  0.00     0.273 C 
BRANCH  33  34
HETATM   34  N1  UNL     1      -0.788   2.653  82.854  1.00  0.00    -0.291 N 
HETATM   35  C3  UNL     1      -1.430   3.546  83.632  1.00  0.00     0.109 A 
HETATM   36  C2  UNL     1      -1.298   3.410  85.009  1.00  0.00     0.022 A 
HETATM   37  C1  UNL     1      -1.992   4.366  85.919  1.00  0.00     0.056 C 
HETATM   38  C17 UNL     1      -0.535   2.394  85.541  1.00  0.00     0.256 A 
HETATM   39  N12 UNL     1       0.103   1.503  84.751  1.00  0.00    -0.275 N 
HETATM   40  O4  UNL     1      -0.421   2.279  86.810  1.00  0.00    -0.267 OA
HETATM   41  C16 UNL     1      -0.060   1.686  83.432  1.00  0.00     0.330 A 
ATOM     42  H12 UNL     1       0.671   0.745  85.131  1.00  0.00     0.173 HD
HETATM   43  O3  UNL     1       0.552   0.839  82.697  1.00  0.00    -0.246 OA
ENDBRANCH  33  34
ENDBRANCH  31  33
ENDBRANCH   1  31
TORSDOF 11
ENDMDL
MODEL 4
REMARK VINA RESULT: -8.241237480      2.418      3.304
REMARK  11 active torsions:
REMARK  status: ('A' for Active; 'I' for Inactive)
REMARK    1  A    between atoms: N1_4  and  C4_5 
REMARK    2  A    between atoms: C4_5  and  N2_6 
REMARK    3  A    between atoms: N2_6  and  N3_8 
REMARK    4  A    between atoms: C5_10  and  C6_11 
REMARK    5  A    between atoms: C5_10  and  N6_18 
REMARK    6  A    between atoms: N4_12  and  N5_13 
REMARK    7  A    between atoms: N4_12  and  O1_16 
REMARK    8  A    between atoms: N6_18  and  N7_20 
REMARK       I    between atoms: N7_20  and  C7_21 
REMARK    9  A    between atoms: C7_21  and  C8_23 
REMARK   10  A    between atoms: C8_23  and  C9_24 
REMARK   11  A    between atoms: N10_29  and  C10_30 
ROOT
HETATM    1  N3  UNL     1      -1.949   6.852  82.572  1.00  0.00    -0.285 N 
ATOM      2  H3  UNL     1      -2.466   7.730  82.600  1.00  0.00     0.188 HD
HETATM    3  C5  UNL     1      -1.029   6.690  81.716  1.00  0.00     0.165 C 
ENDROOT
BRANCH   3   4
HETATM    4  C6  UNL     1      -0.668   7.739  80.749  1.00  0.00     0.194 C 
HETATM    5  N4  UNL     1      -1.067   7.697  79.536  1.00  0.00    -0.178 N 
BRANCH   5   6
HETATM    6  N5  UNL     1      -0.717   8.694  78.640  1.00  0.00    -0.319 N 
ATOM      7  H52 UNL     1      -0.089   9.441  78.934  1.00  0.00     0.179 HD
ATOM      8  H51 UNL     1      -1.085   8.693  77.688  1.00  0.00     0.179 HD
ENDBRANCH   5   6
BRANCH   5   9
HETATM    9  O1  UNL     1      -1.842   6.650  79.118  1.00  0.00    -0.269 OA
ATOM     10  H1  UNL     1      -1.553   6.118  78.386  1.00  0.00     0.247 HD
ENDBRANCH   5   9
ENDBRANCH   3   4
BRANCH   3  11
HETATM   11  N6  UNL     1      -0.367   5.412  81.664  1.00  0.00    -0.213 N 
ATOM     12  H6  UNL     1      -0.485   4.754  82.435  1.00  0.00     0.204 HD
BRANCH  11  13
HETATM   13  N7  UNL     1       0.396   5.072  80.626  1.00  0.00    -0.285 NA
HETATM   14  C7  UNL     1       1.151   4.736  79.597  1.00  0.00     0.319 C 
HETATM   15  O2  UNL     1       0.874   4.048  78.553  1.00  0.00    -0.255 OA
BRANCH  14  16
HETATM   16  C8  UNL     1       2.602   5.205  79.570  1.00  0.00     0.200 C 
BRANCH  16  17
HETATM   17  C9  UNL     1       2.915   5.728  80.910  1.00  0.00     0.123 A 
HETATM   18  N8  UNL     1       3.074   4.918  82.019  1.00  0.00    -0.271 N 
HETATM   19  N9  UNL     1       3.286   5.719  83.035  1.00  0.00    -0.220 N 
ATOM     20  H8  UNL     1       3.035   3.899  82.042  1.00  0.00     0.190 HD
HETATM   21  N10 UNL     1       3.280   6.998  82.686  1.00  0.00    -0.181 N 
ATOM     22  H9  UNL     1       3.438   5.394  83.990  1.00  0.00     0.210 HD
HETATM   23  N11 UNL     1       3.055   6.970  81.391  1.00  0.00    -0.265 N 
ATOM     24  H11 UNL     1       2.993   7.808  80.813  1.00  0.00     0.190 HD
BRANCH  21  25
HETATM   25  C10 UNL     1       3.431   8.108  83.563  1.00  0.00     0.076 A 
HETATM   26  C11 UNL     1       2.618   8.319  84.632  1.00  0.00     0.033 A 
HETATM   27  C12 UNL     1       2.834   9.415  85.465  1.00  0.00     0.002 A 
HETATM   28  C13 UNL     1       3.883  10.288  85.202  1.00  0.00     0.000 A 
HETATM   29  C14 UNL     1       4.704  10.079  84.125  1.00  0.00     0.002 A 
HETATM   30  C15 UNL     1       4.498   9.014  83.308  1.00  0.00     0.033 A 
ENDBRANCH  21  25
ENDBRANCH  16  17
ENDBRANCH  14  16
ENDBRANCH  11  13
ENDBRANCH   3  11
BRANCH   1  31
HETATM   31  N2  UNL     1      -2.257   5.836  83.478  1.00  0.00    -0.316 N 
ATOM     32  H2  UNL     1      -2.851   5.049  83.216  1.00  0.00     0.182 HD
BRANCH  31  33
HETATM   33  C4  UNL     1      -1.699   5.951  84.800  1.00  0.00     0.273 C 
BRANCH  33  34
HETATM   34  N1  UNL     1      -1.201   4.675  85.247  1.00  0.00    -0.291 N 
HETATM   35  C3  UNL     1      -1.953   3.767  85.901  1.00  0.00     0.109 A 
HETATM   36  C2  UNL     1      -1.334   2.588  86.300  1.00  0.00     0.022 A 
HETATM   37  C1  UNL     1      -2.119   1.546  87.020  1.00  0.00     0.056 C 
HETATM   38  C17 UNL     1      -0.001   2.372  86.028  1.00  0.00     0.256 A 
HETATM   39  N12 UNL     1       0.743   3.289  85.371  1.00  0.00    -0.275 N 
HETATM   40  O4  UNL     1       0.558   1.283  86.400  1.00  0.00    -0.267 OA
HETATM   41  C16 UNL     1       0.092   4.406  85.013  1.00  0.00     0.330 A 
ATOM     42  H12 UNL     1       1.730   3.142  85.163  1.00  0.00     0.173 HD
HETATM   43  O3  UNL     1       0.809   5.265  84.395  1.00  0.00    -0.246 OA
ENDBRANCH  33  34
ENDBRANCH  31  33
ENDBRANCH   1  31
TORSDOF 11
ENDMDL
MODEL 5
REMARK VINA RESULT: -8.168470311      2.137      2.813
REMARK  11 active torsions:
REMARK  status: ('A' for Active; 'I' for Inactive)
REMARK    1  A    between atoms: N1_4  and  C4_5 
REMARK    2  A    between atoms: C4_5  and  N2_6 
REMARK    3  A    between atoms: N2_6  and  N3_8 
REMARK    4  A    between atoms: C5_10  and  C6_11 
REMARK    5  A    between atoms: C5_10  and  N6_18 
REMARK    6  A    between atoms: N4_12  and  N5_13 
REMARK    7  A    between atoms: N4_12  and  O1_16 
REMARK    8  A    between atoms: N6_18  and  N7_20 
REMARK       I    between atoms: N7_20  and  C7_21 
REMARK    9  A    between atoms: C7_21  and  C8_23 
REMARK   10  A    between atoms: C8_23  and  C9_24 
REMARK   11  A    between atoms: N10_29  and  C10_30 
ROOT
HETATM    1  N3  UNL     1      -2.054   6.732  82.653  1.00  0.00    -0.285 N 
ATOM      2  H3  UNL     1      -2.546   7.624  82.713  1.00  0.00     0.188 HD
HETATM    3  C5  UNL     1      -1.163   6.563  81.767  1.00  0.00     0.165 C 
ENDROOT
BRANCH   3   4
HETATM    4  C6  UNL     1      -0.801   7.621  80.811  1.00  0.00     0.194 C 
HETATM    5  N4  UNL     1      -1.052   7.510  79.563  1.00  0.00    -0.178 N 
BRANCH   5   6
HETATM    6  N5  UNL     1      -0.703   8.517  78.678  1.00  0.00    -0.319 N 
ATOM      7  H52 UNL     1      -1.263   9.369  78.634  1.00  0.00     0.179 HD
ATOM      8  H51 UNL     1       0.105   8.415  78.064  1.00  0.00     0.179 HD
ENDBRANCH   5   6
BRANCH   5   9
HETATM    9  O1  UNL     1      -1.664   6.379  79.097  1.00  0.00    -0.269 OA
ATOM     10  H1  UNL     1      -1.986   6.356  78.204  1.00  0.00     0.247 HD
ENDBRANCH   5   9
ENDBRANCH   3   4
BRANCH   3  11
HETATM   11  N6  UNL     1      -0.540   5.268  81.671  1.00  0.00    -0.213 N 
ATOM     12  H6  UNL     1      -0.921   4.487  82.204  1.00  0.00     0.204 HD
BRANCH  11  13
HETATM   13  N7  UNL     1       0.526   5.072  80.897  1.00  0.00    -0.285 NA
HETATM   14  C7  UNL     1       1.582   4.879  80.128  1.00  0.00     0.319 C 
HETATM   15  O2  UNL     1       1.661   4.583  78.884  1.00  0.00    -0.255 OA
BRANCH  14  16
HETATM   16  C8  UNL     1       2.970   5.012  80.745  1.00  0.00     0.200 C 
BRANCH  16  17
HETATM   17  C9  UNL     1       2.885   6.044  81.792  1.00  0.00     0.123 A 
HETATM   18  N8  UNL     1       3.139   5.787  83.127  1.00  0.00    -0.271 N 
HETATM   19  N9  UNL     1       2.914   6.909  83.768  1.00  0.00    -0.220 N 
ATOM     20  H8  UNL     1       3.441   4.902  83.532  1.00  0.00     0.190 HD
HETATM   21  N10 UNL     1       2.530   7.889  82.961  1.00  0.00    -0.181 N 
ATOM     22  H9  UNL     1       3.022   7.015  84.777  1.00  0.00     0.210 HD
HETATM   23  N11 UNL     1       2.525   7.333  81.770  1.00  0.00    -0.265 N 
ATOM     24  H11 UNL     1       2.272   7.832  80.918  1.00  0.00     0.190 HD
BRANCH  21  25
HETATM   25  C10 UNL     1       2.167   9.206  83.357  1.00  0.00     0.076 A 
HETATM   26  C11 UNL     1       3.083  10.169  83.646  1.00  0.00     0.033 A 
HETATM   27  C12 UNL     1       2.659  11.446  84.007  1.00  0.00     0.002 A 
HETATM   28  C13 UNL     1       1.301  11.734  84.067  1.00  0.00     0.000 A 
HETATM   29  C14 UNL     1       0.375  10.766  83.777  1.00  0.00     0.002 A 
HETATM   30  C15 UNL     1       0.780   9.519  83.426  1.00  0.00     0.033 A 
ENDBRANCH  21  25
ENDBRANCH  16  17
ENDBRANCH  14  16
ENDBRANCH  11  13
ENDBRANCH   3  11
BRANCH   1  31
HETATM   31  N2  UNL     1      -2.365   5.707  83.547  1.00  0.00    -0.316 N 
ATOM     32  H2  UNL     1      -2.958   4.923  83.275  1.00  0.00     0.182 HD
BRANCH  31  33
HETATM   33  C4  UNL     1      -1.809   5.808  84.871  1.00  0.00     0.273 C 
BRANCH  33  34
HETATM   34  N1  UNL     1      -1.288   4.533  85.295  1.00  0.00    -0.291 N 
HETATM   35  C3  UNL     1      -2.023   3.599  85.931  1.00  0.00     0.109 A 
HETATM   36  C2  UNL     1      -1.383   2.425  86.308  1.00  0.00     0.022 A 
HETATM   37  C1  UNL     1      -2.149   1.355  87.009  1.00  0.00     0.056 C 
HETATM   38  C17 UNL     1      -0.046   2.238  86.034  1.00  0.00     0.256 A 
HETATM   39  N12 UNL     1       0.681   3.181  85.395  1.00  0.00    -0.275 N 
HETATM   40  O4  UNL     1       0.532   1.153  86.386  1.00  0.00    -0.267 OA
HETATM   41  C16 UNL     1       0.010   4.292  85.057  1.00  0.00     0.330 A 
ATOM     42  H12 UNL     1       1.671   3.056  85.184  1.00  0.00     0.173 HD
HETATM   43  O3  UNL     1       0.711   5.176  84.456  1.00  0.00    -0.246 OA
ENDBRANCH  33  34
ENDBRANCH  31  33
ENDBRANCH   1  31
TORSDOF 11
ENDMDL
