MODEL 1
REMARK VINA RESULT: -7.196798779      0.000      0.000
REMARK  5 active torsions:
REMARK  status: ('A' for Active; 'I' for Inactive)
REMARK    1  A    between atoms: C1_2  and  C2_3 
REMARK       I    between atoms: C1_2  and  N2_16 
REMARK    2  A    between atoms: C2_3  and  N1_4 
REMARK    3  A    between atoms: N1_4  and  C3_6 
REMARK    4  A    between atoms: N2_16  and  N3_18 
REMARK    5  A    between atoms: N3_18  and  C12_20 
ROOT
HETATM    1  C2  UNL     1     100.008 241.273 -12.968  1.00  0.00     0.219 C 
ENDROOT
BRANCH   1   2
HETATM    2  C1  UNL     1     100.277 241.313 -11.491  1.00  0.00     0.253 C 
HETATM    3  O1  UNL     1     101.471 241.368 -11.115  1.00  0.00    -0.270 OA
HETATM    4  N2  UNL     1      99.251 241.288 -10.519  1.00  0.00    -0.267 N 
ATOM      5  H2  UNL     1      98.286 241.249 -10.846  1.00  0.00     0.190 HD
BRANCH   4   6
HETATM    6  N3  UNL     1      99.468 241.314  -9.161  1.00  0.00    -0.277 N 
ATOM      7  H3  UNL     1     100.314 241.763  -8.813  1.00  0.00     0.189 HD
BRANCH   6   8
HETATM    8  C12 UNL     1      98.655 240.799  -8.314  1.00  0.00     0.163 A 
HETATM    9  N4  UNL     1      98.036 241.330  -7.265  1.00  0.00    -0.345 N 
HETATM   10  C13 UNL     1      97.264 240.576  -6.533  1.00  0.00     0.097 A 
ATOM     11  H4  UNL     1      98.162 242.316  -7.035  1.00  0.00     0.167 HD
HETATM   12  C14 UNL     1      97.126 239.260  -6.887  1.00  0.00     0.070 A 
HETATM   13  S2  UNL     1      98.119 239.160  -8.265  1.00  0.00    -0.063 SA
ENDBRANCH   6   8
ENDBRANCH   4   6
ENDBRANCH   1   2
BRANCH   1  14
HETATM   14  N1  UNL     1     101.175 240.889 -13.688  1.00  0.00    -0.404 N 
ATOM     15  H1  UNL     1     102.101 240.919 -13.259  1.00  0.00     0.154 HD
BRANCH  14  16
HETATM   16  C3  UNL     1     100.992 240.459 -15.037  1.00  0.00     0.028 C 
HETATM   17  C4  UNL     1     100.723 241.683 -15.894  1.00  0.00     0.035 C 
HETATM   18  C5  UNL     1     100.648 241.235 -17.330  1.00  0.00    -0.010 C 
HETATM   19  C6  UNL     1     101.948 240.655 -17.829  1.00  0.00     0.020 C 
HETATM   20  C10 UNL     1      99.493 240.305 -17.558  1.00  0.00     0.020 C 
HETATM   21  C7  UNL     1     102.376 239.512 -16.930  1.00  0.00     0.050 C 
HETATM   22  C8  UNL     1     102.317 239.880 -15.476  1.00  0.00     0.045 C 
HETATM   23  S1  UNL     1     101.084 238.219 -17.135  1.00  0.00    -0.159 SA
HETATM   24  C9  UNL     1      99.567 239.113 -16.611  1.00  0.00     0.050 C 
HETATM   25  C11 UNL     1      99.836 239.554 -15.169  1.00  0.00     0.045 C 
ENDBRANCH  14  16
ENDBRANCH   1  14
TORSDOF 5
ENDMDL
MODEL 2
REMARK VINA RESULT: -7.179925768      2.972      4.372
REMARK  5 active torsions:
REMARK  status: ('A' for Active; 'I' for Inactive)
REMARK    1  A    between atoms: C1_2  and  C2_3 
REMARK       I    between atoms: C1_2  and  N2_16 
REMARK    2  A    between atoms: C2_3  and  N1_4 
REMARK    3  A    between atoms: N1_4  and  C3_6 
REMARK    4  A    between atoms: N2_16  and  N3_18 
REMARK    5  A    between atoms: N3_18  and  C12_20 
ROOT
HETATM    1  C2  UNL     1      98.553 240.829  -9.145  1.00  0.00     0.219 C 
ENDROOT
BRANCH   1   2
HETATM    2  C1  UNL     1      98.147 240.066  -7.917  1.00  0.00     0.253 C 
HETATM    3  O1  UNL     1      97.161 240.485  -7.267  1.00  0.00    -0.270 OA
HETATM    4  N2  UNL     1      98.824 238.909  -7.469  1.00  0.00    -0.267 N 
ATOM      5  H2  UNL     1      99.619 238.581  -8.016  1.00  0.00     0.190 HD
BRANCH   4   6
HETATM    6  N3  UNL     1      98.480 238.196  -6.344  1.00  0.00    -0.277 N 
ATOM      7  H3  UNL     1      98.800 238.535  -5.437  1.00  0.00     0.189 HD
BRANCH   6   8
HETATM    8  C12 UNL     1      97.777 237.125  -6.384  1.00  0.00     0.163 A 
HETATM    9  N4  UNL     1      97.912 235.967  -5.744  1.00  0.00    -0.345 N 
HETATM   10  C13 UNL     1      97.062 235.007  -5.980  1.00  0.00     0.097 A 
ATOM     11  H4  UNL     1      98.672 235.832  -5.076  1.00  0.00     0.167 HD
HETATM   12  C14 UNL     1      96.059 235.242  -6.883  1.00  0.00     0.070 A 
HETATM   13  S2  UNL     1      96.383 236.842  -7.360  1.00  0.00    -0.063 SA
ENDBRANCH   6   8
ENDBRANCH   4   6
ENDBRANCH   1   2
BRANCH   1  14
HETATM   14  N1  UNL     1      99.635 240.186  -9.811  1.00  0.00    -0.404 N 
ATOM     15  H1  UNL     1     100.346 239.668  -9.294  1.00  0.00     0.154 HD
BRANCH  14  16
HETATM   16  C3  UNL     1      99.680 240.299 -11.233  1.00  0.00     0.028 C 
HETATM   17  C4  UNL     1     100.768 241.294 -11.597  1.00  0.00     0.035 C 
HETATM   18  C5  UNL     1     100.888 241.319 -13.098  1.00  0.00    -0.010 C 
HETATM   19  C6  UNL     1     101.327 239.994 -13.671  1.00  0.00     0.020 C 
HETATM   20  C10 UNL     1      99.631 241.822 -13.744  1.00  0.00     0.020 C 
HETATM   21  C7  UNL     1     100.373 238.904 -13.225  1.00  0.00     0.050 C 
HETATM   22  C8  UNL     1     100.112 238.945 -11.748  1.00  0.00     0.045 C 
HETATM   23  S1  UNL     1      98.756 239.324 -13.994  1.00  0.00    -0.159 SA
HETATM   24  C9  UNL     1      98.430 240.994 -13.301  1.00  0.00     0.050 C 
HETATM   25  C11 UNL     1      98.408 240.803 -11.781  1.00  0.00     0.045 C 
ENDBRANCH  14  16
ENDBRANCH   1  14
TORSDOF 5
ENDMDL
MODEL 3
REMARK VINA RESULT: -7.179797392      0.693      1.535
REMARK  5 active torsions:
REMARK  status: ('A' for Active; 'I' for Inactive)
REMARK    1  A    between atoms: C1_2  and  C2_3 
REMARK       I    between atoms: C1_2  and  N2_16 
REMARK    2  A    between atoms: C2_3  and  N1_4 
REMARK    3  A    between atoms: N1_4  and  C3_6 
REMARK    4  A    between atoms: N2_16  and  N3_18 
REMARK    5  A    between atoms: N3_18  and  C12_20 
ROOT
HETATM    1  C2  UNL     1     100.281 241.245 -12.936  1.00  0.00     0.219 C 
ENDROOT
BRANCH   1   2
HETATM    2  C1  UNL     1     100.441 241.319 -11.445  1.00  0.00     0.253 C 
HETATM    3  O1  UNL     1     101.604 241.403 -10.985  1.00  0.00    -0.270 OA
HETATM    4  N2  UNL     1      99.349 241.296 -10.549  1.00  0.00    -0.267 N 
ATOM      5  H2  UNL     1      98.411 241.233 -10.944  1.00  0.00     0.190 HD
BRANCH   4   6
HETATM    6  N3  UNL     1      99.466 241.352  -9.180  1.00  0.00    -0.277 N 
ATOM      7  H3  UNL     1     100.256 241.858  -8.781  1.00  0.00     0.189 HD
BRANCH   6   8
HETATM    8  C12 UNL     1      98.628 240.798  -8.383  1.00  0.00     0.163 A 
HETATM    9  N4  UNL     1      97.965 241.284  -7.339  1.00  0.00    -0.345 N 
HETATM   10  C13 UNL     1      97.175 240.496  -6.664  1.00  0.00     0.097 A 
ATOM     11  H4  UNL     1      98.073 242.261  -7.067  1.00  0.00     0.167 HD
HETATM   12  C14 UNL     1      97.063 239.193  -7.073  1.00  0.00     0.070 A 
HETATM   13  S2  UNL     1      98.107 239.154  -8.415  1.00  0.00    -0.063 SA
ENDBRANCH   6   8
ENDBRANCH   4   6
ENDBRANCH   1   2
BRANCH   1  14
HETATM   14  N1  UNL     1     101.384 240.572 -13.535  1.00  0.00    -0.404 N 
ATOM     15  H1  UNL     1     102.199 240.294 -12.988  1.00  0.00     0.154 HD
BRANCH  14  16
HETATM   16  C3  UNL     1     101.297 240.303 -14.935  1.00  0.00     0.028 C 
HETATM   17  C4  UNL     1     102.705 240.099 -15.467  1.00  0.00     0.035 C 
HETATM   18  C5  UNL     1     102.597 239.701 -16.916  1.00  0.00    -0.010 C 
HETATM   19  C6  UNL     1     101.884 238.385 -17.109  1.00  0.00     0.020 C 
HETATM   20  C10 UNL     1     101.992 240.795 -17.745  1.00  0.00     0.020 C 
HETATM   21  C7  UNL     1     100.514 238.448 -16.464  1.00  0.00     0.050 C 
HETATM   22  C8  UNL     1     100.568 238.986 -15.064  1.00  0.00     0.045 C 
HETATM   23  S1  UNL     1      99.584 239.719 -17.414  1.00  0.00    -0.159 SA
HETATM   24  C9  UNL     1     100.635 241.208 -17.185  1.00  0.00     0.050 C 
HETATM   25  C11 UNL     1     100.696 241.430 -15.670  1.00  0.00     0.045 C 
ENDBRANCH  14  16
ENDBRANCH   1  14
TORSDOF 5
ENDMDL
MODEL 4
REMARK VINA RESULT: -7.063323854      3.215      4.912
REMARK  5 active torsions:
REMARK  status: ('A' for Active; 'I' for Inactive)
REMARK    1  A    between atoms: C1_2  and  C2_3 
REMARK       I    between atoms: C1_2  and  N2_16 
REMARK    2  A    between atoms: C2_3  and  N1_4 
REMARK    3  A    between atoms: N1_4  and  C3_6 
REMARK    4  A    between atoms: N2_16  and  N3_18 
REMARK    5  A    between atoms: N3_18  and  C12_20 
ROOT
HETATM    1  C2  UNL     1      98.178 240.802  -9.025  1.00  0.00     0.219 C 
ENDROOT
BRANCH   1   2
HETATM    2  C1  UNL     1      97.877 239.989  -7.799  1.00  0.00     0.253 C 
HETATM    3  O1  UNL     1      96.963 240.390  -7.041  1.00  0.00    -0.270 OA
HETATM    4  N2  UNL     1      98.574 238.806  -7.467  1.00  0.00    -0.267 N 
ATOM      5  H2  UNL     1      99.310 238.493  -8.100  1.00  0.00     0.190 HD
BRANCH   4   6
HETATM    6  N3  UNL     1      98.327 238.047  -6.347  1.00  0.00    -0.277 N 
ATOM      7  H3  UNL     1      98.724 238.349  -5.458  1.00  0.00     0.189 HD
BRANCH   6   8
HETATM    8  C12 UNL     1      97.619 236.978  -6.369  1.00  0.00     0.163 A 
HETATM    9  N4  UNL     1      97.707 235.859  -5.657  1.00  0.00    -0.345 N 
HETATM   10  C13 UNL     1      96.866 234.889  -5.891  1.00  0.00     0.097 A 
ATOM     11  H4  UNL     1      98.422 235.760  -4.937  1.00  0.00     0.167 HD
HETATM   12  C14 UNL     1      95.924 235.076  -6.867  1.00  0.00     0.070 A 
HETATM   13  S2  UNL     1      96.288 236.645  -7.414  1.00  0.00    -0.063 SA
ENDBRANCH   6   8
ENDBRANCH   4   6
ENDBRANCH   1   2
BRANCH   1  14
HETATM   14  N1  UNL     1      99.485 240.521  -9.515  1.00  0.00    -0.404 N 
ATOM     15  H1  UNL     1     100.274 240.386  -8.882  1.00  0.00     0.154 HD
BRANCH  14  16
HETATM   16  C3  UNL     1      99.643 240.437 -10.932  1.00  0.00     0.028 C 
HETATM   17  C4  UNL     1     100.011 239.007 -11.285  1.00  0.00     0.035 C 
HETATM   18  C5  UNL     1     100.059 238.900 -12.787  1.00  0.00    -0.010 C 
HETATM   19  C6  UNL     1      98.721 239.158 -13.435  1.00  0.00     0.020 C 
HETATM   20  C10 UNL     1     101.140 239.764 -13.367  1.00  0.00     0.020 C 
HETATM   21  C7  UNL     1      98.201 240.516 -13.007  1.00  0.00     0.050 C 
HETATM   22  C8  UNL     1      98.279 240.714 -11.522  1.00  0.00     0.045 C 
HETATM   23  S1  UNL     1      99.390 241.736 -13.702  1.00  0.00    -0.159 SA
HETATM   24  C9  UNL     1     100.968 241.213 -12.922  1.00  0.00     0.050 C 
HETATM   25  C11 UNL     1     100.726 241.314 -11.413  1.00  0.00     0.045 C 
ENDBRANCH  14  16
ENDBRANCH   1  14
TORSDOF 5
ENDMDL
MODEL 5
REMARK VINA RESULT: -7.060255876      3.066      4.429
REMARK  5 active torsions:
REMARK  status: ('A' for Active; 'I' for Inactive)
REMARK    1  A    between atoms: C1_2  and  C2_3 
REMARK       I    between atoms: C1_2  and  N2_16 
REMARK    2  A    between atoms: C2_3  and  N1_4 
REMARK    3  A    between atoms: N1_4  and  C3_6 
REMARK    4  A    between atoms: N2_16  and  N3_18 
REMARK    5  A    between atoms: N3_18  and  C12_20 
ROOT
HETATM    1  C2  UNL     1      98.293 240.930  -9.161  1.00  0.00     0.219 C 
ENDROOT
BRANCH   1   2
HETATM    2  C1  UNL     1      98.042 240.121  -7.922  1.00  0.00     0.253 C 
HETATM    3  O1  UNL     1      97.123 240.495  -7.156  1.00  0.00    -0.270 OA
HETATM    4  N2  UNL     1      98.790 238.970  -7.586  1.00  0.00    -0.267 N 
ATOM      5  H2  UNL     1      99.529 238.680  -8.226  1.00  0.00     0.190 HD
BRANCH   4   6
HETATM    6  N3  UNL     1      98.589 238.216  -6.454  1.00  0.00    -0.277 N 
ATOM      7  H3  UNL     1      99.068 238.489  -5.596  1.00  0.00     0.189 HD
BRANCH   6   8
HETATM    8  C12 UNL     1      97.826 237.186  -6.427  1.00  0.00     0.163 A 
HETATM    9  N4  UNL     1      97.868 236.088  -5.679  1.00  0.00    -0.345 N 
HETATM   10  C13 UNL     1      96.974 235.157  -5.864  1.00  0.00     0.097 A 
ATOM     11  H4  UNL     1      98.591 235.975  -4.967  1.00  0.00     0.167 HD
HETATM   12  C14 UNL     1      96.024 235.361  -6.830  1.00  0.00     0.070 A 
HETATM   13  S2  UNL     1      96.459 236.889  -7.436  1.00  0.00    -0.063 SA
ENDBRANCH   6   8
ENDBRANCH   4   6
ENDBRANCH   1   2
BRANCH   1  14
HETATM   14  N1  UNL     1      99.596 240.680  -9.678  1.00  0.00    -0.404 N 
ATOM     15  H1  UNL     1     100.421 240.707  -9.078  1.00  0.00     0.154 HD
BRANCH  14  16
HETATM   16  C3  UNL     1      99.696 240.390 -11.073  1.00  0.00     0.028 C 
HETATM   17  C4  UNL     1      98.389 240.788 -11.735  1.00  0.00     0.035 C 
HETATM   18  C5  UNL     1      98.545 240.589 -13.220  1.00  0.00    -0.010 C 
HETATM   19  C6  UNL     1      99.604 241.480 -13.821  1.00  0.00     0.020 C 
HETATM   20  C10 UNL     1      98.764 239.145 -13.563  1.00  0.00     0.020 C 
HETATM   21  C7  UNL     1     100.922 241.259 -13.106  1.00  0.00     0.050 C 
HETATM   22  C8  UNL     1     100.774 241.301 -11.613  1.00  0.00     0.045 C 
HETATM   23  S1  UNL     1     101.394 239.521 -13.478  1.00  0.00    -0.159 SA
HETATM   24  C9  UNL     1      99.963 238.587 -12.804  1.00  0.00     0.050 C 
HETATM   25  C11 UNL     1      99.907 238.952 -11.317  1.00  0.00     0.045 C 
ENDBRANCH  14  16
ENDBRANCH   1  14
TORSDOF 5
ENDMDL
