MODEL 1
REMARK VINA RESULT: -6.374559295      0.000      0.000
REMARK  5 active torsions:
REMARK  status: ('A' for Active; 'I' for Inactive)
REMARK    1  A    between atoms: S1_2  and  C1_4 
REMARK    2  A    between atoms: S1_2  and  N2_12 
REMARK    3  A    between atoms: C1_4  and  C2_5 
REMARK    4  A    between atoms: N2_12  and  C8_14 
REMARK    5  A    between atoms: C8_14  and  C9_15 
ROOT
HETATM    1  O1  UNL     1      65.352   6.640   6.363  1.00  0.00    -0.206 OA
HETATM    2  S1  UNL     1      65.479   5.871   7.664  1.00  0.00     0.226 S 
HETATM    3  O2  UNL     1      67.000   5.461   7.667  1.00  0.00    -0.206 OA
ENDROOT
BRANCH   2   4
HETATM    4  C1  UNL     1      65.127   6.950   8.973  1.00  0.00     0.169 C 
BRANCH   4   5
HETATM    5  C2  UNL     1      63.730   7.444   8.791  1.00  0.00     0.035 C 
HETATM    6  C3  UNL     1      62.771   6.720   9.751  1.00  0.00     0.278 C 
HETATM    7  N1  UNL     1      61.759   7.698  10.116  1.00  0.00     0.089 N 
HETATM    8  C4  UNL     1      62.320   8.358  11.302  1.00  0.00     0.273 C 
HETATM    9  C7  UNL     1      61.944   8.813   9.175  1.00  0.00     0.277 C 
HETATM   10  C5  UNL     1      63.622   8.962  10.779  1.00  0.00     0.037 C 
HETATM   11  C6  UNL     1      63.475   8.850   9.284  1.00  0.00     0.022 C 
ENDBRANCH   4   5
ENDBRANCH   2   4
BRANCH   2  12
HETATM   12  N2  UNL     1      64.639   4.422   7.501  1.00  0.00    -0.319 N 
ATOM     13  H2  UNL     1      63.676   4.373   7.169  1.00  0.00     0.172 HD
BRANCH  12  14
HETATM   14  C8  UNL     1      65.396   3.262   7.868  1.00  0.00     0.136 C 
BRANCH  14  15
HETATM   15  C9  UNL     1      64.775   2.680   9.101  1.00  0.00     0.004 A 
HETATM   16  C10 UNL     1      64.817   3.438  10.375  1.00  0.00     0.007 A 
HETATM   17  C11 UNL     1      63.511   3.223   9.647  1.00  0.00     0.007 A 
ENDBRANCH  14  15
ENDBRANCH  12  14
ENDBRANCH   2  12
TORSDOF 5
ENDMDL
MODEL 2
REMARK VINA RESULT: -6.371586561      4.674      6.011
REMARK  5 active torsions:
REMARK  status: ('A' for Active; 'I' for Inactive)
REMARK    1  A    between atoms: S1_2  and  C1_4 
REMARK    2  A    between atoms: S1_2  and  N2_12 
REMARK    3  A    between atoms: C1_4  and  C2_5 
REMARK    4  A    between atoms: N2_12  and  C8_14 
REMARK    5  A    between atoms: C8_14  and  C9_15 
ROOT
HETATM    1  O1  UNL     1      62.632  13.633   7.583  1.00  0.00    -0.206 OA
HETATM    2  S1  UNL     1      63.404  12.539   8.297  1.00  0.00     0.226 S 
HETATM    3  O2  UNL     1      64.864  13.128   8.339  1.00  0.00    -0.206 OA
ENDROOT
BRANCH   2   4
HETATM    4  C1  UNL     1      62.760  12.370   9.896  1.00  0.00     0.169 C 
BRANCH   4   5
HETATM    5  C2  UNL     1      63.910  12.352  10.849  1.00  0.00     0.035 C 
HETATM    6  C3  UNL     1      63.565  13.138  12.126  1.00  0.00     0.278 C 
HETATM    7  N1  UNL     1      64.247  12.452  13.212  1.00  0.00     0.089 N 
HETATM    8  C4  UNL     1      63.272  11.449  13.662  1.00  0.00     0.273 C 
HETATM    9  C7  UNL     1      65.181  11.525  12.555  1.00  0.00     0.277 C 
HETATM   10  C5  UNL     1      63.054  10.595  12.414  1.00  0.00     0.037 C 
HETATM   11  C6  UNL     1      64.180  11.019  11.507  1.00  0.00     0.022 C 
ENDBRANCH   4   5
ENDBRANCH   2   4
BRANCH   2  12
HETATM   12  N2  UNL     1      63.502  11.210   7.269  1.00  0.00    -0.319 N 
ATOM     13  H2  UNL     1      64.083  11.197   6.431  1.00  0.00     0.172 HD
BRANCH  12  14
HETATM   14  C8  UNL     1      62.696  10.096   7.675  1.00  0.00     0.136 C 
BRANCH  14  15
HETATM   15  C9  UNL     1      63.546   9.200   8.523  1.00  0.00     0.004 A 
HETATM   16  C10 UNL     1      62.985   7.932   9.047  1.00  0.00     0.007 A 
HETATM   17  C11 UNL     1      64.069   7.920   7.994  1.00  0.00     0.007 A 
ENDBRANCH  14  15
ENDBRANCH  12  14
ENDBRANCH   2  12
TORSDOF 5
ENDMDL
MODEL 3
REMARK VINA RESULT: -6.291356139      5.665      7.745
REMARK  5 active torsions:
REMARK  status: ('A' for Active; 'I' for Inactive)
REMARK    1  A    between atoms: S1_2  and  C1_4 
REMARK    2  A    between atoms: S1_2  and  N2_12 
REMARK    3  A    between atoms: C1_4  and  C2_5 
REMARK    4  A    between atoms: N2_12  and  C8_14 
REMARK    5  A    between atoms: C8_14  and  C9_15 
ROOT
HETATM    1  O1  UNL     1      64.055  11.929   7.761  1.00  0.00    -0.206 OA
HETATM    2  S1  UNL     1      63.323  13.058   8.462  1.00  0.00     0.226 S 
HETATM    3  O2  UNL     1      62.229  13.461   7.404  1.00  0.00    -0.206 OA
ENDROOT
BRANCH   2   4
HETATM    4  C1  UNL     1      62.589  12.424   9.898  1.00  0.00     0.169 C 
BRANCH   4   5
HETATM    5  C2  UNL     1      63.639  11.676  10.652  1.00  0.00     0.035 C 
HETATM    6  C3  UNL     1      63.680  12.134  12.121  1.00  0.00     0.278 C 
HETATM    7  N1  UNL     1      64.026  10.954  12.896  1.00  0.00     0.089 N 
HETATM    8  C4  UNL     1      62.726  10.344  13.206  1.00  0.00     0.273 C 
HETATM    9  C7  UNL     1      64.470   9.960  11.907  1.00  0.00     0.277 C 
HETATM   10  C5  UNL     1      62.147  10.043  11.825  1.00  0.00     0.037 C 
HETATM   11  C6  UNL     1      63.332  10.220  10.911  1.00  0.00     0.022 C 
ENDBRANCH   4   5
ENDBRANCH   2   4
BRANCH   2  12
HETATM   12  N2  UNL     1      64.358  14.383   8.544  1.00  0.00    -0.319 N 
ATOM     13  H2  UNL     1      64.024  15.347   8.574  1.00  0.00     0.172 HD
BRANCH  12  14
HETATM   14  C8  UNL     1      65.749  14.039   8.569  1.00  0.00     0.136 C 
BRANCH  14  15
HETATM   15  C9  UNL     1      66.386  14.785   9.700  1.00  0.00     0.004 A 
HETATM   16  C10 UNL     1      65.585  15.132  10.899  1.00  0.00     0.007 A 
HETATM   17  C11 UNL     1      66.695  14.111  10.981  1.00  0.00     0.007 A 
ENDBRANCH  14  15
ENDBRANCH  12  14
ENDBRANCH   2  12
TORSDOF 5
ENDMDL
MODEL 4
REMARK VINA RESULT: -6.284030769      4.962      6.565
REMARK  5 active torsions:
REMARK  status: ('A' for Active; 'I' for Inactive)
REMARK    1  A    between atoms: S1_2  and  C1_4 
REMARK    2  A    between atoms: S1_2  and  N2_12 
REMARK    3  A    between atoms: C1_4  and  C2_5 
REMARK    4  A    between atoms: N2_12  and  C8_14 
REMARK    5  A    between atoms: C8_14  and  C9_15 
ROOT
HETATM    1  O1  UNL     1      60.357  12.029   7.230  1.00  0.00    -0.206 OA
HETATM    2  S1  UNL     1      61.838  12.253   6.991  1.00  0.00     0.226 S 
HETATM    3  O2  UNL     1      61.871  12.718   5.487  1.00  0.00    -0.206 OA
ENDROOT
BRANCH   2   4
HETATM    4  C1  UNL     1      62.375  13.522   8.041  1.00  0.00     0.169 C 
BRANCH   4   5
HETATM    5  C2  UNL     1      63.399  12.945   8.963  1.00  0.00     0.035 C 
HETATM    6  C3  UNL     1      64.634  13.860   9.039  1.00  0.00     0.278 C 
HETATM    7  N1  UNL     1      65.132  13.745  10.400  1.00  0.00     0.089 N 
HETATM    8  C4  UNL     1      64.409  14.795  11.129  1.00  0.00     0.273 C 
HETATM    9  C7  UNL     1      64.421  12.593  10.974  1.00  0.00     0.277 C 
HETATM   10  C5  UNL     1      62.946  14.392  10.956  1.00  0.00     0.037 C 
HETATM   11  C6  UNL     1      63.039  12.982  10.430  1.00  0.00     0.022 C 
ENDBRANCH   4   5
ENDBRANCH   2   4
BRANCH   2  12
HETATM   12  N2  UNL     1      62.604  10.754   7.000  1.00  0.00    -0.319 N 
ATOM     13  H2  UNL     1      63.375  10.521   6.375  1.00  0.00     0.172 HD
BRANCH  12  14
HETATM   14  C8  UNL     1      62.076   9.833   7.963  1.00  0.00     0.136 C 
BRANCH  14  15
HETATM   15  C9  UNL     1      63.233   9.177   8.652  1.00  0.00     0.004 A 
HETATM   16  C10 UNL     1      63.105   7.784   9.144  1.00  0.00     0.007 A 
HETATM   17  C11 UNL     1      64.014   8.112   7.983  1.00  0.00     0.007 A 
ENDBRANCH  14  15
ENDBRANCH  12  14
ENDBRANCH   2  12
TORSDOF 5
ENDMDL
MODEL 5
REMARK VINA RESULT: -6.276435392      5.076      6.632
REMARK  5 active torsions:
REMARK  status: ('A' for Active; 'I' for Inactive)
REMARK    1  A    between atoms: S1_2  and  C1_4 
REMARK    2  A    between atoms: S1_2  and  N2_12 
REMARK    3  A    between atoms: C1_4  and  C2_5 
REMARK    4  A    between atoms: N2_12  and  C8_14 
REMARK    5  A    between atoms: C8_14  and  C9_15 
ROOT
HETATM    1  O1  UNL     1      60.559  12.264   7.572  1.00  0.00    -0.206 OA
HETATM    2  S1  UNL     1      61.945  12.661   8.047  1.00  0.00     0.226 S 
HETATM    3  O2  UNL     1      62.151  14.059   7.353  1.00  0.00    -0.206 OA
ENDROOT
BRANCH   2   4
HETATM    4  C1  UNL     1      61.905  12.826   9.771  1.00  0.00     0.169 C 
BRANCH   4   5
HETATM    5  C2  UNL     1      63.252  13.298  10.213  1.00  0.00     0.035 C 
HETATM    6  C3  UNL     1      63.138  14.124  11.505  1.00  0.00     0.278 C 
HETATM    7  N1  UNL     1      64.346  13.846  12.264  1.00  0.00     0.089 N 
HETATM    8  C4  UNL     1      63.989  12.674  13.076  1.00  0.00     0.273 C 
HETATM    9  C7  UNL     1      65.241  13.155  11.323  1.00  0.00     0.277 C 
HETATM   10  C5  UNL     1      63.644  11.618  12.028  1.00  0.00     0.037 C 
HETATM   11  C6  UNL     1      64.167  12.222  10.749  1.00  0.00     0.022 C 
ENDBRANCH   4   5
ENDBRANCH   2   4
BRANCH   2  12
HETATM   12  N2  UNL     1      63.063  11.641   7.311  1.00  0.00    -0.319 N 
ATOM     13  H2  UNL     1      63.945  11.974   6.923  1.00  0.00     0.172 HD
BRANCH  12  14
HETATM   14  C8  UNL     1      62.666  10.265   7.278  1.00  0.00     0.136 C 
BRANCH  14  15
HETATM   15  C9  UNL     1      63.301   9.576   8.447  1.00  0.00     0.004 A 
HETATM   16  C10 UNL     1      62.526   8.582   9.227  1.00  0.00     0.007 A 
HETATM   17  C11 UNL     1      63.695   8.151   8.372  1.00  0.00     0.007 A 
ENDBRANCH  14  15
ENDBRANCH  12  14
ENDBRANCH   2  12
TORSDOF 5
ENDMDL
