MODEL 1
REMARK VINA RESULT: -6.477511203      0.000      0.000
REMARK  7 active torsions:
REMARK  status: ('A' for Active; 'I' for Inactive)
REMARK    1  A    between atoms: C2_2  and  C4_4 
REMARK    2  A    between atoms: C4_4  and  C16_24 
REMARK       I    between atoms: N1_5  and  C5_7 
REMARK    3  A    between atoms: C5_7  and  C6_9 
REMARK    4  A    between atoms: C6_9  and  C7_10 
REMARK    5  A    between atoms: C6_9  and  N2_13 
REMARK    6  A    between atoms: C12_16  and  C13_17 
REMARK       I    between atoms: C16_24  and  N5_26 
REMARK    7  A    between atoms: N5_26  and  N6_28 
ROOT
HETATM    1  C4  UNL     1      90.791 100.826 -42.254  1.00  0.00     0.085 C 
HETATM    2  N1  UNL     1      90.661  99.527 -42.137  1.00  0.00    -0.320 N 
ATOM      3  H1  UNL     1      91.127  99.076 -41.351  1.00  0.00     0.169 HD
HETATM    4  C5  UNL     1      89.929  98.709 -43.014  1.00  0.00     0.269 C 
HETATM    5  O1  UNL     1      88.656  98.815 -43.018  1.00  0.00    -0.266 OA
ENDROOT
BRANCH   1   6
HETATM    6  C2  UNL     1      90.124 101.499 -43.388  1.00  0.00     0.033 C 
HETATM    7  C1  UNL     1      91.004 102.379 -44.219  1.00  0.00     0.016 C 
HETATM    8  C3  UNL     1      88.914 102.299 -42.927  1.00  0.00     0.016 C 
ENDBRANCH   1   6
BRANCH   1   9
HETATM    9  C16 UNL     1      91.593 101.495 -41.231  1.00  0.00     0.288 C 
HETATM   10  O2  UNL     1      91.122 101.481 -40.077  1.00  0.00    -0.265 OA
HETATM   11  N5  UNL     1      92.818 102.122 -41.501  1.00  0.00    -0.178 N 
ATOM     12  H5  UNL     1      93.095 102.069 -42.482  1.00  0.00     0.197 HD
BRANCH  11  13
HETATM   13  N6  UNL     1      93.714 102.788 -40.718  1.00  0.00     0.037 N 
HETATM   14  C17 UNL     1      94.974 102.921 -41.518  1.00  0.00     0.304 C 
HETATM   15  C18 UNL     1      93.194 104.148 -40.502  1.00  0.00     0.294 C 
HETATM   16  C19 UNL     1      92.877 104.114 -39.024  1.00  0.00     0.269 C 
HETATM   17  N7  UNL     1      94.054 103.431 -38.523  1.00  0.00    -0.047 N 
HETATM   18  C20 UNL     1      95.159 104.326 -38.605  1.00  0.00     0.274 C 
HETATM   19  C21 UNL     1      93.881 102.978 -37.158  1.00  0.00     0.274 C 
HETATM   20  C22 UNL     1      94.130 102.302 -39.462  1.00  0.00     0.499 C 
ENDBRANCH  11  13
ENDBRANCH   1   9
BRANCH   4  21
HETATM   21  C6  UNL     1      90.562  97.743 -43.920  1.00  0.00     0.087 C 
BRANCH  21  22
HETATM   22  C7  UNL     1      91.358  98.342 -45.025  1.00  0.00     0.034 C 
HETATM   23  C8  UNL     1      92.619  99.035 -44.677  1.00  0.00     0.016 C 
HETATM   24  C9  UNL     1      90.527  99.290 -45.909  1.00  0.00     0.016 C 
ENDBRANCH  21  22
BRANCH  21  25
HETATM   25  N2  UNL     1      91.021  96.523 -43.326  1.00  0.00    -0.331 N 
HETATM   26  C10 UNL     1      91.285  96.315 -42.030  1.00  0.00     0.097 A 
HETATM   27  C11 UNL     1      91.715  95.083 -41.526  1.00  0.00     0.032 A 
HETATM   28  C12 UNL     1      91.891  94.010 -42.339  1.00  0.00     0.007 A 
HETATM   29  C14 UNL     1      91.625  94.204 -43.682  1.00  0.00     0.032 A 
HETATM   30  C15 UNL     1      91.212  95.416 -44.120  1.00  0.00     0.097 A 
BRANCH  28  31
HETATM   31  C13 UNL     1      92.325  92.684 -41.935  1.00  0.00     0.120 C 
HETATM   32  N3  UNL     1      91.610  91.630 -42.054  1.00  0.00    -0.387 N 
ATOM     33  H32 UNL     1      90.683  91.765 -42.456  1.00  0.00     0.157 HD
ATOM     34  H31 UNL     1      91.915  90.699 -41.770  1.00  0.00     0.157 HD
HETATM   35  N4  UNL     1      93.631  92.494 -41.368  1.00  0.00    -0.082 NA
ENDBRANCH  28  31
ENDBRANCH  21  25
ENDBRANCH   4  21
TORSDOF 7
ENDMDL
MODEL 2
REMARK VINA RESULT: -6.054313904      1.489      1.730
REMARK  7 active torsions:
REMARK  status: ('A' for Active; 'I' for Inactive)
REMARK    1  A    between atoms: C2_2  and  C4_4 
REMARK    2  A    between atoms: C4_4  and  C16_24 
REMARK       I    between atoms: N1_5  and  C5_7 
REMARK    3  A    between atoms: C5_7  and  C6_9 
REMARK    4  A    between atoms: C6_9  and  C7_10 
REMARK    5  A    between atoms: C6_9  and  N2_13 
REMARK    6  A    between atoms: C12_16  and  C13_17 
REMARK       I    between atoms: C16_24  and  N5_26 
REMARK    7  A    between atoms: N5_26  and  N6_28 
ROOT
HETATM    1  C4  UNL     1      90.557 100.801 -42.266  1.00  0.00     0.085 C 
HETATM    2  N1  UNL     1      90.436  99.498 -42.202  1.00  0.00    -0.320 N 
ATOM      3  H1  UNL     1      90.814  99.029 -41.379  1.00  0.00     0.169 HD
HETATM    4  C5  UNL     1      89.824  98.698 -43.182  1.00  0.00     0.269 C 
HETATM    5  O1  UNL     1      88.559  98.788 -43.332  1.00  0.00    -0.266 OA
ENDROOT
BRANCH   1   6
HETATM    6  C2  UNL     1      90.017 101.501 -43.450  1.00  0.00     0.033 C 
HETATM    7  C1  UNL     1      90.941 102.491 -44.087  1.00  0.00     0.016 C 
HETATM    8  C3  UNL     1      88.694 102.184 -43.138  1.00  0.00     0.016 C 
ENDBRANCH   1   6
BRANCH   1   9
HETATM    9  C16 UNL     1      91.223 101.449 -41.136  1.00  0.00     0.288 C 
HETATM   10  O2  UNL     1      92.175 100.821 -40.634  1.00  0.00    -0.265 OA
HETATM   11  N5  UNL     1      90.837 102.698 -40.628  1.00  0.00    -0.178 N 
ATOM     12  H5  UNL     1      90.044 103.110 -41.120  1.00  0.00     0.197 HD
BRANCH  11  13
HETATM   13  N6  UNL     1      91.307 103.473 -39.608  1.00  0.00     0.037 N 
HETATM   14  C17 UNL     1      92.719 103.836 -39.955  1.00  0.00     0.304 C 
HETATM   15  C18 UNL     1      90.528 104.722 -39.601  1.00  0.00     0.294 C 
HETATM   16  C19 UNL     1      89.758 104.585 -38.307  1.00  0.00     0.269 C 
HETATM   17  N7  UNL     1      90.803 104.083 -37.436  1.00  0.00    -0.047 N 
HETATM   18  C20 UNL     1      91.712 105.148 -37.170  1.00  0.00     0.274 C 
HETATM   19  C21 UNL     1      90.273 103.560 -36.193  1.00  0.00     0.274 C 
HETATM   20  C22 UNL     1      91.365 103.016 -38.275  1.00  0.00     0.499 C 
ENDBRANCH  11  13
ENDBRANCH   1   9
BRANCH   4  21
HETATM   21  C6  UNL     1      90.575  97.768 -44.035  1.00  0.00     0.087 C 
BRANCH  21  22
HETATM   22  C7  UNL     1      91.448  98.411 -45.053  1.00  0.00     0.034 C 
HETATM   23  C8  UNL     1      92.656  99.124 -44.584  1.00  0.00     0.016 C 
HETATM   24  C9  UNL     1      90.673  99.359 -45.986  1.00  0.00     0.016 C 
ENDBRANCH  21  22
BRANCH  21  25
HETATM   25  N2  UNL     1      91.022  96.558 -43.412  1.00  0.00    -0.331 N 
HETATM   26  C10 UNL     1      91.265  96.371 -42.110  1.00  0.00     0.097 A 
HETATM   27  C11 UNL     1      91.683  95.147 -41.577  1.00  0.00     0.032 A 
HETATM   28  C12 UNL     1      91.870  94.059 -42.370  1.00  0.00     0.007 A 
HETATM   29  C14 UNL     1      91.624  94.231 -43.720  1.00  0.00     0.032 A 
HETATM   30  C15 UNL     1      91.221  95.437 -44.185  1.00  0.00     0.097 A 
BRANCH  28  31
HETATM   31  C13 UNL     1      92.294  92.740 -41.936  1.00  0.00     0.120 C 
HETATM   32  N3  UNL     1      91.599  91.678 -42.094  1.00  0.00    -0.387 N 
ATOM     33  H32 UNL     1      90.696  91.801 -42.552  1.00  0.00     0.157 HD
ATOM     34  H31 UNL     1      91.897  90.751 -41.790  1.00  0.00     0.157 HD
HETATM   35  N4  UNL     1      93.566  92.566 -41.291  1.00  0.00    -0.082 NA
ENDBRANCH  28  31
ENDBRANCH  21  25
ENDBRANCH   4  21
TORSDOF 7
ENDMDL
MODEL 3
REMARK VINA RESULT: -5.760757247      3.723      6.024
REMARK  7 active torsions:
REMARK  status: ('A' for Active; 'I' for Inactive)
REMARK    1  A    between atoms: C2_2  and  C4_4 
REMARK    2  A    between atoms: C4_4  and  C16_24 
REMARK       I    between atoms: N1_5  and  C5_7 
REMARK    3  A    between atoms: C5_7  and  C6_9 
REMARK    4  A    between atoms: C6_9  and  C7_10 
REMARK    5  A    between atoms: C6_9  and  N2_13 
REMARK    6  A    between atoms: C12_16  and  C13_17 
REMARK       I    between atoms: C16_24  and  N5_26 
REMARK    7  A    between atoms: N5_26  and  N6_28 
ROOT
HETATM    1  C4  UNL     1      90.640  98.761 -44.690  1.00  0.00     0.085 C 
HETATM    2  N1  UNL     1      90.305  98.393 -45.902  1.00  0.00    -0.320 N 
ATOM      3  H1  UNL     1      90.748  98.877 -46.682  1.00  0.00     0.169 HD
HETATM    4  C5  UNL     1      89.381  97.380 -46.209  1.00  0.00     0.269 C 
HETATM    5  O1  UNL     1      89.702  96.170 -45.953  1.00  0.00    -0.266 OA
ENDROOT
BRANCH   1   6
HETATM    6  C2  UNL     1      90.008  98.071 -43.546  1.00  0.00     0.033 C 
HETATM    7  C1  UNL     1      88.999  98.877 -42.789  1.00  0.00     0.016 C 
HETATM    8  C3  UNL     1      91.049  97.537 -42.574  1.00  0.00     0.016 C 
ENDBRANCH   1   6
BRANCH   1   9
HETATM    9  C16 UNL     1      91.627  99.835 -44.586  1.00  0.00     0.288 C 
HETATM   10  O2  UNL     1      92.711  99.635 -45.167  1.00  0.00    -0.265 OA
HETATM   11  N5  UNL     1      91.398 101.025 -43.881  1.00  0.00    -0.178 N 
ATOM     12  H5  UNL     1      90.476 101.070 -43.446  1.00  0.00     0.197 HD
BRANCH  11  13
HETATM   13  N6  UNL     1      92.158 102.137 -43.660  1.00  0.00     0.037 N 
HETATM   14  C17 UNL     1      92.292 102.838 -44.977  1.00  0.00     0.304 C 
HETATM   15  C18 UNL     1      91.397 103.029 -42.770  1.00  0.00     0.294 C 
HETATM   16  C19 UNL     1      92.231 102.973 -41.511  1.00  0.00     0.269 C 
HETATM   17  N7  UNL     1      93.563 103.067 -42.077  1.00  0.00    -0.047 N 
HETATM   18  C20 UNL     1      93.755 104.399 -42.545  1.00  0.00     0.274 C 
HETATM   19  C21 UNL     1      94.590 102.724 -41.115  1.00  0.00     0.274 C 
HETATM   20  C22 UNL     1      93.470 102.066 -43.150  1.00  0.00     0.499 C 
ENDBRANCH  11  13
ENDBRANCH   1   9
BRANCH   4  21
HETATM   21  C6  UNL     1      88.069  97.652 -46.809  1.00  0.00     0.087 C 
BRANCH  21  22
HETATM   22  C7  UNL     1      87.675  96.730 -47.909  1.00  0.00     0.034 C 
HETATM   23  C8  UNL     1      88.544  96.663 -49.105  1.00  0.00     0.016 C 
HETATM   24  C9  UNL     1      86.230  96.960 -48.388  1.00  0.00     0.016 C 
ENDBRANCH  21  22
BRANCH  21  25
HETATM   25  N2  UNL     1      87.053  98.134 -45.921  1.00  0.00    -0.331 N 
HETATM   26  C10 UNL     1      86.362  97.414 -45.029  1.00  0.00     0.097 A 
HETATM   27  C11 UNL     1      85.396  97.967 -44.183  1.00  0.00     0.032 A 
HETATM   28  C12 UNL     1      85.100  99.292 -44.221  1.00  0.00     0.007 A 
HETATM   29  C14 UNL     1      85.802 100.055 -45.137  1.00  0.00     0.032 A 
HETATM   30  C15 UNL     1      86.727  99.471 -45.933  1.00  0.00     0.097 A 
BRANCH  28  31
HETATM   31  C13 UNL     1      84.126  99.982 -43.393  1.00  0.00     0.120 C 
HETATM   32  N3  UNL     1      84.406 100.549 -42.282  1.00  0.00    -0.387 N 
ATOM     33  H32 UNL     1      85.381 100.492 -41.986  1.00  0.00     0.157 HD
ATOM     34  H31 UNL     1      83.723 101.034 -41.700  1.00  0.00     0.157 HD
HETATM   35  N4  UNL     1      82.754 100.063 -43.809  1.00  0.00    -0.082 NA
ENDBRANCH  28  31
ENDBRANCH  21  25
ENDBRANCH   4  21
TORSDOF 7
ENDMDL
MODEL 4
REMARK VINA RESULT: -5.582487613      3.329      5.288
REMARK  7 active torsions:
REMARK  status: ('A' for Active; 'I' for Inactive)
REMARK    1  A    between atoms: C2_2  and  C4_4 
REMARK    2  A    between atoms: C4_4  and  C16_24 
REMARK       I    between atoms: N1_5  and  C5_7 
REMARK    3  A    between atoms: C5_7  and  C6_9 
REMARK    4  A    between atoms: C6_9  and  C7_10 
REMARK    5  A    between atoms: C6_9  and  N2_13 
REMARK    6  A    between atoms: C12_16  and  C13_17 
REMARK       I    between atoms: C16_24  and  N5_26 
REMARK    7  A    between atoms: N5_26  and  N6_28 
ROOT
HETATM    1  C4  UNL     1      91.196  99.834 -43.788  1.00  0.00     0.085 C 
HETATM    2  N1  UNL     1      91.129 100.083 -45.072  1.00  0.00    -0.320 N 
ATOM      3  H1  UNL     1      91.546 100.952 -45.406  1.00  0.00     0.169 HD
HETATM    4  C5  UNL     1      90.527  99.245 -46.025  1.00  0.00     0.269 C 
HETATM    5  O1  UNL     1      91.090  98.130 -46.292  1.00  0.00    -0.266 OA
ENDROOT
BRANCH   1   6
HETATM    6  C2  UNL     1      90.596  98.580 -43.284  1.00  0.00     0.033 C 
HETATM    7  C1  UNL     1      89.239  98.720 -42.669  1.00  0.00     0.016 C 
HETATM    8  C3  UNL     1      91.519  97.880 -42.297  1.00  0.00     0.016 C 
ENDBRANCH   1   6
BRANCH   1   9
HETATM    9  C16 UNL     1      91.872 100.835 -42.964  1.00  0.00     0.288 C 
HETATM   10  O2  UNL     1      92.998 101.194 -43.361  1.00  0.00    -0.265 OA
HETATM   11  N5  UNL     1      91.316 101.374 -41.795  1.00  0.00    -0.178 N 
ATOM     12  H5  UNL     1      90.394 100.998 -41.573  1.00  0.00     0.197 HD
BRANCH  11  13
HETATM   13  N6  UNL     1      91.758 102.299 -40.895  1.00  0.00     0.037 N 
HETATM   14  C17 UNL     1      90.543 102.882 -40.241  1.00  0.00     0.304 C 
HETATM   15  C18 UNL     1      92.509 101.582 -39.851  1.00  0.00     0.294 C 
HETATM   16  C19 UNL     1      93.915 102.077 -40.105  1.00  0.00     0.269 C 
HETATM   17  N7  UNL     1      93.658 103.487 -40.326  1.00  0.00    -0.047 N 
HETATM   18  C20 UNL     1      93.318 104.080 -39.076  1.00  0.00     0.274 C 
HETATM   19  C21 UNL     1      94.801 104.165 -40.904  1.00  0.00     0.274 C 
HETATM   20  C22 UNL     1      92.538 103.411 -41.274  1.00  0.00     0.499 C 
ENDBRANCH  11  13
ENDBRANCH   1   9
BRANCH   4  21
HETATM   21  C6  UNL     1      89.283  99.595 -46.723  1.00  0.00     0.087 C 
BRANCH  21  22
HETATM   22  C7  UNL     1      89.381  99.629 -48.207  1.00  0.00     0.034 C 
HETATM   23  C8  UNL     1      90.493 100.394 -48.814  1.00  0.00     0.016 C 
HETATM   24  C9  UNL     1      88.073 100.085 -48.878  1.00  0.00     0.016 C 
ENDBRANCH  21  22
BRANCH  21  25
HETATM   25  N2  UNL     1      88.068  99.127 -46.126  1.00  0.00    -0.331 N 
HETATM   26  C10 UNL     1      87.630  97.863 -46.087  1.00  0.00     0.097 A 
HETATM   27  C11 UNL     1      86.436  97.486 -45.464  1.00  0.00     0.032 A 
HETATM   28  C12 UNL     1      85.639  98.400 -44.853  1.00  0.00     0.007 A 
HETATM   29  C14 UNL     1      86.073  99.713 -44.882  1.00  0.00     0.032 A 
HETATM   30  C15 UNL     1      87.236 100.026 -45.498  1.00  0.00     0.097 A 
BRANCH  28  31
HETATM   31  C13 UNL     1      84.385  98.131 -44.171  1.00  0.00     0.120 C 
HETATM   32  N3  UNL     1      84.131  98.496 -42.972  1.00  0.00    -0.387 N 
ATOM     33  H32 UNL     1      84.877  99.000 -42.493  1.00  0.00     0.157 HD
ATOM     34  H31 UNL     1      83.250  98.308 -42.493  1.00  0.00     0.157 HD
HETATM   35  N4  UNL     1      83.334  97.421 -44.846  1.00  0.00    -0.082 NA
ENDBRANCH  28  31
ENDBRANCH  21  25
ENDBRANCH   4  21
TORSDOF 7
ENDMDL
MODEL 5
REMARK VINA RESULT: -5.549772333      3.957      8.039
REMARK  7 active torsions:
REMARK  status: ('A' for Active; 'I' for Inactive)
REMARK    1  A    between atoms: C2_2  and  C4_4 
REMARK    2  A    between atoms: C4_4  and  C16_24 
REMARK       I    between atoms: N1_5  and  C5_7 
REMARK    3  A    between atoms: C5_7  and  C6_9 
REMARK    4  A    between atoms: C6_9  and  C7_10 
REMARK    5  A    between atoms: C6_9  and  N2_13 
REMARK    6  A    between atoms: C12_16  and  C13_17 
REMARK       I    between atoms: C16_24  and  N5_26 
REMARK    7  A    between atoms: N5_26  and  N6_28 
ROOT
HETATM    1  C4  UNL     1      87.838  97.815 -46.467  1.00  0.00     0.085 C 
HETATM    2  N1  UNL     1      88.278  96.665 -46.022  1.00  0.00    -0.320 N 
ATOM      3  H1  UNL     1      87.634  96.092 -45.476  1.00  0.00     0.169 HD
HETATM    4  C5  UNL     1      89.571  96.160 -46.238  1.00  0.00     0.269 C 
HETATM    5  O1  UNL     1      89.890  95.799 -47.421  1.00  0.00    -0.266 OA
ENDROOT
BRANCH   1   6
HETATM    6  C2  UNL     1      88.756  98.661 -47.259  1.00  0.00     0.033 C 
HETATM    7  C1  UNL     1      89.256  99.889 -46.565  1.00  0.00     0.016 C 
HETATM    8  C3  UNL     1      88.137  99.059 -48.590  1.00  0.00     0.016 C 
ENDBRANCH   1   6
BRANCH   1   9
HETATM    9  C16 UNL     1      86.455  98.156 -46.136  1.00  0.00     0.288 C 
HETATM   10  O2  UNL     1      85.577  97.554 -46.785  1.00  0.00    -0.265 OA
HETATM   11  N5  UNL     1      86.107  99.096 -45.156  1.00  0.00    -0.178 N 
ATOM     12  H5  UNL     1      86.912  99.523 -44.698  1.00  0.00     0.197 HD
BRANCH  11  13
HETATM   13  N6  UNL     1      84.909  99.556 -44.692  1.00  0.00     0.037 N 
HETATM   14  C17 UNL     1      84.305  98.449 -43.883  1.00  0.00     0.304 C 
HETATM   15  C18 UNL     1      85.186 100.667 -43.766  1.00  0.00     0.294 C 
HETATM   16  C19 UNL     1      84.627 101.841 -44.537  1.00  0.00     0.269 C 
HETATM   17  N7  UNL     1      83.389 101.266 -45.025  1.00  0.00    -0.047 N 
HETATM   18  C20 UNL     1      82.494 101.134 -43.925  1.00  0.00     0.274 C 
HETATM   19  C21 UNL     1      82.785 102.074 -46.065  1.00  0.00     0.274 C 
HETATM   20  C22 UNL     1      83.877  99.984 -45.552  1.00  0.00     0.499 C 
ENDBRANCH  11  13
ENDBRANCH   1   9
BRANCH   4  21
HETATM   21  C6  UNL     1      90.567  96.029 -45.166  1.00  0.00     0.087 C 
BRANCH  21  22
HETATM   22  C7  UNL     1      91.446  94.833 -45.266  1.00  0.00     0.034 C 
HETATM   23  C8  UNL     1      91.086  93.783 -46.245  1.00  0.00     0.016 C 
HETATM   24  C9  UNL     1      91.677  94.150 -43.905  1.00  0.00     0.016 C 
ENDBRANCH  21  22
BRANCH  21  25
HETATM   25  N2  UNL     1      91.122  97.250 -44.664  1.00  0.00    -0.331 N 
HETATM   26  C10 UNL     1      92.142  97.940 -45.188  1.00  0.00     0.097 A 
HETATM   27  C11 UNL     1      92.614  99.140 -44.645  1.00  0.00     0.032 A 
HETATM   28  C12 UNL     1      92.051  99.680 -43.533  1.00  0.00     0.007 A 
HETATM   29  C14 UNL     1      90.995  98.982 -42.975  1.00  0.00     0.032 A 
HETATM   30  C15 UNL     1      90.577  97.826 -43.540  1.00  0.00     0.097 A 
BRANCH  28  31
HETATM   31  C13 UNL     1      92.446 100.917 -42.882  1.00  0.00     0.120 C 
HETATM   32  N3  UNL     1      93.440 101.632 -43.249  1.00  0.00    -0.387 N 
ATOM     33  H32 UNL     1      93.969 101.283 -44.048  1.00  0.00     0.157 HD
ATOM     34  H31 UNL     1      93.717 102.501 -42.792  1.00  0.00     0.157 HD
HETATM   35  N4  UNL     1      91.701 101.409 -41.756  1.00  0.00    -0.082 NA
ENDBRANCH  28  31
ENDBRANCH  21  25
ENDBRANCH   4  21
TORSDOF 7
ENDMDL
