MODEL 1
REMARK VINA RESULT: -7.346025503      0.000      0.000
REMARK  9 active torsions:
REMARK  status: ('A' for Active; 'I' for Inactive)
REMARK    1  A    between atoms: C2_2  and  C3_3 
REMARK    2  A    between atoms: C3_3  and  C4_4 
REMARK    3  A    between atoms: C10_11  and  C11_12 
REMARK    4  A    between atoms: C11_12  and  C12_13 
REMARK    5  A    between atoms: C12_13  and  C13_14 
REMARK    6  A    between atoms: C13_14  and  O2_16 
REMARK    7  A    between atoms: C13_14  and  C15_18 
REMARK    8  A    between atoms: C15_18  and  N1_19 
REMARK    9  A    between atoms: C17_24  and  O3_25 
ROOT
HETATM    1  C4  UNL     1      23.771  51.585  20.661  1.00  0.00     0.151 C 
HETATM    2  O1  UNL     1      24.061  52.239  19.512  1.00  0.00    -0.378 OA
HETATM    3  C5  UNL     1      24.498  51.593  18.415  1.00  0.00     0.127 C 
HETATM    4  C6  UNL     1      24.156  50.123  18.302  1.00  0.00     0.039 C 
HETATM    5  C7  UNL     1      22.818  50.016  19.050  1.00  0.00     0.020 C 
HETATM    6  C8  UNL     1      21.892  51.133  18.613  1.00  0.00     0.012 C 
HETATM    7  C9  UNL     1      22.304  51.831  17.372  1.00  0.00    -0.003 A 
HETATM    8  C10 UNL     1      22.765  53.287  17.449  1.00  0.00    -0.003 A 
HETATM    9  C16 UNL     1      23.723  52.211  17.231  1.00  0.00     0.023 A 
HETATM   10  C17 UNL     1      23.243  50.188  20.519  1.00  0.00     0.151 C 
ENDROOT
BRANCH   8  11
HETATM   11  C11 UNL     1      22.451  54.171  16.257  1.00  0.00     0.008 C 
BRANCH  11  12
HETATM   12  C12 UNL     1      23.720  54.781  15.683  1.00  0.00     0.039 C 
BRANCH  12  13
HETATM   13  C13 UNL     1      23.531  56.270  15.525  1.00  0.00     0.078 C 
HETATM   14  C14 UNL     1      23.853  56.687  14.104  1.00  0.00     0.047 C 
BRANCH  13  15
HETATM   15  O2  UNL     1      22.210  56.623  15.766  1.00  0.00    -0.389 OA
ATOM     16  H2  UNL     1      21.995  56.511  16.684  1.00  0.00     0.210 HD
ENDBRANCH  13  15
BRANCH  13  17
HETATM   17  C15 UNL     1      24.401  57.066  16.444  1.00  0.00     0.266 C 
BRANCH  17  18
HETATM   18  N1  UNL     1      24.215  56.704  17.837  1.00  0.00    -0.076 N 
ATOM     19  H13 UNL     1      23.423  56.070  17.949  1.00  0.00     0.274 HD
ATOM     20  H12 UNL     1      24.962  56.090  18.159  1.00  0.00     0.274 HD
ATOM     21  H11 UNL     1      24.121  57.519  18.443  1.00  0.00     0.274 HD
ENDBRANCH  17  18
ENDBRANCH  13  17
ENDBRANCH  12  13
ENDBRANCH  11  12
ENDBRANCH   8  11
BRANCH  10  22
HETATM   22  O3  UNL     1      24.306  49.302  20.679  1.00  0.00    -0.393 OA
ATOM     23  H3  UNL     1      23.968  48.498  21.055  1.00  0.00     0.210 HD
ENDBRANCH  10  22
BRANCH   1  24
HETATM   24  C3  UNL     1      24.862  51.726  21.705  1.00  0.00     0.034 C 
BRANCH  24  25
HETATM   25  C2  UNL     1      24.699  52.881  22.625  1.00  0.00    -0.002 C 
HETATM   26  C1  UNL     1      23.543  52.725  23.588  1.00  0.00     0.005 C 
ENDBRANCH  24  25
ENDBRANCH   1  24
TORSDOF 9
ENDMDL
MODEL 2
REMARK VINA RESULT: -7.302436039      1.170      1.461
REMARK  9 active torsions:
REMARK  status: ('A' for Active; 'I' for Inactive)
REMARK    1  A    between atoms: C2_2  and  C3_3 
REMARK    2  A    between atoms: C3_3  and  C4_4 
REMARK    3  A    between atoms: C10_11  and  C11_12 
REMARK    4  A    between atoms: C11_12  and  C12_13 
REMARK    5  A    between atoms: C12_13  and  C13_14 
REMARK    6  A    between atoms: C13_14  and  O2_16 
REMARK    7  A    between atoms: C13_14  and  C15_18 
REMARK    8  A    between atoms: C15_18  and  N1_19 
REMARK    9  A    between atoms: C17_24  and  O3_25 
ROOT
HETATM    1  C4  UNL     1      23.940  50.935  21.780  1.00  0.00     0.151 C 
HETATM    2  O1  UNL     1      24.204  51.612  20.638  1.00  0.00    -0.378 OA
HETATM    3  C5  UNL     1      24.946  51.080  19.650  1.00  0.00     0.127 C 
HETATM    4  C6  UNL     1      25.026  49.570  19.588  1.00  0.00     0.039 C 
HETATM    5  C7  UNL     1      23.673  49.124  20.164  1.00  0.00     0.020 C 
HETATM    6  C8  UNL     1      22.554  49.936  19.542  1.00  0.00     0.012 C 
HETATM    7  C9  UNL     1      22.937  50.686  18.322  1.00  0.00    -0.003 A 
HETATM    8  C10 UNL     1      22.979  52.213  18.365  1.00  0.00    -0.003 A 
HETATM    9  C16 UNL     1      24.209  51.433  18.340  1.00  0.00     0.023 A 
HETATM   10  C17 UNL     1      23.827  49.443  21.661  1.00  0.00     0.151 C 
ENDROOT
BRANCH   8  11
HETATM   11  C11 UNL     1      22.613  52.947  17.089  1.00  0.00     0.008 C 
BRANCH  11  12
HETATM   12  C12 UNL     1      23.793  53.749  16.563  1.00  0.00     0.039 C 
BRANCH  12  13
HETATM   13  C13 UNL     1      23.283  54.978  15.850  1.00  0.00     0.078 C 
HETATM   14  C14 UNL     1      23.491  54.834  14.356  1.00  0.00     0.047 C 
BRANCH  13  15
HETATM   15  O2  UNL     1      21.920  55.135  16.061  1.00  0.00    -0.389 OA
ATOM     16  H2  UNL     1      21.423  54.645  15.417  1.00  0.00     0.210 HD
ENDBRANCH  13  15
BRANCH  13  17
HETATM   17  C15 UNL     1      23.971  56.230  16.289  1.00  0.00     0.266 C 
BRANCH  17  18
HETATM   18  N1  UNL     1      24.126  56.302  17.731  1.00  0.00    -0.076 N 
ATOM     19  H13 UNL     1      23.352  56.810  18.158  1.00  0.00     0.274 HD
ATOM     20  H12 UNL     1      23.979  55.389  18.161  1.00  0.00     0.274 HD
ATOM     21  H11 UNL     1      25.024  56.699  18.007  1.00  0.00     0.274 HD
ENDBRANCH  17  18
ENDBRANCH  13  17
ENDBRANCH  12  13
ENDBRANCH  11  12
ENDBRANCH   8  11
BRANCH  10  22
HETATM   22  O3  UNL     1      25.054  48.884  22.011  1.00  0.00    -0.393 OA
ATOM     23  H3  UNL     1      25.208  48.132  21.452  1.00  0.00     0.210 HD
ENDBRANCH  10  22
BRANCH   1  24
HETATM   24  C3  UNL     1      24.797  51.395  22.944  1.00  0.00     0.034 C 
BRANCH  24  25
HETATM   25  C2  UNL     1      24.060  51.599  24.218  1.00  0.00    -0.002 C 
HETATM   26  C1  UNL     1      23.353  52.935  24.296  1.00  0.00     0.005 C 
ENDBRANCH  24  25
ENDBRANCH   1  24
TORSDOF 9
ENDMDL
MODEL 3
REMARK VINA RESULT: -7.264409835      3.409      7.788
REMARK  9 active torsions:
REMARK  status: ('A' for Active; 'I' for Inactive)
REMARK    1  A    between atoms: C2_2  and  C3_3 
REMARK    2  A    between atoms: C3_3  and  C4_4 
REMARK    3  A    between atoms: C10_11  and  C11_12 
REMARK    4  A    between atoms: C11_12  and  C12_13 
REMARK    5  A    between atoms: C12_13  and  C13_14 
REMARK    6  A    between atoms: C13_14  and  O2_16 
REMARK    7  A    between atoms: C13_14  and  C15_18 
REMARK    8  A    between atoms: C15_18  and  N1_19 
REMARK    9  A    between atoms: C17_24  and  O3_25 
ROOT
HETATM    1  C4  UNL     1      24.232  54.218  11.099  1.00  0.00     0.151 C 
HETATM    2  O1  UNL     1      24.218  54.002  12.436  1.00  0.00    -0.378 OA
HETATM    3  C5  UNL     1      25.085  54.614  13.264  1.00  0.00     0.127 C 
HETATM    4  C6  UNL     1      25.695  55.912  12.783  1.00  0.00     0.039 C 
HETATM    5  C7  UNL     1      24.600  56.501  11.881  1.00  0.00     0.020 C 
HETATM    6  C8  UNL     1      23.255  56.408  12.574  1.00  0.00     0.012 C 
HETATM    7  C9  UNL     1      23.325  56.124  14.028  1.00  0.00    -0.003 A 
HETATM    8  C10 UNL     1      22.822  54.779  14.552  1.00  0.00    -0.003 A 
HETATM    9  C16 UNL     1      24.248  55.065  14.481  1.00  0.00     0.023 A 
HETATM   10  C17 UNL     1      24.655  55.585  10.647  1.00  0.00     0.151 C 
ENDROOT
BRANCH   8  11
HETATM   11  C11 UNL     1      22.197  54.770  15.934  1.00  0.00     0.008 C 
BRANCH  11  12
HETATM   12  C12 UNL     1      22.133  53.358  16.494  1.00  0.00     0.039 C 
BRANCH  12  13
HETATM   13  C13 UNL     1      23.172  53.204  17.579  1.00  0.00     0.078 C 
HETATM   14  C14 UNL     1      24.326  52.362  17.076  1.00  0.00     0.047 C 
BRANCH  13  15
HETATM   15  O2  UNL     1      23.692  54.441  17.937  1.00  0.00    -0.389 OA
ATOM     16  H2  UNL     1      23.241  54.787  18.697  1.00  0.00     0.210 HD
ENDBRANCH  13  15
BRANCH  13  17
HETATM   17  C15 UNL     1      22.631  52.552  18.810  1.00  0.00     0.266 C 
BRANCH  17  18
HETATM   18  N1  UNL     1      23.009  53.255  20.023  1.00  0.00    -0.076 N 
ATOM     19  H13 UNL     1      23.213  52.601  20.778  1.00  0.00     0.274 HD
ATOM     20  H12 UNL     1      23.928  53.685  19.926  1.00  0.00     0.274 HD
ATOM     21  H11 UNL     1      22.310  53.941  20.309  1.00  0.00     0.274 HD
ENDBRANCH  17  18
ENDBRANCH  13  17
ENDBRANCH  12  13
ENDBRANCH  11  12
ENDBRANCH   8  11
BRANCH  10  22
HETATM   22  O3  UNL     1      26.006  55.534  10.312  1.00  0.00    -0.393 OA
ATOM     23  H3  UNL     1      26.198  54.663   9.984  1.00  0.00     0.210 HD
ENDBRANCH  10  22
BRANCH   1  24
HETATM   24  C3  UNL     1      24.888  53.086  10.331  1.00  0.00     0.034 C 
BRANCH  24  25
HETATM   25  C2  UNL     1      24.546  51.724  10.814  1.00  0.00    -0.002 C 
HETATM   26  C1  UNL     1      25.505  51.199  11.861  1.00  0.00     0.005 C 
ENDBRANCH  24  25
ENDBRANCH   1  24
TORSDOF 9
ENDMDL
MODEL 4
REMARK VINA RESULT: -7.229321189      3.906      7.801
REMARK  9 active torsions:
REMARK  status: ('A' for Active; 'I' for Inactive)
REMARK    1  A    between atoms: C2_2  and  C3_3 
REMARK    2  A    between atoms: C3_3  and  C4_4 
REMARK    3  A    between atoms: C10_11  and  C11_12 
REMARK    4  A    between atoms: C11_12  and  C12_13 
REMARK    5  A    between atoms: C12_13  and  C13_14 
REMARK    6  A    between atoms: C13_14  and  O2_16 
REMARK    7  A    between atoms: C13_14  and  C15_18 
REMARK    8  A    between atoms: C15_18  and  N1_19 
REMARK    9  A    between atoms: C17_24  and  O3_25 
ROOT
HETATM    1  C4  UNL     1      24.538  53.134  11.059  1.00  0.00     0.151 C 
HETATM    2  O1  UNL     1      24.649  53.503  12.357  1.00  0.00    -0.378 OA
HETATM    3  C5  UNL     1      25.435  54.525  12.742  1.00  0.00     0.127 C 
HETATM    4  C6  UNL     1      25.758  55.574  11.700  1.00  0.00     0.039 C 
HETATM    5  C7  UNL     1      24.516  55.562  10.795  1.00  0.00     0.020 C 
HETATM    6  C8  UNL     1      23.260  55.575  11.642  1.00  0.00     0.012 C 
HETATM    7  C9  UNL     1      23.473  55.942  13.062  1.00  0.00    -0.003 A 
HETATM    8  C10 UNL     1      23.266  54.885  14.148  1.00  0.00    -0.003 A 
HETATM    9  C16 UNL     1      24.606  55.320  13.775  1.00  0.00     0.023 A 
HETATM   10  C17 UNL     1      24.666  54.229  10.041  1.00  0.00     0.151 C 
ENDROOT
BRANCH   8  11
HETATM   11  C11 UNL     1      22.742  55.369  15.487  1.00  0.00     0.008 C 
BRANCH  11  12
HETATM   12  C12 UNL     1      22.134  54.223  16.279  1.00  0.00     0.039 C 
BRANCH  12  13
HETATM   13  C13 UNL     1      23.140  53.726  17.289  1.00  0.00     0.078 C 
HETATM   14  C14 UNL     1      24.173  52.853  16.606  1.00  0.00     0.047 C 
BRANCH  13  15
HETATM   15  O2  UNL     1      23.820  54.789  17.867  1.00  0.00    -0.389 OA
ATOM     16  H2  UNL     1      24.646  54.499  18.236  1.00  0.00     0.210 HD
ENDBRANCH  13  15
BRANCH  13  17
HETATM   17  C15 UNL     1      22.515  52.922  18.383  1.00  0.00     0.266 C 
BRANCH  17  18
HETATM   18  N1  UNL     1      23.006  53.296  19.697  1.00  0.00    -0.076 N 
ATOM     19  H13 UNL     1      23.910  53.763  19.631  1.00  0.00     0.274 HD
ATOM     20  H12 UNL     1      22.456  54.060  20.090  1.00  0.00     0.274 HD
ATOM     21  H11 UNL     1      23.046  52.504  20.338  1.00  0.00     0.274 HD
ENDBRANCH  17  18
ENDBRANCH  13  17
ENDBRANCH  12  13
ENDBRANCH  11  12
ENDBRANCH   8  11
BRANCH  10  22
HETATM   22  O3  UNL     1      25.979  54.239   9.575  1.00  0.00    -0.393 OA
ATOM     23  H3  UNL     1      26.448  54.931  10.025  1.00  0.00     0.210 HD
ENDBRANCH  10  22
BRANCH   1  24
HETATM   24  C3  UNL     1      25.347  51.894  10.732  1.00  0.00     0.034 C 
BRANCH  24  25
HETATM   25  C2  UNL     1      25.416  50.888  11.823  1.00  0.00    -0.002 C 
HETATM   26  C1  UNL     1      26.556  49.906  11.664  1.00  0.00     0.005 C 
ENDBRANCH  24  25
ENDBRANCH   1  24
TORSDOF 9
ENDMDL
MODEL 5
REMARK VINA RESULT: -7.209201738      2.040      3.469
REMARK  9 active torsions:
REMARK  status: ('A' for Active; 'I' for Inactive)
REMARK    1  A    between atoms: C2_2  and  C3_3 
REMARK    2  A    between atoms: C3_3  and  C4_4 
REMARK    3  A    between atoms: C10_11  and  C11_12 
REMARK    4  A    between atoms: C11_12  and  C12_13 
REMARK    5  A    between atoms: C12_13  and  C13_14 
REMARK    6  A    between atoms: C13_14  and  O2_16 
REMARK    7  A    between atoms: C13_14  and  C15_18 
REMARK    8  A    between atoms: C15_18  and  N1_19 
REMARK    9  A    between atoms: C17_24  and  O3_25 
ROOT
HETATM    1  C4  UNL     1      25.623  49.048  20.195  1.00  0.00     0.151 C 
HETATM    2  O1  UNL     1      24.752  49.410  19.225  1.00  0.00    -0.378 OA
HETATM    3  C5  UNL     1      23.419  49.352  19.407  1.00  0.00     0.127 C 
HETATM    4  C6  UNL     1      22.919  49.400  20.834  1.00  0.00     0.039 C 
HETATM    5  C7  UNL     1      23.983  50.244  21.551  1.00  0.00     0.020 C 
HETATM    6  C8  UNL     1      24.304  51.477  20.729  1.00  0.00     0.012 C 
HETATM    7  C9  UNL     1      23.325  51.779  19.657  1.00  0.00    -0.003 A 
HETATM    8  C10 UNL     1      23.750  51.639  18.195  1.00  0.00    -0.003 A 
HETATM    9  C16 UNL     1      22.861  50.662  18.810  1.00  0.00     0.023 A 
HETATM   10  C17 UNL     1      25.185  49.287  21.610  1.00  0.00     0.151 C 
ENDROOT
BRANCH   8  11
HETATM   11  C11 UNL     1      23.123  52.599  17.202  1.00  0.00     0.008 C 
BRANCH  11  12
HETATM   12  C12 UNL     1      24.184  53.452  16.525  1.00  0.00     0.039 C 
BRANCH  12  13
HETATM   13  C13 UNL     1      23.590  54.793  16.166  1.00  0.00     0.078 C 
HETATM   14  C14 UNL     1      23.824  55.087  14.698  1.00  0.00     0.047 C 
BRANCH  13  15
HETATM   15  O2  UNL     1      22.217  54.791  16.369  1.00  0.00    -0.389 OA
ATOM     16  H2  UNL     1      22.016  54.739  17.296  1.00  0.00     0.210 HD
ENDBRANCH  13  15
BRANCH  13  17
HETATM   17  C15 UNL     1      24.177  55.918  16.956  1.00  0.00     0.266 C 
BRANCH  17  18
HETATM   18  N1  UNL     1      23.758  57.218  16.467  1.00  0.00    -0.076 N 
ATOM     19  H13 UNL     1      22.809  57.182  16.097  1.00  0.00     0.274 HD
ATOM     20  H12 UNL     1      23.608  57.869  17.238  1.00  0.00     0.274 HD
ATOM     21  H11 UNL     1      24.407  57.604  15.780  1.00  0.00     0.274 HD
ENDBRANCH  17  18
ENDBRANCH  13  17
ENDBRANCH  12  13
ENDBRANCH  11  12
ENDBRANCH   8  11
BRANCH  10  22
HETATM   22  O3  UNL     1      24.658  48.098  22.109  1.00  0.00    -0.393 OA
ATOM     23  H3  UNL     1      25.029  47.948  22.971  1.00  0.00     0.210 HD
ENDBRANCH  10  22
BRANCH   1  24
HETATM   24  C3  UNL     1      26.221  47.674  19.961  1.00  0.00     0.034 C 
BRANCH  24  25
HETATM   25  C2  UNL     1      26.408  47.310  18.533  1.00  0.00    -0.002 C 
HETATM   26  C1  UNL     1      27.734  46.635  18.253  1.00  0.00     0.005 C 
ENDBRANCH  24  25
ENDBRANCH   1  24
TORSDOF 9
ENDMDL
