MODEL 1
REMARK VINA RESULT: -7.755697089      0.000      0.000
REMARK  2 active torsions:
REMARK  status: ('A' for Active; 'I' for Inactive)
REMARK    1  A    between atoms: O1_2  and  C2_3 
REMARK    2  A    between atoms: C13_20  and  O6_21 
ROOT
HETATM    1  C2  UNL     1      35.648  45.369   5.945  1.00  0.00     0.182 C 
HETATM    2  C3  UNL     1      35.571  45.405   7.452  1.00  0.00     0.044 C 
HETATM    3  C4  UNL     1      36.399  44.277   8.016  1.00  0.00     0.020 C 
HETATM    4  C5  UNL     1      35.742  42.928   7.860  1.00  0.00     0.171 C 
HETATM    5  S1  UNL     1      34.730  42.542   9.285  1.00  0.00     0.272 S 
HETATM    6  O2  UNL     1      35.533  41.688  10.251  1.00  0.00    -0.198 OA
HETATM    7  O3  UNL     1      34.360  43.805   9.995  1.00  0.00    -0.198 OA
HETATM    8  O4  UNL     1      33.382  41.688   8.717  1.00  0.00    -0.196 OA
HETATM    9  C6  UNL     1      32.208  42.271   8.287  1.00  0.00     0.273 C 
HETATM   10  O5  UNL     1      31.608  41.856   7.263  1.00  0.00    -0.264 OA
HETATM   11  C7  UNL     1      31.629  43.412   9.039  1.00  0.00     0.112 C 
HETATM   12  C8  UNL     1      30.201  43.649   8.596  1.00  0.00     0.010 C 
HETATM   13  C9  UNL     1      29.579  44.827   9.284  1.00  0.00     0.001 C 
HETATM   14  C10 UNL     1      30.124  46.153   8.792  1.00  0.00     0.003 C 
HETATM   15  C11 UNL     1      29.987  46.326   7.317  1.00  0.00     0.040 C 
HETATM   16  C12 UNL     1      29.298  47.567   6.889  1.00  0.00     0.202 C 
HETATM   17  F1  UNL     1      28.040  47.581   7.496  1.00  0.00    -0.246 F 
HETATM   18  C13 UNL     1      30.029  48.836   7.074  1.00  0.00     0.174 C 
HETATM   19  C14 UNL     1      31.139  48.824   8.019  1.00  0.00     0.003 C 
HETATM   20  C15 UNL     1      32.425  48.704   7.715  1.00  0.00    -0.027 C 
HETATM   21  C16 UNL     1      32.944  48.559   6.327  1.00  0.00     0.037 C 
HETATM   22  C17 UNL     1      34.378  48.048   6.337  1.00  0.00     0.080 C 
HETATM   23  S2  UNL     1      34.588  46.649   5.212  1.00  0.00    -0.137 SA
ENDROOT
BRANCH   1  24
HETATM   24  O1  UNL     1      36.959  45.522   5.556  1.00  0.00    -0.380 OA
HETATM   25  C1  UNL     1      37.178  46.486   4.600  1.00  0.00     0.203 C 
ENDBRANCH   1  24
BRANCH  18  26
HETATM   26  O6  UNL     1      30.462  49.418   5.859  1.00  0.00    -0.389 OA
ATOM     27  H6  UNL     1      31.250  49.019   5.510  1.00  0.00     0.210 HD
ENDBRANCH  18  26
TORSDOF 2
ENDMDL
MODEL 2
REMARK VINA RESULT: -7.438004915      2.103      5.197
REMARK  2 active torsions:
REMARK  status: ('A' for Active; 'I' for Inactive)
REMARK    1  A    between atoms: O1_2  and  C2_3 
REMARK    2  A    between atoms: C13_20  and  O6_21 
ROOT
HETATM    1  C2  UNL     1      34.651  43.978   8.933  1.00  0.00     0.182 C 
HETATM    2  C3  UNL     1      34.274  43.939   7.472  1.00  0.00     0.044 C 
HETATM    3  C4  UNL     1      35.530  43.933   6.638  1.00  0.00     0.020 C 
HETATM    4  C5  UNL     1      36.210  45.278   6.585  1.00  0.00     0.171 C 
HETATM    5  S1  UNL     1      35.615  46.242   5.199  1.00  0.00     0.272 S 
HETATM    6  O2  UNL     1      36.563  46.069   4.027  1.00  0.00    -0.198 OA
HETATM    7  O3  UNL     1      34.273  45.736   4.777  1.00  0.00    -0.198 OA
HETATM    8  O4  UNL     1      35.579  47.859   5.702  1.00  0.00    -0.196 OA
HETATM    9  C6  UNL     1      34.509  48.463   6.328  1.00  0.00     0.273 C 
HETATM   10  O5  UNL     1      34.675  49.244   7.300  1.00  0.00    -0.264 OA
HETATM   11  C7  UNL     1      33.127  48.195   5.858  1.00  0.00     0.112 C 
HETATM   12  C8  UNL     1      32.175  49.210   6.453  1.00  0.00     0.010 C 
HETATM   13  C9  UNL     1      30.751  48.957   6.056  1.00  0.00     0.001 C 
HETATM   14  C10 UNL     1      30.152  47.748   6.747  1.00  0.00     0.003 C 
HETATM   15  C11 UNL     1      30.232  47.830   8.233  1.00  0.00     0.040 C 
HETATM   16  C12 UNL     1      28.944  47.650   8.946  1.00  0.00     0.202 C 
HETATM   17  F1  UNL     1      28.056  48.610   8.457  1.00  0.00    -0.246 F 
HETATM   18  C13 UNL     1      28.365  46.292   8.948  1.00  0.00     0.174 C 
HETATM   19  C14 UNL     1      28.852  45.367   7.931  1.00  0.00     0.003 C 
HETATM   20  C15 UNL     1      29.778  44.434   8.100  1.00  0.00    -0.027 C 
HETATM   21  C16 UNL     1      30.482  44.181   9.389  1.00  0.00     0.037 C 
HETATM   22  C17 UNL     1      31.736  43.349   9.165  1.00  0.00     0.080 C 
HETATM   23  S2  UNL     1      33.171  44.086   9.981  1.00  0.00    -0.137 SA
ENDROOT
BRANCH   1  24
HETATM   24  O1  UNL     1      35.399  42.864   9.236  1.00  0.00    -0.380 OA
HETATM   25  C1  UNL     1      34.673  41.746   9.575  1.00  0.00     0.203 C 
ENDBRANCH   1  24
BRANCH  18  26
HETATM   26  O6  UNL     1      28.419  45.660  10.212  1.00  0.00    -0.389 OA
ATOM     27  H6  UNL     1      27.905  44.863  10.259  1.00  0.00     0.210 HD
ENDBRANCH  18  26
TORSDOF 2
ENDMDL
MODEL 3
REMARK VINA RESULT: -7.184212790      2.212      5.496
REMARK  2 active torsions:
REMARK  status: ('A' for Active; 'I' for Inactive)
REMARK    1  A    between atoms: O1_2  and  C2_3 
REMARK    2  A    between atoms: C13_20  and  O6_21 
ROOT
HETATM    1  C2  UNL     1      35.657  45.631   8.927  1.00  0.00     0.182 C 
HETATM    2  C3  UNL     1      35.159  45.386   7.523  1.00  0.00     0.044 C 
HETATM    3  C4  UNL     1      35.996  46.184   6.556  1.00  0.00     0.020 C 
HETATM    4  C5  UNL     1      35.678  47.659   6.577  1.00  0.00     0.171 C 
HETATM    5  S1  UNL     1      34.403  48.055   5.385  1.00  0.00     0.272 S 
HETATM    6  O2  UNL     1      35.053  48.535   4.100  1.00  0.00    -0.198 OA
HETATM    7  O3  UNL     1      33.617  46.824   5.064  1.00  0.00    -0.198 OA
HETATM    8  O4  UNL     1      33.454  49.282   6.066  1.00  0.00    -0.196 OA
HETATM    9  C6  UNL     1      32.357  49.068   6.874  1.00  0.00     0.273 C 
HETATM   10  O5  UNL     1      32.155  49.764   7.902  1.00  0.00    -0.264 OA
HETATM   11  C7  UNL     1      31.385  47.998   6.537  1.00  0.00     0.112 C 
HETATM   12  C8  UNL     1      30.120  48.179   7.347  1.00  0.00     0.010 C 
HETATM   13  C9  UNL     1      29.118  47.093   7.088  1.00  0.00     0.001 C 
HETATM   14  C10 UNL     1      29.516  45.766   7.703  1.00  0.00     0.003 C 
HETATM   15  C11 UNL     1      29.763  45.856   9.170  1.00  0.00     0.040 C 
HETATM   16  C12 UNL     1      28.997  44.895  10.000  1.00  0.00     0.202 C 
HETATM   17  F1  UNL     1      27.641  45.090   9.726  1.00  0.00    -0.246 F 
HETATM   18  C13 UNL     1      29.392  43.475   9.916  1.00  0.00     0.174 C 
HETATM   19  C14 UNL     1      30.178  43.079   8.754  1.00  0.00     0.003 C 
HETATM   20  C15 UNL     1      31.495  42.933   8.711  1.00  0.00    -0.027 C 
HETATM   21  C16 UNL     1      32.397  43.158   9.874  1.00  0.00     0.037 C 
HETATM   22  C17 UNL     1      33.842  43.305   9.417  1.00  0.00     0.080 C 
HETATM   23  S2  UNL     1      34.619  44.767  10.142  1.00  0.00    -0.137 SA
ENDROOT
BRANCH   1  24
HETATM   24  O1  UNL     1      36.970  45.230   9.016  1.00  0.00    -0.380 OA
HETATM   25  C1  UNL     1      37.873  46.234   9.277  1.00  0.00     0.203 C 
ENDBRANCH   1  24
BRANCH  18  26
HETATM   26  O6  UNL     1      30.027  42.999  11.088  1.00  0.00    -0.389 OA
ATOM     27  H6  UNL     1      29.757  42.121  11.333  1.00  0.00     0.210 HD
ENDBRANCH  18  26
TORSDOF 2
ENDMDL
MODEL 4
REMARK VINA RESULT: -7.126160876      1.480      1.740
REMARK  2 active torsions:
REMARK  status: ('A' for Active; 'I' for Inactive)
REMARK    1  A    between atoms: O1_2  and  C2_3 
REMARK    2  A    between atoms: C13_20  and  O6_21 
ROOT
HETATM    1  C2  UNL     1      33.869  46.000   5.429  1.00  0.00     0.182 C 
HETATM    2  C3  UNL     1      34.164  46.058   6.908  1.00  0.00     0.044 C 
HETATM    3  C4  UNL     1      35.349  45.175   7.211  1.00  0.00     0.020 C 
HETATM    4  C5  UNL     1      35.013  43.705   7.177  1.00  0.00     0.171 C 
HETATM    5  S1  UNL     1      34.509  43.127   8.794  1.00  0.00     0.272 S 
HETATM    6  O2  UNL     1      35.706  42.515   9.501  1.00  0.00    -0.198 OA
HETATM    7  O3  UNL     1      34.039  44.285   9.616  1.00  0.00    -0.198 OA
HETATM    8  O4  UNL     1      33.304  41.962   8.549  1.00  0.00    -0.196 OA
HETATM    9  C6  UNL     1      31.957  42.237   8.445  1.00  0.00     0.273 C 
HETATM   10  O5  UNL     1      31.237  41.664   7.588  1.00  0.00    -0.264 OA
HETATM   11  C7  UNL     1      31.330  43.227   9.355  1.00  0.00     0.112 C 
HETATM   12  C8  UNL     1      29.822  43.105   9.288  1.00  0.00     0.010 C 
HETATM   13  C9  UNL     1      29.130  44.120  10.149  1.00  0.00     0.001 C 
HETATM   14  C10 UNL     1      29.205  45.523   9.582  1.00  0.00     0.003 C 
HETATM   15  C11 UNL     1      28.668  45.619   8.195  1.00  0.00     0.040 C 
HETATM   16  C12 UNL     1      27.620  46.649   7.993  1.00  0.00     0.202 C 
HETATM   17  F1  UNL     1      26.587  46.379   8.893  1.00  0.00    -0.246 F 
HETATM   18  C13 UNL     1      28.052  48.060   8.034  1.00  0.00     0.174 C 
HETATM   19  C14 UNL     1      29.333  48.338   8.673  1.00  0.00     0.003 C 
HETATM   20  C15 UNL     1      30.493  48.519   8.056  1.00  0.00    -0.027 C 
HETATM   21  C16 UNL     1      30.669  48.465   6.578  1.00  0.00     0.037 C 
HETATM   22  C17 UNL     1      32.139  48.310   6.215  1.00  0.00     0.080 C 
HETATM   23  S2  UNL     1      32.388  46.972   5.026  1.00  0.00    -0.137 SA
ENDROOT
BRANCH   1  24
HETATM   24  O1  UNL     1      34.967  46.451   4.733  1.00  0.00    -0.380 OA
HETATM   25  C1  UNL     1      35.140  47.815   4.729  1.00  0.00     0.203 C 
ENDBRANCH   1  24
BRANCH  18  26
HETATM   26  O6  UNL     1      28.018  48.695   6.770  1.00  0.00    -0.389 OA
ATOM     27  H6  UNL     1      28.088  48.089   6.042  1.00  0.00     0.210 HD
ENDBRANCH  18  26
TORSDOF 2
ENDMDL
MODEL 5
REMARK VINA RESULT: -7.045139398      2.527      5.996
REMARK  2 active torsions:
REMARK  status: ('A' for Active; 'I' for Inactive)
REMARK    1  A    between atoms: O1_2  and  C2_3 
REMARK    2  A    between atoms: C13_20  and  O6_21 
ROOT
HETATM    1  C2  UNL     1      36.854  47.632   7.739  1.00  0.00     0.182 C 
HETATM    2  C3  UNL     1      36.199  47.311   6.417  1.00  0.00     0.044 C 
HETATM    3  C4  UNL     1      36.297  48.514   5.512  1.00  0.00     0.020 C 
HETATM    4  C5  UNL     1      35.342  49.617   5.893  1.00  0.00     0.171 C 
HETATM    5  S1  UNL     1      33.781  49.435   5.038  1.00  0.00     0.272 S 
HETATM    6  O2  UNL     1      33.790  50.302   3.791  1.00  0.00    -0.198 OA
HETATM    7  O3  UNL     1      33.611  48.015   4.602  1.00  0.00    -0.198 OA
HETATM    8  O4  UNL     1      32.569  49.943   6.107  1.00  0.00    -0.196 OA
HETATM    9  C6  UNL     1      31.938  49.128   7.023  1.00  0.00     0.273 C 
HETATM   10  O5  UNL     1      31.695  49.523   8.192  1.00  0.00    -0.264 OA
HETATM   11  C7  UNL     1      31.532  47.755   6.636  1.00  0.00     0.112 C 
HETATM   12  C8  UNL     1      30.573  47.193   7.664  1.00  0.00     0.010 C 
HETATM   13  C9  UNL     1      30.168  45.782   7.354  1.00  0.00     0.001 C 
HETATM   14  C10 UNL     1      31.278  44.782   7.604  1.00  0.00     0.003 C 
HETATM   15  C11 UNL     1      31.809  44.838   8.996  1.00  0.00     0.040 C 
HETATM   16  C12 UNL     1      31.814  43.545   9.723  1.00  0.00     0.202 C 
HETATM   17  F1  UNL     1      30.505  43.058   9.724  1.00  0.00    -0.246 F 
HETATM   18  C13 UNL     1      32.793  42.533   9.280  1.00  0.00     0.174 C 
HETATM   19  C14 UNL     1      33.358  42.703   7.947  1.00  0.00     0.003 C 
HETATM   20  C15 UNL     1      34.533  43.245   7.657  1.00  0.00    -0.027 C 
HETATM   21  C16 UNL     1      35.481  43.776   8.676  1.00  0.00     0.037 C 
HETATM   22  C17 UNL     1      36.524  44.674   8.027  1.00  0.00     0.080 C 
HETATM   23  S2  UNL     1      36.678  46.248   8.902  1.00  0.00    -0.137 SA
ENDROOT
BRANCH   1  24
HETATM   24  O1  UNL     1      38.178  47.939   7.524  1.00  0.00    -0.380 OA
HETATM   25  C1  UNL     1      39.056  47.435   8.455  1.00  0.00     0.203 C 
ENDBRANCH   1  24
BRANCH  18  26
HETATM   26  O6  UNL     1      33.844  42.326  10.205  1.00  0.00    -0.389 OA
ATOM     27  H6  UNL     1      34.608  41.913   9.821  1.00  0.00     0.210 HD
ENDBRANCH  18  26
TORSDOF 2
ENDMDL
