MODEL 1
REMARK VINA RESULT: -5.333852106      0.000      0.000
REMARK  4 active torsions:
REMARK  status: ('A' for Active; 'I' for Inactive)
REMARK    1  A    between atoms: C2_2  and  N1_5 
REMARK       I    between atoms: C4_7  and  N3_9 
REMARK       I    between atoms: C5_11  and  N5_13 
REMARK    2  A    between atoms: N5_13  and  C8_16 
REMARK    3  A    between atoms: C8_16  and  C9_17 
REMARK       I    between atoms: C9_17  and  N6_19 
REMARK    4  A    between atoms: N6_19  and  C10_21 
REMARK       I    between atoms: N7_23  and  C11_25 
ROOT
HETATM    1  N1  UNL     1      91.172 102.821 -40.517  1.00  0.00    -0.343 N 
ATOM      2  H1  UNL     1      90.427 103.318 -41.004  1.00  0.00     0.164 HD
HETATM    3  C4  UNL     1      91.206 101.545 -40.576  1.00  0.00     0.192 C 
HETATM    4  N2  UNL     1      92.225 100.824 -39.914  1.00  0.00    -0.063 NA
HETATM    5  N3  UNL     1      90.241 100.782 -41.297  1.00  0.00    -0.298 N 
ATOM      6  H3  UNL     1      89.488 100.330 -40.779  1.00  0.00     0.171 HD
HETATM    7  C5  UNL     1      90.282 100.641 -42.575  1.00  0.00     0.295 C 
HETATM    8  N4  UNL     1      91.337 101.279 -43.278  1.00  0.00    -0.057 NA
HETATM    9  N5  UNL     1      89.276  99.861 -43.210  1.00  0.00    -0.008 N 
HETATM   10  C6  UNL     1      88.449 100.801 -43.978  1.00  0.00     0.283 C 
HETATM   11  C7  UNL     1      88.427  99.235 -42.247  1.00  0.00     0.283 C 
ENDROOT
BRANCH   9  12
HETATM   12  C8  UNL     1      89.834  98.945 -44.173  1.00  0.00     0.348 C 
BRANCH  12  13
HETATM   13  C9  UNL     1      90.544  97.809 -43.553  1.00  0.00     0.250 C 
HETATM   14  O1  UNL     1      91.389  97.939 -42.633  1.00  0.00    -0.271 OA
HETATM   15  N6  UNL     1      90.260  96.504 -44.015  1.00  0.00    -0.305 N 
ATOM     16  H6  UNL     1      89.573  96.408 -44.762  1.00  0.00     0.171 HD
BRANCH  15  17
HETATM   17  C10 UNL     1      90.860  95.316 -43.517  1.00  0.00     0.159 C 
HETATM   18 BR1  UNL     1      91.232  93.915 -44.752  1.00  0.00    -0.010 Br
HETATM   19  N7  UNL     1      91.140  95.200 -42.252  1.00  0.00    -0.291 N 
HETATM   20  C11 UNL     1      91.731  94.006 -41.809  1.00  0.00     0.334 C 
ATOM     21  H7  UNL     1      90.936  95.957 -41.599  1.00  0.00     0.172 HD
HETATM   22  N8  UNL     1      91.251  92.743 -42.248  1.00  0.00    -0.040 NA
HETATM   23  O2  UNL     1      92.693  94.044 -41.017  1.00  0.00    -0.251 OA
ENDBRANCH  15  17
ENDBRANCH  12  13
ENDBRANCH   9  12
BRANCH   1  24
HETATM   24  C2  UNL     1      92.147 103.575 -39.790  1.00  0.00     0.102 C 
HETATM   25  C1  UNL     1      91.890 105.056 -40.025  1.00  0.00     0.056 C 
HETATM   26  C3  UNL     1      92.089 103.345 -38.294  1.00  0.00     0.056 C 
HETATM   27 CL1  UNL     1      93.815 103.253 -40.313  1.00  0.00    -0.096 Cl
ENDBRANCH   1  24
TORSDOF 4
ENDMDL
MODEL 2
REMARK VINA RESULT: -5.303795906      4.037      6.798
REMARK  4 active torsions:
REMARK  status: ('A' for Active; 'I' for Inactive)
REMARK    1  A    between atoms: C2_2  and  N1_5 
REMARK       I    between atoms: C4_7  and  N3_9 
REMARK       I    between atoms: C5_11  and  N5_13 
REMARK    2  A    between atoms: N5_13  and  C8_16 
REMARK    3  A    between atoms: C8_16  and  C9_17 
REMARK       I    between atoms: C9_17  and  N6_19 
REMARK    4  A    between atoms: N6_19  and  C10_21 
REMARK       I    between atoms: N7_23  and  C11_25 
ROOT
HETATM    1  N1  UNL     1      91.595  99.827 -48.009  1.00  0.00    -0.343 N 
ATOM      2  H1  UNL     1      91.517  98.865 -48.339  1.00  0.00     0.164 HD
HETATM    3  C4  UNL     1      91.017 100.157 -46.919  1.00  0.00     0.192 C 
HETATM    4  N2  UNL     1      91.104 101.480 -46.433  1.00  0.00    -0.063 NA
HETATM    5  N3  UNL     1      90.262  99.232 -46.138  1.00  0.00    -0.298 N 
ATOM      6  H3  UNL     1      89.245  99.250 -46.205  1.00  0.00     0.171 HD
HETATM    7  C5  UNL     1      90.814  98.376 -45.352  1.00  0.00     0.295 C 
HETATM    8  N4  UNL     1      92.231  98.367 -45.273  1.00  0.00    -0.057 NA
HETATM    9  N5  UNL     1      89.981  97.492 -44.611  1.00  0.00    -0.008 N 
HETATM   10  C6  UNL     1      90.192  96.154 -45.179  1.00  0.00     0.283 C 
HETATM   11  C7  UNL     1      88.601  97.816 -44.787  1.00  0.00     0.283 C 
ENDROOT
BRANCH   9  12
HETATM   12  C8  UNL     1      90.384  97.405 -43.230  1.00  0.00     0.348 C 
BRANCH  12  13
HETATM   13  C9  UNL     1      90.362  98.706 -42.534  1.00  0.00     0.250 C 
HETATM   14  O1  UNL     1      89.305  99.295 -42.198  1.00  0.00    -0.271 OA
HETATM   15  N6  UNL     1      91.594  99.326 -42.223  1.00  0.00    -0.305 N 
ATOM     16  H6  UNL     1      92.448  98.840 -42.499  1.00  0.00     0.171 HD
BRANCH  15  17
HETATM   17  C10 UNL     1      91.733 100.572 -41.558  1.00  0.00     0.159 C 
HETATM   18 BR1  UNL     1      92.472 102.032 -42.532  1.00  0.00    -0.010 Br
HETATM   19  N7  UNL     1      91.365 100.701 -40.317  1.00  0.00    -0.291 N 
HETATM   20  C11 UNL     1      91.523 101.954 -39.702  1.00  0.00     0.334 C 
ATOM     21  H7  UNL     1      90.971  99.912 -39.803  1.00  0.00     0.172 HD
HETATM   22  N8  UNL     1      92.720 102.703 -39.862  1.00  0.00    -0.040 NA
HETATM   23  O2  UNL     1      90.606 102.424 -39.002  1.00  0.00    -0.251 OA
ENDBRANCH  15  17
ENDBRANCH  12  13
ENDBRANCH   9  12
BRANCH   1  24
HETATM   24  C2  UNL     1      92.349 100.765 -48.783  1.00  0.00     0.102 C 
HETATM   25  C1  UNL     1      93.116 100.005 -49.855  1.00  0.00     0.056 C 
HETATM   26  C3  UNL     1      91.486 101.787 -49.494  1.00  0.00     0.056 C 
HETATM   27 CL1  UNL     1      93.552 101.657 -47.826  1.00  0.00    -0.096 Cl
ENDBRANCH   1  24
TORSDOF 4
ENDMDL
MODEL 3
REMARK VINA RESULT: -5.272234013      3.476      5.739
REMARK  4 active torsions:
REMARK  status: ('A' for Active; 'I' for Inactive)
REMARK    1  A    between atoms: C2_2  and  N1_5 
REMARK       I    between atoms: C4_7  and  N3_9 
REMARK       I    between atoms: C5_11  and  N5_13 
REMARK    2  A    between atoms: N5_13  and  C8_16 
REMARK    3  A    between atoms: C8_16  and  C9_17 
REMARK       I    between atoms: C9_17  and  N6_19 
REMARK    4  A    between atoms: N6_19  and  C10_21 
REMARK       I    between atoms: N7_23  and  C11_25 
ROOT
HETATM    1  N1  UNL     1      85.879  99.424 -44.681  1.00  0.00    -0.343 N 
ATOM      2  H1  UNL     1      85.678 100.361 -44.332  1.00  0.00     0.164 HD
HETATM    3  C4  UNL     1      87.095  99.048 -44.781  1.00  0.00     0.192 C 
HETATM    4  N2  UNL     1      87.409  97.756 -45.259  1.00  0.00    -0.063 NA
HETATM    5  N3  UNL     1      88.192  99.886 -44.423  1.00  0.00    -0.298 N 
ATOM      6  H3  UNL     1      88.707 100.361 -45.165  1.00  0.00     0.171 HD
HETATM    7  C5  UNL     1      88.559 100.067 -43.204  1.00  0.00     0.295 C 
HETATM    8  N4  UNL     1      87.830  99.397 -42.187  1.00  0.00    -0.057 NA
HETATM    9  N5  UNL     1      89.666 100.922 -42.942  1.00  0.00    -0.008 N 
HETATM   10  C6  UNL     1      89.117 102.117 -42.286  1.00  0.00     0.283 C 
HETATM   11  C7  UNL     1      90.284 101.349 -44.156  1.00  0.00     0.283 C 
ENDROOT
BRANCH   9  12
HETATM   12  C8  UNL     1      90.584 100.338 -41.998  1.00  0.00     0.348 C 
BRANCH  12  13
HETATM   13  C9  UNL     1      91.078  99.010 -42.411  1.00  0.00     0.250 C 
HETATM   14  O1  UNL     1      91.980  98.842 -43.269  1.00  0.00    -0.271 OA
HETATM   15  N6  UNL     1      90.511  97.863 -41.812  1.00  0.00    -0.305 N 
ATOM     16  H6  UNL     1      89.780  98.008 -41.116  1.00  0.00     0.171 HD
BRANCH  15  17
HETATM   17  C10 UNL     1      90.882  96.523 -42.105  1.00  0.00     0.159 C 
HETATM   18 BR1  UNL     1      90.711  95.918 -43.902  1.00  0.00    -0.010 Br
HETATM   19  N7  UNL     1      91.322  95.741 -41.163  1.00  0.00    -0.291 N 
HETATM   20  C11 UNL     1      91.675  94.425 -41.502  1.00  0.00     0.334 C 
ATOM     21  H7  UNL     1      91.409  96.075 -40.203  1.00  0.00     0.172 HD
HETATM   22  N8  UNL     1      90.845  93.637 -42.346  1.00  0.00    -0.040 NA
HETATM   23  O2  UNL     1      92.730  93.930 -41.062  1.00  0.00    -0.251 OA
ENDBRANCH  15  17
ENDBRANCH  12  13
ENDBRANCH   9  12
BRANCH   1  24
HETATM   24  C2  UNL     1      84.787  98.573 -45.042  1.00  0.00     0.102 C 
HETATM   25  C1  UNL     1      83.485  99.265 -44.667  1.00  0.00     0.056 C 
HETATM   26  C3  UNL     1      84.722  98.278 -46.527  1.00  0.00     0.056 C 
HETATM   27 CL1  UNL     1      84.804  97.012 -44.191  1.00  0.00    -0.096 Cl
ENDBRANCH   1  24
TORSDOF 4
ENDMDL
MODEL 4
REMARK VINA RESULT: -5.195502158      3.766      6.194
REMARK  4 active torsions:
REMARK  status: ('A' for Active; 'I' for Inactive)
REMARK    1  A    between atoms: C2_2  and  N1_5 
REMARK       I    between atoms: C4_7  and  N3_9 
REMARK       I    between atoms: C5_11  and  N5_13 
REMARK    2  A    between atoms: N5_13  and  C8_16 
REMARK    3  A    between atoms: C8_16  and  C9_17 
REMARK       I    between atoms: C9_17  and  N6_19 
REMARK    4  A    between atoms: N6_19  and  C10_21 
REMARK       I    between atoms: N7_23  and  C11_25 
ROOT
HETATM    1  N1  UNL     1      88.099  98.187 -46.974  1.00  0.00    -0.343 N 
ATOM      2  H1  UNL     1      88.008  99.201 -46.917  1.00  0.00     0.164 HD
HETATM    3  C4  UNL     1      88.980  97.604 -46.256  1.00  0.00     0.192 C 
HETATM    4  N2  UNL     1      89.134  96.201 -46.309  1.00  0.00    -0.063 NA
HETATM    5  N3  UNL     1      89.846  98.313 -45.373  1.00  0.00    -0.298 N 
ATOM      6  H3  UNL     1      90.803  98.499 -45.671  1.00  0.00     0.171 HD
HETATM    7  C5  UNL     1      89.469  98.728 -44.216  1.00  0.00     0.295 C 
HETATM    8  N4  UNL     1      88.132  98.460 -43.820  1.00  0.00    -0.057 NA
HETATM    9  N5  UNL     1      90.402  99.428 -43.401  1.00  0.00    -0.008 N 
HETATM   10  C6  UNL     1      89.938 100.821 -43.348  1.00  0.00     0.283 C 
HETATM   11  C7  UNL     1      91.700  99.434 -43.997  1.00  0.00     0.283 C 
ENDROOT
BRANCH   9  12
HETATM   12  C8  UNL     1      90.390  98.954 -42.041  1.00  0.00     0.348 C 
BRANCH  12  13
HETATM   13  C9  UNL     1      91.118  97.683 -41.861  1.00  0.00     0.250 C 
HETATM   14  O1  UNL     1      92.167  97.575 -41.179  1.00  0.00    -0.271 OA
HETATM   15  N6  UNL     1      90.611  96.521 -42.487  1.00  0.00    -0.305 N 
ATOM     16  H6  UNL     1      89.758  96.618 -43.038  1.00  0.00     0.171 HD
BRANCH  15  17
HETATM   17  C10 UNL     1      91.198  95.231 -42.405  1.00  0.00     0.159 C 
HETATM   18 BR1  UNL     1      91.113  94.108 -43.942  1.00  0.00    -0.010 Br
HETATM   19  N7  UNL     1      91.772  94.836 -41.307  1.00  0.00    -0.291 N 
HETATM   20  C11 UNL     1      92.338  93.551 -41.275  1.00  0.00     0.334 C 
ATOM     21  H7  UNL     1      91.812  95.445 -40.489  1.00  0.00     0.172 HD
HETATM   22  N8  UNL     1      91.643  92.432 -41.809  1.00  0.00    -0.040 NA
HETATM   23  O2  UNL     1      93.465  93.378 -40.775  1.00  0.00    -0.251 OA
ENDBRANCH  15  17
ENDBRANCH  12  13
ENDBRANCH   9  12
BRANCH   1  24
HETATM   24  C2  UNL     1      87.236  97.463 -47.856  1.00  0.00     0.102 C 
HETATM   25  C1  UNL     1      86.312  98.451 -48.552  1.00  0.00     0.056 C 
HETATM   26  C3  UNL     1      87.981  96.711 -48.940  1.00  0.00     0.056 C 
HETATM   27 CL1  UNL     1      86.196  96.292 -47.015  1.00  0.00    -0.096 Cl
ENDBRANCH   1  24
TORSDOF 4
ENDMDL
MODEL 5
REMARK VINA RESULT: -5.041647731      4.620      7.478
REMARK  4 active torsions:
REMARK  status: ('A' for Active; 'I' for Inactive)
REMARK    1  A    between atoms: C2_2  and  N1_5 
REMARK       I    between atoms: C4_7  and  N3_9 
REMARK       I    between atoms: C5_11  and  N5_13 
REMARK    2  A    between atoms: N5_13  and  C8_16 
REMARK    3  A    between atoms: C8_16  and  C9_17 
REMARK       I    between atoms: C9_17  and  N6_19 
REMARK    4  A    between atoms: N6_19  and  C10_21 
REMARK       I    between atoms: N7_23  and  C11_25 
ROOT
HETATM    1  N1  UNL     1      86.848  97.793 -44.401  1.00  0.00    -0.343 N 
ATOM      2  H1  UNL     1      87.419  97.072 -44.840  1.00  0.00     0.164 HD
HETATM    3  C4  UNL     1      87.418  98.689 -43.692  1.00  0.00     0.192 C 
HETATM    4  N2  UNL     1      86.657  99.703 -43.070  1.00  0.00    -0.063 NA
HETATM    5  N3  UNL     1      88.829  98.725 -43.486  1.00  0.00    -0.298 N 
ATOM      6  H3  UNL     1      89.204  98.370 -42.606  1.00  0.00     0.171 HD
HETATM    7  C5  UNL     1      89.647  99.185 -44.365  1.00  0.00     0.295 C 
HETATM    8  N4  UNL     1      89.105  99.673 -45.582  1.00  0.00    -0.057 NA
HETATM    9  N5  UNL     1      91.040  99.181 -44.072  1.00  0.00    -0.008 N 
HETATM   10  C6  UNL     1      91.644  98.180 -44.962  1.00  0.00     0.283 C 
HETATM   11  C7  UNL     1      91.281  98.759 -42.729  1.00  0.00     0.283 C 
ENDROOT
BRANCH   9  12
HETATM   12  C8  UNL     1      91.663 100.437 -44.407  1.00  0.00     0.348 C 
BRANCH  12  13
HETATM   13  C9  UNL     1      91.958 101.273 -43.227  1.00  0.00     0.250 C 
HETATM   14  O1  UNL     1      91.072 101.814 -42.521  1.00  0.00    -0.271 OA
HETATM   15  N6  UNL     1      93.310 101.476 -42.866  1.00  0.00    -0.305 N 
ATOM     16  H6  UNL     1      94.023 101.033 -43.444  1.00  0.00     0.171 HD
BRANCH  15  17
HETATM   17  C10 UNL     1      93.749 102.251 -41.760  1.00  0.00     0.159 C 
HETATM   18 BR1  UNL     1      94.820 103.786 -42.110  1.00  0.00    -0.010 Br
HETATM   19  N7  UNL     1      93.425 101.911 -40.547  1.00  0.00    -0.291 N 
HETATM   20  C11 UNL     1      93.884 102.709 -39.486  1.00  0.00     0.334 C 
ATOM     21  H7  UNL     1      92.851 101.086 -40.371  1.00  0.00     0.172 HD
HETATM   22  N8  UNL     1      95.228 103.171 -39.446  1.00  0.00    -0.040 NA
HETATM   23  O2  UNL     1      93.111 103.022 -38.562  1.00  0.00    -0.251 OA
ENDBRANCH  15  17
ENDBRANCH  12  13
ENDBRANCH   9  12
BRANCH   1  24
HETATM   24  C2  UNL     1      85.431  97.769 -44.601  1.00  0.00     0.102 C 
HETATM   25  C1  UNL     1      85.081  96.563 -45.461  1.00  0.00     0.056 C 
HETATM   26  C3  UNL     1      84.646  97.637 -43.311  1.00  0.00     0.056 C 
HETATM   27 CL1  UNL     1      84.818  99.203 -45.452  1.00  0.00    -0.096 Cl
ENDBRANCH   1  24
TORSDOF 4
ENDMDL
