MODEL 1
REMARK VINA RESULT: -5.999508736      0.000      0.000
REMARK  10 active torsions:
REMARK  status: ('A' for Active; 'I' for Inactive)
REMARK    1  A    between atoms: C2_2  and  C3_3 
REMARK    2  A    between atoms: C3_3  and  C4_4 
REMARK    3  A    between atoms: C4_4  and  C5_5 
REMARK    4  A    between atoms: C6_6  and  C7_7 
REMARK    5  A    between atoms: C12_14  and  O3_15 
REMARK    6  A    between atoms: C16_19  and  O4_20 
REMARK    7  A    between atoms: C22_29  and  C23_30 
REMARK    8  A    between atoms: C22_29  and  C24_33 
REMARK    9  A    between atoms: C24_33  and  C26_35 
REMARK   10  A    between atoms: C26_35  and  O9_38 
ROOT
HETATM    1  C7  UNL     1       2.636 -34.885  22.958  1.00  0.00     0.194 C 
HETATM    2  O1  UNL     1       3.309 -35.532  23.964  1.00  0.00    -0.338 OA
HETATM    3  C8  UNL     1       3.829 -34.804  24.995  1.00  0.00     0.223 C 
HETATM    4  C9  UNL     1       5.124 -34.178  24.437  1.00  0.00     0.085 C 
HETATM    5  O2  UNL     1       4.253 -35.684  25.931  1.00  0.00    -0.332 OA
HETATM    6  C10 UNL     1       4.335 -35.405  27.239  1.00  0.00     0.116 C 
HETATM    7  C11 UNL     1       5.702 -35.492  27.850  1.00  0.00     0.054 C 
HETATM    8  C12 UNL     1       3.567 -36.499  27.913  1.00  0.00     0.077 C 
HETATM    9  C14 UNL     1       2.274 -36.499  27.659  1.00  0.00     0.012 C 
HETATM   10  C15 UNL     1       1.658 -35.469  26.759  1.00  0.00     0.074 C 
HETATM   11  C16 UNL     1       2.354 -34.137  26.818  1.00  0.00     0.130 C 
HETATM   12  C17 UNL     1       3.582 -34.163  27.682  1.00  0.00     0.069 C 
HETATM   13  C18 UNL     1       4.349 -32.908  27.633  1.00  0.00     0.043 C 
HETATM   14  C19 UNL     1       3.768 -31.957  26.578  1.00  0.00     0.122 C 
HETATM   15  C20 UNL     1       4.875 -30.909  26.355  1.00  0.00     0.040 C 
HETATM   16  O5  UNL     1       3.513 -32.559  25.401  1.00  0.00    -0.343 OA
HETATM   17  C21 UNL     1       2.833 -33.765  25.397  1.00  0.00     0.256 C 
HETATM   18  O6  UNL     1       1.694 -33.647  24.723  1.00  0.00    -0.322 OA
HETATM   19  C22 UNL     1       1.562 -33.947  23.380  1.00  0.00     0.187 C 
ENDROOT
BRANCH  19  20
HETATM   20  C23 UNL     1       1.723 -32.607  22.682  1.00  0.00     0.213 C 
HETATM   21  O7  UNL     1       2.054 -31.560  23.291  1.00  0.00    -0.646 OA
HETATM   22  O8  UNL     1       1.518 -32.435  21.323  1.00  0.00    -0.646 OA
ENDBRANCH  19  20
BRANCH  19  23
HETATM   23  C24 UNL     1       0.159 -34.432  23.293  1.00  0.00     0.064 C 
HETATM   24  C25 UNL     1      -0.737 -33.396  24.049  1.00  0.00     0.017 C 
BRANCH  23  25
HETATM   25  C26 UNL     1      -0.594 -34.703  22.093  1.00  0.00     0.057 C 
HETATM   26  C27 UNL     1      -0.013 -35.379  20.912  1.00  0.00     0.045 C 
HETATM   27  C28 UNL     1      -1.572 -33.603  21.656  1.00  0.00     0.045 C 
BRANCH  25  28
HETATM   28  O9  UNL     1      -1.520 -35.724  22.550  1.00  0.00    -0.390 OA
ATOM     29  H9  UNL     1      -2.271 -35.567  21.991  1.00  0.00     0.210 HD
ENDBRANCH  25  28
ENDBRANCH  23  25
ENDBRANCH  19  23
BRANCH   1  30
HETATM   30  C6  UNL     1       3.577 -34.269  21.951  1.00  0.00     0.004 C 
HETATM   31  C5  UNL     1       3.927 -34.939  20.849  1.00  0.00    -0.028 C 
BRANCH  31  32
HETATM   32  C4  UNL     1       4.844 -34.382  19.830  1.00  0.00     0.027 C 
BRANCH  32  33
HETATM   33  C3  UNL     1       4.074 -33.711  18.717  1.00  0.00     0.003 C 
BRANCH  33  34
HETATM   34  C2  UNL     1       4.670 -32.326  18.490  1.00  0.00    -0.004 C 
HETATM   35  C1  UNL     1       4.571 -31.475  19.721  1.00  0.00     0.005 C 
ENDBRANCH  33  34
ENDBRANCH  32  33
ENDBRANCH  31  32
ENDBRANCH   1  30
BRANCH  11  36
HETATM   36  O4  UNL     1       1.396 -33.219  27.266  1.00  0.00    -0.383 OA
ATOM     37  H4  UNL     1       1.841 -32.658  27.890  1.00  0.00     0.210 HD
ENDBRANCH  11  36
BRANCH   8  38
HETATM   38  O3  UNL     1       4.100 -37.450  28.736  1.00  0.00    -0.357 OA
HETATM   39  C13 UNL     1       3.908 -38.824  28.668  1.00  0.00     0.209 C 
ENDBRANCH   8  38
TORSDOF 10
ENDMDL
MODEL 2
REMARK VINA RESULT: -5.810725609     10.507     15.066
REMARK  10 active torsions:
REMARK  status: ('A' for Active; 'I' for Inactive)
REMARK    1  A    between atoms: C2_2  and  C3_3 
REMARK    2  A    between atoms: C3_3  and  C4_4 
REMARK    3  A    between atoms: C4_4  and  C5_5 
REMARK    4  A    between atoms: C6_6  and  C7_7 
REMARK    5  A    between atoms: C12_14  and  O3_15 
REMARK    6  A    between atoms: C16_19  and  O4_20 
REMARK    7  A    between atoms: C22_29  and  C23_30 
REMARK    8  A    between atoms: C22_29  and  C24_33 
REMARK    9  A    between atoms: C24_33  and  C26_35 
REMARK   10  A    between atoms: C26_35  and  O9_38 
ROOT
HETATM    1  C7  UNL     1     -11.130 -35.847  22.232  1.00  0.00     0.194 C 
HETATM    2  O1  UNL     1     -10.196 -36.835  22.420  1.00  0.00    -0.338 OA
HETATM    3  C8  UNL     1     -10.001 -37.765  21.440  1.00  0.00     0.223 C 
HETATM    4  C9  UNL     1     -11.176 -38.754  21.578  1.00  0.00     0.085 C 
HETATM    5  O2  UNL     1      -8.909 -38.485  21.784  1.00  0.00    -0.332 OA
HETATM    6  C10 UNL     1      -8.110 -39.103  20.903  1.00  0.00     0.116 C 
HETATM    7  C11 UNL     1      -8.010 -40.594  21.033  1.00  0.00     0.054 C 
HETATM    8  C12 UNL     1      -6.732 -38.617  21.228  1.00  0.00     0.077 C 
HETATM    9  C14 UNL     1      -6.535 -37.334  21.004  1.00  0.00     0.012 C 
HETATM   10  C15 UNL     1      -7.629 -36.462  20.466  1.00  0.00     0.074 C 
HETATM   11  C16 UNL     1      -8.573 -37.189  19.549  1.00  0.00     0.130 C 
HETATM   12  C17 UNL     1      -8.276 -38.658  19.460  1.00  0.00     0.069 C 
HETATM   13  C18 UNL     1      -9.276 -39.404  18.680  1.00  0.00     0.043 C 
HETATM   14  C19 UNL     1     -10.453 -38.496  18.297  1.00  0.00     0.122 C 
HETATM   15  C20 UNL     1     -11.567 -39.471  17.868  1.00  0.00     0.040 C 
HETATM   16  O5  UNL     1     -10.911 -37.756  19.324  1.00  0.00    -0.343 OA
HETATM   17  C21 UNL     1     -10.005 -37.071  20.115  1.00  0.00     0.256 C 
HETATM   18  O6  UNL     1     -10.240 -35.765  20.056  1.00  0.00    -0.322 OA
HETATM   19  C22 UNL     1     -11.037 -35.086  20.958  1.00  0.00     0.187 C 
ENDROOT
BRANCH  19  20
HETATM   20  C23 UNL     1     -12.394 -35.019  20.278  1.00  0.00     0.213 C 
HETATM   21  O7  UNL     1     -13.163 -36.009  20.200  1.00  0.00    -0.646 OA
HETATM   22  O8  UNL     1     -12.890 -33.865  19.695  1.00  0.00    -0.646 OA
ENDBRANCH  19  20
BRANCH  19  23
HETATM   23  C24 UNL     1     -10.397 -33.744  21.010  1.00  0.00     0.064 C 
HETATM   24  C25 UNL     1     -10.107 -33.312  19.534  1.00  0.00     0.017 C 
BRANCH  23  25
HETATM   25  C26 UNL     1     -10.937 -32.546  21.602  1.00  0.00     0.057 C 
HETATM   26  C27 UNL     1     -12.001 -32.563  22.631  1.00  0.00     0.045 C 
HETATM   27  C28 UNL     1     -11.134 -31.359  20.648  1.00  0.00     0.045 C 
BRANCH  25  28
HETATM   28  O9  UNL     1      -9.815 -32.075  22.393  1.00  0.00    -0.390 OA
ATOM     29  H9  UNL     1     -10.227 -31.417  22.941  1.00  0.00     0.210 HD
ENDBRANCH  25  28
ENDBRANCH  23  25
ENDBRANCH  19  23
BRANCH   1  30
HETATM   30  C6  UNL     1     -12.531 -36.331  22.514  1.00  0.00     0.004 C 
HETATM   31  C5  UNL     1     -13.127 -36.049  23.676  1.00  0.00    -0.028 C 
BRANCH  31  32
HETATM   32  C4  UNL     1     -14.499 -36.498  24.003  1.00  0.00     0.027 C 
BRANCH  32  33
HETATM   33  C3  UNL     1     -15.014 -37.468  22.964  1.00  0.00     0.003 C 
BRANCH  33  34
HETATM   34  C2  UNL     1     -16.514 -37.250  22.809  1.00  0.00    -0.004 C 
HETATM   35  C1  UNL     1     -17.078 -36.464  23.957  1.00  0.00     0.005 C 
ENDBRANCH  33  34
ENDBRANCH  32  33
ENDBRANCH  31  32
ENDBRANCH   1  30
BRANCH  11  36
HETATM   36  O4  UNL     1      -8.483 -36.543  18.310  1.00  0.00    -0.383 OA
ATOM     37  H4  UNL     1      -7.686 -36.862  17.904  1.00  0.00     0.210 HD
ENDBRANCH  11  36
BRANCH   8  38
HETATM   38  O3  UNL     1      -5.716 -39.388  21.719  1.00  0.00    -0.357 OA
HETATM   39  C13 UNL     1      -4.540 -39.742  21.069  1.00  0.00     0.209 C 
ENDBRANCH   8  38
TORSDOF 10
ENDMDL
MODEL 3
REMARK VINA RESULT: -5.798098623      3.249      7.344
REMARK  10 active torsions:
REMARK  status: ('A' for Active; 'I' for Inactive)
REMARK    1  A    between atoms: C2_2  and  C3_3 
REMARK    2  A    between atoms: C3_3  and  C4_4 
REMARK    3  A    between atoms: C4_4  and  C5_5 
REMARK    4  A    between atoms: C6_6  and  C7_7 
REMARK    5  A    between atoms: C12_14  and  O3_15 
REMARK    6  A    between atoms: C16_19  and  O4_20 
REMARK    7  A    between atoms: C22_29  and  C23_30 
REMARK    8  A    between atoms: C22_29  and  C24_33 
REMARK    9  A    between atoms: C24_33  and  C26_35 
REMARK   10  A    between atoms: C26_35  and  O9_38 
ROOT
HETATM    1  C7  UNL     1      -2.762 -34.814  21.452  1.00  0.00     0.194 C 
HETATM    2  O1  UNL     1      -1.814 -33.822  21.470  1.00  0.00    -0.338 OA
HETATM    3  C8  UNL     1      -0.678 -33.998  22.207  1.00  0.00     0.223 C 
HETATM    4  C9  UNL     1      -1.092 -33.723  23.666  1.00  0.00     0.085 C 
HETATM    5  O2  UNL     1       0.161 -32.984  21.895  1.00  0.00    -0.332 OA
HETATM    6  C10 UNL     1       1.497 -33.061  21.981  1.00  0.00     0.116 C 
HETATM    7  C11 UNL     1       2.154 -32.103  22.930  1.00  0.00     0.054 C 
HETATM    8  C12 UNL     1       1.993 -32.636  20.635  1.00  0.00     0.077 C 
HETATM    9  C14 UNL     1       1.681 -33.454  19.651  1.00  0.00     0.012 C 
HETATM   10  C15 UNL     1       0.888 -34.703  19.900  1.00  0.00     0.074 C 
HETATM   11  C16 UNL     1       1.143 -35.309  21.252  1.00  0.00     0.130 C 
HETATM   12  C17 UNL     1       2.054 -34.469  22.101  1.00  0.00     0.069 C 
HETATM   13  C18 UNL     1       2.197 -34.978  23.474  1.00  0.00     0.043 C 
HETATM   14  C19 UNL     1       1.241 -36.153  23.720  1.00  0.00     0.122 C 
HETATM   15  C20 UNL     1       1.201 -36.302  25.253  1.00  0.00     0.040 C 
HETATM   16  O5  UNL     1      -0.012 -35.922  23.285  1.00  0.00    -0.343 OA
HETATM   17  C21 UNL     1      -0.196 -35.400  22.015  1.00  0.00     0.256 C 
HETATM   18  O6  UNL     1      -0.903 -36.245  21.272  1.00  0.00    -0.322 OA
HETATM   19  C22 UNL     1      -2.278 -36.184  21.137  1.00  0.00     0.187 C 
ENDROOT
BRANCH  19  20
HETATM   20  C23 UNL     1      -2.796 -37.180  22.160  1.00  0.00     0.213 C 
HETATM   21  O7  UNL     1      -3.993 -37.205  22.537  1.00  0.00    -0.646 OA
HETATM   22  O8  UNL     1      -1.991 -38.137  22.757  1.00  0.00    -0.646 OA
ENDBRANCH  19  20
BRANCH  19  23
HETATM   23  C24 UNL     1      -2.489 -36.680  19.751  1.00  0.00     0.064 C 
HETATM   24  C25 UNL     1      -1.323 -37.673  19.432  1.00  0.00     0.017 C 
BRANCH  23  25
HETATM   25  C26 UNL     1      -3.651 -37.365  19.241  1.00  0.00     0.057 C 
HETATM   26  C27 UNL     1      -5.025 -36.830  19.374  1.00  0.00     0.045 C 
HETATM   27  C28 UNL     1      -3.652 -38.892  19.401  1.00  0.00     0.045 C 
BRANCH  25  28
HETATM   28  O9  UNL     1      -3.461 -37.242  17.807  1.00  0.00    -0.390 OA
ATOM     29  H9  UNL     1      -4.277 -36.838  17.537  1.00  0.00     0.210 HD
ENDBRANCH  25  28
ENDBRANCH  23  25
ENDBRANCH  19  23
BRANCH   1  30
HETATM   30  C6  UNL     1      -3.640 -34.781  22.680  1.00  0.00     0.004 C 
HETATM   31  C5  UNL     1      -4.293 -33.666  23.019  1.00  0.00    -0.028 C 
BRANCH  31  32
HETATM   32  C4  UNL     1      -5.167 -33.580  24.210  1.00  0.00     0.027 C 
BRANCH  32  33
HETATM   33  C3  UNL     1      -5.567 -32.149  24.487  1.00  0.00     0.003 C 
BRANCH  33  34
HETATM   34  C2  UNL     1      -4.482 -31.506  25.343  1.00  0.00    -0.004 C 
HETATM   35  C1  UNL     1      -4.876 -30.129  25.790  1.00  0.00     0.005 C 
ENDBRANCH  33  34
ENDBRANCH  32  33
ENDBRANCH  31  32
ENDBRANCH   1  30
BRANCH  11  36
HETATM   36  O4  UNL     1       1.656 -36.590  21.012  1.00  0.00    -0.383 OA
ATOM     37  H4  UNL     1       1.161 -36.939  20.280  1.00  0.00     0.210 HD
ENDBRANCH  11  36
BRANCH   8  38
HETATM   38  O3  UNL     1       2.716 -31.505  20.378  1.00  0.00    -0.357 OA
HETATM   39  C13 UNL     1       4.001 -31.430  19.857  1.00  0.00     0.209 C 
ENDBRANCH   8  38
TORSDOF 10
ENDMDL
MODEL 4
REMARK VINA RESULT: -5.753589827      2.993      7.010
REMARK  10 active torsions:
REMARK  status: ('A' for Active; 'I' for Inactive)
REMARK    1  A    between atoms: C2_2  and  C3_3 
REMARK    2  A    between atoms: C3_3  and  C4_4 
REMARK    3  A    between atoms: C4_4  and  C5_5 
REMARK    4  A    between atoms: C6_6  and  C7_7 
REMARK    5  A    between atoms: C12_14  and  O3_15 
REMARK    6  A    between atoms: C16_19  and  O4_20 
REMARK    7  A    between atoms: C22_29  and  C23_30 
REMARK    8  A    between atoms: C22_29  and  C24_33 
REMARK    9  A    between atoms: C24_33  and  C26_35 
REMARK   10  A    between atoms: C26_35  and  O9_38 
ROOT
HETATM    1  C7  UNL     1      -2.496 -34.413  21.782  1.00  0.00     0.194 C 
HETATM    2  O1  UNL     1      -1.477 -33.499  21.879  1.00  0.00    -0.338 OA
HETATM    3  C8  UNL     1      -0.385 -33.795  22.643  1.00  0.00     0.223 C 
HETATM    4  C9  UNL     1      -0.831 -33.556  24.100  1.00  0.00     0.085 C 
HETATM    5  O2  UNL     1       0.539 -32.836  22.409  1.00  0.00    -0.332 OA
HETATM    6  C10 UNL     1       1.860 -33.020  22.535  1.00  0.00     0.116 C 
HETATM    7  C11 UNL     1       2.553 -32.160  23.550  1.00  0.00     0.054 C 
HETATM    8  C12 UNL     1       2.437 -32.574  21.228  1.00  0.00     0.077 C 
HETATM    9  C14 UNL     1       2.100 -33.320  20.196  1.00  0.00     0.012 C 
HETATM   10  C15 UNL     1       1.206 -34.514  20.359  1.00  0.00     0.074 C 
HETATM   11  C16 UNL     1       1.365 -35.199  21.687  1.00  0.00     0.130 C 
HETATM   12  C17 UNL     1       2.305 -34.470  22.605  1.00  0.00     0.069 C 
HETATM   13  C18 UNL     1       2.359 -35.051  23.956  1.00  0.00     0.043 C 
HETATM   14  C19 UNL     1       1.309 -36.159  24.114  1.00  0.00     0.122 C 
HETATM   15  C20 UNL     1       1.202 -36.373  25.636  1.00  0.00     0.040 C 
HETATM   16  O5  UNL     1       0.093 -35.812  23.649  1.00  0.00    -0.343 OA
HETATM   17  C21 UNL     1      -0.004 -35.220  22.401  1.00  0.00     0.256 C 
HETATM   18  O6  UNL     1      -0.745 -35.973  21.595  1.00  0.00    -0.322 OA
HETATM   19  C22 UNL     1      -2.106 -35.801  21.417  1.00  0.00     0.187 C 
ENDROOT
BRANCH  19  20
HETATM   20  C23 UNL     1      -2.735 -36.799  22.374  1.00  0.00     0.213 C 
HETATM   21  O7  UNL     1      -2.062 -37.649  23.007  1.00  0.00    -0.646 OA
HETATM   22  O8  UNL     1      -4.096 -36.849  22.624  1.00  0.00    -0.646 OA
ENDBRANCH  19  20
BRANCH  19  23
HETATM   23  C24 UNL     1      -2.303 -36.216  20.004  1.00  0.00     0.064 C 
HETATM   24  C25 UNL     1      -2.252 -34.920  19.128  1.00  0.00     0.017 C 
BRANCH  23  25
HETATM   25  C26 UNL     1      -1.503 -37.151  19.252  1.00  0.00     0.057 C 
HETATM   26  C27 UNL     1      -0.891 -38.356  19.855  1.00  0.00     0.045 C 
HETATM   27  C28 UNL     1      -0.558 -36.534  18.210  1.00  0.00     0.045 C 
BRANCH  25  28
HETATM   28  O9  UNL     1      -2.496 -37.764  18.390  1.00  0.00    -0.390 OA
ATOM     29  H9  UNL     1      -3.249 -37.203  18.532  1.00  0.00     0.210 HD
ENDBRANCH  25  28
ENDBRANCH  23  25
ENDBRANCH  19  23
BRANCH   1  30
HETATM   30  C6  UNL     1      -3.414 -34.368  22.980  1.00  0.00     0.004 C 
HETATM   31  C5  UNL     1      -4.178 -33.297  23.211  1.00  0.00    -0.028 C 
BRANCH  31  32
HETATM   32  C4  UNL     1      -5.095 -33.202  24.369  1.00  0.00     0.027 C 
BRANCH  32  33
HETATM   33  C3  UNL     1      -5.733 -31.834  24.444  1.00  0.00     0.003 C 
BRANCH  33  34
HETATM   34  C2  UNL     1      -4.925 -30.982  25.416  1.00  0.00    -0.004 C 
HETATM   35  C1  UNL     1      -5.242 -29.523  25.264  1.00  0.00     0.005 C 
ENDBRANCH  33  34
ENDBRANCH  32  33
ENDBRANCH  31  32
ENDBRANCH   1  30
BRANCH  11  36
HETATM   36  O4  UNL     1       1.788 -36.503  21.403  1.00  0.00    -0.383 OA
ATOM     37  H4  UNL     1       1.063 -37.071  21.634  1.00  0.00     0.210 HD
ENDBRANCH  11  36
BRANCH   8  38
HETATM   38  O3  UNL     1       3.252 -31.492  21.050  1.00  0.00    -0.357 OA
HETATM   39  C13 UNL     1       4.221 -31.322  20.069  1.00  0.00     0.209 C 
ENDBRANCH   8  38
TORSDOF 10
ENDMDL
MODEL 5
REMARK VINA RESULT: -5.689838660     10.489     15.411
REMARK  10 active torsions:
REMARK  status: ('A' for Active; 'I' for Inactive)
REMARK    1  A    between atoms: C2_2  and  C3_3 
REMARK    2  A    between atoms: C3_3  and  C4_4 
REMARK    3  A    between atoms: C4_4  and  C5_5 
REMARK    4  A    between atoms: C6_6  and  C7_7 
REMARK    5  A    between atoms: C12_14  and  O3_15 
REMARK    6  A    between atoms: C16_19  and  O4_20 
REMARK    7  A    between atoms: C22_29  and  C23_30 
REMARK    8  A    between atoms: C22_29  and  C24_33 
REMARK    9  A    between atoms: C24_33  and  C26_35 
REMARK   10  A    between atoms: C26_35  and  O9_38 
ROOT
HETATM    1  C7  UNL     1     -12.018 -35.412  22.082  1.00  0.00     0.194 C 
HETATM    2  O1  UNL     1     -10.933 -36.183  22.413  1.00  0.00    -0.338 OA
HETATM    3  C8  UNL     1     -10.545 -37.186  21.571  1.00  0.00     0.223 C 
HETATM    4  C9  UNL     1     -11.533 -38.341  21.833  1.00  0.00     0.085 C 
HETATM    5  O2  UNL     1      -9.356 -37.647  22.020  1.00  0.00    -0.332 OA
HETATM    6  C10 UNL     1      -8.432 -38.225  21.239  1.00  0.00     0.116 C 
HETATM    7  C11 UNL     1      -8.077 -39.643  21.574  1.00  0.00     0.054 C 
HETATM    8  C12 UNL     1      -7.172 -37.463  21.507  1.00  0.00     0.077 C 
HETATM    9  C14 UNL     1      -7.196 -36.207  21.111  1.00  0.00     0.012 C 
HETATM   10  C15 UNL     1      -8.408 -35.623  20.449  1.00  0.00     0.074 C 
HETATM   11  C16 UNL     1      -9.178 -36.622  19.632  1.00  0.00     0.130 C 
HETATM   12  C17 UNL     1      -8.626 -38.014  19.748  1.00  0.00     0.069 C 
HETATM   13  C18 UNL     1      -9.454 -39.023  19.068  1.00  0.00     0.043 C 
HETATM   14  C19 UNL     1     -10.758 -38.399  18.554  1.00  0.00     0.122 C 
HETATM   15  C20 UNL     1     -11.668 -39.605  18.253  1.00  0.00     0.040 C 
HETATM   16  O5  UNL     1     -11.373 -37.621  19.466  1.00  0.00    -0.343 OA
HETATM   17  C21 UNL     1     -10.627 -36.687  20.164  1.00  0.00     0.256 C 
HETATM   18  O6  UNL     1     -11.085 -35.463  19.923  1.00  0.00    -0.322 OA
HETATM   19  C22 UNL     1     -12.018 -34.823  20.717  1.00  0.00     0.187 C 
ENDROOT
BRANCH  19  20
HETATM   20  C23 UNL     1     -13.343 -35.090  20.023  1.00  0.00     0.213 C 
HETATM   21  O7  UNL     1     -13.892 -36.219  20.021  1.00  0.00    -0.646 OA
HETATM   22  O8  UNL     1     -14.048 -34.113  19.340  1.00  0.00    -0.646 OA
ENDBRANCH  19  20
BRANCH  19  23
HETATM   23  C24 UNL     1     -11.626 -33.394  20.590  1.00  0.00     0.064 C 
HETATM   24  C25 UNL     1     -12.648 -32.556  21.427  1.00  0.00     0.017 C 
BRANCH  23  25
HETATM   25  C26 UNL     1     -10.356 -32.807  20.940  1.00  0.00     0.057 C 
HETATM   26  C27 UNL     1      -9.560 -33.244  22.109  1.00  0.00     0.045 C 
HETATM   27  C28 UNL     1     -10.251 -31.286  20.758  1.00  0.00     0.045 C 
BRANCH  25  28
HETATM   28  O9  UNL     1      -9.507 -33.270  19.857  1.00  0.00    -0.390 OA
ATOM     29  H9  UNL     1      -9.821 -32.748  19.129  1.00  0.00     0.210 HD
ENDBRANCH  25  28
ENDBRANCH  23  25
ENDBRANCH  19  23
BRANCH   1  30
HETATM   30  C6  UNL     1     -13.322 -36.096  22.416  1.00  0.00     0.004 C 
HETATM   31  C5  UNL     1     -13.766 -36.136  23.675  1.00  0.00    -0.028 C 
BRANCH  31  32
HETATM   32  C4  UNL     1     -15.037 -36.792  24.056  1.00  0.00     0.027 C 
BRANCH  32  33
HETATM   33  C3  UNL     1     -15.824 -37.200  22.831  1.00  0.00     0.003 C 
BRANCH  33  34
HETATM   34  C2  UNL     1     -17.305 -37.198  23.193  1.00  0.00    -0.004 C 
HETATM   35  C1  UNL     1     -17.642 -36.074  24.128  1.00  0.00     0.005 C 
ENDBRANCH  33  34
ENDBRANCH  32  33
ENDBRANCH  31  32
ENDBRANCH   1  30
BRANCH  11  36
HETATM   36  O4  UNL     1      -9.163 -36.142  18.316  1.00  0.00    -0.383 OA
ATOM     37  H4  UNL     1      -9.775 -36.683  17.831  1.00  0.00     0.210 HD
ENDBRANCH  11  36
BRANCH   8  38
HETATM   38  O3  UNL     1      -6.054 -37.968  22.108  1.00  0.00    -0.357 OA
HETATM   39  C13 UNL     1      -4.741 -37.862  21.666  1.00  0.00     0.209 C 
ENDBRANCH   8  38
TORSDOF 10
ENDMDL
