MODEL 1
REMARK VINA RESULT: -8.202085602      0.000      0.000
REMARK  4 active torsions:
REMARK  status: ('A' for Active; 'I' for Inactive)
REMARK    1  A    between atoms: S1_2  and  C2_3 
REMARK    2  A    between atoms: C3_6  and  N2_7 
REMARK    3  A    between atoms: N2_7  and  C4_9 
REMARK    4  A    between atoms: N8_24  and  O1_25 
ROOT
HETATM    1  C4  UNL     1      -5.732 -10.333  17.998  1.00  0.00     0.388 C 
HETATM    2  C5  UNL     1      -4.981  -9.105  17.766  1.00  0.00     0.142 C 
HETATM    3  N3  UNL     1      -4.371  -8.146  17.577  1.00  0.00    -0.191 NA
HETATM    4  N4  UNL     1      -5.652 -10.793  19.376  1.00  0.00    -0.013 N 
ATOM      5  H41 UNL     1      -4.803 -11.338  19.526  1.00  0.00     0.283 HD
ATOM      6  H42 UNL     1      -6.350 -11.515  19.557  1.00  0.00     0.283 HD
HETATM    7  C6  UNL     1      -5.753  -9.738  20.334  1.00  0.00     0.300 C 
HETATM    8  C7  UNL     1      -6.943  -8.926  20.029  1.00  0.00     0.095 A 
HETATM    9  N5  UNL     1      -7.608  -8.007  20.728  1.00  0.00    -0.285 N 
ATOM     10  H5  UNL     1      -7.377  -7.691  21.670  1.00  0.00     0.188 HD
HETATM   11  N6  UNL     1      -8.618  -7.573  19.994  1.00  0.00    -0.241 N 
ATOM     12  H6  UNL     1      -9.296  -6.866  20.276  1.00  0.00     0.208 HD
HETATM   13  N7  UNL     1      -8.606  -8.203  18.837  1.00  0.00    -0.272 N 
ATOM     14  H7  UNL     1      -9.275  -8.059  18.081  1.00  0.00     0.189 HD
HETATM   15  C8  UNL     1      -7.574  -9.065  18.808  1.00  0.00     0.153 A 
HETATM   16  N8  UNL     1      -7.148  -9.956  17.796  1.00  0.00    -0.076 NA
ENDROOT
BRANCH   1  17
HETATM   17  N2  UNL     1      -5.464 -11.400  17.137  1.00  0.00    -0.163 N 
ATOM     18  H2  UNL     1      -4.636 -11.933  17.402  1.00  0.00     0.183 HD
BRANCH  17  19
HETATM   19  C3  UNL     1      -6.038 -11.846  16.091  1.00  0.00     0.685 A 
HETATM   20  N1  UNL     1      -7.273 -12.338  16.313  1.00  0.00    -0.179 N 
HETATM   21  C2  UNL     1      -8.107 -12.863  15.441  1.00  0.00     0.130 A 
ATOM     22  H1  UNL     1      -7.602 -12.298  17.277  1.00  0.00     0.185 HD
HETATM   23  S2  UNL     1      -7.491 -12.899  13.851  1.00  0.00    -0.028 SA
HETATM   24  C9  UNL     1      -5.929 -12.245  13.744  1.00  0.00     0.160 A 
HETATM   25  N9  UNL     1      -5.419 -11.804  14.904  1.00  0.00    -0.170 N 
HETATM   26  N10 UNL     1      -5.228 -12.149  12.652  1.00  0.00    -0.379 N 
ATOM     27  H9  UNL     1      -4.481 -11.402  14.880  1.00  0.00     0.186 HD
ATOM     28 2H10 UNL     1      -4.289 -11.756  12.588  1.00  0.00     0.158 HD
ATOM     29 1H10 UNL     1      -5.616 -12.485  11.770  1.00  0.00     0.158 HD
BRANCH  21  30
HETATM   30  S1  UNL     1      -9.737 -13.483  15.891  1.00  0.00    -0.109 SA
HETATM   31  C1  UNL     1     -10.606 -13.847  14.333  1.00  0.00     0.097 C 
ENDBRANCH  21  30
ENDBRANCH  17  19
ENDBRANCH   1  17
BRANCH  16  32
HETATM   32  O1  UNL     1      -7.296  -9.392  16.556  1.00  0.00    -0.302 OA
ATOM     33  H1  UNL     1      -8.032  -9.796  16.113  1.00  0.00     0.237 HD
ENDBRANCH  16  32
TORSDOF 4
ENDMDL
MODEL 2
REMARK VINA RESULT: -7.299418775      4.691      6.590
REMARK  4 active torsions:
REMARK  status: ('A' for Active; 'I' for Inactive)
REMARK    1  A    between atoms: S1_2  and  C2_3 
REMARK    2  A    between atoms: C3_6  and  N2_7 
REMARK    3  A    between atoms: N2_7  and  C4_9 
REMARK    4  A    between atoms: N8_24  and  O1_25 
ROOT
HETATM    1  C4  UNL     1      -7.916 -11.476  20.693  1.00  0.00     0.388 C 
HETATM    2  C5  UNL     1      -7.454 -11.595  19.315  1.00  0.00     0.142 C 
HETATM    3  N3  UNL     1      -7.086 -11.710  18.229  1.00  0.00    -0.191 NA
HETATM    4  N4  UNL     1      -6.868 -11.041  21.604  1.00  0.00    -0.013 N 
ATOM      5  H41 UNL     1      -6.303 -11.834  21.909  1.00  0.00     0.283 HD
ATOM      6  H42 UNL     1      -7.263 -10.760  22.502  1.00  0.00     0.283 HD
HETATM    7  C6  UNL     1      -6.042 -10.007  21.068  1.00  0.00     0.300 C 
HETATM    8  C7  UNL     1      -6.900  -8.923  20.560  1.00  0.00     0.095 A 
HETATM    9  N5  UNL     1      -6.643  -7.666  20.199  1.00  0.00    -0.285 N 
ATOM     10  H5  UNL     1      -5.728  -7.216  20.217  1.00  0.00     0.188 HD
HETATM   11  N6  UNL     1      -7.775  -7.103  19.812  1.00  0.00    -0.241 N 
ATOM     12  H6  UNL     1      -7.877  -6.144  19.481  1.00  0.00     0.208 HD
HETATM   13  N7  UNL     1      -8.748  -7.982  19.922  1.00  0.00    -0.272 N 
ATOM     14  H7  UNL     1      -9.726  -7.811  19.689  1.00  0.00     0.189 HD
HETATM   15  C8  UNL     1      -8.253  -9.142  20.389  1.00  0.00     0.153 A 
HETATM   16  N8  UNL     1      -8.896 -10.369  20.671  1.00  0.00    -0.076 NA
ENDROOT
BRANCH   1  17
HETATM   17  N2  UNL     1      -8.564 -12.590  21.232  1.00  0.00    -0.163 N 
ATOM     18  H2  UNL     1      -8.508 -13.417  20.638  1.00  0.00     0.183 HD
BRANCH  17  19
HETATM   19  C3  UNL     1      -9.210 -12.788  22.312  1.00  0.00     0.685 A 
HETATM   20  N1  UNL     1     -10.413 -12.180  22.349  1.00  0.00    -0.179 N 
HETATM   21  C2  UNL     1     -11.303 -12.196  23.318  1.00  0.00     0.130 A 
ATOM     22  H1  UNL     1     -10.664 -11.639  21.522  1.00  0.00     0.185 HD
HETATM   23  S2  UNL     1     -10.816 -13.117  24.669  1.00  0.00    -0.028 SA
HETATM   24  C9  UNL     1      -9.282 -13.814  24.462  1.00  0.00     0.160 A 
HETATM   25  N9  UNL     1      -8.690 -13.542  23.289  1.00  0.00    -0.170 N 
HETATM   26  N10 UNL     1      -8.674 -14.562  25.335  1.00  0.00    -0.379 N 
ATOM     27  H9  UNL     1      -7.767 -13.945  23.127  1.00  0.00     0.186 HD
ATOM     28 2H10 UNL     1      -7.752 -14.980  25.211  1.00  0.00     0.158 HD
ATOM     29 1H10 UNL     1      -9.123 -14.768  26.227  1.00  0.00     0.158 HD
BRANCH  21  30
HETATM   30  S1  UNL     1     -12.877 -11.327  23.221  1.00  0.00    -0.109 SA
HETATM   31  C1  UNL     1     -12.637  -9.938  22.069  1.00  0.00     0.097 C 
ENDBRANCH  21  30
ENDBRANCH  17  19
ENDBRANCH   1  17
BRANCH  16  32
HETATM   32  O1  UNL     1      -9.864 -10.638  19.740  1.00  0.00    -0.302 OA
ATOM     33  H1  UNL     1      -9.877 -11.571  19.561  1.00  0.00     0.237 HD
ENDBRANCH  16  32
TORSDOF 4
ENDMDL
MODEL 3
REMARK VINA RESULT: -7.242279053      1.772      2.544
REMARK  4 active torsions:
REMARK  status: ('A' for Active; 'I' for Inactive)
REMARK    1  A    between atoms: S1_2  and  C2_3 
REMARK    2  A    between atoms: C3_6  and  N2_7 
REMARK    3  A    between atoms: N2_7  and  C4_9 
REMARK    4  A    between atoms: N8_24  and  O1_25 
ROOT
HETATM    1  C4  UNL     1      -7.753 -11.162  19.167  1.00  0.00     0.388 C 
HETATM    2  C5  UNL     1      -7.276 -11.391  20.526  1.00  0.00     0.142 C 
HETATM    3  N3  UNL     1      -6.908 -11.590  21.599  1.00  0.00    -0.191 NA
HETATM    4  N4  UNL     1      -9.005 -10.421  19.126  1.00  0.00    -0.013 N 
ATOM      5  H41 UNL     1      -9.800 -11.048  19.251  1.00  0.00     0.283 HD
ATOM      6  H42 UNL     1      -9.198 -10.091  18.180  1.00  0.00     0.283 HD
HETATM    7  C6  UNL     1      -9.058  -9.342  20.060  1.00  0.00     0.300 C 
HETATM    8  C7  UNL     1      -7.851  -8.513  19.904  1.00  0.00     0.095 A 
HETATM    9  N5  UNL     1      -7.534  -7.295  20.342  1.00  0.00    -0.285 N 
ATOM     10  H5  UNL     1      -8.130  -6.690  20.906  1.00  0.00     0.188 HD
HETATM   11  N6  UNL     1      -6.315  -7.004  19.921  1.00  0.00    -0.241 N 
ATOM     12  H6  UNL     1      -5.815  -6.136  20.108  1.00  0.00     0.208 HD
HETATM   13  N7  UNL     1      -5.852  -8.019  19.222  1.00  0.00    -0.272 N 
ATOM     14  H7  UNL     1      -4.933  -8.060  18.781  1.00  0.00     0.189 HD
HETATM   15  C8  UNL     1      -6.778  -8.993  19.179  1.00  0.00     0.153 A 
HETATM   16  N8  UNL     1      -6.749 -10.262  18.558  1.00  0.00    -0.076 NA
ENDROOT
BRANCH   1  17
HETATM   17  N2  UNL     1      -7.854 -12.286  18.344  1.00  0.00    -0.163 N 
ATOM     18  H2  UNL     1      -7.854 -13.165  18.859  1.00  0.00     0.183 HD
BRANCH  17  19
HETATM   19  C3  UNL     1      -7.945 -12.440  17.082  1.00  0.00     0.685 A 
HETATM   20  N1  UNL     1      -9.091 -13.030  16.686  1.00  0.00    -0.179 N 
HETATM   21  C2  UNL     1      -9.473 -13.322  15.461  1.00  0.00     0.130 A 
ATOM     22  H1  UNL     1      -9.743 -13.281  17.428  1.00  0.00     0.185 HD
HETATM   23  S2  UNL     1      -8.334 -12.876  14.272  1.00  0.00    -0.028 SA
HETATM   24  C9  UNL     1      -6.952 -12.149  14.936  1.00  0.00     0.160 A 
HETATM   25  N9  UNL     1      -6.959 -12.034  16.272  1.00  0.00    -0.170 N 
HETATM   26  N10 UNL     1      -5.932 -11.715  14.255  1.00  0.00    -0.379 N 
ATOM     27  H9  UNL     1      -6.145 -11.601  16.709  1.00  0.00     0.186 HD
ATOM     28 2H10 UNL     1      -5.101 -11.279  14.654  1.00  0.00     0.158 HD
ATOM     29 1H10 UNL     1      -5.926 -11.803  13.239  1.00  0.00     0.158 HD
BRANCH  21  30
HETATM   30  S1  UNL     1     -11.045 -14.116  15.085  1.00  0.00    -0.109 SA
HETATM   31  C1  UNL     1     -11.725 -13.264  13.626  1.00  0.00     0.097 C 
ENDBRANCH  21  30
ENDBRANCH  17  19
ENDBRANCH   1  17
BRANCH  16  32
HETATM   32  O1  UNL     1      -5.507 -10.831  18.665  1.00  0.00    -0.302 OA
ATOM     33  H1  UNL     1      -4.855 -10.226  18.332  1.00  0.00     0.237 HD
ENDBRANCH  16  32
TORSDOF 4
ENDMDL
MODEL 4
REMARK VINA RESULT: -7.157554467      1.476      1.793
REMARK  4 active torsions:
REMARK  status: ('A' for Active; 'I' for Inactive)
REMARK    1  A    between atoms: S1_2  and  C2_3 
REMARK    2  A    between atoms: C3_6  and  N2_7 
REMARK    3  A    between atoms: N2_7  and  C4_9 
REMARK    4  A    between atoms: N8_24  and  O1_25 
ROOT
HETATM    1  C4  UNL     1      -6.931 -11.263  18.553  1.00  0.00     0.388 C 
HETATM    2  C5  UNL     1      -6.037 -10.844  19.627  1.00  0.00     0.142 C 
HETATM    3  N3  UNL     1      -5.319 -10.530  20.471  1.00  0.00    -0.191 NA
HETATM    4  N4  UNL     1      -8.064 -12.041  19.033  1.00  0.00    -0.013 N 
ATOM      5  H41 UNL     1      -7.808 -13.022  19.143  1.00  0.00     0.283 HD
ATOM      6  H42 UNL     1      -8.774 -12.131  18.307  1.00  0.00     0.283 HD
HETATM    7  C6  UNL     1      -8.634 -11.528  20.239  1.00  0.00     0.300 C 
HETATM    8  C7  UNL     1      -8.907 -10.091  20.067  1.00  0.00     0.095 A 
HETATM    9  N5  UNL     1      -9.635  -9.224  20.770  1.00  0.00    -0.285 N 
ATOM     10  H5  UNL     1     -10.165  -9.437  21.615  1.00  0.00     0.188 HD
HETATM   11  N6  UNL     1      -9.552  -8.040  20.187  1.00  0.00    -0.241 N 
ATOM     12  H6  UNL     1     -10.009  -7.188  20.509  1.00  0.00     0.208 HD
HETATM   13  N7  UNL     1      -8.783  -8.142  19.123  1.00  0.00    -0.272 N 
ATOM     14  H7  UNL     1      -8.550  -7.378  18.489  1.00  0.00     0.189 HD
HETATM   15  C8  UNL     1      -8.353  -9.410  19.001  1.00  0.00     0.153 A 
HETATM   16  N8  UNL     1      -7.514 -10.007  18.033  1.00  0.00    -0.076 NA
ENDROOT
BRANCH   1  17
HETATM   17  N2  UNL     1      -6.342 -11.924  17.473  1.00  0.00    -0.163 N 
ATOM     18  H2  UNL     1      -5.402 -12.266  17.672  1.00  0.00     0.183 HD
BRANCH  17  19
HETATM   19  C3  UNL     1      -6.735 -12.188  16.289  1.00  0.00     0.685 A 
HETATM   20  N1  UNL     1      -7.994 -12.665  16.225  1.00  0.00    -0.179 N 
HETATM   21  C2  UNL     1      -8.673 -13.024  15.158  1.00  0.00     0.130 A 
ATOM     22  H1  UNL     1      -8.481 -12.758  17.116  1.00  0.00     0.185 HD
HETATM   23  S2  UNL     1      -7.797 -12.844  13.705  1.00  0.00    -0.028 SA
HETATM   24  C9  UNL     1      -6.234 -12.235  13.960  1.00  0.00     0.160 A 
HETATM   25  N9  UNL     1      -5.924 -11.990  15.242  1.00  0.00    -0.170 N 
HETATM   26  N10 UNL     1      -5.358 -12.001  13.027  1.00  0.00    -0.379 N 
ATOM     27  H9  UNL     1      -4.992 -11.622  15.436  1.00  0.00     0.186 HD
ATOM     28 2H10 UNL     1      -4.418 -11.636  13.181  1.00  0.00     0.158 HD
ATOM     29 1H10 UNL     1      -5.594 -12.188  12.053  1.00  0.00     0.158 HD
BRANCH  21  30
HETATM   30  S1  UNL     1     -10.361 -13.648  15.231  1.00  0.00    -0.109 SA
HETATM   31  C1  UNL     1     -10.942 -13.385  16.937  1.00  0.00     0.097 C 
ENDBRANCH  21  30
ENDBRANCH  17  19
ENDBRANCH   1  17
BRANCH  16  32
HETATM   32  O1  UNL     1      -6.505  -9.156  17.668  1.00  0.00    -0.302 OA
ATOM     33  H1  UNL     1      -6.793  -8.622  16.937  1.00  0.00     0.237 HD
ENDBRANCH  16  32
TORSDOF 4
ENDMDL
MODEL 5
REMARK VINA RESULT: -7.126815481      2.102      3.552
REMARK  4 active torsions:
REMARK  status: ('A' for Active; 'I' for Inactive)
REMARK    1  A    between atoms: S1_2  and  C2_3 
REMARK    2  A    between atoms: C3_6  and  N2_7 
REMARK    3  A    between atoms: N2_7  and  C4_9 
REMARK    4  A    between atoms: N8_24  and  O1_25 
ROOT
HETATM    1  C4  UNL     1      -7.968 -11.285  19.338  1.00  0.00     0.388 C 
HETATM    2  C5  UNL     1      -7.432 -11.460  20.683  1.00  0.00     0.142 C 
HETATM    3  N3  UNL     1      -7.018 -11.617  21.746  1.00  0.00    -0.191 NA
HETATM    4  N4  UNL     1      -9.196 -10.504  19.317  1.00  0.00    -0.013 N 
ATOM      5  H41 UNL     1     -10.004 -11.094  19.514  1.00  0.00     0.283 HD
ATOM      6  H42 UNL     1      -9.425 -10.215  18.366  1.00  0.00     0.283 HD
HETATM    7  C6  UNL     1      -9.167  -9.377  20.195  1.00  0.00     0.300 C 
HETATM    8  C7  UNL     1      -7.943  -8.599  19.938  1.00  0.00     0.095 A 
HETATM    9  N5  UNL     1      -7.565  -7.373  20.294  1.00  0.00    -0.285 N 
ATOM     10  H5  UNL     1      -8.113  -6.718  20.853  1.00  0.00     0.188 HD
HETATM   11  N6  UNL     1      -6.360  -7.146  19.801  1.00  0.00    -0.241 N 
ATOM     12  H6  UNL     1      -5.823  -6.288  19.917  1.00  0.00     0.208 HD
HETATM   13  N7  UNL     1      -5.965  -8.212  19.135  1.00  0.00    -0.272 N 
ATOM     14  H7  UNL     1      -5.071  -8.308  18.653  1.00  0.00     0.189 HD
HETATM   15  C8  UNL     1      -6.923  -9.154  19.188  1.00  0.00     0.153 A 
HETATM   16  N8  UNL     1      -6.967 -10.453  18.635  1.00  0.00    -0.076 NA
ENDROOT
BRANCH   1  17
HETATM   17  N2  UNL     1      -8.146 -12.445  18.581  1.00  0.00    -0.163 N 
ATOM     18  H2  UNL     1      -8.011 -13.302  19.117  1.00  0.00     0.183 HD
BRANCH  17  19
HETATM   19  C3  UNL     1      -8.442 -12.656  17.359  1.00  0.00     0.685 A 
HETATM   20  N1  UNL     1      -7.458 -12.333  16.496  1.00  0.00    -0.179 N 
HETATM   21  C2  UNL     1      -7.463 -12.436  15.184  1.00  0.00     0.130 A 
ATOM     22  H1  UNL     1      -6.603 -11.964  16.911  1.00  0.00     0.185 HD
HETATM   23  S2  UNL     1      -8.922 -13.059  14.559  1.00  0.00    -0.028 SA
HETATM   24  C9  UNL     1     -10.052 -13.412  15.775  1.00  0.00     0.160 A 
HETATM   25  N9  UNL     1      -9.638 -13.154  17.024  1.00  0.00    -0.170 N 
HETATM   26  N10 UNL     1     -11.243 -13.897  15.575  1.00  0.00    -0.379 N 
ATOM     27  H9  UNL     1     -10.291 -13.354  17.783  1.00  0.00     0.186 HD
ATOM     28 2H10 UNL     1     -11.922 -14.109  16.306  1.00  0.00     0.158 HD
ATOM     29 1H10 UNL     1     -11.557 -14.093  14.625  1.00  0.00     0.158 HD
BRANCH  21  30
HETATM   30  S1  UNL     1      -6.062 -11.961  14.156  1.00  0.00    -0.109 SA
HETATM   31  C1  UNL     1      -5.340 -13.504  13.513  1.00  0.00     0.097 C 
ENDBRANCH  21  30
ENDBRANCH  17  19
ENDBRANCH   1  17
BRANCH  16  32
HETATM   32  O1  UNL     1      -5.741 -11.058  18.712  1.00  0.00    -0.302 OA
ATOM     33  H1  UNL     1      -5.150 -10.509  19.213  1.00  0.00     0.237 HD
ENDBRANCH  16  32
TORSDOF 4
ENDMDL
