MODEL 1
REMARK VINA RESULT: -6.047191805      0.000      0.000
REMARK  3 active torsions:
REMARK  status: ('A' for Active; 'I' for Inactive)
REMARK    1  A    between atoms: C3_3  and  C4_4 
REMARK    2  A    between atoms: C4_4  and  N1_6 
REMARK    3  A    between atoms: N1_6  and  C6_8 
ROOT
HETATM    1  C6  UNL     1      29.830  17.239  18.706  1.00  0.00     0.280 C 
HETATM    2  C7  UNL     1      28.882  16.121  18.336  1.00  0.00     0.055 C 
HETATM    3  C8  UNL     1      28.324  15.767  19.699  1.00  0.00     0.031 C 
HETATM    4  C9  UNL     1      29.449  16.088  20.619  1.00  0.00     0.235 C 
HETATM    5  N2  UNL     1      30.512  16.699  19.828  1.00  0.00    -0.055 N 
ATOM      6  H21 UNL     1      31.082  17.374  20.339  1.00  0.00     0.279 HD
ATOM      7  H22 UNL     1      31.277  16.067  19.592  1.00  0.00     0.279 HD
ENDROOT
BRANCH   1   8
HETATM    8  N1  UNL     1      30.654  17.657  17.620  1.00  0.00    -0.389 N 
ATOM      9  H1  UNL     1      31.407  17.079  17.248  1.00  0.00     0.155 HD
BRANCH   8  10
HETATM   10  C4  UNL     1      30.344  18.949  17.094  1.00  0.00     0.097 C 
HETATM   11  C5  UNL     1      30.148  19.873  18.306  1.00  0.00     0.036 C 
BRANCH  10  12
HETATM   12  C3  UNL     1      31.464  19.509  16.288  1.00  0.00    -0.007 C 
HETATM   13  C2  UNL     1      31.671  20.809  16.154  1.00  0.00    -0.033 C 
HETATM   14  C1  UNL     1      32.772  21.397  15.362  1.00  0.00     0.036 C 
ENDBRANCH  10  12
ENDBRANCH   8  10
ENDBRANCH   1   8
TORSDOF 3
ENDMDL
MODEL 2
REMARK VINA RESULT: -5.785343338      1.269      1.955
REMARK  3 active torsions:
REMARK  status: ('A' for Active; 'I' for Inactive)
REMARK    1  A    between atoms: C3_3  and  C4_4 
REMARK    2  A    between atoms: C4_4  and  N1_6 
REMARK    3  A    between atoms: N1_6  and  C6_8 
ROOT
HETATM    1  C6  UNL     1      29.588  16.765  17.088  1.00  0.00     0.280 C 
HETATM    2  C7  UNL     1      29.035  16.406  18.449  1.00  0.00     0.055 C 
HETATM    3  C8  UNL     1      27.803  15.620  18.049  1.00  0.00     0.031 C 
HETATM    4  C9  UNL     1      27.409  16.243  16.756  1.00  0.00     0.235 C 
HETATM    5  N2  UNL     1      28.431  17.222  16.402  1.00  0.00    -0.055 N 
ATOM      6  H21 UNL     1      28.560  17.351  15.398  1.00  0.00     0.279 HD
ATOM      7  H22 UNL     1      28.175  18.188  16.604  1.00  0.00     0.279 HD
ENDROOT
BRANCH   1   8
HETATM    8  N1  UNL     1      30.676  17.685  17.150  1.00  0.00    -0.389 N 
ATOM      9  H1  UNL     1      31.616  17.405  17.431  1.00  0.00     0.155 HD
BRANCH   8  10
HETATM   10  C4  UNL     1      30.348  19.027  16.788  1.00  0.00     0.097 C 
HETATM   11  C5  UNL     1      30.252  19.818  18.101  1.00  0.00     0.036 C 
BRANCH  10  12
HETATM   12  C3  UNL     1      31.418  19.662  15.967  1.00  0.00    -0.007 C 
HETATM   13  C2  UNL     1      31.753  20.936  16.089  1.00  0.00    -0.033 C 
HETATM   14  C1  UNL     1      32.809  21.596  15.291  1.00  0.00     0.036 C 
ENDBRANCH  10  12
ENDBRANCH   8  10
ENDBRANCH   1   8
TORSDOF 3
ENDMDL
MODEL 3
REMARK VINA RESULT: -5.768132745      1.605      5.091
REMARK  3 active torsions:
REMARK  status: ('A' for Active; 'I' for Inactive)
REMARK    1  A    between atoms: C3_3  and  C4_4 
REMARK    2  A    between atoms: C4_4  and  N1_6 
REMARK    3  A    between atoms: N1_6  and  C6_8 
ROOT
HETATM    1  C6  UNL     1      31.363  18.783  16.292  1.00  0.00     0.280 C 
HETATM    2  C7  UNL     1      31.089  19.446  14.960  1.00  0.00     0.055 C 
HETATM    3  C8  UNL     1      31.742  20.794  15.182  1.00  0.00     0.031 C 
HETATM    4  C9  UNL     1      31.588  21.009  16.647  1.00  0.00     0.235 C 
HETATM    5  N2  UNL     1      31.003  19.800  17.216  1.00  0.00    -0.055 N 
ATOM      6  H21 UNL     1      31.281  19.611  18.179  1.00  0.00     0.279 HD
ATOM      7  H22 UNL     1      30.002  19.865  17.402  1.00  0.00     0.279 HD
ENDROOT
BRANCH   1   8
HETATM    8  N1  UNL     1      30.689  17.536  16.447  1.00  0.00    -0.389 N 
ATOM      9  H1  UNL     1      31.073  16.657  16.100  1.00  0.00     0.155 HD
BRANCH   8  10
HETATM   10  C4  UNL     1      29.434  17.613  17.126  1.00  0.00     0.097 C 
HETATM   11  C5  UNL     1      28.376  17.094  16.140  1.00  0.00     0.036 C 
BRANCH  10  12
HETATM   12  C3  UNL     1      29.392  16.730  18.325  1.00  0.00    -0.007 C 
HETATM   13  C2  UNL     1      29.752  17.140  19.530  1.00  0.00    -0.033 C 
HETATM   14  C1  UNL     1      29.721  16.290  20.739  1.00  0.00     0.036 C 
ENDBRANCH  10  12
ENDBRANCH   8  10
ENDBRANCH   1   8
TORSDOF 3
ENDMDL
MODEL 4
REMARK VINA RESULT: -5.715692379      1.679      2.192
REMARK  3 active torsions:
REMARK  status: ('A' for Active; 'I' for Inactive)
REMARK    1  A    between atoms: C3_3  and  C4_4 
REMARK    2  A    between atoms: C4_4  and  N1_6 
REMARK    3  A    between atoms: N1_6  and  C6_8 
ROOT
HETATM    1  C6  UNL     1      28.549  17.790  17.920  1.00  0.00     0.280 C 
HETATM    2  C7  UNL     1      28.481  17.128  19.278  1.00  0.00     0.055 C 
HETATM    3  C8  UNL     1      27.502  16.008  18.993  1.00  0.00     0.031 C 
HETATM    4  C9  UNL     1      26.634  16.580  17.929  1.00  0.00     0.235 C 
HETATM    5  N2  UNL     1      27.178  17.883  17.560  1.00  0.00    -0.055 N 
ATOM      6  H21 UNL     1      27.015  18.147  16.588  1.00  0.00     0.279 HD
ATOM      7  H22 UNL     1      26.687  18.676  17.972  1.00  0.00     0.279 HD
ENDROOT
BRANCH   1   8
HETATM    8  N1  UNL     1      29.273  19.018  17.930  1.00  0.00    -0.389 N 
ATOM      9  H1  UNL     1      28.867  19.892  18.264  1.00  0.00     0.155 HD
BRANCH   8  10
HETATM   10  C4  UNL     1      30.611  18.929  17.435  1.00  0.00     0.097 C 
HETATM   11  C5  UNL     1      30.563  17.982  16.227  1.00  0.00     0.036 C 
BRANCH  10  12
HETATM   12  C3  UNL     1      31.115  20.243  16.947  1.00  0.00    -0.007 C 
HETATM   13  C2  UNL     1      31.703  20.393  15.772  1.00  0.00    -0.033 C 
HETATM   14  C1  UNL     1      32.214  21.682  15.257  1.00  0.00     0.036 C 
ENDBRANCH  10  12
ENDBRANCH   8  10
ENDBRANCH   1   8
TORSDOF 3
ENDMDL
MODEL 5
REMARK VINA RESULT: -5.668058670      0.955      1.251
REMARK  3 active torsions:
REMARK  status: ('A' for Active; 'I' for Inactive)
REMARK    1  A    between atoms: C3_3  and  C4_4 
REMARK    2  A    between atoms: C4_4  and  N1_6 
REMARK    3  A    between atoms: N1_6  and  C6_8 
ROOT
HETATM    1  C6  UNL     1      28.985  17.558  18.983  1.00  0.00     0.280 C 
HETATM    2  C7  UNL     1      28.622  16.150  18.570  1.00  0.00     0.055 C 
HETATM    3  C8  UNL     1      28.720  15.436  19.902  1.00  0.00     0.031 C 
HETATM    4  C9  UNL     1      29.767  16.207  20.624  1.00  0.00     0.235 C 
HETATM    5  N2  UNL     1      30.132  17.350  19.794  1.00  0.00    -0.055 N 
ATOM      6  H21 UNL     1      30.433  18.172  20.318  1.00  0.00     0.279 HD
ATOM      7  H22 UNL     1      31.001  17.231  19.272  1.00  0.00     0.279 HD
ENDROOT
BRANCH   1   8
HETATM    8  N1  UNL     1      29.159  18.440  17.876  1.00  0.00    -0.389 N 
ATOM      9  H1  UNL     1      28.388  18.973  17.473  1.00  0.00     0.155 HD
BRANCH   8  10
HETATM   10  C4  UNL     1      30.496  18.521  17.378  1.00  0.00     0.097 C 
HETATM   11  C5  UNL     1      30.511  17.741  16.054  1.00  0.00     0.036 C 
BRANCH  10  12
HETATM   12  C3  UNL     1      30.894  19.923  17.069  1.00  0.00    -0.007 C 
HETATM   13  C2  UNL     1      31.544  20.257  15.967  1.00  0.00    -0.033 C 
HETATM   14  C1  UNL     1      31.953  21.638  15.631  1.00  0.00     0.036 C 
ENDBRANCH  10  12
ENDBRANCH   8  10
ENDBRANCH   1   8
TORSDOF 3
ENDMDL
