MODEL 1
REMARK VINA RESULT: -5.552472910      0.000      0.000
REMARK  2 active torsions:
REMARK  status: ('A' for Active; 'I' for Inactive)
REMARK    1  A    between atoms: C2_2  and  N1_4 
REMARK    2  A    between atoms: N1_4  and  C4_6 
ROOT
HETATM    1  C4  UNL     1      30.415  18.893  16.642  1.00  0.00     0.280 C 
HETATM    2  C5  UNL     1      30.256  19.514  17.977  1.00  0.00     0.054 C 
HETATM    3  C6  UNL     1      29.682  18.474  18.918  1.00  0.00     0.005 C 
HETATM    4  C7  UNL     1      28.743  17.530  18.217  1.00  0.00     0.028 C 
HETATM    5  C8  UNL     1      29.372  16.857  17.028  1.00  0.00     0.235 C 
HETATM    6  N2  UNL     1      30.680  17.471  16.779  1.00  0.00    -0.055 N 
ATOM      7  H21 UNL     1      31.381  17.249  17.486  1.00  0.00     0.279 HD
ATOM      8  H22 UNL     1      31.180  17.067  15.987  1.00  0.00     0.279 HD
ENDROOT
BRANCH   1   9
HETATM    9  N1  UNL     1      31.336  19.459  15.757  1.00  0.00    -0.392 N 
ATOM     10  H1  UNL     1      31.317  19.182  14.775  1.00  0.00     0.155 HD
BRANCH   9  11
HETATM   11  C2  UNL     1      32.286  20.398  16.184  1.00  0.00     0.070 C 
HETATM   12  C1  UNL     1      33.727  20.100  15.936  1.00  0.00     0.031 C 
HETATM   13  C3  UNL     1      31.993  21.663  15.345  1.00  0.00     0.031 C 
ENDBRANCH   9  11
ENDBRANCH   1   9
TORSDOF 2
ENDMDL
MODEL 2
REMARK VINA RESULT: -5.446794935      1.140      4.370
REMARK  2 active torsions:
REMARK  status: ('A' for Active; 'I' for Inactive)
REMARK    1  A    between atoms: C2_2  and  N1_4 
REMARK    2  A    between atoms: N1_4  and  C4_6 
ROOT
HETATM    1  C4  UNL     1      31.326  19.108  16.057  1.00  0.00     0.280 C 
HETATM    2  C5  UNL     1      30.775  19.431  14.721  1.00  0.00     0.054 C 
HETATM    3  C6  UNL     1      31.528  20.629  14.176  1.00  0.00     0.005 C 
HETATM    4  C7  UNL     1      31.943  21.582  15.263  1.00  0.00     0.028 C 
HETATM    5  C8  UNL     1      32.748  20.918  16.346  1.00  0.00     0.235 C 
HETATM    6  N2  UNL     1      32.732  19.469  16.121  1.00  0.00    -0.055 N 
ATOM      7  H21 UNL     1      33.270  19.173  15.307  1.00  0.00     0.279 HD
ATOM      8  H22 UNL     1      33.263  18.939  16.812  1.00  0.00     0.279 HD
ENDROOT
BRANCH   1   9
HETATM    9  N1  UNL     1      31.152  17.810  16.546  1.00  0.00    -0.392 N 
ATOM     10  H1  UNL     1      31.709  17.052  16.151  1.00  0.00     0.155 HD
BRANCH   9  11
HETATM   11  C2  UNL     1      30.231  17.524  17.564  1.00  0.00     0.070 C 
HETATM   12  C1  UNL     1      29.652  18.668  18.328  1.00  0.00     0.031 C 
HETATM   13  C3  UNL     1      29.027  16.884  16.835  1.00  0.00     0.031 C 
ENDBRANCH   9  11
ENDBRANCH   1   9
TORSDOF 2
ENDMDL
MODEL 3
REMARK VINA RESULT: -5.416414060      0.909      1.164
REMARK  2 active torsions:
REMARK  status: ('A' for Active; 'I' for Inactive)
REMARK    1  A    between atoms: C2_2  and  N1_4 
REMARK    2  A    between atoms: N1_4  and  C4_6 
ROOT
HETATM    1  C4  UNL     1      30.733  19.019  16.886  1.00  0.00     0.280 C 
HETATM    2  C5  UNL     1      30.190  19.500  18.177  1.00  0.00     0.054 C 
HETATM    3  C6  UNL     1      29.233  18.451  18.707  1.00  0.00     0.005 C 
HETATM    4  C7  UNL     1      28.503  17.736  17.602  1.00  0.00     0.028 C 
HETATM    5  C8  UNL     1      29.432  17.122  16.591  1.00  0.00     0.235 C 
HETATM    6  N2  UNL     1      30.799  17.568  16.878  1.00  0.00    -0.055 N 
ATOM      7  H21 UNL     1      31.192  17.169  17.730  1.00  0.00     0.279 HD
ATOM      8  H22 UNL     1      31.498  17.190  16.238  1.00  0.00     0.279 HD
ENDROOT
BRANCH   1   9
HETATM    9  N1  UNL     1      31.951  19.547  16.446  1.00  0.00    -0.392 N 
ATOM     10  H1  UNL     1      32.784  19.418  17.020  1.00  0.00     0.155 HD
BRANCH   9  11
HETATM   11  C2  UNL     1      32.055  20.248  15.236  1.00  0.00     0.070 C 
HETATM   12  C1  UNL     1      31.028  19.990  14.185  1.00  0.00     0.031 C 
HETATM   13  C3  UNL     1      31.861  21.732  15.624  1.00  0.00     0.031 C 
ENDBRANCH   9  11
ENDBRANCH   1   9
TORSDOF 2
ENDMDL
MODEL 4
REMARK VINA RESULT: -5.291536981      1.714      2.391
REMARK  2 active torsions:
REMARK  status: ('A' for Active; 'I' for Inactive)
REMARK    1  A    between atoms: C2_2  and  N1_4 
REMARK    2  A    between atoms: N1_4  and  C4_6 
ROOT
HETATM    1  C4  UNL     1      29.698  18.343  18.253  1.00  0.00     0.280 C 
HETATM    2  C5  UNL     1      28.352  17.938  17.786  1.00  0.00     0.054 C 
HETATM    3  C6  UNL     1      27.764  16.983  18.807  1.00  0.00     0.005 C 
HETATM    4  C7  UNL     1      28.818  16.128  19.457  1.00  0.00     0.028 C 
HETATM    5  C8  UNL     1      29.921  16.935  20.082  1.00  0.00     0.235 C 
HETATM    6  N2  UNL     1      29.747  18.341  19.705  1.00  0.00    -0.055 N 
ATOM      7  H21 UNL     1      28.943  18.788  20.145  1.00  0.00     0.279 HD
ATOM      8  H22 UNL     1      30.455  18.963  20.094  1.00  0.00     0.279 HD
ENDROOT
BRANCH   1   9
HETATM    9  N1  UNL     1      30.231  19.540  17.767  1.00  0.00    -0.392 N 
ATOM     10  H1  UNL     1      29.850  20.425  18.102  1.00  0.00     0.155 HD
BRANCH   9  11
HETATM   11  C2  UNL     1      31.275  19.555  16.831  1.00  0.00     0.070 C 
HETATM   12  C1  UNL     1      31.003  19.010  15.468  1.00  0.00     0.031 C 
HETATM   13  C3  UNL     1      31.580  21.053  16.606  1.00  0.00     0.031 C 
ENDBRANCH   9  11
ENDBRANCH   1   9
TORSDOF 2
ENDMDL
MODEL 5
REMARK VINA RESULT: -5.245905455      1.076      1.983
REMARK  2 active torsions:
REMARK  status: ('A' for Active; 'I' for Inactive)
REMARK    1  A    between atoms: C2_2  and  N1_4 
REMARK    2  A    between atoms: N1_4  and  C4_6 
ROOT
HETATM    1  C4  UNL     1      30.602  18.918  17.262  1.00  0.00     0.280 C 
HETATM    2  C5  UNL     1      30.259  17.995  16.155  1.00  0.00     0.054 C 
HETATM    3  C6  UNL     1      29.165  17.064  16.638  1.00  0.00     0.005 C 
HETATM    4  C7  UNL     1      29.293  16.748  18.104  1.00  0.00     0.028 C 
HETATM    5  C8  UNL     1      29.337  17.979  18.965  1.00  0.00     0.235 C 
HETATM    6  N2  UNL     1      29.437  19.156  18.096  1.00  0.00    -0.055 N 
ATOM      7  H21 UNL     1      28.586  19.352  17.568  1.00  0.00     0.279 HD
ATOM      8  H22 UNL     1      29.467  20.041  18.603  1.00  0.00     0.279 HD
ENDROOT
BRANCH   1   9
HETATM    9  N1  UNL     1      31.207  20.136  16.941  1.00  0.00    -0.392 N 
ATOM     10  H1  UNL     1      31.135  20.914  17.596  1.00  0.00     0.155 HD
BRANCH   9  11
HETATM   11  C2  UNL     1      31.908  20.316  15.740  1.00  0.00     0.070 C 
HETATM   12  C1  UNL     1      32.000  21.696  15.181  1.00  0.00     0.031 C 
HETATM   13  C3  UNL     1      33.366  19.925  16.074  1.00  0.00     0.031 C 
ENDBRANCH   9  11
ENDBRANCH   1   9
TORSDOF 2
ENDMDL
