MODEL 1
REMARK VINA RESULT: -7.831057402      0.000      0.000
REMARK  6 active torsions:
REMARK  status: ('A' for Active; 'I' for Inactive)
REMARK    1  A    between atoms: C2_2  and  N1_5 
REMARK       I    between atoms: N1_5  and  C4_7 
REMARK       I    between atoms: C4_7  and  N2_9 
REMARK    2  A    between atoms: C8_16  and  N4_17 
REMARK    3  A    between atoms: N4_17  and  C9_19 
REMARK    4  A    between atoms: C9_19  and  O3_20 
REMARK    5  A    between atoms: C9_19  and  N5_22 
REMARK       I    between atoms: N5_22  and  C10_24 
REMARK    6  A    between atoms: C10_24  and  C11_26 
ROOT
HETATM    1  N1  UNL     1     221.395   8.881  17.493  1.00  0.00    -0.321 N 
ATOM      2  H1  UNL     1     221.342   9.900  17.472  1.00  0.00     0.166 HD
HETATM    3  C4  UNL     1     220.188   8.136  17.354  1.00  0.00     0.321 C 
HETATM    4  O1  UNL     1     220.362   6.865  17.392  1.00  0.00    -0.247 OA
HETATM    5  N2  UNL     1     218.916   8.704  17.190  1.00  0.00    -0.302 N 
HETATM    6  C5  UNL     1     218.754  10.134  17.167  1.00  0.00     0.150 C 
HETATM    7  C6  UNL     1     218.242  10.587  15.806  1.00  0.00     0.143 C 
HETATM    8  N3  UNL     1     217.320   9.598  15.270  1.00  0.00    -0.356 N 
ATOM      9  H3  UNL     1     216.996   9.698  14.308  1.00  0.00     0.162 HD
HETATM   10  C7  UNL     1     216.855   8.501  16.036  1.00  0.00     0.260 C 
HETATM   11  O2  UNL     1     215.696   8.028  15.892  1.00  0.00    -0.269 OA
HETATM   12  C8  UNL     1     217.751   7.885  17.039  1.00  0.00     0.285 C 
ENDROOT
BRANCH  12  13
HETATM   13  N4  UNL     1     218.037   6.496  16.707  1.00  0.00    -0.327 N 
ATOM     14  H4  UNL     1     218.877   6.261  16.179  1.00  0.00     0.165 HD
BRANCH  13  15
HETATM   15  C9  UNL     1     217.166   5.485  17.109  1.00  0.00     0.221 C 
BRANCH  15  16
HETATM   16  O3  UNL     1     216.829   4.645  16.172  1.00  0.00    -0.332 OA
ATOM     17  H3  UNL     1     216.367   3.871  16.474  1.00  0.00     0.220 HD
ENDBRANCH  15  16
BRANCH  15  18
HETATM   18  N5  UNL     1     216.651   5.312  18.384  1.00  0.00    -0.292 N 
HETATM   19  C10 UNL     1     217.394   5.172  19.561  1.00  0.00     0.233 C 
HETATM   20  O4  UNL     1     218.628   5.188  19.578  1.00  0.00    -0.272 OA
ATOM     21  H5  UNL     1     215.635   5.284  18.473  1.00  0.00     0.172 HD
BRANCH  19  22
HETATM   22  C11 UNL     1     216.717   4.990  20.905  1.00  0.00     0.038 C 
HETATM   23  C12 UNL     1     216.574   6.413  21.453  1.00  0.00     0.025 C 
HETATM   24  C13 UNL     1     217.689   4.278  21.773  1.00  0.00     0.019 C 
HETATM   25  C14 UNL     1     217.010   3.685  22.974  1.00  0.00     0.001 C 
HETATM   26  C15 UNL     1     216.056   2.626  22.412  1.00  0.00     0.000 C 
HETATM   27  C16 UNL     1     214.965   3.355  21.702  1.00  0.00     0.001 C 
HETATM   28  C17 UNL     1     215.408   4.363  20.709  1.00  0.00     0.019 C 
ENDBRANCH  19  22
ENDBRANCH  15  18
ENDBRANCH  13  15
ENDBRANCH  12  13
BRANCH   1  29
HETATM   29  C2  UNL     1     222.683   8.267  17.662  1.00  0.00     0.104 C 
HETATM   30  C1  UNL     1     223.024   7.317  16.542  1.00  0.00     0.056 C 
HETATM   31  C3  UNL     1     223.743   9.330  17.844  1.00  0.00     0.056 C 
HETATM   32 CL1  UNL     1     222.662   7.319  19.189  1.00  0.00    -0.096 Cl
ENDBRANCH   1  29
TORSDOF 6
ENDMDL
MODEL 2
REMARK VINA RESULT: -7.731155740      2.744      5.005
REMARK  6 active torsions:
REMARK  status: ('A' for Active; 'I' for Inactive)
REMARK    1  A    between atoms: C2_2  and  N1_5 
REMARK       I    between atoms: N1_5  and  C4_7 
REMARK       I    between atoms: C4_7  and  N2_9 
REMARK    2  A    between atoms: C8_16  and  N4_17 
REMARK    3  A    between atoms: N4_17  and  C9_19 
REMARK    4  A    between atoms: C9_19  and  O3_20 
REMARK    5  A    between atoms: C9_19  and  N5_22 
REMARK       I    between atoms: N5_22  and  C10_24 
REMARK    6  A    between atoms: C10_24  and  C11_26 
ROOT
HETATM    1  N1  UNL     1     219.047   7.887  17.467  1.00  0.00    -0.321 N 
ATOM      2  H1  UNL     1     219.342   7.742  16.502  1.00  0.00     0.166 HD
HETATM    3  C4  UNL     1     219.964   7.570  18.512  1.00  0.00     0.321 C 
HETATM    4  O1  UNL     1     219.498   7.789  19.688  1.00  0.00    -0.247 OA
HETATM    5  N2  UNL     1     221.257   7.066  18.310  1.00  0.00    -0.302 N 
HETATM    6  C5  UNL     1     221.743   6.817  16.978  1.00  0.00     0.150 C 
HETATM    7  C6  UNL     1     222.925   7.727  16.667  1.00  0.00     0.143 C 
HETATM    8  N3  UNL     1     223.727   7.921  17.863  1.00  0.00    -0.356 N 
ATOM      9  H3  UNL     1     224.478   8.611  17.845  1.00  0.00     0.162 HD
HETATM   10  C7  UNL     1     223.505   7.187  19.053  1.00  0.00     0.260 C 
HETATM   11  O2  UNL     1     224.447   6.858  19.824  1.00  0.00    -0.269 OA
HETATM   12  C8  UNL     1     222.126   6.788  19.414  1.00  0.00     0.285 C 
ENDROOT
BRANCH  12  13
HETATM   13  N4  UNL     1     221.712   7.400  20.669  1.00  0.00    -0.327 N 
ATOM     14  H4  UNL     1     221.680   8.416  20.753  1.00  0.00     0.165 HD
BRANCH  13  15
HETATM   15  C9  UNL     1     221.359   6.603  21.755  1.00  0.00     0.221 C 
BRANCH  15  16
HETATM   16  O3  UNL     1     222.361   6.139  22.446  1.00  0.00    -0.332 OA
ATOM     17  H3  UNL     1     222.125   5.722  23.267  1.00  0.00     0.220 HD
ENDBRANCH  15  16
BRANCH  15  18
HETATM   18  N5  UNL     1     220.069   6.277  22.142  1.00  0.00    -0.292 N 
HETATM   19  C10 UNL     1     219.615   5.007  22.512  1.00  0.00     0.233 C 
HETATM   20  O4  UNL     1     220.348   4.013  22.527  1.00  0.00    -0.272 OA
ATOM     21  H5  UNL     1     219.386   7.035  22.161  1.00  0.00     0.172 HD
BRANCH  19  22
HETATM   22  C11 UNL     1     218.175   4.771  22.923  1.00  0.00     0.038 C 
HETATM   23  C12 UNL     1     218.141   5.132  24.411  1.00  0.00     0.025 C 
HETATM   24  C13 UNL     1     217.941   3.308  22.818  1.00  0.00     0.019 C 
HETATM   25  C14 UNL     1     216.473   2.994  22.801  1.00  0.00     0.001 C 
HETATM   26  C15 UNL     1     215.943   3.623  21.508  1.00  0.00     0.000 C 
HETATM   27  C16 UNL     1     215.995   5.102  21.691  1.00  0.00     0.001 C 
HETATM   28  C17 UNL     1     217.298   5.647  22.144  1.00  0.00     0.019 C 
ENDBRANCH  19  22
ENDBRANCH  15  18
ENDBRANCH  13  15
ENDBRANCH  12  13
BRANCH   1  29
HETATM   29  C2  UNL     1     217.728   8.402  17.709  1.00  0.00     0.104 C 
HETATM   30  C1  UNL     1     217.743   9.720  18.440  1.00  0.00     0.056 C 
HETATM   31  C3  UNL     1     216.959   8.484  16.410  1.00  0.00     0.056 C 
HETATM   32 CL1  UNL     1     216.841   7.223  18.737  1.00  0.00    -0.096 Cl
ENDBRANCH   1  29
TORSDOF 6
ENDMDL
MODEL 3
REMARK VINA RESULT: -7.609572139      2.898      5.369
REMARK  6 active torsions:
REMARK  status: ('A' for Active; 'I' for Inactive)
REMARK    1  A    between atoms: C2_2  and  N1_5 
REMARK       I    between atoms: N1_5  and  C4_7 
REMARK       I    between atoms: C4_7  and  N2_9 
REMARK    2  A    between atoms: C8_16  and  N4_17 
REMARK    3  A    between atoms: N4_17  and  C9_19 
REMARK    4  A    between atoms: C9_19  and  O3_20 
REMARK    5  A    between atoms: C9_19  and  N5_22 
REMARK       I    between atoms: N5_22  and  C10_24 
REMARK    6  A    between atoms: C10_24  and  C11_26 
ROOT
HETATM    1  N1  UNL     1     219.082   5.915  22.088  1.00  0.00    -0.321 N 
ATOM      2  H1  UNL     1     219.555   6.570  22.710  1.00  0.00     0.166 HD
HETATM    3  C4  UNL     1     219.383   5.962  20.696  1.00  0.00     0.321 C 
HETATM    4  O1  UNL     1     218.737   5.097  20.002  1.00  0.00    -0.247 OA
HETATM    5  N2  UNL     1     220.291   6.854  20.108  1.00  0.00    -0.302 N 
HETATM    6  C5  UNL     1     220.987   7.823  20.913  1.00  0.00     0.150 C 
HETATM    7  C6  UNL     1     222.487   7.551  20.891  1.00  0.00     0.143 C 
HETATM    8  N3  UNL     1     222.881   7.067  19.578  1.00  0.00    -0.356 N 
ATOM      9  H3  UNL     1     223.830   6.717  19.448  1.00  0.00     0.162 HD
HETATM   10  C7  UNL     1     221.996   7.063  18.473  1.00  0.00     0.260 C 
HETATM   11  O2  UNL     1     222.397   7.255  17.293  1.00  0.00    -0.269 OA
HETATM   12  C8  UNL     1     220.553   6.827  18.700  1.00  0.00     0.285 C 
ENDROOT
BRANCH  12  13
HETATM   13  N4  UNL     1     220.107   5.611  18.033  1.00  0.00    -0.327 N 
ATOM     14  H4  UNL     1     220.361   4.700  18.414  1.00  0.00     0.165 HD
BRANCH  13  15
HETATM   15  C9  UNL     1     219.334   5.689  16.877  1.00  0.00     0.221 C 
BRANCH  15  16
HETATM   16  O3  UNL     1     219.950   6.169  15.834  1.00  0.00    -0.332 OA
ATOM     17  H3  UNL     1     219.624   7.005  15.524  1.00  0.00     0.220 HD
ENDBRANCH  15  16
BRANCH  15  18
HETATM   18  N5  UNL     1     218.007   5.307  16.756  1.00  0.00    -0.292 N 
HETATM   19  C10 UNL     1     216.906   5.967  17.312  1.00  0.00     0.233 C 
HETATM   20  O4  UNL     1     217.014   6.992  17.992  1.00  0.00    -0.272 OA
ATOM     21  H5  UNL     1     217.815   4.467  16.210  1.00  0.00     0.172 HD
BRANCH  19  22
HETATM   22  C11 UNL     1     215.494   5.456  17.108  1.00  0.00     0.038 C 
HETATM   23  C12 UNL     1     214.781   6.594  16.370  1.00  0.00     0.025 C 
HETATM   24  C13 UNL     1     214.883   5.355  18.458  1.00  0.00     0.019 C 
HETATM   25  C14 UNL     1     213.655   4.492  18.434  1.00  0.00     0.001 C 
HETATM   26  C15 UNL     1     214.155   3.092  18.067  1.00  0.00     0.000 C 
HETATM   27  C16 UNL     1     214.588   3.145  16.640  1.00  0.00     0.001 C 
HETATM   28  C17 UNL     1     215.530   4.238  16.296  1.00  0.00     0.019 C 
ENDBRANCH  19  22
ENDBRANCH  15  18
ENDBRANCH  13  15
ENDBRANCH  12  13
BRANCH   1  29
HETATM   29  C2  UNL     1     218.144   4.987  22.659  1.00  0.00     0.104 C 
HETATM   30  C1  UNL     1     216.757   5.138  22.087  1.00  0.00     0.056 C 
HETATM   31  C3  UNL     1     218.664   3.575  22.517  1.00  0.00     0.056 C 
HETATM   32 CL1  UNL     1     218.040   5.303  24.426  1.00  0.00    -0.096 Cl
ENDBRANCH   1  29
TORSDOF 6
ENDMDL
MODEL 4
REMARK VINA RESULT: -7.599886609      2.633      4.658
REMARK  6 active torsions:
REMARK  status: ('A' for Active; 'I' for Inactive)
REMARK    1  A    between atoms: C2_2  and  N1_5 
REMARK       I    between atoms: N1_5  and  C4_7 
REMARK       I    between atoms: C4_7  and  N2_9 
REMARK    2  A    between atoms: C8_16  and  N4_17 
REMARK    3  A    between atoms: N4_17  and  C9_19 
REMARK    4  A    between atoms: C9_19  and  O3_20 
REMARK    5  A    between atoms: C9_19  and  N5_22 
REMARK       I    between atoms: N5_22  and  C10_24 
REMARK    6  A    between atoms: C10_24  and  C11_26 
ROOT
HETATM    1  N1  UNL     1     216.983   6.424  16.903  1.00  0.00    -0.321 N 
ATOM      2  H1  UNL     1     216.831   7.361  16.527  1.00  0.00     0.166 HD
HETATM    3  C4  UNL     1     218.309   6.045  17.263  1.00  0.00     0.321 C 
HETATM    4  O1  UNL     1     218.393   4.850  17.726  1.00  0.00    -0.247 OA
HETATM    5  N2  UNL     1     219.435   6.871  17.138  1.00  0.00    -0.302 N 
HETATM    6  C5  UNL     1     219.308   8.200  16.600  1.00  0.00     0.150 C 
HETATM    7  C6  UNL     1     219.672   9.236  17.657  1.00  0.00     0.143 C 
HETATM    8  N3  UNL     1     220.753   8.734  18.489  1.00  0.00    -0.356 N 
ATOM      9  H3  UNL     1     221.016   9.259  19.322  1.00  0.00     0.162 HD
HETATM   10  C7  UNL     1     221.453   7.541  18.185  1.00  0.00     0.260 C 
HETATM   11  O2  UNL     1     222.678   7.399  18.448  1.00  0.00    -0.269 OA
HETATM   12  C8  UNL     1     220.734   6.421  17.540  1.00  0.00     0.285 C 
ENDROOT
BRANCH  12  13
HETATM   13  N4  UNL     1     220.720   5.242  18.394  1.00  0.00    -0.327 N 
ATOM     14  H4  UNL     1     220.743   4.311  17.976  1.00  0.00     0.165 HD
BRANCH  13  15
HETATM   15  C9  UNL     1     220.675   5.379  19.779  1.00  0.00     0.221 C 
BRANCH  15  16
HETATM   16  O3  UNL     1     221.826   5.597  20.348  1.00  0.00    -0.332 OA
ATOM     17  H3  UNL     1     222.249   6.411  20.101  1.00  0.00     0.220 HD
ENDBRANCH  15  16
BRANCH  15  18
HETATM   18  N5  UNL     1     219.538   5.305  20.569  1.00  0.00    -0.292 N 
HETATM   19  C10 UNL     1     219.456   4.728  21.840  1.00  0.00     0.233 C 
HETATM   20  O4  UNL     1     220.424   4.207  22.403  1.00  0.00    -0.272 OA
ATOM     21  H5  UNL     1     218.682   5.709  20.188  1.00  0.00     0.172 HD
BRANCH  19  22
HETATM   22  C11 UNL     1     218.153   4.708  22.615  1.00  0.00     0.038 C 
HETATM   23  C12 UNL     1     218.495   5.379  23.949  1.00  0.00     0.025 C 
HETATM   24  C13 UNL     1     217.855   3.282  22.902  1.00  0.00     0.019 C 
HETATM   25  C14 UNL     1     216.418   3.098  23.297  1.00  0.00     0.001 C 
HETATM   26  C15 UNL     1     215.608   3.480  22.053  1.00  0.00     0.000 C 
HETATM   27  C16 UNL     1     215.750   4.954  21.879  1.00  0.00     0.001 C 
HETATM   28  C17 UNL     1     217.140   5.470  21.882  1.00  0.00     0.019 C 
ENDBRANCH  19  22
ENDBRANCH  15  18
ENDBRANCH  13  15
ENDBRANCH  12  13
BRANCH   1  29
HETATM   29  C2  UNL     1     215.850   5.552  17.044  1.00  0.00     0.104 C 
HETATM   30  C1  UNL     1     216.059   4.216  16.378  1.00  0.00     0.056 C 
HETATM   31  C3  UNL     1     215.489   5.406  18.505  1.00  0.00     0.056 C 
HETATM   32 CL1  UNL     1     214.434   6.333  16.258  1.00  0.00    -0.096 Cl
ENDBRANCH   1  29
TORSDOF 6
ENDMDL
MODEL 5
REMARK VINA RESULT: -7.508248668      1.207      1.227
REMARK  6 active torsions:
REMARK  status: ('A' for Active; 'I' for Inactive)
REMARK    1  A    between atoms: C2_2  and  N1_5 
REMARK       I    between atoms: N1_5  and  C4_7 
REMARK       I    between atoms: C4_7  and  N2_9 
REMARK    2  A    between atoms: C8_16  and  N4_17 
REMARK    3  A    between atoms: N4_17  and  C9_19 
REMARK    4  A    between atoms: C9_19  and  O3_20 
REMARK    5  A    between atoms: C9_19  and  N5_22 
REMARK       I    between atoms: N5_22  and  C10_24 
REMARK    6  A    between atoms: C10_24  and  C11_26 
ROOT
HETATM    1  N1  UNL     1     221.750   9.414  16.331  1.00  0.00    -0.321 N 
ATOM      2  H1  UNL     1     221.474  10.396  16.336  1.00  0.00     0.166 HD
HETATM    3  C4  UNL     1     220.752   8.428  16.583  1.00  0.00     0.321 C 
HETATM    4  O1  UNL     1     221.200   7.225  16.552  1.00  0.00    -0.247 OA
HETATM    5  N2  UNL     1     219.403   8.708  16.841  1.00  0.00    -0.302 N 
HETATM    6  C5  UNL     1     218.936  10.069  16.884  1.00  0.00     0.150 C 
HETATM    7  C6  UNL     1     217.934  10.321  15.763  1.00  0.00     0.143 C 
HETATM    8  N3  UNL     1     217.128   9.131  15.546  1.00  0.00    -0.356 N 
ATOM      9  H3  UNL     1     216.503   9.101  14.740  1.00  0.00     0.162 HD
HETATM   10  C7  UNL     1     217.178   8.012  16.411  1.00  0.00     0.260 C 
HETATM   11  O2  UNL     1     216.164   7.300  16.645  1.00  0.00    -0.269 OA
HETATM   12  C8  UNL     1     218.456   7.658  17.067  1.00  0.00     0.285 C 
ENDROOT
BRANCH  12  13
HETATM   13  N4  UNL     1     218.915   6.340  16.650  1.00  0.00    -0.327 N 
ATOM     14  H4  UNL     1     219.368   6.223  15.744  1.00  0.00     0.165 HD
BRANCH  13  15
HETATM   15  C9  UNL     1     218.738   5.239  17.485  1.00  0.00     0.221 C 
BRANCH  15  16
HETATM   16  O3  UNL     1     219.516   4.225  17.232  1.00  0.00    -0.332 OA
ATOM     17  H3  UNL     1     219.127   3.372  17.383  1.00  0.00     0.220 HD
ENDBRANCH  15  16
BRANCH  15  18
HETATM   18  N5  UNL     1     217.829   5.144  18.527  1.00  0.00    -0.292 N 
HETATM   19  C10 UNL     1     218.134   5.186  19.892  1.00  0.00     0.233 C 
HETATM   20  O4  UNL     1     219.286   5.315  20.316  1.00  0.00    -0.272 OA
ATOM     21  H5  UNL     1     216.847   5.033  18.276  1.00  0.00     0.172 HD
BRANCH  19  22
HETATM   22  C11 UNL     1     217.051   5.074  20.946  1.00  0.00     0.038 C 
HETATM   23  C12 UNL     1     216.844   6.513  21.431  1.00  0.00     0.025 C 
HETATM   24  C13 UNL     1     217.638   4.308  22.075  1.00  0.00     0.019 C 
HETATM   25  C14 UNL     1     216.569   3.785  22.990  1.00  0.00     0.001 C 
HETATM   26  C15 UNL     1     215.771   2.787  22.143  1.00  0.00     0.000 C 
HETATM   27  C16 UNL     1     215.021   3.581  21.127  1.00  0.00     0.001 C 
HETATM   28  C17 UNL     1     215.832   4.540  20.336  1.00  0.00     0.019 C 
ENDBRANCH  19  22
ENDBRANCH  15  18
ENDBRANCH  13  15
ENDBRANCH  12  13
BRANCH   1  29
HETATM   29  C2  UNL     1     223.126   9.091  16.070  1.00  0.00     0.104 C 
HETATM   30  C1  UNL     1     223.319   8.399  14.745  1.00  0.00     0.056 C 
HETATM   31  C3  UNL     1     223.979  10.334  16.189  1.00  0.00     0.056 C 
HETATM   32 CL1  UNL     1     223.697   7.972  17.356  1.00  0.00    -0.096 Cl
ENDBRANCH   1  29
TORSDOF 6
ENDMDL
