MODEL 1
REMARK VINA RESULT: -6.793429833      0.000      0.000
REMARK  4 active torsions:
REMARK  status: ('A' for Active; 'I' for Inactive)
REMARK    1  A    between atoms: C2_2  and  O2_4 
REMARK    2  A    between atoms: O2_4  and  C3_5 
REMARK    3  A    between atoms: C6_8  and  O3_9 
REMARK    4  A    between atoms: C7_11  and  O4_12 
ROOT
HETATM    1  C3  UNL     1       9.572  21.062   3.200  1.00  0.00     0.168 C 
HETATM    2  C4  UNL     1       9.313  19.568   3.292  1.00  0.00     0.045 C 
HETATM    3  C5  UNL     1       8.867  19.060   1.946  1.00  0.00     0.015 C 
HETATM    4  C6  UNL     1      10.590  18.937   3.756  1.00  0.00     0.154 C 
HETATM    5  C7  UNL     1      10.973  19.423   5.095  1.00  0.00     0.161 C 
HETATM    6  C8  UNL     1      10.979  20.902   5.291  1.00  0.00     0.049 C 
HETATM    7  C9  UNL     1      10.597  21.098   6.777  1.00  0.00     0.024 C 
HETATM    8  C10 UNL     1      12.368  21.399   5.173  1.00  0.00     0.233 C 
HETATM    9  O5  UNL     1      13.257  20.427   4.645  1.00  0.00    -0.225 OA
HETATM   10  O6  UNL     1      14.464  20.779   4.934  1.00  0.00    -0.200 OA
HETATM   11  C11 UNL     1      14.927  21.915   4.350  1.00  0.00     0.195 C 
HETATM   12  C12 UNL     1      15.541  21.552   3.013  1.00  0.00     0.082 C 
HETATM   13  C13 UNL     1      16.027  22.562   5.178  1.00  0.00     0.082 C 
HETATM   14  O7  UNL     1      13.901  22.873   4.066  1.00  0.00    -0.311 OA
HETATM   15  C14 UNL     1      12.582  22.589   4.363  1.00  0.00     0.112 C 
HETATM   16  C15 UNL     1      11.617  23.361   3.926  1.00  0.00     0.075 C 
HETATM   17  C16 UNL     1      11.883  24.583   3.090  1.00  0.00     0.079 C 
HETATM   18  O8  UNL     1      10.326  23.003   4.270  1.00  0.00    -0.344 OA
HETATM   19  C17 UNL     1       9.948  21.655   4.524  1.00  0.00     0.172 C 
ENDROOT
BRANCH   1  20
HETATM   20  O2  UNL     1       8.301  21.611   2.810  1.00  0.00    -0.313 OA
BRANCH  20  21
HETATM   21  C2  UNL     1       8.138  22.243   1.594  1.00  0.00     0.255 C 
HETATM   22  C1  UNL     1       8.992  23.417   1.292  1.00  0.00     0.126 C 
HETATM   23  O1  UNL     1       7.267  21.769   0.826  1.00  0.00    -0.266 OA
ENDBRANCH  20  21
ENDBRANCH   1  20
BRANCH   4  24
HETATM   24  O3  UNL     1      11.543  19.058   2.771  1.00  0.00    -0.393 OA
ATOM     25  H3  UNL     1      12.407  19.005   3.161  1.00  0.00     0.210 HD
ENDBRANCH   4  24
BRANCH   5  26
HETATM   26  O4  UNL     1      10.133  18.773   6.033  1.00  0.00    -0.392 OA
ATOM     27  H4  UNL     1      10.638  18.070   6.423  1.00  0.00     0.210 HD
ENDBRANCH   5  26
TORSDOF 4
ENDMDL
MODEL 2
REMARK VINA RESULT: -6.602293609      1.798      5.282
REMARK  4 active torsions:
REMARK  status: ('A' for Active; 'I' for Inactive)
REMARK    1  A    between atoms: C2_2  and  O2_4 
REMARK    2  A    between atoms: O2_4  and  C3_5 
REMARK    3  A    between atoms: C6_8  and  O3_9 
REMARK    4  A    between atoms: C7_11  and  O4_12 
ROOT
HETATM    1  C3  UNL     1      12.880  23.434   3.809  1.00  0.00     0.168 C 
HETATM    2  C4  UNL     1      11.872  24.561   3.658  1.00  0.00     0.045 C 
HETATM    3  C5  UNL     1      12.209  25.363   2.428  1.00  0.00     0.015 C 
HETATM    4  C6  UNL     1      10.519  23.921   3.581  1.00  0.00     0.154 C 
HETATM    5  C7  UNL     1      10.205  23.182   4.818  1.00  0.00     0.161 C 
HETATM    6  C8  UNL     1      11.242  22.231   5.310  1.00  0.00     0.049 C 
HETATM    7  C9  UNL     1      11.089  22.250   6.849  1.00  0.00     0.024 C 
HETATM    8  C10 UNL     1      10.876  20.858   4.894  1.00  0.00     0.233 C 
HETATM    9  O5  UNL     1       9.830  20.835   3.935  1.00  0.00    -0.225 OA
HETATM   10  O6  UNL     1       9.315  19.653   3.922  1.00  0.00    -0.200 OA
HETATM   11  C11 UNL     1      10.110  18.643   3.480  1.00  0.00     0.195 C 
HETATM   12  C12 UNL     1       9.957  18.535   1.976  1.00  0.00     0.082 C 
HETATM   13  C13 UNL     1       9.690  17.302   4.063  1.00  0.00     0.082 C 
HETATM   14  O7  UNL     1      11.504  18.866   3.719  1.00  0.00    -0.311 OA
HETATM   15  C14 UNL     1      11.930  20.032   4.325  1.00  0.00     0.112 C 
HETATM   16  C15 UNL     1      13.203  20.339   4.365  1.00  0.00     0.075 C 
HETATM   17  C16 UNL     1      14.262  19.454   3.764  1.00  0.00     0.079 C 
HETATM   18  O8  UNL     1      13.542  21.525   4.992  1.00  0.00    -0.344 OA
HETATM   19  C17 UNL     1      12.654  22.635   5.057  1.00  0.00     0.172 C 
ENDROOT
BRANCH   1  20
HETATM   20  O2  UNL     1      14.142  24.112   3.936  1.00  0.00    -0.313 OA
BRANCH  20  21
HETATM   21  C2  UNL     1      15.137  23.954   2.992  1.00  0.00     0.255 C 
HETATM   22  C1  UNL     1      15.838  22.650   2.922  1.00  0.00     0.126 C 
HETATM   23  O1  UNL     1      15.374  24.941   2.256  1.00  0.00    -0.266 OA
ENDBRANCH  20  21
ENDBRANCH   1  20
BRANCH   4  24
HETATM   24  O3  UNL     1      10.417  23.211   2.407  1.00  0.00    -0.393 OA
ATOM     25  H3  UNL     1      10.137  22.324   2.599  1.00  0.00     0.210 HD
ENDBRANCH   4  24
BRANCH   5  26
HETATM   26  O4  UNL     1       9.863  24.141   5.804  1.00  0.00    -0.392 OA
ATOM     27  H4  UNL     1      10.263  23.861   6.619  1.00  0.00     0.210 HD
ENDBRANCH   5  26
TORSDOF 4
ENDMDL
MODEL 3
REMARK VINA RESULT: -5.647806018      1.981      5.552
REMARK  4 active torsions:
REMARK  status: ('A' for Active; 'I' for Inactive)
REMARK    1  A    between atoms: C2_2  and  O2_4 
REMARK    2  A    between atoms: O2_4  and  C3_5 
REMARK    3  A    between atoms: C6_8  and  O3_9 
REMARK    4  A    between atoms: C7_11  and  O4_12 
ROOT
HETATM    1  C3  UNL     1      13.722  23.547   3.584  1.00  0.00     0.168 C 
HETATM    2  C4  UNL     1      12.891  24.814   3.472  1.00  0.00     0.045 C 
HETATM    3  C5  UNL     1      13.142  25.453   2.131  1.00  0.00     0.015 C 
HETATM    4  C6  UNL     1      11.461  24.410   3.664  1.00  0.00     0.154 C 
HETATM    5  C7  UNL     1      11.243  23.830   5.002  1.00  0.00     0.161 C 
HETATM    6  C8  UNL     1      12.186  22.756   5.426  1.00  0.00     0.049 C 
HETATM    7  C9  UNL     1      12.294  22.916   6.961  1.00  0.00     0.024 C 
HETATM    8  C10 UNL     1      11.547  21.438   5.211  1.00  0.00     0.233 C 
HETATM    9  O5  UNL     1      10.367  21.521   4.427  1.00  0.00    -0.225 OA
HETATM   10  O6  UNL     1       9.680  20.446   4.611  1.00  0.00    -0.200 OA
HETATM   11  C11 UNL     1      10.224  19.286   4.159  1.00  0.00     0.195 C 
HETATM   12  C12 UNL     1       9.810  19.092   2.713  1.00  0.00     0.082 C 
HETATM   13  C13 UNL     1       9.701  18.083   4.930  1.00  0.00     0.082 C 
HETATM   14  O7  UNL     1      11.656  19.285   4.162  1.00  0.00    -0.311 OA
HETATM   15  C14 UNL     1      12.352  20.405   4.577  1.00  0.00     0.112 C 
HETATM   16  C15 UNL     1      13.646  20.493   4.395  1.00  0.00     0.075 C 
HETATM   17  C16 UNL     1      14.440  19.398   3.734  1.00  0.00     0.079 C 
HETATM   18  O8  UNL     1      14.264  21.648   4.840  1.00  0.00    -0.344 OA
HETATM   19  C17 UNL     1      13.583  22.895   4.925  1.00  0.00     0.172 C 
ENDROOT
BRANCH   1  20
HETATM   20  O2  UNL     1      15.078  24.009   3.451  1.00  0.00    -0.313 OA
BRANCH  20  21
HETATM   21  C2  UNL     1      15.975  23.365   2.622  1.00  0.00     0.255 C 
HETATM   22  C1  UNL     1      16.801  22.275   3.193  1.00  0.00     0.126 C 
HETATM   23  O1  UNL     1      16.022  23.758   1.432  1.00  0.00    -0.266 OA
ENDBRANCH  20  21
ENDBRANCH   1  20
BRANCH   4  24
HETATM   24  O3  UNL     1      11.058  23.642   2.596  1.00  0.00    -0.393 OA
ATOM     25  H3  UNL     1      10.632  24.196   1.953  1.00  0.00     0.210 HD
ENDBRANCH   4  24
BRANCH   5  26
HETATM   26  O4  UNL     1      11.222  24.904   5.927  1.00  0.00    -0.392 OA
ATOM     27  H4  UNL     1      12.038  24.874   6.411  1.00  0.00     0.210 HD
ENDBRANCH   5  26
TORSDOF 4
ENDMDL
MODEL 4
REMARK VINA RESULT: -5.494011885      1.686      2.179
REMARK  4 active torsions:
REMARK  status: ('A' for Active; 'I' for Inactive)
REMARK    1  A    between atoms: C2_2  and  O2_4 
REMARK    2  A    between atoms: O2_4  and  C3_5 
REMARK    3  A    between atoms: C6_8  and  O3_9 
REMARK    4  A    between atoms: C7_11  and  O4_12 
ROOT
HETATM    1  C3  UNL     1      10.597  22.886   3.338  1.00  0.00     0.168 C 
HETATM    2  C4  UNL     1       9.722  21.742   3.821  1.00  0.00     0.045 C 
HETATM    3  C5  UNL     1       9.107  21.054   2.630  1.00  0.00     0.015 C 
HETATM    4  C6  UNL     1      10.603  20.835   4.624  1.00  0.00     0.154 C 
HETATM    5  C7  UNL     1      11.151  21.528   5.804  1.00  0.00     0.161 C 
HETATM    6  C8  UNL     1      11.790  22.854   5.563  1.00  0.00     0.049 C 
HETATM    7  C9  UNL     1      11.522  23.656   6.858  1.00  0.00     0.024 C 
HETATM    8  C10 UNL     1      13.259  22.679   5.505  1.00  0.00     0.233 C 
HETATM    9  O5  UNL     1      13.647  21.317   5.413  1.00  0.00    -0.225 OA
HETATM   10  O6  UNL     1      14.886  21.224   5.756  1.00  0.00    -0.200 OA
HETATM   11  C11 UNL     1      15.796  21.820   4.941  1.00  0.00     0.195 C 
HETATM   12  C12 UNL     1      16.201  20.829   3.867  1.00  0.00     0.082 C 
HETATM   13  C13 UNL     1      17.063  22.195   5.693  1.00  0.00     0.082 C 
HETATM   14  O7  UNL     1      15.280  22.963   4.249  1.00  0.00    -0.311 OA
HETATM   15  C14 UNL     1      13.966  23.349   4.424  1.00  0.00     0.112 C 
HETATM   16  C15 UNL     1      13.427  24.259   3.650  1.00  0.00     0.075 C 
HETATM   17  C16 UNL     1      14.196  24.928   2.542  1.00  0.00     0.079 C 
HETATM   18  O8  UNL     1      12.106  24.587   3.895  1.00  0.00    -0.344 OA
HETATM   19  C17 UNL     1      11.185  23.668   4.472  1.00  0.00     0.172 C 
ENDROOT
BRANCH   1  20
HETATM   20  O2  UNL     1       9.686  23.744   2.629  1.00  0.00    -0.313 OA
BRANCH  20  21
HETATM   21  C2  UNL     1       9.924  24.114   1.320  1.00  0.00     0.255 C 
HETATM   22  C1  UNL     1       8.925  23.736   0.292  1.00  0.00     0.126 C 
HETATM   23  O1  UNL     1      10.981  24.752   1.099  1.00  0.00    -0.266 OA
ENDBRANCH  20  21
ENDBRANCH   1  20
BRANCH   4  24
HETATM   24  O3  UNL     1      11.520  20.235   3.792  1.00  0.00    -0.393 OA
ATOM     25  H3  UNL     1      11.456  20.619   2.925  1.00  0.00     0.210 HD
ENDBRANCH   4  24
BRANCH   5  26
HETATM   26  O4  UNL     1      10.110  21.615   6.762  1.00  0.00    -0.392 OA
ATOM     27  H4  UNL     1      10.475  21.357   7.600  1.00  0.00     0.210 HD
ENDBRANCH   5  26
TORSDOF 4
ENDMDL
MODEL 5
REMARK VINA RESULT: -5.461857448      1.547      5.830
REMARK  4 active torsions:
REMARK  status: ('A' for Active; 'I' for Inactive)
REMARK    1  A    between atoms: C2_2  and  O2_4 
REMARK    2  A    between atoms: O2_4  and  C3_5 
REMARK    3  A    between atoms: C6_8  and  O3_9 
REMARK    4  A    between atoms: C7_11  and  O4_12 
ROOT
HETATM    1  C3  UNL     1      13.330  20.696   3.971  1.00  0.00     0.168 C 
HETATM    2  C4  UNL     1      13.937  22.002   4.455  1.00  0.00     0.045 C 
HETATM    3  C5  UNL     1      15.095  22.369   3.563  1.00  0.00     0.015 C 
HETATM    4  C6  UNL     1      12.841  23.023   4.430  1.00  0.00     0.154 C 
HETATM    5  C7  UNL     1      11.746  22.654   5.347  1.00  0.00     0.161 C 
HETATM    6  C8  UNL     1      11.216  21.265   5.230  1.00  0.00     0.049 C 
HETATM    7  C9  UNL     1      10.772  20.897   6.665  1.00  0.00     0.024 C 
HETATM    8  C10 UNL     1       9.974  21.288   4.426  1.00  0.00     0.233 C 
HETATM    9  O5  UNL     1       9.769  22.526   3.764  1.00  0.00    -0.225 OA
HETATM   10  O6  UNL     1       8.528  22.607   3.426  1.00  0.00    -0.200 OA
HETATM   11  C11 UNL     1       8.088  21.724   2.491  1.00  0.00     0.195 C 
HETATM   12  C12 UNL     1       8.319  22.324   1.118  1.00  0.00     0.082 C 
HETATM   13  C13 UNL     1       6.593  21.473   2.616  1.00  0.00     0.082 C 
HETATM   14  O7  UNL     1       8.796  20.479   2.501  1.00  0.00    -0.311 OA
HETATM   15  C14 UNL     1       9.834  20.275   3.390  1.00  0.00     0.112 C 
HETATM   16  C15 UNL     1      10.617  19.231   3.276  1.00  0.00     0.075 C 
HETATM   17  C16 UNL     1      10.436  18.207   2.188  1.00  0.00     0.079 C 
HETATM   18  O8  UNL     1      11.631  19.104   4.209  1.00  0.00    -0.344 OA
HETATM   19  C17 UNL     1      12.218  20.226   4.857  1.00  0.00     0.172 C 
ENDROOT
BRANCH   1  20
HETATM   20  O2  UNL     1      14.411  19.753   4.074  1.00  0.00    -0.313 OA
BRANCH  20  21
HETATM   21  C2  UNL     1      14.841  19.288   5.301  1.00  0.00     0.255 C 
HETATM   22  C1  UNL     1      16.067  19.883   5.885  1.00  0.00     0.126 C 
HETATM   23  O1  UNL     1      14.152  18.386   5.834  1.00  0.00    -0.266 OA
ENDBRANCH  20  21
ENDBRANCH   1  20
BRANCH   4  24
HETATM   24  O3  UNL     1      12.482  23.275   3.126  1.00  0.00    -0.393 OA
ATOM     25  H3  UNL     1      12.393  22.452   2.660  1.00  0.00     0.210 HD
ENDBRANCH   4  24
BRANCH   5  26
HETATM   26  O4  UNL     1      12.187  22.938   6.664  1.00  0.00    -0.392 OA
ATOM     27  H4  UNL     1      11.810  22.280   7.235  1.00  0.00     0.210 HD
ENDBRANCH   5  26
TORSDOF 4
ENDMDL
