MODEL 1
REMARK VINA RESULT: -5.844335450      0.000      0.000
REMARK  3 active torsions:
REMARK  status: ('A' for Active; 'I' for Inactive)
REMARK    1  A    between atoms: C2_2  and  C3_3 
REMARK    2  A    between atoms: C3_3  and  C4_4 
REMARK    3  A    between atoms: C4_4  and  C5_5 
REMARK       I    between atoms: N1_8  and  C7_10 
REMARK       I    between atoms: C7_10  and  N5_18 
REMARK       I    between atoms: N2_11  and  C8_13 
ROOT
HETATM    1  C1  UNL     1     123.989 105.652 -41.569  1.00  0.00     0.064 C 
HETATM    2  C2  UNL     1     123.814 105.835 -43.018  1.00  0.00     0.000 C 
HETATM    3  N1  UNL     1     123.629 106.976 -43.558  1.00  0.00    -0.199 N 
ATOM      4  H1  UNL     1     123.517 107.006 -44.572  1.00  0.00     0.183 HD
HETATM    5  C7  UNL     1     123.569 108.207 -42.852  1.00  0.00     0.682 C 
HETATM    6  N2  UNL     1     124.578 108.557 -42.168  1.00  0.00    -0.164 N 
ATOM      7  H2  UNL     1     125.372 107.916 -42.175  1.00  0.00     0.187 HD
HETATM    8  C8  UNL     1     124.731 109.719 -41.402  1.00  0.00     0.200 C 
HETATM    9  N3  UNL     1     124.197 109.776 -40.226  1.00  0.00    -0.373 N 
ATOM     10  H31 UNL     1     124.309 110.624 -39.669  1.00  0.00     0.158 HD
ATOM     11  H32 UNL     1     123.683 108.953 -39.912  1.00  0.00     0.158 HD
HETATM   12  N4  UNL     1     125.451 110.871 -41.843  1.00  0.00    -0.063 NA
HETATM   13  N5  UNL     1     122.359 108.954 -42.979  1.00  0.00    -0.218 N 
HETATM   14  C9  UNL     1     122.264 110.198 -43.687  1.00  0.00     0.141 C 
HETATM   15  C10 UNL     1     121.515 111.142 -42.780  1.00  0.00     0.020 C 
HETATM   16  C11 UNL     1     120.084 110.674 -42.730  1.00  0.00     0.003 C 
HETATM   17  C12 UNL     1     119.927 109.192 -42.656  1.00  0.00     0.020 C 
HETATM   18  C13 UNL     1     121.174 108.427 -42.363  1.00  0.00     0.141 C 
ENDROOT
BRANCH   2  19
HETATM   19  C3  UNL     1     123.847 104.651 -43.927  1.00  0.00     0.054 C 
BRANCH  19  20
HETATM   20  C4  UNL     1     123.860 103.422 -43.071  1.00  0.00     0.025 C 
BRANCH  20  21
HETATM   21  C5  UNL     1     124.995 102.488 -43.400  1.00  0.00     0.078 C 
HETATM   22  C6  UNL     1     124.567 101.296 -44.193  1.00  0.00     0.026 C 
HETATM   23 CL1  UNL     1     125.818 102.022 -41.885  1.00  0.00    -0.125 Cl
ENDBRANCH  20  21
ENDBRANCH  19  20
ENDBRANCH   2  19
TORSDOF 3
ENDMDL
MODEL 2
REMARK VINA RESULT: -5.816149579      7.535     10.134
REMARK  3 active torsions:
REMARK  status: ('A' for Active; 'I' for Inactive)
REMARK    1  A    between atoms: C2_2  and  C3_3 
REMARK    2  A    between atoms: C3_3  and  C4_4 
REMARK    3  A    between atoms: C4_4  and  C5_5 
REMARK       I    between atoms: N1_8  and  C7_10 
REMARK       I    between atoms: C7_10  and  N5_18 
REMARK       I    between atoms: N2_11  and  C8_13 
ROOT
HETATM    1  C1  UNL     1     124.639  99.626 -46.693  1.00  0.00     0.064 C 
HETATM    2  C2  UNL     1     123.761 100.774 -46.422  1.00  0.00     0.000 C 
HETATM    3  N1  UNL     1     122.672 100.983 -47.054  1.00  0.00    -0.199 N 
ATOM      4  H1  UNL     1     122.127 101.807 -46.798  1.00  0.00     0.183 HD
HETATM    5  C7  UNL     1     122.163 100.153 -48.089  1.00  0.00     0.682 C 
HETATM    6  N2  UNL     1     121.917  98.938 -47.816  1.00  0.00    -0.164 N 
ATOM      7  H2  UNL     1     122.106  98.644 -46.859  1.00  0.00     0.187 HD
HETATM    8  C8  UNL     1     121.415  97.955 -48.678  1.00  0.00     0.200 C 
HETATM    9  N3  UNL     1     122.218  97.370 -49.506  1.00  0.00    -0.373 N 
ATOM     10  H31 UNL     1     121.852  96.654 -50.133  1.00  0.00     0.158 HD
ATOM     11  H32 UNL     1     123.195  97.664 -49.487  1.00  0.00     0.158 HD
HETATM   12  N4  UNL     1     120.048  97.545 -48.704  1.00  0.00    -0.063 NA
HETATM   13  N5  UNL     1     121.970 100.769 -49.362  1.00  0.00    -0.218 N 
HETATM   14  C9  UNL     1     120.679 101.023 -49.933  1.00  0.00     0.141 C 
HETATM   15  C10 UNL     1     120.746 100.531 -51.357  1.00  0.00     0.020 C 
HETATM   16  C11 UNL     1     121.640 101.475 -52.116  1.00  0.00     0.003 C 
HETATM   17  C12 UNL     1     122.848 101.914 -51.359  1.00  0.00     0.020 C 
HETATM   18  C13 UNL     1     123.135 101.156 -50.107  1.00  0.00     0.141 C 
ENDROOT
BRANCH   2  19
HETATM   19  C3  UNL     1     124.131 101.762 -45.365  1.00  0.00     0.054 C 
BRANCH  19  20
HETATM   20  C4  UNL     1     124.541 100.990 -44.148  1.00  0.00     0.025 C 
BRANCH  20  21
HETATM   21  C5  UNL     1     125.681 101.631 -43.401  1.00  0.00     0.078 C 
HETATM   22  C6  UNL     1     126.703 100.649 -42.929  1.00  0.00     0.026 C 
HETATM   23 CL1  UNL     1     125.019 102.604 -42.058  1.00  0.00    -0.125 Cl
ENDBRANCH  20  21
ENDBRANCH  19  20
ENDBRANCH   2  19
TORSDOF 3
ENDMDL
MODEL 3
REMARK VINA RESULT: -5.761723278      6.963     10.546
REMARK  3 active torsions:
REMARK  status: ('A' for Active; 'I' for Inactive)
REMARK    1  A    between atoms: C2_2  and  C3_3 
REMARK    2  A    between atoms: C3_3  and  C4_4 
REMARK    3  A    between atoms: C4_4  and  C5_5 
REMARK       I    between atoms: N1_8  and  C7_10 
REMARK       I    between atoms: C7_10  and  N5_18 
REMARK       I    between atoms: N2_11  and  C8_13 
ROOT
HETATM    1  C1  UNL     1     124.617  98.785 -47.167  1.00  0.00     0.064 C 
HETATM    2  C2  UNL     1     123.836  99.938 -46.697  1.00  0.00     0.000 C 
HETATM    3  N1  UNL     1     122.708 100.266 -47.198  1.00  0.00    -0.199 N 
ATOM      4  H1  UNL     1     122.237 101.083 -46.808  1.00  0.00     0.183 HD
HETATM    5  C7  UNL     1     122.061  99.577 -48.259  1.00  0.00     0.682 C 
HETATM    6  N2  UNL     1     121.770  98.353 -48.090  1.00  0.00    -0.164 N 
ATOM      7  H2  UNL     1     122.027  97.949 -47.190  1.00  0.00     0.187 HD
HETATM    8  C8  UNL     1     121.137  97.493 -48.995  1.00  0.00     0.200 C 
HETATM    9  N3  UNL     1     121.827  96.963 -49.952  1.00  0.00    -0.373 N 
ATOM     10  H31 UNL     1     121.365  96.336 -50.611  1.00  0.00     0.158 HD
ATOM     11  H32 UNL     1     122.817  97.205 -49.996  1.00  0.00     0.158 HD
HETATM   12  N4  UNL     1     119.751  97.155 -48.933  1.00  0.00    -0.063 NA
HETATM   13  N5  UNL     1     121.791 100.334 -49.438  1.00  0.00    -0.218 N 
HETATM   14  C9  UNL     1     120.470 100.710 -49.854  1.00  0.00     0.141 C 
HETATM   15  C10 UNL     1     120.381 100.371 -51.321  1.00  0.00     0.020 C 
HETATM   16  C11 UNL     1     121.257 101.347 -52.062  1.00  0.00     0.003 C 
HETATM   17  C12 UNL     1     122.551 101.644 -51.382  1.00  0.00     0.020 C 
HETATM   18  C13 UNL     1     122.904 100.742 -50.247  1.00  0.00     0.141 C 
ENDROOT
BRANCH   2  19
HETATM   19  C3  UNL     1     124.356 100.788 -45.585  1.00  0.00     0.054 C 
BRANCH  19  20
HETATM   20  C4  UNL     1     123.448 101.973 -45.458  1.00  0.00     0.025 C 
BRANCH  20  21
HETATM   21  C5  UNL     1     123.828 102.885 -44.321  1.00  0.00     0.078 C 
HETATM   22  C6  UNL     1     124.018 104.306 -44.742  1.00  0.00     0.026 C 
HETATM   23 CL1  UNL     1     125.278 102.228 -43.512  1.00  0.00    -0.125 Cl
ENDBRANCH  20  21
ENDBRANCH  19  20
ENDBRANCH   2  19
TORSDOF 3
ENDMDL
MODEL 4
REMARK VINA RESULT: -5.675284477      2.482      4.087
REMARK  3 active torsions:
REMARK  status: ('A' for Active; 'I' for Inactive)
REMARK    1  A    between atoms: C2_2  and  C3_3 
REMARK    2  A    between atoms: C3_3  and  C4_4 
REMARK    3  A    between atoms: C4_4  and  C5_5 
REMARK       I    between atoms: N1_8  and  C7_10 
REMARK       I    between atoms: C7_10  and  N5_18 
REMARK       I    between atoms: N2_11  and  C8_13 
ROOT
HETATM    1  C1  UNL     1     123.957 103.894 -45.059  1.00  0.00     0.064 C 
HETATM    2  C2  UNL     1     123.924 104.324 -43.653  1.00  0.00     0.000 C 
HETATM    3  N1  UNL     1     123.511 105.475 -43.287  1.00  0.00    -0.199 N 
ATOM      4  H1  UNL     1     123.525 105.687 -42.289  1.00  0.00     0.183 HD
HETATM    5  C7  UNL     1     123.033 106.482 -44.167  1.00  0.00     0.682 C 
HETATM    6  N2  UNL     1     122.028 106.216 -44.895  1.00  0.00    -0.164 N 
ATOM      7  H2  UNL     1     121.632 105.282 -44.791  1.00  0.00     0.187 HD
HETATM    8  C8  UNL     1     121.398 107.055 -45.823  1.00  0.00     0.200 C 
HETATM    9  N3  UNL     1     121.922 107.205 -46.995  1.00  0.00    -0.373 N 
ATOM     10  H31 UNL     1     121.463 107.817 -47.671  1.00  0.00     0.158 HD
ATOM     11  H32 UNL     1     122.784 106.694 -47.185  1.00  0.00     0.158 HD
HETATM   12  N4  UNL     1     120.192 107.771 -45.556  1.00  0.00    -0.063 NA
HETATM   13  N5  UNL     1     123.735 107.725 -44.154  1.00  0.00    -0.218 N 
HETATM   14  C9  UNL     1     123.183 108.944 -43.636  1.00  0.00     0.141 C 
HETATM   15  C10 UNL     1     123.460 110.003 -44.674  1.00  0.00     0.020 C 
HETATM   16  C11 UNL     1     124.942 110.272 -44.655  1.00  0.00     0.003 C 
HETATM   17  C12 UNL     1     125.783 109.049 -44.510  1.00  0.00     0.020 C 
HETATM   18  C13 UNL     1     125.069 107.751 -44.686  1.00  0.00     0.141 C 
ENDROOT
BRANCH   2  19
HETATM   19  C3  UNL     1     124.390 103.398 -42.579  1.00  0.00     0.054 C 
BRANCH  19  20
HETATM   20  C4  UNL     1     125.027 102.216 -43.245  1.00  0.00     0.025 C 
BRANCH  20  21
HETATM   21  C5  UNL     1     125.751 101.317 -42.278  1.00  0.00     0.078 C 
HETATM   22  C6  UNL     1     127.109 100.912 -42.754  1.00  0.00     0.026 C 
HETATM   23 CL1  UNL     1     124.721  99.903 -41.919  1.00  0.00    -0.125 Cl
ENDBRANCH  20  21
ENDBRANCH  19  20
ENDBRANCH   2  19
TORSDOF 3
ENDMDL
MODEL 5
REMARK VINA RESULT: -5.622647909      1.905      2.274
REMARK  3 active torsions:
REMARK  status: ('A' for Active; 'I' for Inactive)
REMARK    1  A    between atoms: C2_2  and  C3_3 
REMARK    2  A    between atoms: C3_3  and  C4_4 
REMARK    3  A    between atoms: C4_4  and  C5_5 
REMARK       I    between atoms: N1_8  and  C7_10 
REMARK       I    between atoms: C7_10  and  N5_18 
REMARK       I    between atoms: N2_11  and  C8_13 
ROOT
HETATM    1  C1  UNL     1     124.957 106.384 -40.815  1.00  0.00     0.064 C 
HETATM    2  C2  UNL     1     124.182 105.459 -41.654  1.00  0.00     0.000 C 
HETATM    3  N1  UNL     1     123.684 105.793 -42.781  1.00  0.00    -0.199 N 
ATOM      4  H1  UNL     1     123.160 105.084 -43.295  1.00  0.00     0.183 HD
HETATM    5  C7  UNL     1     123.806 107.078 -43.373  1.00  0.00     0.682 C 
HETATM    6  N2  UNL     1     124.971 107.518 -43.617  1.00  0.00    -0.164 N 
ATOM      7  H2  UNL     1     125.746 106.905 -43.366  1.00  0.00     0.187 HD
HETATM    8  C8  UNL     1     125.316 108.747 -44.192  1.00  0.00     0.200 C 
HETATM    9  N3  UNL     1     125.315 109.812 -43.457  1.00  0.00    -0.373 N 
ATOM     10  H31 UNL     1     125.567 110.707 -43.876  1.00  0.00     0.158 HD
ATOM     11  H32 UNL     1     125.057 109.695 -42.477  1.00  0.00     0.158 HD
HETATM   12  N4  UNL     1     125.678 108.909 -45.564  1.00  0.00    -0.063 NA
HETATM   13  N5  UNL     1     122.588 107.772 -43.645  1.00  0.00    -0.218 N 
HETATM   14  C9  UNL     1     122.092 108.016 -44.969  1.00  0.00     0.141 C 
HETATM   15  C10 UNL     1     121.701 109.472 -45.008  1.00  0.00     0.020 C 
HETATM   16  C11 UNL     1     120.469 109.628 -44.154  1.00  0.00     0.003 C 
HETATM   17  C12 UNL     1     120.497 108.837 -42.890  1.00  0.00     0.020 C 
HETATM   18  C13 UNL     1     121.819 108.247 -42.529  1.00  0.00     0.141 C 
ENDROOT
BRANCH   2  19
HETATM   19  C3  UNL     1     123.946 104.057 -41.197  1.00  0.00     0.054 C 
BRANCH  19  20
HETATM   20  C4  UNL     1     125.260 103.339 -41.243  1.00  0.00     0.025 C 
BRANCH  20  21
HETATM   21  C5  UNL     1     125.223 102.099 -42.097  1.00  0.00     0.078 C 
HETATM   22  C6  UNL     1     126.456 101.264 -41.980  1.00  0.00     0.026 C 
HETATM   23 CL1  UNL     1     124.894 102.571 -43.788  1.00  0.00    -0.125 Cl
ENDBRANCH  20  21
ENDBRANCH  19  20
ENDBRANCH   2  19
TORSDOF 3
ENDMDL
