MODEL 1
REMARK VINA RESULT: -4.322725446      0.000      0.000
REMARK  1 active torsions:
REMARK  status: ('A' for Active; 'I' for Inactive)
REMARK       I    between atoms: C1_4  and  N3_6 
REMARK    1  A    between atoms: N3_6  and  C2_8 
ROOT
HETATM    1  C2  UNL     1      27.535 136.094 146.336  1.00  0.00     0.123 A 
HETATM    2  C3  UNL     1      27.707 134.849 146.914  1.00  0.00     0.068 A 
HETATM    3  C4  UNL     1      28.277 133.984 146.003  1.00  0.00     0.111 A 
HETATM    4  N4  UNL     1      28.445 134.707 144.889  1.00  0.00    -0.310 N 
ATOM      5  H4  UNL     1      28.848 134.357 144.019  1.00  0.00     0.186 HD
HETATM    6  N5  UNL     1      28.005 135.956 145.084  1.00  0.00    -0.286 N 
ATOM      7  H5  UNL     1      28.025 136.697 144.383  1.00  0.00     0.188 HD
ENDROOT
BRANCH   1   8
HETATM    8  N3  UNL     1      26.987 137.272 146.913  1.00  0.00    -0.316 N 
HETATM    9  C1  UNL     1      27.751 138.078 147.783  1.00  0.00     0.187 C 
HETATM   10  N1  UNL     1      28.384 139.073 147.298  1.00  0.00    -0.373 N 
HETATM   11  N2  UNL     1      27.818 137.798 149.158  1.00  0.00    -0.064 NA
ATOM     12  H12 UNL     1      28.936 139.656 147.927  1.00  0.00     0.158 HD
ATOM     13  H11 UNL     1      28.336 139.276 146.299  1.00  0.00     0.158 HD
ATOM     14  H3  UNL     1      26.027 137.538 146.695  1.00  0.00     0.170 HD
ENDBRANCH   1   8
TORSDOF 1
ENDMDL
MODEL 2
REMARK VINA RESULT: -4.175995444      1.313      4.040
REMARK  1 active torsions:
REMARK  status: ('A' for Active; 'I' for Inactive)
REMARK       I    between atoms: C1_4  and  N3_6 
REMARK    1  A    between atoms: N3_6  and  C2_8 
ROOT
HETATM    1  C2  UNL     1      27.622 136.702 146.908  1.00  0.00     0.123 A 
HETATM    2  C3  UNL     1      28.737 137.368 147.387  1.00  0.00     0.068 A 
HETATM    3  C4  UNL     1      28.394 138.652 147.754  1.00  0.00     0.111 A 
HETATM    4  N4  UNL     1      27.084 138.754 147.497  1.00  0.00    -0.310 N 
ATOM      5  H4  UNL     1      26.519 139.588 147.659  1.00  0.00     0.186 HD
HETATM    6  N5  UNL     1      26.625 137.601 146.995  1.00  0.00    -0.286 N 
ATOM      7  H5  UNL     1      25.659 137.428 146.719  1.00  0.00     0.188 HD
ENDROOT
BRANCH   1   8
HETATM    8  N3  UNL     1      27.525 135.368 146.426  1.00  0.00    -0.316 N 
HETATM    9  C1  UNL     1      28.143 134.986 145.217  1.00  0.00     0.187 C 
HETATM   10  N1  UNL     1      29.311 134.476 145.261  1.00  0.00    -0.373 N 
HETATM   11  N2  UNL     1      27.492 135.159 143.984  1.00  0.00    -0.064 NA
ATOM     12  H12 UNL     1      29.758 134.199 144.386  1.00  0.00     0.158 HD
ATOM     13  H11 UNL     1      29.784 134.351 146.156  1.00  0.00     0.158 HD
ATOM     14  H3  UNL     1      27.000 134.678 146.962  1.00  0.00     0.170 HD
ENDBRANCH   1   8
TORSDOF 1
ENDMDL
MODEL 3
REMARK VINA RESULT: -4.158539352      2.964      4.104
REMARK  1 active torsions:
REMARK  status: ('A' for Active; 'I' for Inactive)
REMARK       I    between atoms: C1_4  and  N3_6 
REMARK    1  A    between atoms: N3_6  and  C2_8 
ROOT
HETATM    1  C2  UNL     1      27.502 137.137 149.130  1.00  0.00     0.123 A 
HETATM    2  C3  UNL     1      28.442 138.084 148.766  1.00  0.00     0.068 A 
HETATM    3  C4  UNL     1      28.024 138.746 147.631  1.00  0.00     0.111 A 
HETATM    4  N4  UNL     1      26.843 138.200 147.319  1.00  0.00    -0.310 N 
ATOM      5  H4  UNL     1      26.264 138.469 146.523  1.00  0.00     0.186 HD
HETATM    6  N5  UNL     1      26.532 137.246 148.205  1.00  0.00    -0.286 N 
ATOM      7  H5  UNL     1      25.682 136.683 148.183  1.00  0.00     0.188 HD
ENDROOT
BRANCH   1   8
HETATM    8  N3  UNL     1      27.529 136.237 150.231  1.00  0.00    -0.316 N 
HETATM    9  C1  UNL     1      28.597 136.249 151.152  1.00  0.00     0.187 C 
HETATM   10  N1  UNL     1      28.481 136.941 152.217  1.00  0.00    -0.373 N 
HETATM   11  N2  UNL     1      29.770 135.514 150.911  1.00  0.00    -0.064 NA
ATOM     12  H12 UNL     1      29.254 136.949 152.883  1.00  0.00     0.158 HD
ATOM     13  H11 UNL     1      27.630 137.475 152.392  1.00  0.00     0.158 HD
ATOM     14  H3  UNL     1      26.765 135.573 150.357  1.00  0.00     0.170 HD
ENDBRANCH   1   8
TORSDOF 1
ENDMDL
MODEL 4
REMARK VINA RESULT: -4.126840300      1.322      3.925
REMARK  1 active torsions:
REMARK  status: ('A' for Active; 'I' for Inactive)
REMARK       I    between atoms: C1_4  and  N3_6 
REMARK    1  A    between atoms: N3_6  and  C2_8 
ROOT
HETATM    1  C2  UNL     1      27.475 136.455 146.624  1.00  0.00     0.123 A 
HETATM    2  C3  UNL     1      27.692 135.794 147.820  1.00  0.00     0.068 A 
HETATM    3  C4  UNL     1      27.181 136.536 148.864  1.00  0.00     0.111 A 
HETATM    4  N4  UNL     1      26.663 137.632 148.298  1.00  0.00    -0.310 N 
ATOM      5  H4  UNL     1      26.204 138.391 148.801  1.00  0.00     0.186 HD
HETATM    6  N5  UNL     1      26.836 137.586 146.971  1.00  0.00    -0.286 N 
ATOM      7  H5  UNL     1      26.528 138.306 146.317  1.00  0.00     0.188 HD
ENDROOT
BRANCH   1   8
HETATM    8  N3  UNL     1      27.835 136.051 145.309  1.00  0.00    -0.316 N 
HETATM    9  C1  UNL     1      28.180 134.712 145.029  1.00  0.00     0.187 C 
HETATM   10  N1  UNL     1      27.272 133.921 144.609  1.00  0.00    -0.373 N 
HETATM   11  N2  UNL     1      29.495 134.251 145.206  1.00  0.00    -0.064 NA
ATOM     12  H12 UNL     1      27.522 132.952 144.406  1.00  0.00     0.158 HD
ATOM     13  H11 UNL     1      26.317 134.256 144.481  1.00  0.00     0.158 HD
ATOM     14  H3  UNL     1      27.844 136.740 144.557  1.00  0.00     0.170 HD
ENDBRANCH   1   8
TORSDOF 1
ENDMDL
MODEL 5
REMARK VINA RESULT: -4.051781573      2.217      3.460
REMARK  1 active torsions:
REMARK  status: ('A' for Active; 'I' for Inactive)
REMARK       I    between atoms: C1_4  and  N3_6 
REMARK    1  A    between atoms: N3_6  and  C2_8 
ROOT
HETATM    1  C2  UNL     1      27.392 136.464 148.887  1.00  0.00     0.123 A 
HETATM    2  C3  UNL     1      27.853 135.872 147.724  1.00  0.00     0.068 A 
HETATM    3  C4  UNL     1      27.444 136.607 146.631  1.00  0.00     0.111 A 
HETATM    4  N4  UNL     1      26.745 137.630 147.135  1.00  0.00    -0.310 N 
ATOM      5  H4  UNL     1      26.301 138.365 146.584  1.00  0.00     0.186 HD
HETATM    6  N5  UNL     1      26.712 137.547 148.471  1.00  0.00    -0.286 N 
ATOM      7  H5  UNL     1      26.240 138.211 149.085  1.00  0.00     0.188 HD
ENDROOT
BRANCH   1   8
HETATM    8  N3  UNL     1      27.581 136.043 150.232  1.00  0.00    -0.316 N 
HETATM    9  C1  UNL     1      28.568 136.636 151.046  1.00  0.00     0.187 C 
HETATM   10  N1  UNL     1      28.236 137.608 151.802  1.00  0.00    -0.373 N 
HETATM   11  N2  UNL     1      29.893 136.171 151.033  1.00  0.00    -0.064 NA
ATOM     12  H12 UNL     1      28.950 138.037 152.392  1.00  0.00     0.158 HD
ATOM     13  H11 UNL     1      27.274 137.946 151.812  1.00  0.00     0.158 HD
ATOM     14  H3  UNL     1      26.994 135.302 150.613  1.00  0.00     0.170 HD
ENDBRANCH   1   8
TORSDOF 1
ENDMDL
