MODEL 1
REMARK VINA RESULT: -6.686410732      0.000      0.000
REMARK  7 active torsions:
REMARK  status: ('A' for Active; 'I' for Inactive)
REMARK    1  A    between atoms: O1_1  and  C1_3 
REMARK    2  A    between atoms: C1_3  and  N1_4 
REMARK    3  A    between atoms: N1_4  and  C2_5 
REMARK    4  A    between atoms: N1_4  and  C10_13 
REMARK    5  A    between atoms: C2_5  and  C3_6 
REMARK    6  A    between atoms: C3_6  and  C4_7 
REMARK    7  A    between atoms: C10_13  and  C11_14 
ROOT
HETATM    1  N1  UNL     1       0.760  -1.525   6.928  1.00  0.00    -0.351 N 
ENDROOT
BRANCH   1   2
HETATM    2  C1  UNL     1       1.975  -2.216   6.893  1.00  0.00     0.224 C 
BRANCH   2   3
HETATM    3  O1  UNL     1       1.887  -3.287   5.968  1.00  0.00    -0.356 OA
ATOM      4  H1  UNL     1       2.727  -3.728   5.910  1.00  0.00     0.218 HD
ENDBRANCH   2   3
ENDBRANCH   1   2
BRANCH   1   5
HETATM    5  C2  UNL     1      -0.149  -1.950   7.979  1.00  0.00     0.129 C 
BRANCH   5   6
HETATM    6  C3  UNL     1       0.227  -1.238   9.245  1.00  0.00     0.025 C 
BRANCH   6   7
HETATM    7  C4  UNL     1      -0.742  -0.180   9.685  1.00  0.00    -0.013 C 
HETATM    8  C5  UNL     1      -1.489   0.480   8.578  1.00  0.00     0.005 C 
HETATM    9  C6  UNL     1      -0.935   1.826   8.195  1.00  0.00     0.000 C 
HETATM   10  C7  UNL     1       0.560   1.894   8.237  1.00  0.00     0.000 C 
HETATM   11  C8  UNL     1       1.072   1.472   9.573  1.00  0.00     0.000 C 
HETATM   12  C9  UNL     1       0.013   0.878  10.460  1.00  0.00     0.005 C 
ENDBRANCH   6   7
ENDBRANCH   5   6
ENDBRANCH   1   5
BRANCH   1  13
HETATM   13  C10 UNL     1       0.091  -1.172   5.738  1.00  0.00     0.069 C 
BRANCH  13  14
HETATM   14  C11 UNL     1       0.594  -0.116   4.856  1.00  0.00     0.024 C 
HETATM   15  C12 UNL     1       0.982  -0.789   3.529  1.00  0.00     0.010 C 
HETATM   16  C13 UNL     1       1.814   0.160   2.696  1.00  0.00     0.001 C 
HETATM   17  C14 UNL     1       1.097   1.481   2.493  1.00  0.00     0.000 C 
HETATM   18  C15 UNL     1      -0.218   1.555   3.180  1.00  0.00     0.001 C 
HETATM   19  C16 UNL     1      -0.193   1.107   4.635  1.00  0.00     0.010 C 
ENDBRANCH  13  14
ENDBRANCH   1  13
TORSDOF 7
ENDMDL
MODEL 2
REMARK VINA RESULT: -6.686229088      2.564      3.658
REMARK  7 active torsions:
REMARK  status: ('A' for Active; 'I' for Inactive)
REMARK    1  A    between atoms: O1_1  and  C1_3 
REMARK    2  A    between atoms: C1_3  and  N1_4 
REMARK    3  A    between atoms: N1_4  and  C2_5 
REMARK    4  A    between atoms: N1_4  and  C10_13 
REMARK    5  A    between atoms: C2_5  and  C3_6 
REMARK    6  A    between atoms: C3_6  and  C4_7 
REMARK    7  A    between atoms: C10_13  and  C11_14 
ROOT
HETATM    1  N1  UNL     1      -1.125   1.610   5.587  1.00  0.00    -0.351 N 
ENDROOT
BRANCH   1   2
HETATM    2  C1  UNL     1      -1.601   2.683   4.828  1.00  0.00     0.224 C 
BRANCH   2   3
HETATM    3  O1  UNL     1      -2.339   3.564   5.657  1.00  0.00    -0.356 OA
ATOM      4  H1  UNL     1      -2.267   4.451   5.326  1.00  0.00     0.218 HD
ENDBRANCH   2   3
ENDBRANCH   1   2
BRANCH   1   5
HETATM    5  C2  UNL     1      -1.293   1.761   7.022  1.00  0.00     0.129 C 
BRANCH   5   6
HETATM    6  C3  UNL     1      -1.305   0.396   7.644  1.00  0.00     0.025 C 
BRANCH   6   7
HETATM    7  C4  UNL     1      -0.443   0.252   8.863  1.00  0.00    -0.013 C 
HETATM    8  C5  UNL     1       0.939   0.791   8.718  1.00  0.00     0.005 C 
HETATM    9  C6  UNL     1       1.974  -0.268   8.451  1.00  0.00     0.000 C 
HETATM   10  C7  UNL     1       1.496  -1.360   7.546  1.00  0.00     0.000 C 
HETATM   11  C8  UNL     1       0.239  -1.971   8.071  1.00  0.00     0.000 C 
HETATM   12  C9  UNL     1      -0.356  -1.215   9.226  1.00  0.00     0.005 C 
ENDBRANCH   6   7
ENDBRANCH   5   6
ENDBRANCH   1   5
BRANCH   1  13
HETATM   13  C10 UNL     1       0.074   0.952   5.244  1.00  0.00     0.069 C 
BRANCH  13  14
HETATM   14  C11 UNL     1       0.162   0.068   4.079  1.00  0.00     0.024 C 
HETATM   15  C12 UNL     1      -1.134  -0.759   4.048  1.00  0.00     0.010 C 
HETATM   16  C13 UNL     1      -0.980  -1.918   3.090  1.00  0.00     0.001 C 
HETATM   17  C14 UNL     1      -0.560  -1.438   1.714  1.00  0.00     0.000 C 
HETATM   18  C15 UNL     1      -0.361   0.033   1.633  1.00  0.00     0.001 C 
HETATM   19  C16 UNL     1       0.491   0.613   2.754  1.00  0.00     0.010 C 
ENDBRANCH  13  14
ENDBRANCH   1  13
TORSDOF 7
ENDMDL
MODEL 3
REMARK VINA RESULT: -6.667143158      2.631      3.767
REMARK  7 active torsions:
REMARK  status: ('A' for Active; 'I' for Inactive)
REMARK    1  A    between atoms: O1_1  and  C1_3 
REMARK    2  A    between atoms: C1_3  and  N1_4 
REMARK    3  A    between atoms: N1_4  and  C2_5 
REMARK    4  A    between atoms: N1_4  and  C10_13 
REMARK    5  A    between atoms: C2_5  and  C3_6 
REMARK    6  A    between atoms: C3_6  and  C4_7 
REMARK    7  A    between atoms: C10_13  and  C11_14 
ROOT
HETATM    1  N1  UNL     1      -0.947   1.364   5.692  1.00  0.00    -0.351 N 
ENDROOT
BRANCH   1   2
HETATM    2  C1  UNL     1      -1.548   2.297   6.544  1.00  0.00     0.224 C 
BRANCH   2   3
HETATM    3  O1  UNL     1      -2.032   3.391   5.784  1.00  0.00    -0.356 OA
ATOM      4  H1  UNL     1      -1.301   3.870   5.413  1.00  0.00     0.218 HD
ENDBRANCH   2   3
ENDBRANCH   1   2
BRANCH   1   5
HETATM    5  C2  UNL     1       0.297   0.801   6.191  1.00  0.00     0.129 C 
BRANCH   5   6
HETATM    6  C3  UNL     1       0.415   1.131   7.649  1.00  0.00     0.025 C 
BRANCH   6   7
HETATM    7  C4  UNL     1       1.273   0.189   8.440  1.00  0.00    -0.013 C 
HETATM    8  C5  UNL     1       1.527  -1.125   7.784  1.00  0.00     0.005 C 
HETATM    9  C6  UNL     1       0.661  -2.238   8.307  1.00  0.00     0.000 C 
HETATM   10  C7  UNL     1      -0.740  -1.813   8.619  1.00  0.00     0.000 C 
HETATM   11  C8  UNL     1      -0.746  -0.653   9.557  1.00  0.00     0.000 C 
HETATM   12  C9  UNL     1       0.617  -0.057   9.781  1.00  0.00     0.005 C 
ENDBRANCH   6   7
ENDBRANCH   5   6
ENDBRANCH   1   5
BRANCH   1  13
HETATM   13  C10 UNL     1      -0.939   1.555   4.296  1.00  0.00     0.069 C 
BRANCH  13  14
HETATM   14  C11 UNL     1      -0.701   0.447   3.367  1.00  0.00     0.024 C 
HETATM   15  C12 UNL     1      -2.053   0.108   2.719  1.00  0.00     0.010 C 
HETATM   16  C13 UNL     1      -1.964  -1.225   2.012  1.00  0.00     0.001 C 
HETATM   17  C14 UNL     1      -0.820  -1.240   1.017  1.00  0.00     0.000 C 
HETATM   18  C15 UNL     1      -0.037   0.023   0.993  1.00  0.00     0.001 C 
HETATM   19  C16 UNL     1       0.374   0.533   2.367  1.00  0.00     0.010 C 
ENDBRANCH  13  14
ENDBRANCH   1  13
TORSDOF 7
ENDMDL
MODEL 4
REMARK VINA RESULT: -6.663103056      1.235      1.741
REMARK  7 active torsions:
REMARK  status: ('A' for Active; 'I' for Inactive)
REMARK    1  A    between atoms: O1_1  and  C1_3 
REMARK    2  A    between atoms: C1_3  and  N1_4 
REMARK    3  A    between atoms: N1_4  and  C2_5 
REMARK    4  A    between atoms: N1_4  and  C10_13 
REMARK    5  A    between atoms: C2_5  and  C3_6 
REMARK    6  A    between atoms: C3_6  and  C4_7 
REMARK    7  A    between atoms: C10_13  and  C11_14 
ROOT
HETATM    1  N1  UNL     1       1.109  -1.562   5.596  1.00  0.00    -0.351 N 
ENDROOT
BRANCH   1   2
HETATM    2  C1  UNL     1       1.637  -2.593   4.812  1.00  0.00     0.224 C 
BRANCH   2   3
HETATM    3  O1  UNL     1       2.135  -3.621   5.651  1.00  0.00    -0.356 OA
ATOM      4  H1  UNL     1       1.524  -4.348   5.663  1.00  0.00     0.218 HD
ENDBRANCH   2   3
ENDBRANCH   1   2
BRANCH   1   5
HETATM    5  C2  UNL     1       1.235  -1.764   7.029  1.00  0.00     0.129 C 
BRANCH   5   6
HETATM    6  C3  UNL     1       1.347  -0.421   7.689  1.00  0.00     0.025 C 
BRANCH   6   7
HETATM    7  C4  UNL     1       0.480  -0.241   8.900  1.00  0.00    -0.013 C 
HETATM    8  C5  UNL     1      -0.896  -0.799   8.772  1.00  0.00     0.005 C 
HETATM    9  C6  UNL     1      -1.941   0.239   8.464  1.00  0.00     0.000 C 
HETATM   10  C7  UNL     1      -1.471   1.302   7.521  1.00  0.00     0.000 C 
HETATM   11  C8  UNL     1      -0.222   1.944   8.026  1.00  0.00     0.000 C 
HETATM   12  C9  UNL     1       0.378   1.237   9.209  1.00  0.00     0.005 C 
ENDBRANCH   6   7
ENDBRANCH   5   6
ENDBRANCH   1   5
BRANCH   1  13
HETATM   13  C10 UNL     1      -0.095  -0.921   5.238  1.00  0.00     0.069 C 
BRANCH  13  14
HETATM   14  C11 UNL     1      -0.187  -0.055   4.061  1.00  0.00     0.024 C 
HETATM   15  C12 UNL     1       1.067   0.835   4.062  1.00  0.00     0.010 C 
HETATM   16  C13 UNL     1       0.889   1.975   3.085  1.00  0.00     0.001 C 
HETATM   17  C14 UNL     1       0.540   1.460   1.702  1.00  0.00     0.000 C 
HETATM   18  C15 UNL     1       0.417  -0.020   1.633  1.00  0.00     0.001 C 
HETATM   19  C16 UNL     1      -0.443  -0.630   2.732  1.00  0.00     0.010 C 
ENDBRANCH  13  14
ENDBRANCH   1  13
TORSDOF 7
ENDMDL
MODEL 5
REMARK VINA RESULT: -6.656436891      1.849      2.494
REMARK  7 active torsions:
REMARK  status: ('A' for Active; 'I' for Inactive)
REMARK    1  A    between atoms: O1_1  and  C1_3 
REMARK    2  A    between atoms: C1_3  and  N1_4 
REMARK    3  A    between atoms: N1_4  and  C2_5 
REMARK    4  A    between atoms: N1_4  and  C10_13 
REMARK    5  A    between atoms: C2_5  and  C3_6 
REMARK    6  A    between atoms: C3_6  and  C4_7 
REMARK    7  A    between atoms: C10_13  and  C11_14 
ROOT
HETATM    1  N1  UNL     1       1.034  -1.309   5.505  1.00  0.00    -0.351 N 
ENDROOT
BRANCH   1   2
HETATM    2  C1  UNL     1       1.519  -2.295   6.371  1.00  0.00     0.224 C 
BRANCH   2   3
HETATM    3  O1  UNL     1       2.018  -3.386   5.617  1.00  0.00    -0.356 OA
ATOM      4  H1  UNL     1       2.067  -3.145   4.700  1.00  0.00     0.218 HD
ENDBRANCH   2   3
ENDBRANCH   1   2
BRANCH   1   5
HETATM    5  C2  UNL     1       0.010  -0.451   6.076  1.00  0.00     0.129 C 
BRANCH   5   6
HETATM    6  C3  UNL     1      -0.414  -1.032   7.393  1.00  0.00     0.025 C 
BRANCH   6   7
HETATM    7  C4  UNL     1      -1.275  -0.132   8.230  1.00  0.00    -0.013 C 
HETATM    8  C5  UNL     1      -1.318   1.288   7.778  1.00  0.00     0.005 C 
HETATM    9  C6  UNL     1      -0.426   2.201   8.573  1.00  0.00     0.000 C 
HETATM   10  C7  UNL     1       0.878   1.577   8.963  1.00  0.00     0.000 C 
HETATM   11  C8  UNL     1       0.655   0.293   9.690  1.00  0.00     0.000 C 
HETATM   12  C9  UNL     1      -0.775  -0.172   9.658  1.00  0.00     0.005 C 
ENDBRANCH   6   7
ENDBRANCH   5   6
ENDBRANCH   1   5
BRANCH   1  13
HETATM   13  C10 UNL     1       0.817  -1.585   4.140  1.00  0.00     0.069 C 
BRANCH  13  14
HETATM   14  C11 UNL     1      -0.530  -1.613   3.564  1.00  0.00     0.024 C 
HETATM   15  C12 UNL     1      -0.728  -0.278   2.827  1.00  0.00     0.010 C 
HETATM   16  C13 UNL     1      -2.190  -0.085   2.496  1.00  0.00     0.001 C 
HETATM   17  C14 UNL     1      -2.735  -1.268   1.719  1.00  0.00     0.000 C 
HETATM   18  C15 UNL     1      -1.735  -2.344   1.497  1.00  0.00     0.001 C 
HETATM   19  C16 UNL     1      -0.966  -2.754   2.746  1.00  0.00     0.010 C 
ENDBRANCH  13  14
ENDBRANCH   1  13
TORSDOF 7
ENDMDL
