MODEL 1
REMARK VINA RESULT: -8.665382973      0.000      0.000
REMARK  16 active torsions:
REMARK  status: ('A' for Active; 'I' for Inactive)
REMARK    1  A    between atoms: C2_2  and  C3_3 
REMARK    2  A    between atoms: C3_3  and  C4_4 
REMARK    3  A    between atoms: C4_4  and  O1_5 
REMARK    4  A    between atoms: O1_5  and  C5_6 
REMARK       I    between atoms: C5_6  and  N1_8 
REMARK       I    between atoms: N2_11  and  C8_12 
REMARK    5  A    between atoms: C8_12  and  C9_14 
REMARK    6  A    between atoms: C9_14  and  C10_16 
REMARK    7  A    between atoms: C10_16  and  C11_17 
REMARK    8  A    between atoms: C10_16  and  N3_24 
REMARK    9  A    between atoms: C11_17  and  C12_18 
REMARK   10  A    between atoms: N3_24  and  C18_26 
REMARK   11  A    between atoms: C18_26  and  C19_31 
REMARK   12  A    between atoms: N4_27  and  O5_29 
REMARK   13  A    between atoms: N5_35  and  S1_36 
REMARK   14  A    between atoms: S1_36  and  C23_39 
REMARK   15  A    between atoms: C23_39  and  C24_40 
REMARK   16  A    between atoms: C24_40  and  N6_41 
ROOT
HETATM    1  C10 UNL     1      16.502  23.030  15.690  1.00  0.00     0.163 C 
ENDROOT
BRANCH   1   2
HETATM    2  C9  UNL     1      16.833  22.152  16.867  1.00  0.00     0.239 C 
HETATM    3  O4  UNL     1      17.880  21.471  16.775  1.00  0.00    -0.285 OA
BRANCH   2   4
HETATM    4  C8  UNL     1      16.033  22.059  18.059  1.00  0.00     0.291 C 
HETATM    5  N2  UNL     1      15.369  20.897  18.536  1.00  0.00    -0.342 N 
HETATM    6  C7  UNL     1      15.398  19.698  17.761  1.00  0.00     0.146 C 
HETATM    7  C26 UNL     1      14.705  21.035  19.838  1.00  0.00     0.146 C 
HETATM    8  C6  UNL     1      14.448  18.614  18.230  1.00  0.00     0.148 C 
HETATM    9  N1  UNL     1      13.670  18.965  19.369  1.00  0.00    -0.325 N 
HETATM   10  C5  UNL     1      12.298  18.616  19.443  1.00  0.00     0.362 C 
HETATM   11  C27 UNL     1      14.333  19.701  20.433  1.00  0.00     0.148 C 
HETATM   12  O2  UNL     1      11.611  18.935  20.454  1.00  0.00    -0.238 OA
HETATM   13  O3  UNL     1      15.931  23.157  18.734  1.00  0.00    -0.264 OA
BRANCH  10  14
HETATM   14  O1  UNL     1      11.704  17.922  18.402  1.00  0.00    -0.304 OA
BRANCH  14  15
HETATM   15  C4  UNL     1      10.533  18.170  17.745  1.00  0.00     0.180 C 
BRANCH  15  16
HETATM   16  C3  UNL     1      10.493  19.139  16.659  1.00  0.00     0.026 C 
BRANCH  16  17
HETATM   17  C2  UNL     1      10.056  18.824  15.293  1.00  0.00    -0.002 C 
HETATM   18  C1  UNL     1      10.824  17.791  14.543  1.00  0.00     0.005 C 
ENDBRANCH  16  17
ENDBRANCH  15  16
ENDBRANCH  14  15
ENDBRANCH  10  14
ENDBRANCH   2   4
ENDBRANCH   1   2
BRANCH   1  19
HETATM   19  C11 UNL     1      16.396  22.181  14.483  1.00  0.00     0.038 C 
BRANCH  19  20
HETATM   20  C12 UNL     1      15.044  21.993  13.880  1.00  0.00    -0.012 C 
HETATM   21  C13 UNL     1      14.176  23.156  14.345  1.00  0.00     0.005 C 
HETATM   22  C14 UNL     1      13.086  22.727  15.301  1.00  0.00     0.000 C 
HETATM   23  C15 UNL     1      12.085  21.820  14.615  1.00  0.00     0.000 C 
HETATM   24  C16 UNL     1      12.873  20.877  13.735  1.00  0.00     0.000 C 
HETATM   25  C17 UNL     1      14.315  20.750  14.234  1.00  0.00     0.005 C 
ENDBRANCH  19  20
ENDBRANCH   1  19
BRANCH   1  26
HETATM   26  N3  UNL     1      17.419  24.110  15.665  1.00  0.00    -0.365 N 
ATOM     27  H3  UNL     1      17.790  24.321  14.738  1.00  0.00     0.161 HD
BRANCH  26  28
HETATM   28  C18 UNL     1      17.908  24.938  16.681  1.00  0.00     0.117 C 
HETATM   29  N4  UNL     1      17.358  25.586  17.581  1.00  0.00    -0.256 N 
ATOM     30  H4  UNL     1      18.062  26.073  18.135  1.00  0.00     0.195 HD
BRANCH  29  31
HETATM   31  O5  UNL     1      16.164  25.849  18.053  1.00  0.00    -0.288 OA
ATOM     32  H5  UNL     1      15.385  25.405  18.367  1.00  0.00     0.244 HD
ENDBRANCH  29  31
BRANCH  28  33
HETATM   33  C19 UNL     1      19.436  25.066  16.667  1.00  0.00     0.143 C 
HETATM   34  C20 UNL     1      20.060  24.460  15.463  1.00  0.00     0.030 C 
HETATM   35  C21 UNL     1      20.630  25.627  14.682  1.00  0.00     0.018 C 
HETATM   36  C22 UNL     1      20.144  26.845  15.389  1.00  0.00     0.108 C 
HETATM   37  N5  UNL     1      19.864  26.416  16.705  1.00  0.00    -0.199 NA
BRANCH  37  38
HETATM   38  S1  UNL     1      21.104  26.618  17.858  1.00  0.00     0.213 S 
HETATM   39  O6  UNL     1      22.373  26.951  17.093  1.00  0.00    -0.211 OA
HETATM   40  O7  UNL     1      20.812  27.792  18.741  1.00  0.00    -0.211 OA
BRANCH  38  41
HETATM   41  C23 UNL     1      21.389  25.212  18.855  1.00  0.00     0.185 C 
BRANCH  41  42
HETATM   42  C24 UNL     1      20.901  25.464  20.264  1.00  0.00     0.248 C 
BRANCH  42  43
HETATM   43  N6  UNL     1      19.457  25.314  20.351  1.00  0.00    -0.078 N 
HETATM   44  C25 UNL     1      19.080  23.909  20.321  1.00  0.00     0.267 C 
ATOM     45  H62 UNL     1      19.076  25.789  21.169  1.00  0.00     0.276 HD
ATOM     46  H61 UNL     1      18.978  25.848  19.626  1.00  0.00     0.276 HD
ENDBRANCH  42  43
ENDBRANCH  41  42
ENDBRANCH  38  41
ENDBRANCH  37  38
ENDBRANCH  28  33
ENDBRANCH  26  28
ENDBRANCH   1  26
TORSDOF 16
ENDMDL
MODEL 2
REMARK VINA RESULT: -8.632142195      2.639      9.816
REMARK  16 active torsions:
REMARK  status: ('A' for Active; 'I' for Inactive)
REMARK    1  A    between atoms: C2_2  and  C3_3 
REMARK    2  A    between atoms: C3_3  and  C4_4 
REMARK    3  A    between atoms: C4_4  and  O1_5 
REMARK    4  A    between atoms: O1_5  and  C5_6 
REMARK       I    between atoms: C5_6  and  N1_8 
REMARK       I    between atoms: N2_11  and  C8_12 
REMARK    5  A    between atoms: C8_12  and  C9_14 
REMARK    6  A    between atoms: C9_14  and  C10_16 
REMARK    7  A    between atoms: C10_16  and  C11_17 
REMARK    8  A    between atoms: C10_16  and  N3_24 
REMARK    9  A    between atoms: C11_17  and  C12_18 
REMARK   10  A    between atoms: N3_24  and  C18_26 
REMARK   11  A    between atoms: C18_26  and  C19_31 
REMARK   12  A    between atoms: N4_27  and  O5_29 
REMARK   13  A    between atoms: N5_35  and  S1_36 
REMARK   14  A    between atoms: S1_36  and  C23_39 
REMARK   15  A    between atoms: C23_39  and  C24_40 
REMARK   16  A    between atoms: C24_40  and  N6_41 
ROOT
HETATM    1  C10 UNL     1      17.176  22.005  18.438  1.00  0.00     0.163 C 
ENDROOT
BRANCH   1   2
HETATM    2  C9  UNL     1      17.298  22.351  16.979  1.00  0.00     0.239 C 
HETATM    3  O4  UNL     1      17.567  21.405  16.203  1.00  0.00    -0.285 OA
BRANCH   2   4
HETATM    4  C8  UNL     1      17.124  23.676  16.443  1.00  0.00     0.291 C 
HETATM    5  N2  UNL     1      18.125  24.465  15.817  1.00  0.00    -0.342 N 
HETATM    6  C7  UNL     1      19.468  23.985  15.754  1.00  0.00     0.146 C 
HETATM    7  C26 UNL     1      17.666  25.743  15.255  1.00  0.00     0.146 C 
HETATM    8  C6  UNL     1      20.491  25.012  15.307  1.00  0.00     0.148 C 
HETATM    9  N1  UNL     1      19.950  26.298  15.025  1.00  0.00    -0.325 N 
HETATM   10  C5  UNL     1      20.628  27.473  15.435  1.00  0.00     0.362 C 
HETATM   11  C27 UNL     1      18.680  26.351  14.320  1.00  0.00     0.148 C 
HETATM   12  O2  UNL     1      20.141  28.612  15.186  1.00  0.00    -0.238 OA
HETATM   13  O3  UNL     1      15.931  24.158  16.560  1.00  0.00    -0.264 OA
BRANCH  10  14
HETATM   14  O1  UNL     1      21.832  27.376  16.112  1.00  0.00    -0.304 OA
BRANCH  14  15
HETATM   15  C4  UNL     1      22.083  27.412  17.454  1.00  0.00     0.180 C 
BRANCH  15  16
HETATM   16  C3  UNL     1      23.265  26.758  17.997  1.00  0.00     0.026 C 
BRANCH  16  17
HETATM   17  C2  UNL     1      23.636  26.780  19.417  1.00  0.00    -0.002 C 
HETATM   18  C1  UNL     1      24.342  25.590  19.966  1.00  0.00     0.005 C 
ENDBRANCH  16  17
ENDBRANCH  15  16
ENDBRANCH  14  15
ENDBRANCH  10  14
ENDBRANCH   2   4
ENDBRANCH   1   2
BRANCH   1  19
HETATM   19  C11 UNL     1      18.474  21.471  18.907  1.00  0.00     0.038 C 
BRANCH  19  20
HETATM   20  C12 UNL     1      19.247  22.284  19.890  1.00  0.00    -0.012 C 
HETATM   21  C13 UNL     1      18.530  23.621  20.034  1.00  0.00     0.005 C 
HETATM   22  C14 UNL     1      19.320  24.773  19.456  1.00  0.00     0.000 C 
HETATM   23  C15 UNL     1      20.603  25.000  20.230  1.00  0.00     0.000 C 
HETATM   24  C16 UNL     1      21.177  23.636  20.542  1.00  0.00     0.000 C 
HETATM   25  C17 UNL     1      20.658  22.592  19.550  1.00  0.00     0.005 C 
ENDBRANCH  19  20
ENDBRANCH   1  19
BRANCH   1  26
HETATM   26  N3  UNL     1      16.024  21.198  18.613  1.00  0.00    -0.365 N 
ATOM     27  H3  UNL     1      16.202  20.312  19.086  1.00  0.00     0.161 HD
BRANCH  26  28
HETATM   28  C18 UNL     1      14.686  21.398  18.253  1.00  0.00     0.117 C 
HETATM   29  N4  UNL     1      13.947  22.391  18.267  1.00  0.00    -0.256 N 
ATOM     30  H4  UNL     1      13.022  22.135  17.921  1.00  0.00     0.195 HD
BRANCH  29  31
HETATM   31  O5  UNL     1      13.966  23.662  18.583  1.00  0.00    -0.288 OA
ATOM     32  H5  UNL     1      13.394  24.344  18.915  1.00  0.00     0.244 HD
ENDBRANCH  29  31
BRANCH  28  33
HETATM   33  C19 UNL     1      14.007  20.122  17.740  1.00  0.00     0.143 C 
HETATM   34  C20 UNL     1      14.769  18.888  18.060  1.00  0.00     0.030 C 
HETATM   35  C21 UNL     1      13.909  18.137  19.056  1.00  0.00     0.018 C 
HETATM   36  C22 UNL     1      12.793  19.067  19.387  1.00  0.00     0.108 C 
HETATM   37  N5  UNL     1      12.711  19.946  18.285  1.00  0.00    -0.199 NA
BRANCH  37  38
HETATM   38  S1  UNL     1      11.597  19.538  17.060  1.00  0.00     0.213 S 
HETATM   39  O6  UNL     1      11.230  18.079  17.260  1.00  0.00    -0.211 OA
HETATM   40  O7  UNL     1      10.333  20.326  17.218  1.00  0.00    -0.211 OA
BRANCH  38  41
HETATM   41  C23 UNL     1      12.207  19.759  15.437  1.00  0.00     0.185 C 
BRANCH  41  42
HETATM   42  C24 UNL     1      11.508  20.923  14.771  1.00  0.00     0.248 C 
BRANCH  42  43
HETATM   43  N6  UNL     1      12.105  22.188  15.169  1.00  0.00    -0.078 N 
HETATM   44  C25 UNL     1      13.475  22.287  14.689  1.00  0.00     0.267 C 
ATOM     45  H62 UNL     1      11.542  22.983  14.867  1.00  0.00     0.276 HD
ATOM     46  H61 UNL     1      12.047  22.332  16.177  1.00  0.00     0.276 HD
ENDBRANCH  42  43
ENDBRANCH  41  42
ENDBRANCH  38  41
ENDBRANCH  37  38
ENDBRANCH  28  33
ENDBRANCH  26  28
ENDBRANCH   1  26
TORSDOF 16
ENDMDL
MODEL 3
REMARK VINA RESULT: -8.427787407      2.793      9.064
REMARK  16 active torsions:
REMARK  status: ('A' for Active; 'I' for Inactive)
REMARK    1  A    between atoms: C2_2  and  C3_3 
REMARK    2  A    between atoms: C3_3  and  C4_4 
REMARK    3  A    between atoms: C4_4  and  O1_5 
REMARK    4  A    between atoms: O1_5  and  C5_6 
REMARK       I    between atoms: C5_6  and  N1_8 
REMARK       I    between atoms: N2_11  and  C8_12 
REMARK    5  A    between atoms: C8_12  and  C9_14 
REMARK    6  A    between atoms: C9_14  and  C10_16 
REMARK    7  A    between atoms: C10_16  and  C11_17 
REMARK    8  A    between atoms: C10_16  and  N3_24 
REMARK    9  A    between atoms: C11_17  and  C12_18 
REMARK   10  A    between atoms: N3_24  and  C18_26 
REMARK   11  A    between atoms: C18_26  and  C19_31 
REMARK   12  A    between atoms: N4_27  and  O5_29 
REMARK   13  A    between atoms: N5_35  and  S1_36 
REMARK   14  A    between atoms: S1_36  and  C23_39 
REMARK   15  A    between atoms: C23_39  and  C24_40 
REMARK   16  A    between atoms: C24_40  and  N6_41 
ROOT
HETATM    1  C10 UNL     1      16.263  21.377  17.609  1.00  0.00     0.163 C 
ENDROOT
BRANCH   1   2
HETATM    2  C9  UNL     1      17.759  21.454  17.468  1.00  0.00     0.239 C 
HETATM    3  O4  UNL     1      18.244  20.979  16.415  1.00  0.00    -0.285 OA
BRANCH   2   4
HETATM    4  C8  UNL     1      18.637  22.030  18.452  1.00  0.00     0.291 C 
HETATM    5  N2  UNL     1      19.123  23.365  18.463  1.00  0.00    -0.342 N 
HETATM    6  C7  UNL     1      18.808  24.242  17.381  1.00  0.00     0.146 C 
HETATM    7  C26 UNL     1      19.920  23.740  19.638  1.00  0.00     0.146 C 
HETATM    8  C6  UNL     1      19.589  25.542  17.367  1.00  0.00     0.148 C 
HETATM    9  N1  UNL     1      20.520  25.681  18.435  1.00  0.00    -0.325 N 
HETATM   10  C5  UNL     1      21.808  26.226  18.205  1.00  0.00     0.362 C 
HETATM   11  C27 UNL     1      20.101  25.232  19.753  1.00  0.00     0.148 C 
HETATM   12  O2  UNL     1      22.631  26.343  19.155  1.00  0.00    -0.238 OA
HETATM   13  O3  UNL     1      18.996  21.227  19.399  1.00  0.00    -0.264 OA
BRANCH  10  14
HETATM   14  O1  UNL     1      22.168  26.633  16.932  1.00  0.00    -0.304 OA
BRANCH  14  15
HETATM   15  C4  UNL     1      22.296  27.893  16.422  1.00  0.00     0.180 C 
BRANCH  15  16
HETATM   16  C3  UNL     1      22.544  28.089  15.001  1.00  0.00     0.026 C 
BRANCH  16  17
HETATM   17  C2  UNL     1      21.484  28.249  13.998  1.00  0.00    -0.002 C 
HETATM   18  C1  UNL     1      20.080  27.995  14.427  1.00  0.00     0.005 C 
ENDBRANCH  16  17
ENDBRANCH  15  16
ENDBRANCH  14  15
ENDBRANCH  10  14
ENDBRANCH   2   4
ENDBRANCH   1   2
BRANCH   1  19
HETATM   19  C11 UNL     1      15.876  19.959  17.775  1.00  0.00     0.038 C 
BRANCH  19  20
HETATM   20  C12 UNL     1      14.493  19.665  18.250  1.00  0.00    -0.012 C 
HETATM   21  C13 UNL     1      14.268  20.479  19.519  1.00  0.00     0.005 C 
HETATM   22  C14 UNL     1      14.169  19.617  20.757  1.00  0.00     0.000 C 
HETATM   23  C15 UNL     1      12.940  18.732  20.709  1.00  0.00     0.000 C 
HETATM   24  C16 UNL     1      12.822  18.216  19.293  1.00  0.00     0.000 C 
HETATM   25  C17 UNL     1      14.181  18.254  18.589  1.00  0.00     0.005 C 
ENDBRANCH  19  20
ENDBRANCH   1  19
BRANCH   1  26
HETATM   26  N3  UNL     1      15.674  22.106  16.545  1.00  0.00    -0.365 N 
ATOM     27  H3  UNL     1      16.236  22.129  15.694  1.00  0.00     0.161 HD
BRANCH  26  28
HETATM   28  C18 UNL     1      14.462  22.798  16.452  1.00  0.00     0.117 C 
HETATM   29  N4  UNL     1      13.948  23.698  17.130  1.00  0.00    -0.256 N 
ATOM     30  H4  UNL     1      13.040  23.947  16.740  1.00  0.00     0.195 HD
BRANCH  29  31
HETATM   31  O5  UNL     1      14.193  24.433  18.187  1.00  0.00    -0.288 OA
ATOM     32  H5  UNL     1      14.395  25.330  18.425  1.00  0.00     0.244 HD
ENDBRANCH  29  31
BRANCH  28  33
HETATM   33  C19 UNL     1      13.600  22.340  15.270  1.00  0.00     0.143 C 
HETATM   34  C20 UNL     1      14.188  22.686  13.951  1.00  0.00     0.030 C 
HETATM   35  C21 UNL     1      14.561  21.358  13.322  1.00  0.00     0.018 C 
HETATM   36  C22 UNL     1      14.331  20.343  14.388  1.00  0.00     0.108 C 
HETATM   37  N5  UNL     1      13.397  20.938  15.263  1.00  0.00    -0.199 NA
BRANCH  37  38
HETATM   38  S1  UNL     1      11.753  20.572  14.992  1.00  0.00     0.213 S 
HETATM   39  O6  UNL     1      11.075  21.860  14.561  1.00  0.00    -0.211 OA
HETATM   40  O7  UNL     1      11.611  19.608  13.855  1.00  0.00    -0.211 OA
BRANCH  38  41
HETATM   41  C23 UNL     1      10.924  19.930  16.391  1.00  0.00     0.185 C 
BRANCH  41  42
HETATM   42  C24 UNL     1      10.369  18.557  16.083  1.00  0.00     0.248 C 
BRANCH  42  43
HETATM   43  N6  UNL     1      11.434  17.569  16.005  1.00  0.00    -0.078 N 
HETATM   44  C25 UNL     1      11.013  16.306  16.590  1.00  0.00     0.267 C 
ATOM     45  H62 UNL     1      11.768  17.449  15.048  1.00  0.00     0.276 HD
ATOM     46  H61 UNL     1      12.297  17.911  16.427  1.00  0.00     0.276 HD
ENDBRANCH  42  43
ENDBRANCH  41  42
ENDBRANCH  38  41
ENDBRANCH  37  38
ENDBRANCH  28  33
ENDBRANCH  26  28
ENDBRANCH   1  26
TORSDOF 16
ENDMDL
MODEL 4
REMARK VINA RESULT: -8.376753957      3.176      9.760
REMARK  16 active torsions:
REMARK  status: ('A' for Active; 'I' for Inactive)
REMARK    1  A    between atoms: C2_2  and  C3_3 
REMARK    2  A    between atoms: C3_3  and  C4_4 
REMARK    3  A    between atoms: C4_4  and  O1_5 
REMARK    4  A    between atoms: O1_5  and  C5_6 
REMARK       I    between atoms: C5_6  and  N1_8 
REMARK       I    between atoms: N2_11  and  C8_12 
REMARK    5  A    between atoms: C8_12  and  C9_14 
REMARK    6  A    between atoms: C9_14  and  C10_16 
REMARK    7  A    between atoms: C10_16  and  C11_17 
REMARK    8  A    between atoms: C10_16  and  N3_24 
REMARK    9  A    between atoms: C11_17  and  C12_18 
REMARK   10  A    between atoms: N3_24  and  C18_26 
REMARK   11  A    between atoms: C18_26  and  C19_31 
REMARK   12  A    between atoms: N4_27  and  O5_29 
REMARK   13  A    between atoms: N5_35  and  S1_36 
REMARK   14  A    between atoms: S1_36  and  C23_39 
REMARK   15  A    between atoms: C23_39  and  C24_40 
REMARK   16  A    between atoms: C24_40  and  N6_41 
ROOT
HETATM    1  C10 UNL     1      14.832  21.087  16.639  1.00  0.00     0.163 C 
ENDROOT
BRANCH   1   2
HETATM    2  C9  UNL     1      16.124  21.485  15.977  1.00  0.00     0.239 C 
HETATM    3  O4  UNL     1      16.124  21.508  14.725  1.00  0.00    -0.285 OA
BRANCH   2   4
HETATM    4  C8  UNL     1      17.325  21.832  16.690  1.00  0.00     0.291 C 
HETATM    5  N2  UNL     1      17.754  23.145  17.021  1.00  0.00    -0.342 N 
HETATM    6  C7  UNL     1      17.004  24.271  16.563  1.00  0.00     0.146 C 
HETATM    7  C26 UNL     1      18.964  23.227  17.849  1.00  0.00     0.146 C 
HETATM    8  C6  UNL     1      17.691  25.610  16.747  1.00  0.00     0.148 C 
HETATM    9  N1  UNL     1      18.981  25.534  17.344  1.00  0.00    -0.325 N 
HETATM   10  C5  UNL     1      20.048  26.335  16.865  1.00  0.00     0.362 C 
HETATM   11  C27 UNL     1      19.156  24.599  18.444  1.00  0.00     0.148 C 
HETATM   12  O2  UNL     1      21.191  26.259  17.396  1.00  0.00    -0.238 OA
HETATM   13  O3  UNL     1      18.057  20.828  17.045  1.00  0.00    -0.264 OA
BRANCH  10  14
HETATM   14  O1  UNL     1      19.838  27.206  15.810  1.00  0.00    -0.304 OA
BRANCH  14  15
HETATM   15  C4  UNL     1      20.274  27.132  14.518  1.00  0.00     0.180 C 
BRANCH  15  16
HETATM   16  C3  UNL     1      21.040  28.226  13.939  1.00  0.00     0.026 C 
BRANCH  16  17
HETATM   17  C2  UNL     1      22.485  28.406  14.124  1.00  0.00    -0.002 C 
HETATM   18  C1  UNL     1      22.953  28.950  15.429  1.00  0.00     0.005 C 
ENDBRANCH  16  17
ENDBRANCH  15  16
ENDBRANCH  14  15
ENDBRANCH  10  14
ENDBRANCH   2   4
ENDBRANCH   1   2
BRANCH   1  19
HETATM   19  C11 UNL     1      15.094  19.942  17.538  1.00  0.00     0.038 C 
BRANCH  19  20
HETATM   20  C12 UNL     1      13.920  19.196  18.076  1.00  0.00    -0.012 C 
HETATM   21  C13 UNL     1      13.427  19.953  19.304  1.00  0.00     0.005 C 
HETATM   22  C14 UNL     1      13.664  19.196  20.591  1.00  0.00     0.000 C 
HETATM   23  C15 UNL     1      12.845  17.923  20.636  1.00  0.00     0.000 C 
HETATM   24  C16 UNL     1      12.908  17.308  19.256  1.00  0.00     0.000 C 
HETATM   25  C17 UNL     1      14.150  17.793  18.504  1.00  0.00     0.005 C 
ENDBRANCH  19  20
ENDBRANCH   1  19
BRANCH   1  26
HETATM   26  N3  UNL     1      13.844  20.929  15.634  1.00  0.00    -0.365 N 
ATOM     27  H3  UNL     1      13.847  20.014  15.185  1.00  0.00     0.161 HD
BRANCH  26  28
HETATM   28  C18 UNL     1      12.866  21.804  15.148  1.00  0.00     0.117 C 
HETATM   29  N4  UNL     1      12.846  23.026  14.954  1.00  0.00    -0.256 N 
ATOM     30  H4  UNL     1      11.937  23.301  14.582  1.00  0.00     0.195 HD
BRANCH  29  31
HETATM   31  O5  UNL     1      13.614  24.081  15.071  1.00  0.00    -0.288 OA
ATOM     32  H5  UNL     1      13.671  24.896  15.556  1.00  0.00     0.244 HD
ENDBRANCH  29  31
BRANCH  28  33
HETATM   33  C19 UNL     1      11.554  21.094  14.788  1.00  0.00     0.143 C 
HETATM   34  C20 UNL     1      11.148  21.303  13.375  1.00  0.00     0.030 C 
HETATM   35  C21 UNL     1      11.277  19.942  12.720  1.00  0.00     0.018 C 
HETATM   36  C22 UNL     1      11.921  19.075  13.746  1.00  0.00     0.108 C 
HETATM   37  N5  UNL     1      11.630  19.693  14.982  1.00  0.00    -0.199 NA
BRANCH  37  38
HETATM   38  S1  UNL     1      10.254  19.129  15.816  1.00  0.00     0.213 S 
HETATM   39  O6  UNL     1      10.500  19.368  17.295  1.00  0.00    -0.211 OA
HETATM   40  O7  UNL     1       9.048  19.936  15.444  1.00  0.00    -0.211 OA
BRANCH  38  41
HETATM   41  C23 UNL     1       9.907  17.435  15.560  1.00  0.00     0.185 C 
BRANCH  41  42
HETATM   42  C24 UNL     1      10.419  16.616  16.724  1.00  0.00     0.248 C 
BRANCH  42  43
HETATM   43  N6  UNL     1       9.375  16.410  17.715  1.00  0.00    -0.078 N 
HETATM   44  C25 UNL     1       8.602  15.216  17.412  1.00  0.00     0.267 C 
ATOM     45  H62 UNL     1       9.753  16.384  18.662  1.00  0.00     0.276 HD
ATOM     46  H61 UNL     1       8.778  17.231  17.811  1.00  0.00     0.276 HD
ENDBRANCH  42  43
ENDBRANCH  41  42
ENDBRANCH  38  41
ENDBRANCH  37  38
ENDBRANCH  28  33
ENDBRANCH  26  28
ENDBRANCH   1  26
TORSDOF 16
ENDMDL
MODEL 5
REMARK VINA RESULT: -8.350668414      1.154      1.469
REMARK  16 active torsions:
REMARK  status: ('A' for Active; 'I' for Inactive)
REMARK    1  A    between atoms: C2_2  and  C3_3 
REMARK    2  A    between atoms: C3_3  and  C4_4 
REMARK    3  A    between atoms: C4_4  and  O1_5 
REMARK    4  A    between atoms: O1_5  and  C5_6 
REMARK       I    between atoms: C5_6  and  N1_8 
REMARK       I    between atoms: N2_11  and  C8_12 
REMARK    5  A    between atoms: C8_12  and  C9_14 
REMARK    6  A    between atoms: C9_14  and  C10_16 
REMARK    7  A    between atoms: C10_16  and  C11_17 
REMARK    8  A    between atoms: C10_16  and  N3_24 
REMARK    9  A    between atoms: C11_17  and  C12_18 
REMARK   10  A    between atoms: N3_24  and  C18_26 
REMARK   11  A    between atoms: C18_26  and  C19_31 
REMARK   12  A    between atoms: N4_27  and  O5_29 
REMARK   13  A    between atoms: N5_35  and  S1_36 
REMARK   14  A    between atoms: S1_36  and  C23_39 
REMARK   15  A    between atoms: C23_39  and  C24_40 
REMARK   16  A    between atoms: C24_40  and  N6_41 
ROOT
HETATM    1  C10 UNL     1      16.513  23.017  15.686  1.00  0.00     0.163 C 
ENDROOT
BRANCH   1   2
HETATM    2  C9  UNL     1      16.865  22.166  16.876  1.00  0.00     0.239 C 
HETATM    3  O4  UNL     1      17.926  21.506  16.794  1.00  0.00    -0.285 OA
BRANCH   2   4
HETATM    4  C8  UNL     1      16.068  22.075  18.071  1.00  0.00     0.291 C 
HETATM    5  N2  UNL     1      15.403  20.914  18.549  1.00  0.00    -0.342 N 
HETATM    6  C7  UNL     1      15.427  19.715  17.775  1.00  0.00     0.146 C 
HETATM    7  C26 UNL     1      14.743  21.054  19.854  1.00  0.00     0.146 C 
HETATM    8  C6  UNL     1      14.476  18.633  18.247  1.00  0.00     0.148 C 
HETATM    9  N1  UNL     1      13.702  18.986  19.388  1.00  0.00    -0.325 N 
HETATM   10  C5  UNL     1      12.329  18.640  19.466  1.00  0.00     0.362 C 
HETATM   11  C27 UNL     1      14.370  19.721  20.450  1.00  0.00     0.148 C 
HETATM   12  O2  UNL     1      11.647  18.961  20.479  1.00  0.00    -0.238 OA
HETATM   13  O3  UNL     1      15.970  23.173  18.745  1.00  0.00    -0.264 OA
BRANCH  10  14
HETATM   14  O1  UNL     1      11.731  17.947  18.427  1.00  0.00    -0.304 OA
BRANCH  14  15
HETATM   15  C4  UNL     1      10.568  18.207  17.762  1.00  0.00     0.180 C 
BRANCH  15  16
HETATM   16  C3  UNL     1      10.519  19.254  16.750  1.00  0.00     0.026 C 
BRANCH  16  17
HETATM   17  C2  UNL     1       9.941  19.076  15.413  1.00  0.00    -0.002 C 
HETATM   18  C1  UNL     1      10.600  18.103  14.498  1.00  0.00     0.005 C 
ENDBRANCH  16  17
ENDBRANCH  15  16
ENDBRANCH  14  15
ENDBRANCH  10  14
ENDBRANCH   2   4
ENDBRANCH   1   2
BRANCH   1  19
HETATM   19  C11 UNL     1      16.405  22.144  14.496  1.00  0.00     0.038 C 
BRANCH  19  20
HETATM   20  C12 UNL     1      15.066  22.006  13.854  1.00  0.00    -0.012 C 
HETATM   21  C13 UNL     1      14.181  23.116  14.408  1.00  0.00     0.005 C 
HETATM   22  C14 UNL     1      13.077  22.595  15.300  1.00  0.00     0.000 C 
HETATM   23  C15 UNL     1      12.095  21.749  14.515  1.00  0.00     0.000 C 
HETATM   24  C16 UNL     1      12.906  20.896  13.566  1.00  0.00     0.000 C 
HETATM   25  C17 UNL     1      14.339  20.731  14.077  1.00  0.00     0.005 C 
ENDBRANCH  19  20
ENDBRANCH   1  19
BRANCH   1  26
HETATM   26  N3  UNL     1      17.420  24.106  15.630  1.00  0.00    -0.365 N 
ATOM     27  H3  UNL     1      17.769  24.311  14.694  1.00  0.00     0.161 HD
BRANCH  26  28
HETATM   28  C18 UNL     1      17.921  24.949  16.628  1.00  0.00     0.117 C 
HETATM   29  N4  UNL     1      17.383  25.602  17.532  1.00  0.00    -0.256 N 
ATOM     30  H4  UNL     1      18.094  26.100  18.067  1.00  0.00     0.195 HD
BRANCH  29  31
HETATM   31  O5  UNL     1      16.197  25.860  18.024  1.00  0.00    -0.288 OA
ATOM     32  H5  UNL     1      15.516  26.522  17.987  1.00  0.00     0.244 HD
ENDBRANCH  29  31
BRANCH  28  33
HETATM   33  C19 UNL     1      19.448  25.088  16.583  1.00  0.00     0.143 C 
HETATM   34  C20 UNL     1      20.057  24.438  15.396  1.00  0.00     0.030 C 
HETATM   35  C21 UNL     1      20.604  25.576  14.557  1.00  0.00     0.018 C 
HETATM   36  C22 UNL     1      20.119  26.818  15.220  1.00  0.00     0.108 C 
HETATM   37  N5  UNL     1      19.864  26.442  16.557  1.00  0.00    -0.199 NA
BRANCH  37  38
HETATM   38  S1  UNL     1      21.121  26.704  17.680  1.00  0.00     0.213 S 
HETATM   39  O6  UNL     1      20.700  27.869  18.558  1.00  0.00    -0.211 OA
HETATM   40  O7  UNL     1      21.273  25.517  18.582  1.00  0.00    -0.211 OA
BRANCH  38  41
HETATM   41  C23 UNL     1      22.667  27.066  16.950  1.00  0.00     0.185 C 
BRANCH  41  42
HETATM   42  C24 UNL     1      23.789  26.689  17.890  1.00  0.00     0.248 C 
BRANCH  42  43
HETATM   43  N6  UNL     1      23.530  27.178  19.236  1.00  0.00    -0.078 N 
HETATM   44  C25 UNL     1      24.135  26.305  20.229  1.00  0.00     0.267 C 
ATOM     45  H62 UNL     1      23.831  28.145  19.350  1.00  0.00     0.276 HD
ATOM     46  H61 UNL     1      22.532  27.306  19.404  1.00  0.00     0.276 HD
ENDBRANCH  42  43
ENDBRANCH  41  42
ENDBRANCH  38  41
ENDBRANCH  37  38
ENDBRANCH  28  33
ENDBRANCH  26  28
ENDBRANCH   1  26
TORSDOF 16
ENDMDL
