MODEL 1
REMARK VINA RESULT: -6.761102949      0.000      0.000
REMARK  6 active torsions:
REMARK  status: ('A' for Active; 'I' for Inactive)
REMARK    1  A    between atoms: C2_2  and  S1_4 
REMARK    2  A    between atoms: S1_4  and  C4_5 
REMARK    3  A    between atoms: C6_7  and  C7_8 
REMARK    4  A    between atoms: C7_8  and  N1_9 
REMARK    5  A    between atoms: C7_8  and  O1_13 
REMARK    6  A    between atoms: C8_18  and  C9_19 
ROOT
HETATM    1  C4  UNL     1      16.563   5.063  13.761  1.00  0.00     0.051 C 
HETATM    2  C5  UNL     1      17.022   4.188  12.597  1.00  0.00     0.052 C 
HETATM    3  C6  UNL     1      16.349   2.844  12.862  1.00  0.00     0.243 C 
HETATM    4  N2  UNL     1      16.993   2.289  14.020  1.00  0.00    -0.062 N 
ATOM      5  H21 UNL     1      17.995   2.188  13.861  1.00  0.00     0.278 HD
ATOM      6  H22 UNL     1      16.739   1.308  14.138  1.00  0.00     0.278 HD
HETATM    7  C8  UNL     1      16.740   3.033  15.237  1.00  0.00     0.191 C 
HETATM    8  C14 UNL     1      17.136   4.454  15.010  1.00  0.00     0.048 C 
ENDROOT
BRANCH   3   9
HETATM    9  C7  UNL     1      16.487   1.898  11.708  1.00  0.00     0.347 C 
BRANCH   9  10
HETATM   10  N1  UNL     1      16.707   0.527  12.159  1.00  0.00    -0.051 N 
ATOM     11  H13 UNL     1      17.699   0.289  12.153  1.00  0.00     0.277 HD
ATOM     12  H12 UNL     1      16.526   0.431  13.158  1.00  0.00     0.277 HD
ATOM     13  H11 UNL     1      16.160  -0.140  11.616  1.00  0.00     0.277 HD
ENDBRANCH   9  10
BRANCH   9  14
HETATM   14  O1  UNL     1      15.440   1.971  10.801  1.00  0.00    -0.368 OA
ATOM     15  H1  UNL     1      15.709   1.846   9.898  1.00  0.00     0.212 HD
ENDBRANCH   9  14
ENDBRANCH   3   9
BRANCH   1  16
HETATM   16  S1  UNL     1      17.076   6.771  13.583  1.00  0.00    -0.160 SA
BRANCH  16  17
HETATM   17  C2  UNL     1      18.794   7.057  14.042  1.00  0.00     0.039 C 
HETATM   18  C1  UNL     1      19.653   6.832  12.823  1.00  0.00     0.021 C 
HETATM   19  C3  UNL     1      18.876   8.501  14.525  1.00  0.00     0.021 C 
ENDBRANCH  16  17
ENDBRANCH   1  16
BRANCH   7  20
HETATM   20  C9  UNL     1      15.393   2.806  15.818  1.00  0.00     0.016 C 
HETATM   21  C10 UNL     1      15.423   1.849  17.005  1.00  0.00     0.007 C 
HETATM   22  C11 UNL     1      14.851   2.677  18.150  1.00  0.00     0.000 C 
HETATM   23  C12 UNL     1      13.786   3.465  17.396  1.00  0.00     0.000 C 
HETATM   24  C13 UNL     1      14.637   4.010  16.252  1.00  0.00     0.007 C 
ENDBRANCH   7  20
TORSDOF 6
ENDMDL
MODEL 2
REMARK VINA RESULT: -6.682498168      1.130      1.188
REMARK  6 active torsions:
REMARK  status: ('A' for Active; 'I' for Inactive)
REMARK    1  A    between atoms: C2_2  and  S1_4 
REMARK    2  A    between atoms: S1_4  and  C4_5 
REMARK    3  A    between atoms: C6_7  and  C7_8 
REMARK    4  A    between atoms: C7_8  and  N1_9 
REMARK    5  A    between atoms: C7_8  and  O1_13 
REMARK    6  A    between atoms: C8_18  and  C9_19 
ROOT
HETATM    1  C4  UNL     1      16.808   5.239  13.995  1.00  0.00     0.051 C 
HETATM    2  C5  UNL     1      17.167   4.431  12.751  1.00  0.00     0.052 C 
HETATM    3  C6  UNL     1      16.355   3.148  12.902  1.00  0.00     0.243 C 
HETATM    4  N2  UNL     1      16.941   2.423  13.995  1.00  0.00    -0.062 N 
ATOM      5  H21 UNL     1      17.925   2.231  13.814  1.00  0.00     0.278 HD
ATOM      6  H22 UNL     1      16.584   1.468  14.027  1.00  0.00     0.278 HD
HETATM    7  C8  UNL     1      16.773   3.075  15.278  1.00  0.00     0.191 C 
HETATM    8  C14 UNL     1      17.317   4.461  15.176  1.00  0.00     0.048 C 
ENDROOT
BRANCH   3   9
HETATM    9  C7  UNL     1      16.387   2.302  11.664  1.00  0.00     0.347 C 
BRANCH   9  10
HETATM   10  N1  UNL     1      16.594   0.892  11.981  1.00  0.00    -0.051 N 
ATOM     11  H13 UNL     1      17.218   0.778  12.780  1.00  0.00     0.277 HD
ATOM     12  H12 UNL     1      15.752   0.472  12.375  1.00  0.00     0.277 HD
ATOM     13  H11 UNL     1      16.926   0.370  11.171  1.00  0.00     0.277 HD
ENDBRANCH   9  10
BRANCH   9  14
HETATM   14  O1  UNL     1      15.286   2.481  10.840  1.00  0.00    -0.368 OA
ATOM     15  H1  UNL     1      14.475   2.154  11.212  1.00  0.00     0.212 HD
ENDBRANCH   9  14
ENDBRANCH   3   9
BRANCH   1  16
HETATM   16  S1  UNL     1      17.500   6.892  13.968  1.00  0.00    -0.160 SA
BRANCH  16  17
HETATM   17  C2  UNL     1      17.562   7.618  12.321  1.00  0.00     0.039 C 
HETATM   18  C1  UNL     1      16.152   7.928  11.887  1.00  0.00     0.021 C 
HETATM   19  C3  UNL     1      18.402   8.885  12.441  1.00  0.00     0.021 C 
ENDBRANCH  16  17
ENDBRANCH   1  16
BRANCH   7  20
HETATM   20  C9  UNL     1      15.412   2.939  15.855  1.00  0.00     0.016 C 
HETATM   21  C10 UNL     1      15.365   1.953  17.016  1.00  0.00     0.007 C 
HETATM   22  C11 UNL     1      14.858   2.793  18.182  1.00  0.00     0.000 C 
HETATM   23  C12 UNL     1      13.859   3.681  17.450  1.00  0.00     0.000 C 
HETATM   24  C13 UNL     1      14.752   4.187  16.320  1.00  0.00     0.007 C 
ENDBRANCH   7  20
TORSDOF 6
ENDMDL
MODEL 3
REMARK VINA RESULT: -6.456996280      0.909      1.129
REMARK  6 active torsions:
REMARK  status: ('A' for Active; 'I' for Inactive)
REMARK    1  A    between atoms: C2_2  and  S1_4 
REMARK    2  A    between atoms: S1_4  and  C4_5 
REMARK    3  A    between atoms: C6_7  and  C7_8 
REMARK    4  A    between atoms: C7_8  and  N1_9 
REMARK    5  A    between atoms: C7_8  and  O1_13 
REMARK    6  A    between atoms: C8_18  and  C9_19 
ROOT
HETATM    1  C4  UNL     1      17.467   4.716  14.271  1.00  0.00     0.051 C 
HETATM    2  C5  UNL     1      17.625   3.987  12.940  1.00  0.00     0.052 C 
HETATM    3  C6  UNL     1      16.438   3.030  12.903  1.00  0.00     0.243 C 
HETATM    4  N2  UNL     1      16.690   2.031  13.905  1.00  0.00    -0.062 N 
ATOM      5  H21 UNL     1      17.571   1.552  13.721  1.00  0.00     0.278 HD
ATOM      6  H22 UNL     1      16.045   1.247  13.803  1.00  0.00     0.278 HD
HETATM    7  C8  UNL     1      16.660   2.547  15.258  1.00  0.00     0.191 C 
HETATM    8  C14 UNL     1      17.624   3.683  15.351  1.00  0.00     0.048 C 
ENDROOT
BRANCH   3   9
HETATM    9  C7  UNL     1      16.276   2.371  11.567  1.00  0.00     0.347 C 
BRANCH   9  10
HETATM   10  N1  UNL     1      16.412   0.920  11.662  1.00  0.00    -0.051 N 
ATOM     11  H13 UNL     1      16.729   0.637  12.588  1.00  0.00     0.277 HD
ATOM     12  H12 UNL     1      15.502   0.460  11.657  1.00  0.00     0.277 HD
ATOM     13  H11 UNL     1      17.019   0.551  10.930  1.00  0.00     0.277 HD
ENDBRANCH   9  10
BRANCH   9  14
HETATM   14  O1  UNL     1      15.109   2.728  10.908  1.00  0.00    -0.368 OA
ATOM     15  H1  UNL     1      15.248   3.008  10.011  1.00  0.00     0.212 HD
ENDBRANCH   9  14
ENDBRANCH   3   9
BRANCH   1  16
HETATM   16  S1  UNL     1      18.652   6.046  14.476  1.00  0.00    -0.160 SA
BRANCH  16  17
HETATM   17  C2  UNL     1      17.956   7.680  14.182  1.00  0.00     0.039 C 
HETATM   18  C1  UNL     1      18.959   8.710  14.640  1.00  0.00     0.021 C 
HETATM   19  C3  UNL     1      17.702   7.777  12.682  1.00  0.00     0.021 C 
ENDBRANCH  16  17
ENDBRANCH   1  16
BRANCH   7  20
HETATM   20  C9  UNL     1      15.293   2.796  15.782  1.00  0.00     0.016 C 
HETATM   21  C10 UNL     1      14.964   1.927  16.991  1.00  0.00     0.007 C 
HETATM   22  C11 UNL     1      14.655   2.939  18.088  1.00  0.00     0.000 C 
HETATM   23  C12 UNL     1      13.937   4.003  17.268  1.00  0.00     0.000 C 
HETATM   24  C13 UNL     1      14.960   4.196  16.152  1.00  0.00     0.007 C 
ENDBRANCH   7  20
TORSDOF 6
ENDMDL
MODEL 4
REMARK VINA RESULT: -6.246243210      1.241      1.253
REMARK  6 active torsions:
REMARK  status: ('A' for Active; 'I' for Inactive)
REMARK    1  A    between atoms: C2_2  and  S1_4 
REMARK    2  A    between atoms: S1_4  and  C4_5 
REMARK    3  A    between atoms: C6_7  and  C7_8 
REMARK    4  A    between atoms: C7_8  and  N1_9 
REMARK    5  A    between atoms: C7_8  and  O1_13 
REMARK    6  A    between atoms: C8_18  and  C9_19 
ROOT
HETATM    1  C4  UNL     1      16.690   5.170  14.188  1.00  0.00     0.051 C 
HETATM    2  C5  UNL     1      16.916   4.581  12.798  1.00  0.00     0.052 C 
HETATM    3  C6  UNL     1      16.086   3.301  12.803  1.00  0.00     0.243 C 
HETATM    4  N2  UNL     1      16.745   2.394  13.701  1.00  0.00    -0.062 N 
ATOM      5  H21 UNL     1      17.705   2.224  13.402  1.00  0.00     0.278 HD
ATOM      6  H22 UNL     1      16.367   1.451  13.604  1.00  0.00     0.278 HD
HETATM    7  C8  UNL     1      16.709   2.819  15.086  1.00  0.00     0.191 C 
HETATM    8  C14 UNL     1      17.279   4.196  15.170  1.00  0.00     0.048 C 
ENDROOT
BRANCH   3   9
HETATM    9  C7  UNL     1      15.987   2.678  11.444  1.00  0.00     0.347 C 
BRANCH   9  10
HETATM   10  N1  UNL     1      16.499   3.567  10.406  1.00  0.00    -0.051 N 
ATOM     11  H13 UNL     1      15.742   3.970   9.853  1.00  0.00     0.277 HD
ATOM     12  H12 UNL     1      16.879   4.426  10.805  1.00  0.00     0.277 HD
ATOM     13  H11 UNL     1      17.184   3.098   9.814  1.00  0.00     0.277 HD
ENDBRANCH   9  10
BRANCH   9  14
HETATM   14  O1  UNL     1      16.565   1.420  11.364  1.00  0.00    -0.368 OA
ATOM     15  H1  UNL     1      16.927   1.221  10.509  1.00  0.00     0.212 HD
ENDBRANCH   9  14
ENDBRANCH   3   9
BRANCH   1  16
HETATM   16  S1  UNL     1      17.421   6.796  14.376  1.00  0.00    -0.160 SA
BRANCH  16  17
HETATM   17  C2  UNL     1      18.310   7.357  12.915  1.00  0.00     0.039 C 
HETATM   18  C1  UNL     1      17.386   8.234  12.107  1.00  0.00     0.021 C 
HETATM   19  C3  UNL     1      19.520   8.137  13.420  1.00  0.00     0.021 C 
ENDBRANCH  16  17
ENDBRANCH   1  16
BRANCH   7  20
HETATM   20  C9  UNL     1      15.400   2.604  15.752  1.00  0.00     0.016 C 
HETATM   21  C10 UNL     1      15.493   1.630  16.922  1.00  0.00     0.007 C 
HETATM   22  C11 UNL     1      15.012   2.449  18.113  1.00  0.00     0.000 C 
HETATM   23  C12 UNL     1      13.912   3.263  17.443  1.00  0.00     0.000 C 
HETATM   24  C13 UNL     1      14.693   3.813  16.252  1.00  0.00     0.007 C 
ENDBRANCH   7  20
TORSDOF 6
ENDMDL
MODEL 5
REMARK VINA RESULT: -6.228450580      1.761      5.324
REMARK  6 active torsions:
REMARK  status: ('A' for Active; 'I' for Inactive)
REMARK    1  A    between atoms: C2_2  and  S1_4 
REMARK    2  A    between atoms: S1_4  and  C4_5 
REMARK    3  A    between atoms: C6_7  and  C7_8 
REMARK    4  A    between atoms: C7_8  and  N1_9 
REMARK    5  A    between atoms: C7_8  and  O1_13 
REMARK    6  A    between atoms: C8_18  and  C9_19 
ROOT
HETATM    1  C4  UNL     1      15.667   4.575  15.191  1.00  0.00     0.051 C 
HETATM    2  C5  UNL     1      15.456   3.559  14.071  1.00  0.00     0.052 C 
HETATM    3  C6  UNL     1      16.595   3.846  13.098  1.00  0.00     0.243 C 
HETATM    4  N2  UNL     1      16.308   5.121  12.501  1.00  0.00    -0.062 N 
ATOM      5  H21 UNL     1      15.402   5.103  12.032  1.00  0.00     0.278 HD
ATOM      6  H22 UNL     1      16.912   5.287  11.696  1.00  0.00     0.278 HD
HETATM    7  C8  UNL     1      16.380   6.228  13.433  1.00  0.00     0.191 C 
HETATM    8  C14 UNL     1      15.473   5.935  14.582  1.00  0.00     0.048 C 
ENDROOT
BRANCH   3   9
HETATM    9  C7  UNL     1      16.708   2.804  12.026  1.00  0.00     0.347 C 
BRANCH   9  10
HETATM   10  N1  UNL     1      17.158   1.524  12.566  1.00  0.00    -0.051 N 
ATOM     11  H13 UNL     1      17.826   1.655  13.326  1.00  0.00     0.277 HD
ATOM     12  H12 UNL     1      16.414   1.058  13.086  1.00  0.00     0.277 HD
ATOM     13  H11 UNL     1      17.536   0.921  11.837  1.00  0.00     0.277 HD
ENDBRANCH   9  10
BRANCH   9  14
HETATM   14  O1  UNL     1      15.556   2.658  11.268  1.00  0.00    -0.368 OA
ATOM     15  H1  UNL     1      15.695   2.197  10.449  1.00  0.00     0.212 HD
ENDBRANCH   9  14
ENDBRANCH   3   9
BRANCH   1  16
HETATM   16  S1  UNL     1      14.550   4.323  16.570  1.00  0.00    -0.160 SA
BRANCH  16  17
HETATM   17  C2  UNL     1      14.843   2.785  17.461  1.00  0.00     0.039 C 
HETATM   18  C1  UNL     1      14.787   3.077  18.940  1.00  0.00     0.021 C 
HETATM   19  C3  UNL     1      13.736   1.826  17.038  1.00  0.00     0.021 C 
ENDBRANCH  16  17
ENDBRANCH   1  16
BRANCH   7  20
HETATM   20  C9  UNL     1      17.764   6.645  13.773  1.00  0.00     0.016 C 
HETATM   21  C10 UNL     1      18.539   7.141  12.557  1.00  0.00     0.007 C 
HETATM   22  C11 UNL     1      18.919   8.569  12.930  1.00  0.00     0.000 C 
HETATM   23  C12 UNL     1      19.201   8.385  14.416  1.00  0.00     0.000 C 
HETATM   24  C13 UNL     1      17.914   7.676  14.832  1.00  0.00     0.007 C 
ENDBRANCH   7  20
TORSDOF 6
ENDMDL
