MODEL 1
REMARK VINA RESULT: -5.233621915      0.000      0.000
REMARK  1 active torsions:
REMARK  status: ('A' for Active; 'I' for Inactive)
REMARK       I    between atoms: N2_3  and  C2_5 
REMARK       I    between atoms: C2_5  and  N4_10 
REMARK    1  A    between atoms: N3_6  and  C3_8 
ROOT
HETATM    1  N1  UNL     1      12.109  20.280  32.636  1.00  0.00    -0.171 NA
HETATM    2  C1  UNL     1      11.412  20.953  31.993  1.00  0.00     0.196 C 
HETATM    3  N2  UNL     1      10.561  21.750  31.235  1.00  0.00    -0.125 N 
ATOM      4  H2  UNL     1      10.859  22.014  30.295  1.00  0.00     0.197 HD
HETATM    5  C2  UNL     1       9.305  22.216  31.691  1.00  0.00     0.702 C 
HETATM    6  N3  UNL     1       8.364  21.359  31.803  1.00  0.00    -0.166 N 
ATOM      7  H3  UNL     1       8.588  20.395  31.554  1.00  0.00     0.186 HD
HETATM    8  N4  UNL     1       9.129  23.605  32.008  1.00  0.00    -0.125 N 
ATOM      9  H4  UNL     1       9.035  24.295  31.263  1.00  0.00     0.197 HD
HETATM   10  C4  UNL     1       9.087  24.001  33.348  1.00  0.00     0.196 C 
HETATM   11  N5  UNL     1       9.067  24.340  34.460  1.00  0.00    -0.171 NA
ENDROOT
BRANCH   6  12
HETATM   12  C3  UNL     1       7.057  21.613  32.235  1.00  0.00     0.368 C 
HETATM   13  O1  UNL     1       6.288  22.251  31.461  1.00  0.00    -0.283 OA
ENDBRANCH   6  12
TORSDOF 1
ENDMDL
MODEL 2
REMARK VINA RESULT: -4.606635635      6.455      8.133
REMARK  1 active torsions:
REMARK  status: ('A' for Active; 'I' for Inactive)
REMARK       I    between atoms: N2_3  and  C2_5 
REMARK       I    between atoms: C2_5  and  N4_10 
REMARK    1  A    between atoms: N3_6  and  C3_8 
ROOT
HETATM    1  N1  UNL     1       9.310  15.008  30.134  1.00  0.00    -0.171 NA
HETATM    2  C1  UNL     1       9.438  15.722  29.225  1.00  0.00     0.196 C 
HETATM    3  N2  UNL     1       9.608  16.586  28.149  1.00  0.00    -0.125 N 
ATOM      4  H2  UNL     1       8.801  16.777  27.554  1.00  0.00     0.197 HD
HETATM    5  C2  UNL     1      10.835  17.215  27.832  1.00  0.00     0.702 C 
HETATM    6  N3  UNL     1      11.239  18.144  28.611  1.00  0.00    -0.166 N 
ATOM      7  H3  UNL     1      10.644  18.365  29.410  1.00  0.00     0.186 HD
HETATM    8  N4  UNL     1      11.572  16.803  26.672  1.00  0.00    -0.125 N 
ATOM      9  H4  UNL     1      11.266  17.085  25.740  1.00  0.00     0.197 HD
HETATM   10  C4  UNL     1      12.712  16.010  26.832  1.00  0.00     0.196 C 
HETATM   11  N5  UNL     1      13.653  15.337  26.957  1.00  0.00    -0.171 NA
ENDROOT
BRANCH   6  12
HETATM   12  C3  UNL     1      12.417  18.887  28.475  1.00  0.00     0.368 C 
HETATM   13  O1  UNL     1      12.595  19.531  27.402  1.00  0.00    -0.283 OA
ENDBRANCH   6  12
TORSDOF 1
ENDMDL
MODEL 3
REMARK VINA RESULT: -4.550073156      1.727      2.689
REMARK  1 active torsions:
REMARK  status: ('A' for Active; 'I' for Inactive)
REMARK       I    between atoms: N2_3  and  C2_5 
REMARK       I    between atoms: C2_5  and  N4_10 
REMARK    1  A    between atoms: N3_6  and  C3_8 
ROOT
HETATM    1  N1  UNL     1      11.833  19.844  30.385  1.00  0.00    -0.171 NA
HETATM    2  C1  UNL     1      11.445  20.584  31.194  1.00  0.00     0.196 C 
HETATM    3  N2  UNL     1      10.970  21.479  32.146  1.00  0.00    -0.125 N 
ATOM      4  H2  UNL     1      11.532  21.634  32.984  1.00  0.00     0.197 HD
HETATM    5  C2  UNL     1       9.752  22.188  32.020  1.00  0.00     0.702 C 
HETATM    6  N3  UNL     1       9.702  23.123  31.151  1.00  0.00    -0.166 N 
ATOM      7  H3  UNL     1      10.549  23.291  30.607  1.00  0.00     0.186 HD
HETATM    8  N4  UNL     1       8.634  21.845  32.853  1.00  0.00    -0.125 N 
ATOM      9  H4  UNL     1       8.617  22.128  33.833  1.00  0.00     0.197 HD
HETATM   10  C4  UNL     1       7.571  21.120  32.307  1.00  0.00     0.196 C 
HETATM   11  N5  UNL     1       6.691  20.503  31.863  1.00  0.00    -0.171 NA
ENDROOT
BRANCH   6  12
HETATM   12  C3  UNL     1       8.599  23.939  30.870  1.00  0.00     0.368 C 
HETATM   13  O1  UNL     1       7.885  24.326  31.838  1.00  0.00    -0.283 OA
ENDBRANCH   6  12
TORSDOF 1
ENDMDL
MODEL 4
REMARK VINA RESULT: -4.512144333      2.411      3.406
REMARK  1 active torsions:
REMARK  status: ('A' for Active; 'I' for Inactive)
REMARK       I    between atoms: N2_3  and  C2_5 
REMARK       I    between atoms: C2_5  and  N4_10 
REMARK    1  A    between atoms: N3_6  and  C3_8 
ROOT
HETATM    1  N1  UNL     1       8.908  18.608  30.066  1.00  0.00    -0.171 NA
HETATM    2  C1  UNL     1       8.830  19.288  31.005  1.00  0.00     0.196 C 
HETATM    3  N2  UNL     1       8.739  20.120  32.116  1.00  0.00    -0.125 N 
ATOM      4  H2  UNL     1       9.052  19.756  33.016  1.00  0.00     0.197 HD
HETATM    5  C2  UNL     1       8.236  21.442  32.069  1.00  0.00     0.702 C 
HETATM    6  N3  UNL     1       8.959  22.326  31.496  1.00  0.00    -0.166 N 
ATOM      7  H3  UNL     1       9.850  22.013  31.111  1.00  0.00     0.186 HD
HETATM    8  N4  UNL     1       6.961  21.744  32.654  1.00  0.00    -0.125 N 
ATOM      9  H4  UNL     1       6.862  21.817  33.667  1.00  0.00     0.197 HD
HETATM   10  C4  UNL     1       5.855  21.937  31.821  1.00  0.00     0.196 C 
HETATM   11  N5  UNL     1       4.928  22.083  31.134  1.00  0.00    -0.171 NA
ENDROOT
BRANCH   6  12
HETATM   12  C3  UNL     1       8.646  23.682  31.344  1.00  0.00     0.368 C 
HETATM   13  O1  UNL     1       8.334  24.340  32.377  1.00  0.00    -0.283 OA
ENDBRANCH   6  12
TORSDOF 1
ENDMDL
MODEL 5
REMARK VINA RESULT: -4.505231456      7.529      8.939
REMARK  1 active torsions:
REMARK  status: ('A' for Active; 'I' for Inactive)
REMARK       I    between atoms: N2_3  and  C2_5 
REMARK       I    between atoms: C2_5  and  N4_10 
REMARK    1  A    between atoms: N3_6  and  C3_8 
ROOT
HETATM    1  N1  UNL     1      14.320  19.739  25.301  1.00  0.00    -0.171 NA
HETATM    2  C1  UNL     1      13.612  18.826  25.170  1.00  0.00     0.196 C 
HETATM    3  N2  UNL     1      12.778  17.722  25.029  1.00  0.00    -0.125 N 
ATOM      4  H2  UNL     1      12.325  17.574  24.127  1.00  0.00     0.197 HD
HETATM    5  C2  UNL     1      12.520  16.794  26.066  1.00  0.00     0.702 C 
HETATM    6  N3  UNL     1      13.468  16.004  26.398  1.00  0.00    -0.166 N 
ATOM      7  H3  UNL     1      14.347  16.102  25.889  1.00  0.00     0.186 HD
HETATM    8  N4  UNL     1      11.232  16.766  26.698  1.00  0.00    -0.125 N 
ATOM      9  H4  UNL     1      10.433  16.349  26.220  1.00  0.00     0.197 HD
HETATM   10  C4  UNL     1      11.084  17.317  27.974  1.00  0.00     0.196 C 
HETATM   11  N5  UNL     1      10.951  17.788  29.029  1.00  0.00    -0.171 NA
ENDROOT
BRANCH   6  12
HETATM   12  C3  UNL     1      13.419  15.020  27.392  1.00  0.00     0.368 C 
HETATM   13  O1  UNL     1      12.757  13.969  27.156  1.00  0.00    -0.283 OA
ENDBRANCH   6  12
TORSDOF 1
ENDMDL
