MODEL 1
REMARK VINA RESULT: -9.514166789      0.000      0.000
REMARK  14 active torsions:
REMARK  status: ('A' for Active; 'I' for Inactive)
REMARK    1  A    between atoms: N1_1  and  C1_4 
REMARK    2  A    between atoms: C2_7  and  N3_8 
REMARK    3  A    between atoms: C4_14  and  C5_15 
REMARK    4  A    between atoms: C5_15  and  N5_16 
REMARK    5  A    between atoms: N5_16  and  C6_17 
REMARK    6  A    between atoms: N5_16  and  C12_25 
REMARK    7  A    between atoms: C6_17  and  C7_18 
REMARK    8  A    between atoms: C7_18  and  N6_19 
REMARK    9  A    between atoms: C12_25  and  C13_26 
REMARK   10  A    between atoms: N7_28  and  C15_29 
REMARK   11  A    between atoms: C16_31  and  C17_32 
REMARK   12  A    between atoms: C17_32  and  O3_33 
REMARK   13  A    between atoms: N8_36  and  N9_37 
REMARK   14  A    between atoms: N9_37  and  O4_39 
ROOT
HETATM    1  N5  UNL     1     102.276 -22.342 -16.148  1.00  0.00    -0.379 N 
ENDROOT
BRANCH   1   2
HETATM    2  C5  UNL     1     101.097 -22.008 -16.771  1.00  0.00     0.117 C 
BRANCH   2   3
HETATM    3  C4  UNL     1      99.826 -22.538 -16.280  1.00  0.00     0.063 A 
HETATM    4  N4  UNL     1      98.919 -22.996 -17.159  1.00  0.00    -0.348 N 
HETATM    5  C3  UNL     1      97.732 -23.503 -16.776  1.00  0.00     0.122 A 
ATOM      6  H4  UNL     1      99.139 -22.959 -18.154  1.00  0.00     0.166 HD
HETATM    7  C2  UNL     1      96.787 -23.991 -17.660  1.00  0.00     0.145 A 
HETATM    8  C23 UNL     1      97.420 -23.558 -15.422  1.00  0.00     0.151 A 
HETATM    9  N2  UNL     1      95.614 -24.497 -17.241  1.00  0.00    -0.175 N 
HETATM   10  C1  UNL     1      95.316 -24.549 -15.933  1.00  0.00     0.679 A 
ATOM     11  H2  UNL     1      94.943 -24.846 -17.926  1.00  0.00     0.186 HD
HETATM   12  N11 UNL     1      96.231 -24.075 -15.062  1.00  0.00    -0.174 N 
ATOM     13  H11 UNL     1      96.008 -24.111 -14.067  1.00  0.00     0.186 HD
HETATM   14  N10 UNL     1      98.316 -23.103 -14.530  1.00  0.00    -0.348 N 
HETATM   15  C22 UNL     1      99.514 -22.595 -14.946  1.00  0.00     0.120 A 
ATOM     16  H10 UNL     1      98.100 -23.137 -13.533  1.00  0.00     0.167 HD
BRANCH   7  17
HETATM   17  N3  UNL     1      97.009 -23.969 -18.932  1.00  0.00    -0.383 N 
ATOM     18  H32 UNL     1      97.132 -23.081 -19.419  1.00  0.00     0.157 HD
ATOM     19  H31 UNL     1      97.051 -24.863 -19.420  1.00  0.00     0.157 HD
ENDBRANCH   7  17
BRANCH  10  20
HETATM   20  N1  UNL     1      94.203 -25.041 -15.513  1.00  0.00    -0.234 N 
ATOM     21  H12 UNL     1      93.601 -25.576 -16.139  1.00  0.00     0.174 HD
ATOM     22  H11 UNL     1      93.887 -24.907 -14.552  1.00  0.00     0.174 HD
ENDBRANCH  10  20
ENDBRANCH   2   3
ENDBRANCH   1   2
BRANCH   1  23
HETATM   23  C6  UNL     1     102.988 -21.433 -15.335  1.00  0.00     0.167 C 
BRANCH  23  24
HETATM   24  C7  UNL     1     102.525 -20.011 -15.656  1.00  0.00     0.078 C 
BRANCH  24  25
HETATM   25  N6  UNL     1     101.833 -19.354 -14.642  1.00  0.00    -0.388 N 
HETATM   26  C8  UNL     1     101.998 -19.697 -13.293  1.00  0.00     0.148 C 
HETATM   27  C9  UNL     1     100.590 -19.725 -12.658  1.00  0.00     0.187 C 
HETATM   28  O1  UNL     1     100.053 -18.438 -12.596  1.00  0.00    -0.388 OA
HETATM   29  C10 UNL     1     100.019 -17.867 -13.849  1.00  0.00     0.187 C 
HETATM   30  C11 UNL     1     100.594 -18.741 -14.943  1.00  0.00     0.148 C 
ENDBRANCH  24  25
ENDBRANCH  23  24
ENDBRANCH   1  23
BRANCH   1  31
HETATM   31  C12 UNL     1     102.977 -23.550 -16.448  1.00  0.00     0.165 C 
BRANCH  31  32
HETATM   32  C13 UNL     1     104.169 -23.247 -17.284  1.00  0.00     0.013 A 
HETATM   33  C14 UNL     1     105.498 -23.371 -16.860  1.00  0.00     0.109 A 
HETATM   34  N7  UNL     1     106.331 -23.090 -17.873  1.00  0.00    -0.289 N 
HETATM   35  C19 UNL     1     105.566 -22.782 -18.946  1.00  0.00     0.185 A 
HETATM   36  C20 UNL     1     104.233 -22.877 -18.592  1.00  0.00     0.132 A 
HETATM   37  O6  UNL     1     105.618 -22.392 -20.306  1.00  0.00    -0.307 OA
HETATM   38  O5  UNL     1     103.509 -22.555 -19.720  1.00  0.00    -0.321 OA
HETATM   39  C21 UNL     1     104.350 -21.898 -20.673  1.00  0.00     0.353 C 
BRANCH  34  40
HETATM   40  C15 UNL     1     107.788 -23.120 -17.927  1.00  0.00     0.356 C 
HETATM   41  O2  UNL     1     108.325 -22.223 -17.026  1.00  0.00    -0.338 OA
HETATM   42  C16 UNL     1     109.395 -22.767 -16.368  1.00  0.00     0.169 C 
HETATM   43  C18 UNL     1     109.531 -24.207 -16.837  1.00  0.00     0.183 C 
HETATM   44  N8  UNL     1     108.294 -24.400 -17.530  1.00  0.00    -0.259 N 
BRANCH  42  45
HETATM   45  C17 UNL     1     110.671 -22.069 -16.807  1.00  0.00     0.197 C 
BRANCH  45  46
HETATM   46  O3  UNL     1     111.023 -21.021 -15.976  1.00  0.00    -0.398 OA
ATOM     47  H3  UNL     1     111.608 -20.399 -16.395  1.00  0.00     0.209 HD
ENDBRANCH  45  46
ENDBRANCH  42  45
BRANCH  44  48
HETATM   48  N9  UNL     1     107.703 -25.628 -17.769  1.00  0.00    -0.209 N 
ATOM     49  H9  UNL     1     107.581 -25.951 -18.728  1.00  0.00     0.215 HD
BRANCH  48  50
HETATM   50  O4  UNL     1     107.311 -26.356 -16.811  1.00  0.00    -0.274 OA
ATOM     51  H4  UNL     1     106.712 -27.078 -16.961  1.00  0.00     0.246 HD
ENDBRANCH  48  50
ENDBRANCH  44  48
ENDBRANCH  34  40
ENDBRANCH  31  32
ENDBRANCH   1  31
TORSDOF 14
ENDMDL
MODEL 2
REMARK VINA RESULT: -9.467034552      2.163      5.944
REMARK  14 active torsions:
REMARK  status: ('A' for Active; 'I' for Inactive)
REMARK    1  A    between atoms: N1_1  and  C1_4 
REMARK    2  A    between atoms: C2_7  and  N3_8 
REMARK    3  A    between atoms: C4_14  and  C5_15 
REMARK    4  A    between atoms: C5_15  and  N5_16 
REMARK    5  A    between atoms: N5_16  and  C6_17 
REMARK    6  A    between atoms: N5_16  and  C12_25 
REMARK    7  A    between atoms: C6_17  and  C7_18 
REMARK    8  A    between atoms: C7_18  and  N6_19 
REMARK    9  A    between atoms: C12_25  and  C13_26 
REMARK   10  A    between atoms: N7_28  and  C15_29 
REMARK   11  A    between atoms: C16_31  and  C17_32 
REMARK   12  A    between atoms: C17_32  and  O3_33 
REMARK   13  A    between atoms: N8_36  and  N9_37 
REMARK   14  A    between atoms: N9_37  and  O4_39 
ROOT
HETATM    1  N5  UNL     1     101.992 -23.063 -16.938  1.00  0.00    -0.379 N 
ENDROOT
BRANCH   1   2
HETATM    2  C5  UNL     1     102.251 -22.691 -15.640  1.00  0.00     0.117 C 
BRANCH   2   3
HETATM    3  C4  UNL     1     102.743 -21.347 -15.340  1.00  0.00     0.063 A 
HETATM    4  N4  UNL     1     103.809 -20.871 -16.006  1.00  0.00    -0.348 N 
HETATM    5  C3  UNL     1     104.310 -19.642 -15.785  1.00  0.00     0.122 A 
ATOM      6  H4  UNL     1     104.254 -21.464 -16.707  1.00  0.00     0.166 HD
HETATM    7  C2  UNL     1     105.398 -19.125 -16.465  1.00  0.00     0.145 A 
HETATM    8  C23 UNL     1     103.713 -18.824 -14.832  1.00  0.00     0.151 A 
HETATM    9  N2  UNL     1     105.867 -17.889 -16.223  1.00  0.00    -0.175 N 
HETATM   10  C1  UNL     1     105.288 -17.101 -15.303  1.00  0.00     0.679 A 
ATOM     11  H2  UNL     1     106.673 -17.545 -16.746  1.00  0.00     0.186 HD
HETATM   12  N11 UNL     1     104.226 -17.597 -14.633  1.00  0.00    -0.174 N 
ATOM     13  H11 UNL     1     103.784 -17.002 -13.932  1.00  0.00     0.186 HD
HETATM   14  N10 UNL     1     102.647 -19.285 -14.156  1.00  0.00    -0.348 N 
HETATM   15  C22 UNL     1     102.157 -20.536 -14.402  1.00  0.00     0.120 A 
ATOM     16  H10 UNL     1     102.199 -18.696 -13.454  1.00  0.00     0.167 HD
BRANCH   7  17
HETATM   17  N3  UNL     1     106.003 -19.830 -17.362  1.00  0.00    -0.383 N 
ATOM     18  H32 UNL     1     106.502 -19.374 -18.126  1.00  0.00     0.157 HD
ATOM     19  H31 UNL     1     105.959 -20.845 -17.274  1.00  0.00     0.157 HD
ENDBRANCH   7  17
BRANCH  10  20
HETATM   20  N1  UNL     1     105.717 -15.911 -15.065  1.00  0.00    -0.234 N 
ATOM     21  H12 UNL     1     105.145 -15.097 -15.293  1.00  0.00     0.174 HD
ATOM     22  H11 UNL     1     106.634 -15.743 -14.653  1.00  0.00     0.174 HD
ENDBRANCH  10  20
ENDBRANCH   2   3
ENDBRANCH   1   2
BRANCH   1  23
HETATM   23  C6  UNL     1     100.871 -22.589 -17.653  1.00  0.00     0.167 C 
BRANCH  23  24
HETATM   24  C7  UNL     1      99.649 -22.608 -16.733  1.00  0.00     0.078 C 
BRANCH  24  25
HETATM   25  N6  UNL     1      98.621 -23.471 -17.107  1.00  0.00    -0.388 N 
HETATM   26  C8  UNL     1      98.314 -23.715 -18.453  1.00  0.00     0.148 C 
HETATM   27  C9  UNL     1      96.776 -23.680 -18.580  1.00  0.00     0.187 C 
HETATM   28  O1  UNL     1      96.203 -24.769 -17.920  1.00  0.00    -0.388 OA
HETATM   29  C10 UNL     1      96.590 -24.792 -16.598  1.00  0.00     0.187 C 
HETATM   30  C11 UNL     1      97.545 -23.682 -16.213  1.00  0.00     0.148 C 
ENDBRANCH  24  25
ENDBRANCH  23  24
ENDBRANCH   1  23
BRANCH   1  31
HETATM   31  C12 UNL     1     102.710 -24.115 -17.582  1.00  0.00     0.165 C 
BRANCH  31  32
HETATM   32  C13 UNL     1     103.979 -23.585 -18.151  1.00  0.00     0.013 A 
HETATM   33  C14 UNL     1     105.251 -23.799 -17.607  1.00  0.00     0.109 A 
HETATM   34  N7  UNL     1     106.185 -23.249 -18.397  1.00  0.00    -0.289 N 
HETATM   35  C19 UNL     1     105.541 -22.678 -19.442  1.00  0.00     0.185 A 
HETATM   36  C20 UNL     1     104.181 -22.883 -19.298  1.00  0.00     0.132 A 
HETATM   37  O6  UNL     1     105.737 -21.942 -20.635  1.00  0.00    -0.307 OA
HETATM   38  O5  UNL     1     103.583 -22.284 -20.386  1.00  0.00    -0.321 OA
HETATM   39  C21 UNL     1     104.500 -21.386 -21.020  1.00  0.00     0.353 C 
BRANCH  34  40
HETATM   40  C15 UNL     1     107.638 -23.243 -18.270  1.00  0.00     0.356 C 
HETATM   41  O2  UNL     1     108.046 -22.238 -17.417  1.00  0.00    -0.338 OA
HETATM   42  C16 UNL     1     109.034 -22.676 -16.577  1.00  0.00     0.169 C 
HETATM   43  C18 UNL     1     109.249 -24.154 -16.862  1.00  0.00     0.183 C 
HETATM   44  N8  UNL     1     108.110 -24.457 -17.675  1.00  0.00    -0.259 N 
BRANCH  42  45
HETATM   45  C17 UNL     1     110.344 -21.994 -16.933  1.00  0.00     0.197 C 
BRANCH  45  46
HETATM   46  O3  UNL     1     110.824 -21.188 -15.916  1.00  0.00    -0.398 OA
ATOM     47  H3  UNL     1     110.544 -20.284 -15.999  1.00  0.00     0.209 HD
ENDBRANCH  45  46
ENDBRANCH  42  45
BRANCH  44  48
HETATM   48  N9  UNL     1     107.571 -25.720 -17.845  1.00  0.00    -0.209 N 
ATOM     49  H9  UNL     1     107.432 -26.086 -18.786  1.00  0.00     0.215 HD
BRANCH  48  50
HETATM   50  O4  UNL     1     107.249 -26.427 -16.846  1.00  0.00    -0.274 OA
ATOM     51  H4  UNL     1     107.124 -27.364 -16.934  1.00  0.00     0.246 HD
ENDBRANCH  48  50
ENDBRANCH  44  48
ENDBRANCH  34  40
ENDBRANCH  31  32
ENDBRANCH   1  31
TORSDOF 14
ENDMDL
MODEL 3
REMARK VINA RESULT: -9.466613154      2.896      6.536
REMARK  14 active torsions:
REMARK  status: ('A' for Active; 'I' for Inactive)
REMARK    1  A    between atoms: N1_1  and  C1_4 
REMARK    2  A    between atoms: C2_7  and  N3_8 
REMARK    3  A    between atoms: C4_14  and  C5_15 
REMARK    4  A    between atoms: C5_15  and  N5_16 
REMARK    5  A    between atoms: N5_16  and  C6_17 
REMARK    6  A    between atoms: N5_16  and  C12_25 
REMARK    7  A    between atoms: C6_17  and  C7_18 
REMARK    8  A    between atoms: C7_18  and  N6_19 
REMARK    9  A    between atoms: C12_25  and  C13_26 
REMARK   10  A    between atoms: N7_28  and  C15_29 
REMARK   11  A    between atoms: C16_31  and  C17_32 
REMARK   12  A    between atoms: C17_32  and  O3_33 
REMARK   13  A    between atoms: N8_36  and  N9_37 
REMARK   14  A    between atoms: N9_37  and  O4_39 
ROOT
HETATM    1  N5  UNL     1     102.738 -22.304 -16.024  1.00  0.00    -0.379 N 
ENDROOT
BRANCH   1   2
HETATM    2  C5  UNL     1     101.987 -23.156 -15.250  1.00  0.00     0.117 C 
BRANCH   2   3
HETATM    3  C4  UNL     1     100.584 -23.409 -15.576  1.00  0.00     0.063 A 
HETATM    4  N4  UNL     1     100.191 -23.386 -16.860  1.00  0.00    -0.348 N 
HETATM    5  C3  UNL     1      98.918 -23.617 -17.231  1.00  0.00     0.122 A 
ATOM      6  H4  UNL     1     100.884 -23.186 -17.582  1.00  0.00     0.166 HD
HETATM    7  C2  UNL     1      98.490 -23.610 -18.546  1.00  0.00     0.145 A 
HETATM    8  C23 UNL     1      97.963 -23.889 -16.257  1.00  0.00     0.151 A 
HETATM    9  N2  UNL     1      97.211 -23.852 -18.881  1.00  0.00    -0.175 N 
HETATM   10  C1  UNL     1      96.292 -24.115 -17.938  1.00  0.00     0.679 A 
ATOM     11  H2  UNL     1      96.936 -23.836 -19.863  1.00  0.00     0.186 HD
HETATM   12  N11 UNL     1      96.699 -24.124 -16.652  1.00  0.00    -0.174 N 
ATOM     13  H11 UNL     1      96.003 -24.321 -15.932  1.00  0.00     0.186 HD
HETATM   14  N10 UNL     1      98.340 -23.915 -14.967  1.00  0.00    -0.348 N 
HETATM   15  C22 UNL     1      99.639 -23.679 -14.619  1.00  0.00     0.120 A 
ATOM     16  H10 UNL     1      97.650 -24.113 -14.243  1.00  0.00     0.167 HD
BRANCH   7  17
HETATM   17  N3  UNL     1      99.322 -23.362 -19.503  1.00  0.00    -0.383 N 
ATOM     18  H32 UNL     1      98.992 -22.968 -20.384  1.00  0.00     0.157 HD
ATOM     19  H31 UNL     1     100.306 -23.576 -19.341  1.00  0.00     0.157 HD
ENDBRANCH   7  17
BRANCH  10  20
HETATM   20  N1  UNL     1      95.065 -24.360 -18.240  1.00  0.00    -0.234 N 
ATOM     21  H12 UNL     1      94.337 -23.668 -18.062  1.00  0.00     0.174 HD
ATOM     22  H11 UNL     1      94.782 -25.248 -18.655  1.00  0.00     0.174 HD
ENDBRANCH  10  20
ENDBRANCH   2   3
ENDBRANCH   1   2
BRANCH   1  23
HETATM   23  C6  UNL     1     103.999 -22.666 -16.546  1.00  0.00     0.167 C 
BRANCH  23  24
HETATM   24  C7  UNL     1     103.796 -23.652 -17.697  1.00  0.00     0.078 C 
BRANCH  24  25
HETATM   25  N6  UNL     1     104.112 -23.176 -18.968  1.00  0.00    -0.388 N 
HETATM   26  C8  UNL     1     105.428 -23.169 -19.448  1.00  0.00     0.148 C 
HETATM   27  C9  UNL     1     105.649 -21.807 -20.142  1.00  0.00     0.187 C 
HETATM   28  O1  UNL     1     104.885 -21.719 -21.307  1.00  0.00    -0.388 OA
HETATM   29  C10 UNL     1     103.551 -21.921 -21.027  1.00  0.00     0.187 C 
HETATM   30  C11 UNL     1     103.263 -22.219 -19.571  1.00  0.00     0.148 C 
ENDBRANCH  24  25
ENDBRANCH  23  24
ENDBRANCH   1  23
BRANCH   1  31
HETATM   31  C12 UNL     1     102.402 -20.925 -16.178  1.00  0.00     0.165 C 
BRANCH  31  32
HETATM   32  C13 UNL     1     102.401 -20.254 -14.850  1.00  0.00     0.013 A 
HETATM   33  C14 UNL     1     103.511 -19.632 -14.266  1.00  0.00     0.109 A 
HETATM   34  N7  UNL     1     103.160 -19.065 -13.103  1.00  0.00    -0.289 N 
HETATM   35  C19 UNL     1     101.842 -19.311 -12.919  1.00  0.00     0.185 A 
HETATM   36  C20 UNL     1     101.367 -20.043 -13.992  1.00  0.00     0.132 A 
HETATM   37  O6  UNL     1     100.757 -19.103 -12.033  1.00  0.00    -0.307 OA
HETATM   38  O5  UNL     1     100.028 -20.260 -13.749  1.00  0.00    -0.321 OA
HETATM   39  C21 UNL     1      99.728 -20.004 -12.374  1.00  0.00     0.353 C 
BRANCH  34  40
HETATM   40  C15 UNL     1     103.952 -18.280 -12.163  1.00  0.00     0.356 C 
HETATM   41  O2  UNL     1     105.217 -18.815 -12.030  1.00  0.00    -0.338 OA
HETATM   42  C16 UNL     1     106.169 -17.831 -12.016  1.00  0.00     0.169 C 
HETATM   43  C18 UNL     1     105.455 -16.506 -12.237  1.00  0.00     0.183 C 
HETATM   44  N8  UNL     1     104.156 -16.946 -12.647  1.00  0.00    -0.259 N 
BRANCH  42  45
HETATM   45  C17 UNL     1     106.786 -17.739 -10.631  1.00  0.00     0.197 C 
BRANCH  45  46
HETATM   46  O3  UNL     1     106.849 -18.963  -9.989  1.00  0.00    -0.398 OA
ATOM     47  H3  UNL     1     107.462 -18.967  -9.263  1.00  0.00     0.209 HD
ENDBRANCH  45  46
ENDBRANCH  42  45
BRANCH  44  48
HETATM   48  N9  UNL     1     103.261 -16.193 -13.386  1.00  0.00    -0.209 N 
ATOM     49  H9  UNL     1     103.501 -15.914 -14.336  1.00  0.00     0.215 HD
BRANCH  48  50
HETATM   50  O4  UNL     1     102.147 -15.846 -12.896  1.00  0.00    -0.274 OA
ATOM     51  H4  UNL     1     101.748 -15.017 -13.134  1.00  0.00     0.246 HD
ENDBRANCH  48  50
ENDBRANCH  44  48
ENDBRANCH  34  40
ENDBRANCH  31  32
ENDBRANCH   1  31
TORSDOF 14
ENDMDL
MODEL 4
REMARK VINA RESULT: -9.346672777      1.996      2.911
REMARK  14 active torsions:
REMARK  status: ('A' for Active; 'I' for Inactive)
REMARK    1  A    between atoms: N1_1  and  C1_4 
REMARK    2  A    between atoms: C2_7  and  N3_8 
REMARK    3  A    between atoms: C4_14  and  C5_15 
REMARK    4  A    between atoms: C5_15  and  N5_16 
REMARK    5  A    between atoms: N5_16  and  C6_17 
REMARK    6  A    between atoms: N5_16  and  C12_25 
REMARK    7  A    between atoms: C6_17  and  C7_18 
REMARK    8  A    between atoms: C7_18  and  N6_19 
REMARK    9  A    between atoms: C12_25  and  C13_26 
REMARK   10  A    between atoms: N7_28  and  C15_29 
REMARK   11  A    between atoms: C16_31  and  C17_32 
REMARK   12  A    between atoms: C17_32  and  O3_33 
REMARK   13  A    between atoms: N8_36  and  N9_37 
REMARK   14  A    between atoms: N9_37  and  O4_39 
ROOT
HETATM    1  N5  UNL     1     101.599 -21.042 -14.423  1.00  0.00    -0.379 N 
ENDROOT
BRANCH   1   2
HETATM    2  C5  UNL     1     101.243 -22.369 -14.430  1.00  0.00     0.117 C 
BRANCH   2   3
HETATM    3  C4  UNL     1      99.933 -22.781 -14.933  1.00  0.00     0.063 A 
HETATM    4  N4  UNL     1      99.761 -22.968 -16.252  1.00  0.00    -0.348 N 
HETATM    5  C3  UNL     1      98.585 -23.353 -16.781  1.00  0.00     0.122 A 
ATOM      6  H4  UNL     1     100.553 -22.813 -16.876  1.00  0.00     0.166 HD
HETATM    7  C2  UNL     1      98.386 -23.563 -18.134  1.00  0.00     0.145 A 
HETATM    8  C23 UNL     1      97.497 -23.565 -15.941  1.00  0.00     0.151 A 
HETATM    9  N2  UNL     1      97.199 -23.955 -18.627  1.00  0.00    -0.175 N 
HETATM   10  C1  UNL     1      96.150 -24.160 -17.813  1.00  0.00     0.679 A 
ATOM     11  H2  UNL     1      97.093 -24.098 -19.631  1.00  0.00     0.186 HD
HETATM   12  N11 UNL     1      96.334 -23.957 -16.492  1.00  0.00    -0.174 N 
ATOM     13  H11 UNL     1      95.539 -24.110 -15.870  1.00  0.00     0.186 HD
HETATM   14  N10 UNL     1      97.651 -23.381 -14.619  1.00  0.00    -0.348 N 
HETATM   15  C22 UNL     1      98.857 -22.993 -14.109  1.00  0.00     0.120 A 
ATOM     16  H10 UNL     1      96.862 -23.534 -13.992  1.00  0.00     0.167 HD
BRANCH   7  17
HETATM   17  N3  UNL     1      99.352 -23.382 -18.972  1.00  0.00    -0.383 N 
ATOM     18  H32 UNL     1      99.222 -23.592 -19.962  1.00  0.00     0.157 HD
ATOM     19  H31 UNL     1     100.235 -23.028 -18.606  1.00  0.00     0.157 HD
ENDBRANCH   7  17
BRANCH  10  20
HETATM   20  N1  UNL     1      95.009 -24.546 -18.266  1.00  0.00    -0.234 N 
ATOM     21  H12 UNL     1      94.541 -24.026 -19.008  1.00  0.00     0.174 HD
ATOM     22  H11 UNL     1      94.537 -25.371 -17.896  1.00  0.00     0.174 HD
ENDBRANCH  10  20
ENDBRANCH   2   3
ENDBRANCH   1   2
BRANCH   1  23
HETATM   23  C6  UNL     1     101.371 -20.203 -13.310  1.00  0.00     0.167 C 
BRANCH  23  24
HETATM   24  C7  UNL     1     101.455 -18.744 -13.761  1.00  0.00     0.078 C 
BRANCH  24  25
HETATM   25  N6  UNL     1     102.411 -17.962 -13.116  1.00  0.00    -0.388 N 
HETATM   26  C8  UNL     1     102.488 -16.577 -13.313  1.00  0.00     0.148 C 
HETATM   27  C9  UNL     1     103.984 -16.225 -13.473  1.00  0.00     0.187 C 
HETATM   28  O1  UNL     1     104.665 -16.415 -12.270  1.00  0.00    -0.388 OA
HETATM   29  C10 UNL     1     104.506 -17.708 -11.822  1.00  0.00     0.187 C 
HETATM   30  C11 UNL     1     103.623 -18.564 -12.704  1.00  0.00     0.148 C 
ENDBRANCH  24  25
ENDBRANCH  23  24
ENDBRANCH   1  23
BRANCH   1  31
HETATM   31  C12 UNL     1     102.024 -20.364 -15.604  1.00  0.00     0.165 C 
BRANCH  31  32
HETATM   32  C13 UNL     1     103.130 -21.122 -16.250  1.00  0.00     0.013 A 
HETATM   33  C14 UNL     1     104.476 -21.055 -15.870  1.00  0.00     0.109 A 
HETATM   34  N7  UNL     1     105.202 -21.911 -16.604  1.00  0.00    -0.289 N 
HETATM   35  C19 UNL     1     104.352 -22.529 -17.457  1.00  0.00     0.185 A 
HETATM   36  C20 UNL     1     103.073 -22.049 -17.244  1.00  0.00     0.132 A 
HETATM   37  O6  UNL     1     104.279 -23.489 -18.495  1.00  0.00    -0.307 OA
HETATM   38  O5  UNL     1     102.258 -22.713 -18.135  1.00  0.00    -0.321 OA
HETATM   39  C21 UNL     1     103.045 -23.330 -19.159  1.00  0.00     0.353 C 
BRANCH  34  40
HETATM   40  C15 UNL     1     106.625 -22.223 -16.548  1.00  0.00     0.356 C 
HETATM   41  O2  UNL     1     106.821 -23.590 -16.526  1.00  0.00    -0.338 OA
HETATM   42  C16 UNL     1     107.855 -23.952 -17.347  1.00  0.00     0.169 C 
HETATM   43  C18 UNL     1     108.347 -22.691 -18.041  1.00  0.00     0.183 C 
HETATM   44  N8  UNL     1     107.302 -21.765 -17.725  1.00  0.00    -0.259 N 
BRANCH  42  45
HETATM   45  C17 UNL     1     109.024 -24.441 -16.507  1.00  0.00     0.197 C 
BRANCH  45  46
HETATM   46  O3  UNL     1     110.084 -24.892 -17.273  1.00  0.00    -0.398 OA
ATOM     47  H3  UNL     1     110.689 -25.436 -16.782  1.00  0.00     0.209 HD
ENDBRANCH  45  46
ENDBRANCH  42  45
BRANCH  44  48
HETATM   48  N9  UNL     1     107.010 -20.623 -18.449  1.00  0.00    -0.209 N 
ATOM     49  H9  UNL     1     106.254 -20.011 -18.143  1.00  0.00     0.215 HD
BRANCH  48  50
HETATM   50  O4  UNL     1     107.670 -20.328 -19.488  1.00  0.00    -0.274 OA
ATOM     51  H4  UNL     1     107.327 -20.519 -20.353  1.00  0.00     0.246 HD
ENDBRANCH  48  50
ENDBRANCH  44  48
ENDBRANCH  34  40
ENDBRANCH  31  32
ENDBRANCH   1  31
TORSDOF 14
ENDMDL
MODEL 5
REMARK VINA RESULT: -9.235011312      3.394      7.194
REMARK  14 active torsions:
REMARK  status: ('A' for Active; 'I' for Inactive)
REMARK    1  A    between atoms: N1_1  and  C1_4 
REMARK    2  A    between atoms: C2_7  and  N3_8 
REMARK    3  A    between atoms: C4_14  and  C5_15 
REMARK    4  A    between atoms: C5_15  and  N5_16 
REMARK    5  A    between atoms: N5_16  and  C6_17 
REMARK    6  A    between atoms: N5_16  and  C12_25 
REMARK    7  A    between atoms: C6_17  and  C7_18 
REMARK    8  A    between atoms: C7_18  and  N6_19 
REMARK    9  A    between atoms: C12_25  and  C13_26 
REMARK   10  A    between atoms: N7_28  and  C15_29 
REMARK   11  A    between atoms: C16_31  and  C17_32 
REMARK   12  A    between atoms: C17_32  and  O3_33 
REMARK   13  A    between atoms: N8_36  and  N9_37 
REMARK   14  A    between atoms: N9_37  and  O4_39 
ROOT
HETATM    1  N5  UNL     1      98.558 -23.466 -15.411  1.00  0.00    -0.379 N 
ENDROOT
BRANCH   1   2
HETATM    2  C5  UNL     1      97.991 -24.536 -16.061  1.00  0.00     0.117 C 
BRANCH   2   3
HETATM    3  C4  UNL     1      96.572 -24.521 -16.413  1.00  0.00     0.063 A 
HETATM    4  N4  UNL     1      95.656 -24.800 -15.470  1.00  0.00    -0.348 N 
HETATM    5  C3  UNL     1      94.334 -24.798 -15.723  1.00  0.00     0.122 A 
ATOM      6  H4  UNL     1      95.975 -25.022 -14.527  1.00  0.00     0.166 HD
HETATM    7  C2  UNL     1      93.372 -25.071 -14.768  1.00  0.00     0.145 A 
HETATM    8  C23 UNL     1      93.886 -24.498 -17.005  1.00  0.00     0.151 A 
HETATM    9  N2  UNL     1      92.058 -25.051 -15.055  1.00  0.00    -0.175 N 
HETATM   10  C1  UNL     1      91.629 -24.761 -16.293  1.00  0.00     0.679 A 
ATOM     11  H2  UNL     1      91.380 -25.260 -14.322  1.00  0.00     0.186 HD
HETATM   12  N11 UNL     1      92.561 -24.494 -17.233  1.00  0.00    -0.174 N 
ATOM     13  H11 UNL     1      92.239 -24.275 -18.176  1.00  0.00     0.186 HD
HETATM   14  N10 UNL     1      94.790 -24.217 -17.960  1.00  0.00    -0.348 N 
HETATM   15  C22 UNL     1      96.125 -24.225 -17.675  1.00  0.00     0.120 A 
ATOM     16  H10 UNL     1      94.475 -23.996 -18.904  1.00  0.00     0.167 HD
BRANCH   7  17
HETATM   17  N3  UNL     1      93.715 -25.360 -13.558  1.00  0.00    -0.383 N 
ATOM     18  H32 UNL     1      93.320 -26.175 -13.090  1.00  0.00     0.157 HD
ATOM     19  H31 UNL     1      94.387 -24.745 -13.097  1.00  0.00     0.157 HD
ENDBRANCH   7  17
BRANCH  10  20
HETATM   20  N1  UNL     1      90.376 -24.727 -16.584  1.00  0.00    -0.234 N 
ATOM     21  H12 UNL     1      89.863 -23.845 -16.573  1.00  0.00     0.174 HD
ATOM     22  H11 UNL     1      89.858 -25.572 -16.826  1.00  0.00     0.174 HD
ENDBRANCH  10  20
ENDBRANCH   2   3
ENDBRANCH   1   2
BRANCH   1  23
HETATM   23  C6  UNL     1      99.370 -22.520 -16.075  1.00  0.00     0.167 C 
BRANCH  23  24
HETATM   24  C7  UNL     1     100.224 -23.242 -17.118  1.00  0.00     0.078 C 
BRANCH  24  25
HETATM   25  N6  UNL     1     101.528 -23.546 -16.730  1.00  0.00    -0.388 N 
HETATM   26  C8  UNL     1     102.124 -22.948 -15.612  1.00  0.00     0.148 C 
HETATM   27  C9  UNL     1     103.563 -22.562 -16.019  1.00  0.00     0.187 C 
HETATM   28  O1  UNL     1     104.340 -23.704 -16.222  1.00  0.00    -0.388 OA
HETATM   29  C10 UNL     1     103.761 -24.522 -17.168  1.00  0.00     0.187 C 
HETATM   30  C11 UNL     1     102.442 -24.007 -17.706  1.00  0.00     0.148 C 
ENDBRANCH  24  25
ENDBRANCH  23  24
ENDBRANCH   1  23
BRANCH   1  31
HETATM   31  C12 UNL     1      98.549 -23.351 -13.988  1.00  0.00     0.165 C 
BRANCH  31  32
HETATM   32  C13 UNL     1      98.762 -21.932 -13.596  1.00  0.00     0.013 A 
HETATM   33  C14 UNL     1     100.006 -21.289 -13.560  1.00  0.00     0.109 A 
HETATM   34  N7  UNL     1      99.845 -19.998 -13.234  1.00  0.00    -0.289 N 
HETATM   35  C19 UNL     1      98.519 -19.792 -13.055  1.00  0.00     0.185 A 
HETATM   36  C20 UNL     1      97.845 -20.979 -13.277  1.00  0.00     0.132 A 
HETATM   37  O6  UNL     1      97.555 -18.812 -12.720  1.00  0.00    -0.307 OA
HETATM   38  O5  UNL     1      96.508 -20.707 -13.081  1.00  0.00    -0.321 OA
HETATM   39  C21 UNL     1      96.355 -19.469 -12.379  1.00  0.00     0.353 C 
BRANCH  34  40
HETATM   40  C15 UNL     1     100.830 -18.930 -13.111  1.00  0.00     0.356 C 
HETATM   41  O2  UNL     1     101.960 -19.386 -12.462  1.00  0.00    -0.338 OA
HETATM   42  C16 UNL     1     103.096 -18.924 -13.069  1.00  0.00     0.169 C 
HETATM   43  C18 UNL     1     102.667 -18.135 -14.296  1.00  0.00     0.183 C 
HETATM   44  N8  UNL     1     101.286 -18.495 -14.398  1.00  0.00    -0.259 N 
BRANCH  42  45
HETATM   45  C17 UNL     1     103.788 -17.923 -12.158  1.00  0.00     0.197 C 
BRANCH  45  46
HETATM   46  O3  UNL     1     104.658 -18.522 -11.265  1.00  0.00    -0.398 OA
ATOM     47  H3  UNL     1     104.442 -19.431 -11.093  1.00  0.00     0.209 HD
ENDBRANCH  45  46
ENDBRANCH  42  45
BRANCH  44  48
HETATM   48  N9  UNL     1     100.532 -18.427 -15.557  1.00  0.00    -0.209 N 
ATOM     49  H9  UNL     1     100.649 -19.140 -16.277  1.00  0.00     0.215 HD
BRANCH  48  50
HETATM   50  O4  UNL     1      99.701 -17.490 -15.735  1.00  0.00    -0.274 OA
ATOM     51  H4  UNL     1      98.925 -17.623 -16.267  1.00  0.00     0.246 HD
ENDBRANCH  48  50
ENDBRANCH  44  48
ENDBRANCH  34  40
ENDBRANCH  31  32
ENDBRANCH   1  31
TORSDOF 14
ENDMDL
