MODEL 1
REMARK VINA RESULT: -5.981098387      0.000      0.000
REMARK  6 active torsions:
REMARK  status: ('A' for Active; 'I' for Inactive)
REMARK    1  A    between atoms: C4_4  and  C5_5 
REMARK    2  A    between atoms: C5_5  and  S1_6 
REMARK    3  A    between atoms: S1_6  and  N1_9 
REMARK    4  A    between atoms: C15_20  and  N2_21 
REMARK    5  A    between atoms: N2_21  and  S2_23 
REMARK    6  A    between atoms: S2_23  and  C16_26 
ROOT
HETATM    1  C1  UNL     1     -12.552 -18.054  -7.582  1.00  0.00     0.010 C 
HETATM    2  C2  UNL     1     -14.049 -17.933  -7.331  1.00  0.00    -0.014 C 
HETATM    3  C3  UNL     1     -14.333 -16.992  -6.177  1.00  0.00     0.017 C 
HETATM    4  C4  UNL     1     -15.601 -17.435  -5.500  1.00  0.00    -0.004 C 
HETATM    5  C11 UNL     1     -16.502 -17.820  -6.751  1.00  0.00     0.013 C 
HETATM    6  C12 UNL     1     -16.121 -19.155  -7.261  1.00  0.00     0.006 C 
HETATM    7  C13 UNL     1     -14.621 -19.318  -7.040  1.00  0.00    -0.009 C 
HETATM    8  C14 UNL     1     -14.449 -19.650  -5.572  1.00  0.00     0.031 C 
HETATM    9  C15 UNL     1     -15.401 -18.729  -4.800  1.00  0.00     0.102 C 
ENDROOT
BRANCH   4  10
HETATM   10  C5  UNL     1     -16.378 -16.399  -4.838  1.00  0.00     0.175 C 
BRANCH  10  11
HETATM   11  S1  UNL     1     -15.751 -15.335  -3.650  1.00  0.00     0.235 S 
HETATM   12  O1  UNL     1     -14.635 -15.873  -2.819  1.00  0.00    -0.205 OA
HETATM   13  O2  UNL     1     -15.265 -14.005  -4.156  1.00  0.00    -0.205 OA
BRANCH  11  14
HETATM   14  N1  UNL     1     -16.994 -14.901  -2.498  1.00  0.00    -0.245 N 
HETATM   15  C6  UNL     1     -16.728 -15.100  -1.097  1.00  0.00     0.144 C 
HETATM   16  C7  UNL     1     -17.878 -15.845  -0.490  1.00  0.00     0.022 C 
HETATM   17  C8  UNL     1     -19.223 -15.315  -0.842  1.00  0.00     0.011 C 
HETATM   18  C9  UNL     1     -19.238 -14.157  -1.779  1.00  0.00     0.104 C 
HETATM   19  C10 UNL     1     -18.245 -14.367  -2.877  1.00  0.00     0.233 C 
HETATM   20  O3  UNL     1     -18.477 -14.092  -4.080  1.00  0.00    -0.272 OA
ENDBRANCH  11  14
ENDBRANCH  10  11
ENDBRANCH   4  10
BRANCH   9  21
HETATM   21  N2  UNL     1     -14.959 -18.743  -3.464  1.00  0.00    -0.314 N 
ATOM     22  H2  UNL     1     -14.002 -18.517  -3.195  1.00  0.00     0.172 HD
BRANCH  21  23
HETATM   23  S2  UNL     1     -16.176 -19.175  -2.324  1.00  0.00     0.231 S 
HETATM   24  O4  UNL     1     -17.504 -18.583  -2.637  1.00  0.00    -0.206 OA
HETATM   25  O5  UNL     1     -15.749 -18.653  -0.969  1.00  0.00    -0.206 OA
BRANCH  23  26
HETATM   26  C16 UNL     1     -16.228 -20.943  -2.209  1.00  0.00     0.129 A 
HETATM   27  C17 UNL     1     -15.754 -21.512  -0.898  1.00  0.00     0.023 A 
HETATM   28  C18 UNL     1     -14.868 -21.666  -2.091  1.00  0.00     0.023 A 
ENDBRANCH  23  26
ENDBRANCH  21  23
ENDBRANCH   9  21
TORSDOF 6
ENDMDL
MODEL 2
REMARK VINA RESULT: -5.828524566      2.397      3.349
REMARK  6 active torsions:
REMARK  status: ('A' for Active; 'I' for Inactive)
REMARK    1  A    between atoms: C4_4  and  C5_5 
REMARK    2  A    between atoms: C5_5  and  S1_6 
REMARK    3  A    between atoms: S1_6  and  N1_9 
REMARK    4  A    between atoms: C15_20  and  N2_21 
REMARK    5  A    between atoms: N2_21  and  S2_23 
REMARK    6  A    between atoms: S2_23  and  C16_26 
ROOT
HETATM    1  C1  UNL     1     -12.494 -17.778  -7.412  1.00  0.00     0.010 C 
HETATM    2  C2  UNL     1     -13.876 -17.314  -6.968  1.00  0.00    -0.014 C 
HETATM    3  C3  UNL     1     -13.828 -16.723  -5.574  1.00  0.00     0.017 C 
HETATM    4  C4  UNL     1     -15.154 -16.965  -4.906  1.00  0.00    -0.004 C 
HETATM    5  C11 UNL     1     -16.160 -16.681  -6.104  1.00  0.00     0.013 C 
HETATM    6  C12 UNL     1     -16.221 -17.853  -7.005  1.00  0.00     0.006 C 
HETATM    7  C13 UNL     1     -14.838 -18.497  -7.010  1.00  0.00    -0.009 C 
HETATM    8  C14 UNL     1     -14.742 -19.289  -5.722  1.00  0.00     0.031 C 
HETATM    9  C15 UNL     1     -15.346 -18.409  -4.622  1.00  0.00     0.102 C 
ENDROOT
BRANCH   4  10
HETATM   10  C5  UNL     1     -15.559 -15.998  -3.898  1.00  0.00     0.175 C 
BRANCH  10  11
HETATM   11  S1  UNL     1     -14.647 -15.630  -2.494  1.00  0.00     0.235 S 
HETATM   12  O1  UNL     1     -15.425 -15.505  -1.228  1.00  0.00    -0.205 OA
HETATM   13  O2  UNL     1     -13.524 -16.578  -2.179  1.00  0.00    -0.205 OA
BRANCH  11  14
HETATM   14  N1  UNL     1     -13.839 -14.089  -2.675  1.00  0.00    -0.245 N 
HETATM   15  C6  UNL     1     -13.981 -13.384  -3.922  1.00  0.00     0.144 C 
HETATM   16  C7  UNL     1     -12.621 -12.981  -4.405  1.00  0.00     0.022 C 
HETATM   17  C8  UNL     1     -11.755 -12.344  -3.377  1.00  0.00     0.011 C 
HETATM   18  C9  UNL     1     -12.340 -12.240  -2.010  1.00  0.00     0.104 C 
HETATM   19  C10 UNL     1     -13.055 -13.504  -1.656  1.00  0.00     0.233 C 
HETATM   20  O3  UNL     1     -12.985 -14.043  -0.524  1.00  0.00    -0.272 OA
ENDBRANCH  11  14
ENDBRANCH  10  11
ENDBRANCH   4  10
BRANCH   9  21
HETATM   21  N2  UNL     1     -14.898 -18.949  -3.401  1.00  0.00    -0.314 N 
ATOM     22  H2  UNL     1     -13.914 -19.125  -3.202  1.00  0.00     0.172 HD
BRANCH  21  23
HETATM   23  S2  UNL     1     -16.157 -19.286  -2.275  1.00  0.00     0.231 S 
HETATM   24  O4  UNL     1     -17.458 -18.674  -2.657  1.00  0.00    -0.206 OA
HETATM   25  O5  UNL     1     -15.751 -18.706  -0.938  1.00  0.00    -0.206 OA
BRANCH  23  26
HETATM   26  C16 UNL     1     -16.264 -21.044  -2.070  1.00  0.00     0.129 A 
HETATM   27  C17 UNL     1     -15.790 -21.561  -0.738  1.00  0.00     0.023 A 
HETATM   28  C18 UNL     1     -14.926 -21.804  -1.933  1.00  0.00     0.023 A 
ENDBRANCH  23  26
ENDBRANCH  21  23
ENDBRANCH   9  21
TORSDOF 6
ENDMDL
MODEL 3
REMARK VINA RESULT: -5.722854245      3.728      5.296
REMARK  6 active torsions:
REMARK  status: ('A' for Active; 'I' for Inactive)
REMARK    1  A    between atoms: C4_4  and  C5_5 
REMARK    2  A    between atoms: C5_5  and  S1_6 
REMARK    3  A    between atoms: S1_6  and  N1_9 
REMARK    4  A    between atoms: C15_20  and  N2_21 
REMARK    5  A    between atoms: N2_21  and  S2_23 
REMARK    6  A    between atoms: S2_23  and  C16_26 
ROOT
HETATM    1  C1  UNL     1     -17.201 -15.590  -9.659  1.00  0.00     0.010 C 
HETATM    2  C2  UNL     1     -17.150 -17.053  -9.237  1.00  0.00    -0.014 C 
HETATM    3  C3  UNL     1     -16.429 -17.213  -7.915  1.00  0.00     0.017 C 
HETATM    4  C4  UNL     1     -15.762 -18.561  -7.893  1.00  0.00    -0.004 C 
HETATM    5  C11 UNL     1     -16.879 -19.470  -8.566  1.00  0.00     0.013 C 
HETATM    6  C12 UNL     1     -16.853 -19.304 -10.036  1.00  0.00     0.006 C 
HETATM    7  C13 UNL     1     -16.450 -17.862 -10.326  1.00  0.00    -0.009 C 
HETATM    8  C14 UNL     1     -14.949 -17.802 -10.129  1.00  0.00     0.031 C 
HETATM    9  C15 UNL     1     -14.639 -18.610  -8.864  1.00  0.00     0.102 C 
ENDROOT
BRANCH   4  10
HETATM   10  C5  UNL     1     -15.579 -19.173  -6.587  1.00  0.00     0.175 C 
BRANCH  10  11
HETATM   11  S1  UNL     1     -14.789 -18.414  -5.269  1.00  0.00     0.235 S 
HETATM   12  O1  UNL     1     -13.943 -19.302  -4.419  1.00  0.00    -0.205 OA
HETATM   13  O2  UNL     1     -13.912 -17.245  -5.619  1.00  0.00    -0.205 OA
BRANCH  11  14
HETATM   14  N1  UNL     1     -15.961 -17.728  -4.166  1.00  0.00    -0.245 N 
HETATM   15  C6  UNL     1     -16.164 -16.303  -4.183  1.00  0.00     0.144 C 
HETATM   16  C7  UNL     1     -16.081 -15.787  -2.779  1.00  0.00     0.022 C 
HETATM   17  C8  UNL     1     -16.871 -16.558  -1.782  1.00  0.00     0.011 C 
HETATM   18  C9  UNL     1     -17.590 -17.753  -2.308  1.00  0.00     0.104 C 
HETATM   19  C10 UNL     1     -16.716 -18.504  -3.260  1.00  0.00     0.233 C 
HETATM   20  O3  UNL     1     -16.635 -19.757  -3.281  1.00  0.00    -0.272 OA
ENDBRANCH  11  14
ENDBRANCH  10  11
ENDBRANCH   4  10
BRANCH   9  21
HETATM   21  N2  UNL     1     -13.347 -18.225  -8.461  1.00  0.00    -0.314 N 
ATOM     22  H2  UNL     1     -13.167 -17.392  -7.902  1.00  0.00     0.172 HD
BRANCH  21  23
HETATM   23  S2  UNL     1     -12.098 -19.283  -8.996  1.00  0.00     0.231 S 
HETATM   24  O4  UNL     1     -11.099 -18.610  -9.869  1.00  0.00    -0.206 OA
HETATM   25  O5  UNL     1     -12.740 -20.390  -9.802  1.00  0.00    -0.206 OA
BRANCH  23  26
HETATM   26  C16 UNL     1     -11.359 -20.036  -7.571  1.00  0.00     0.129 A 
HETATM   27  C17 UNL     1      -9.887 -19.772  -7.400  1.00  0.00     0.023 A 
HETATM   28  C18 UNL     1     -10.309 -21.137  -7.839  1.00  0.00     0.023 A 
ENDBRANCH  23  26
ENDBRANCH  21  23
ENDBRANCH   9  21
TORSDOF 6
ENDMDL
MODEL 4
REMARK VINA RESULT: -5.659455951      4.978      7.309
REMARK  6 active torsions:
REMARK  status: ('A' for Active; 'I' for Inactive)
REMARK    1  A    between atoms: C4_4  and  C5_5 
REMARK    2  A    between atoms: C5_5  and  S1_6 
REMARK    3  A    between atoms: S1_6  and  N1_9 
REMARK    4  A    between atoms: C15_20  and  N2_21 
REMARK    5  A    between atoms: N2_21  and  S2_23 
REMARK    6  A    between atoms: S2_23  and  C16_26 
ROOT
HETATM    1  C1  UNL     1     -16.428 -19.490  -3.673  1.00  0.00     0.010 C 
HETATM    2  C2  UNL     1     -16.133 -18.376  -4.669  1.00  0.00    -0.014 C 
HETATM    3  C3  UNL     1     -16.484 -18.801  -6.080  1.00  0.00     0.017 C 
HETATM    4  C4  UNL     1     -15.567 -18.090  -7.037  1.00  0.00    -0.004 C 
HETATM    5  C11 UNL     1     -15.509 -16.639  -6.390  1.00  0.00     0.013 C 
HETATM    6  C12 UNL     1     -14.577 -16.631  -5.241  1.00  0.00     0.006 C 
HETATM    7  C13 UNL     1     -14.656 -18.003  -4.579  1.00  0.00    -0.009 C 
HETATM    8  C14 UNL     1     -13.834 -18.932  -5.447  1.00  0.00     0.031 C 
HETATM    9  C15 UNL     1     -14.174 -18.589  -6.902  1.00  0.00     0.102 C 
ENDROOT
BRANCH   4  10
HETATM   10  C5  UNL     1     -16.089 -17.838  -8.370  1.00  0.00     0.175 C 
BRANCH  10  11
HETATM   11  S1  UNL     1     -16.575 -19.065  -9.463  1.00  0.00     0.235 S 
HETATM   12  O1  UNL     1     -15.494 -19.645 -10.311  1.00  0.00    -0.205 OA
HETATM   13  O2  UNL     1     -17.275 -20.245  -8.849  1.00  0.00    -0.205 OA
BRANCH  11  14
HETATM   14  N1  UNL     1     -17.748 -18.443 -10.601  1.00  0.00    -0.245 N 
HETATM   15  C6  UNL     1     -17.717 -17.039 -10.917  1.00  0.00     0.144 C 
HETATM   16  C7  UNL     1     -19.100 -16.481 -10.773  1.00  0.00     0.022 C 
HETATM   17  C8  UNL     1     -20.170 -17.285 -11.425  1.00  0.00     0.011 C 
HETATM   18  C9  UNL     1     -19.723 -18.545 -12.083  1.00  0.00     0.104 C 
HETATM   19  C10 UNL     1     -18.724 -19.251 -11.224  1.00  0.00     0.233 C 
HETATM   20  O3  UNL     1     -18.723 -20.494 -11.045  1.00  0.00    -0.272 OA
ENDBRANCH  11  14
ENDBRANCH  10  11
ENDBRANCH   4  10
BRANCH   9  21
HETATM   21  N2  UNL     1     -13.745 -19.685  -7.672  1.00  0.00    -0.314 N 
ATOM     22  H2  UNL     1     -14.167 -20.611  -7.602  1.00  0.00     0.172 HD
BRANCH  21  23
HETATM   23  S2  UNL     1     -12.445 -19.328  -8.744  1.00  0.00     0.231 S 
HETATM   24  O4  UNL     1     -12.627 -18.044  -9.473  1.00  0.00    -0.206 OA
HETATM   25  O5  UNL     1     -12.373 -20.434  -9.773  1.00  0.00    -0.206 OA
BRANCH  23  26
HETATM   26  C16 UNL     1     -10.933 -19.378  -7.819  1.00  0.00     0.129 A 
HETATM   27  C17 UNL     1      -9.771 -20.019  -8.529  1.00  0.00     0.023 A 
HETATM   28  C18 UNL     1     -10.417 -20.777  -7.416  1.00  0.00     0.023 A 
ENDBRANCH  23  26
ENDBRANCH  21  23
ENDBRANCH   9  21
TORSDOF 6
ENDMDL
MODEL 5
REMARK VINA RESULT: -5.584806404      3.593      5.588
REMARK  6 active torsions:
REMARK  status: ('A' for Active; 'I' for Inactive)
REMARK    1  A    between atoms: C4_4  and  C5_5 
REMARK    2  A    between atoms: C5_5  and  S1_6 
REMARK    3  A    between atoms: S1_6  and  N1_9 
REMARK    4  A    between atoms: C15_20  and  N2_21 
REMARK    5  A    between atoms: N2_21  and  S2_23 
REMARK    6  A    between atoms: S2_23  and  C16_26 
ROOT
HETATM    1  C1  UNL     1     -10.261 -21.046  -7.792  1.00  0.00     0.010 C 
HETATM    2  C2  UNL     1     -10.893 -19.664  -7.899  1.00  0.00    -0.014 C 
HETATM    3  C3  UNL     1     -12.088 -19.540  -6.976  1.00  0.00     0.017 C 
HETATM    4  C4  UNL     1     -13.068 -18.578  -7.589  1.00  0.00    -0.004 C 
HETATM    5  C11 UNL     1     -12.091 -17.458  -8.153  1.00  0.00     0.013 C 
HETATM    6  C12 UNL     1     -11.489 -17.904  -9.429  1.00  0.00     0.006 C 
HETATM    7  C13 UNL     1     -11.312 -19.417  -9.346  1.00  0.00    -0.009 C 
HETATM    8  C14 UNL     1     -12.682 -20.012  -9.596  1.00  0.00     0.031 C 
HETATM    9  C15 UNL     1     -13.682 -19.156  -8.811  1.00  0.00     0.102 C 
ENDROOT
BRANCH   4  10
HETATM   10  C5  UNL     1     -13.917 -17.842  -6.666  1.00  0.00     0.175 C 
BRANCH  10  11
HETATM   11  S1  UNL     1     -15.007 -18.575  -5.565  1.00  0.00     0.235 S 
HETATM   12  O1  UNL     1     -16.206 -19.223  -6.171  1.00  0.00    -0.205 OA
HETATM   13  O2  UNL     1     -14.413 -19.611  -4.652  1.00  0.00    -0.205 OA
BRANCH  11  14
HETATM   14  N1  UNL     1     -15.656 -17.384  -4.460  1.00  0.00    -0.245 N 
HETATM   15  C6  UNL     1     -15.264 -16.009  -4.629  1.00  0.00     0.144 C 
HETATM   16  C7  UNL     1     -14.810 -15.472  -3.306  1.00  0.00     0.022 C 
HETATM   17  C8  UNL     1     -15.717 -15.768  -2.165  1.00  0.00     0.011 C 
HETATM   18  C9  UNL     1     -16.917 -16.592  -2.488  1.00  0.00     0.104 C 
HETATM   19  C10 UNL     1     -16.545 -17.707  -3.411  1.00  0.00     0.233 C 
HETATM   20  O3  UNL     1     -16.982 -18.878  -3.291  1.00  0.00    -0.272 OA
ENDBRANCH  11  14
ENDBRANCH  10  11
ENDBRANCH   4  10
BRANCH   9  21
HETATM   21  N2  UNL     1     -14.857 -19.923  -8.710  1.00  0.00    -0.314 N 
ATOM     22  H2  UNL     1     -14.960 -20.695  -8.051  1.00  0.00     0.172 HD
BRANCH  21  23
HETATM   23  S2  UNL     1     -16.106 -19.445  -9.795  1.00  0.00     0.231 S 
HETATM   24  O4  UNL     1     -17.455 -19.907  -9.370  1.00  0.00    -0.206 OA
HETATM   25  O5  UNL     1     -15.813 -20.065 -11.143  1.00  0.00    -0.206 OA
BRANCH  23  26
HETATM   26  C16 UNL     1     -16.022 -17.686 -10.001  1.00  0.00     0.129 A 
HETATM   27  C17 UNL     1     -16.770 -16.886  -8.968  1.00  0.00     0.023 A 
HETATM   28  C18 UNL     1     -17.346 -16.968 -10.344  1.00  0.00     0.023 A 
ENDBRANCH  23  26
ENDBRANCH  21  23
ENDBRANCH   9  21
TORSDOF 6
ENDMDL
