MODEL 1
REMARK VINA RESULT: -7.974743824      0.000      0.000
REMARK  5 active torsions:
REMARK  status: ('A' for Active; 'I' for Inactive)
REMARK    1  A    between atoms: C2_2  and  N1_4 
REMARK       I    between atoms: N1_4  and  C4_6 
REMARK       I    between atoms: C4_6  and  N2_8 
REMARK    2  A    between atoms: N2_8  and  C5_10 
REMARK    3  A    between atoms: C5_10  and  C6_11 
REMARK    4  A    between atoms: C9_16  and  N3_17 
REMARK    5  A    between atoms: N3_17  and  S1_19 
ROOT
HETATM    1  C5  UNL     1       9.566  14.463  51.045  1.00  0.00     0.093 C 
HETATM    2  C7  UNL     1      10.170  13.293  50.268  1.00  0.00     0.039 C 
HETATM    3  C8  UNL     1       9.177  12.521  49.475  1.00  0.00     0.028 C 
HETATM    4  C9  UNL     1       8.319  13.399  48.588  1.00  0.00     0.093 C 
HETATM    5  C11 UNL     1       7.598  14.351  49.539  1.00  0.00     0.028 C 
HETATM    6  C12 UNL     1       8.594  15.238  50.185  1.00  0.00     0.039 C 
ENDROOT
BRANCH   1   7
HETATM    7  N2  UNL     1      10.630  15.344  51.425  1.00  0.00    -0.328 N 
HETATM    8  C4  UNL     1      11.199  16.410  50.741  1.00  0.00     0.317 C 
HETATM    9  N1  UNL     1      12.295  17.183  51.275  1.00  0.00    -0.339 N 
HETATM   10  O1  UNL     1      10.809  16.782  49.619  1.00  0.00    -0.247 OA
ATOM     11  H1  UNL     1      12.660  16.928  52.193  1.00  0.00     0.164 HD
ATOM     12  H2  UNL     1      11.032  15.159  52.344  1.00  0.00     0.165 HD
BRANCH   9  13
HETATM   13  C2  UNL     1      12.902  18.287  50.591  1.00  0.00     0.078 C 
HETATM   14  C1  UNL     1      14.241  17.931  49.967  1.00  0.00     0.032 C 
HETATM   15  C3  UNL     1      13.141  19.472  51.502  1.00  0.00     0.032 C 
ENDBRANCH   9  13
ENDBRANCH   1   7
BRANCH   1  16
HETATM   16  C6  UNL     1       8.833  13.941  52.244  1.00  0.00     0.381 C 
HETATM   17  F1  UNL     1       8.809  14.905  53.265  1.00  0.00    -0.212 F 
HETATM   18  F2  UNL     1       9.302  12.774  52.770  1.00  0.00    -0.212 F 
ENDBRANCH   1  16
BRANCH   4  19
HETATM   19  N3  UNL     1       7.340  12.620  47.911  1.00  0.00    -0.315 N 
ATOM     20  H3  UNL     1       7.198  11.627  48.098  1.00  0.00     0.172 HD
BRANCH  19  21
HETATM   21  S1  UNL     1       6.420  13.492  46.754  1.00  0.00     0.223 S 
HETATM   22  C10 UNL     1       6.885  15.178  46.618  1.00  0.00     0.185 C 
HETATM   23  O2  UNL     1       4.947  13.372  46.992  1.00  0.00    -0.206 OA
HETATM   24  O3  UNL     1       6.685  12.839  45.406  1.00  0.00    -0.206 OA
ENDBRANCH  19  21
ENDBRANCH   4  19
TORSDOF 5
ENDMDL
MODEL 2
REMARK VINA RESULT: -7.178157199      1.046      1.210
REMARK  5 active torsions:
REMARK  status: ('A' for Active; 'I' for Inactive)
REMARK    1  A    between atoms: C2_2  and  N1_4 
REMARK       I    between atoms: N1_4  and  C4_6 
REMARK       I    between atoms: C4_6  and  N2_8 
REMARK    2  A    between atoms: N2_8  and  C5_10 
REMARK    3  A    between atoms: C5_10  and  C6_11 
REMARK    4  A    between atoms: C9_16  and  N3_17 
REMARK    5  A    between atoms: N3_17  and  S1_19 
ROOT
HETATM    1  C5  UNL     1       9.474  14.824  51.026  1.00  0.00     0.093 C 
HETATM    2  C7  UNL     1       9.751  13.880  49.857  1.00  0.00     0.039 C 
HETATM    3  C8  UNL     1       8.524  13.392  49.173  1.00  0.00     0.028 C 
HETATM    4  C9  UNL     1       7.585  14.513  48.778  1.00  0.00     0.093 C 
HETATM    5  C11 UNL     1       7.210  15.206  50.086  1.00  0.00     0.028 C 
HETATM    6  C12 UNL     1       8.419  15.843  50.659  1.00  0.00     0.039 C 
ENDROOT
BRANCH   1   7
HETATM    7  N2  UNL     1      10.685  15.523  51.334  1.00  0.00    -0.328 N 
HETATM    8  C4  UNL     1      11.275  16.613  50.707  1.00  0.00     0.317 C 
HETATM    9  N1  UNL     1      12.529  17.181  51.145  1.00  0.00    -0.339 N 
HETATM   10  O1  UNL     1      10.771  17.185  49.723  1.00  0.00    -0.247 OA
ATOM     11  H1  UNL     1      12.993  16.756  51.949  1.00  0.00     0.164 HD
ATOM     12  H2  UNL     1      11.196  15.164  52.140  1.00  0.00     0.165 HD
BRANCH   9  13
HETATM   13  C2  UNL     1      13.160  18.304  50.517  1.00  0.00     0.078 C 
HETATM   14  C1  UNL     1      14.621  18.049  50.183  1.00  0.00     0.032 C 
HETATM   15  C3  UNL     1      13.114  19.549  51.376  1.00  0.00     0.032 C 
ENDBRANCH   9  13
ENDBRANCH   1   7
BRANCH   1  16
HETATM   16  C6  UNL     1       8.986  14.033  52.202  1.00  0.00     0.381 C 
HETATM   17  F1  UNL     1       9.278  14.701  53.402  1.00  0.00    -0.212 F 
HETATM   18  F2  UNL     1       9.454  12.756  52.301  1.00  0.00    -0.212 F 
ENDBRANCH   1  16
BRANCH   4  19
HETATM   19  N3  UNL     1       6.397  13.986  48.197  1.00  0.00    -0.315 N 
ATOM     20  H3  UNL     1       5.638  13.590  48.752  1.00  0.00     0.172 HD
BRANCH  19  21
HETATM   21  S1  UNL     1       6.351  14.075  46.483  1.00  0.00     0.223 S 
HETATM   22  C10 UNL     1       7.191  12.754  45.692  1.00  0.00     0.185 C 
HETATM   23  O2  UNL     1       6.843  15.392  45.969  1.00  0.00    -0.206 OA
HETATM   24  O3  UNL     1       4.886  13.985  46.083  1.00  0.00    -0.206 OA
ENDBRANCH  19  21
ENDBRANCH   4  19
TORSDOF 5
ENDMDL
MODEL 3
REMARK VINA RESULT: -7.093964963      1.019      1.092
REMARK  5 active torsions:
REMARK  status: ('A' for Active; 'I' for Inactive)
REMARK    1  A    between atoms: C2_2  and  N1_4 
REMARK       I    between atoms: N1_4  and  C4_6 
REMARK       I    between atoms: C4_6  and  N2_8 
REMARK    2  A    between atoms: N2_8  and  C5_10 
REMARK    3  A    between atoms: C5_10  and  C6_11 
REMARK    4  A    between atoms: C9_16  and  N3_17 
REMARK    5  A    between atoms: N3_17  and  S1_19 
ROOT
HETATM    1  C5  UNL     1       9.798  14.753  50.478  1.00  0.00     0.093 C 
HETATM    2  C7  UNL     1      10.035  13.391  49.825  1.00  0.00     0.039 C 
HETATM    3  C8  UNL     1       8.798  12.753  49.300  1.00  0.00     0.028 C 
HETATM    4  C9  UNL     1       7.995  13.673  48.404  1.00  0.00     0.093 C 
HETATM    5  C11 UNL     1       7.631  14.871  49.277  1.00  0.00     0.028 C 
HETATM    6  C12 UNL     1       8.869  15.600  49.639  1.00  0.00     0.039 C 
ENDROOT
BRANCH   1   7
HETATM    7  N2  UNL     1      11.058  15.428  50.573  1.00  0.00    -0.328 N 
HETATM    8  C4  UNL     1      11.377  16.656  51.138  1.00  0.00     0.317 C 
HETATM    9  N1  UNL     1      12.715  17.199  51.120  1.00  0.00    -0.339 N 
HETATM   10  O1  UNL     1      10.537  17.382  51.702  1.00  0.00    -0.247 OA
ATOM     11  H1  UNL     1      13.449  16.651  50.672  1.00  0.00     0.164 HD
ATOM     12  H2  UNL     1      11.846  14.928  50.160  1.00  0.00     0.165 HD
BRANCH   9  13
HETATM   13  C2  UNL     1      13.072  18.463  51.695  1.00  0.00     0.078 C 
HETATM   14  C1  UNL     1      12.871  19.625  50.736  1.00  0.00     0.032 C 
HETATM   15  C3  UNL     1      14.516  18.507  52.146  1.00  0.00     0.032 C 
ENDBRANCH   9  13
ENDBRANCH   1   7
BRANCH   1  16
HETATM   16  C6  UNL     1       9.180  14.559  51.829  1.00  0.00     0.381 C 
HETATM   17  F1  UNL     1       8.357  15.648  52.156  1.00  0.00    -0.212 F 
HETATM   18  F2  UNL     1      10.048  14.355  52.861  1.00  0.00    -0.212 F 
ENDBRANCH   1  16
BRANCH   4  19
HETATM   19  N3  UNL     1       6.790  13.039  47.992  1.00  0.00    -0.315 N 
ATOM     20  H3  UNL     1       6.347  12.291  48.525  1.00  0.00     0.172 HD
BRANCH  19  21
HETATM   21  S1  UNL     1       6.143  13.643  46.521  1.00  0.00     0.223 S 
HETATM   22  C10 UNL     1       6.544  15.323  46.218  1.00  0.00     0.185 C 
HETATM   23  O2  UNL     1       4.665  13.430  46.420  1.00  0.00    -0.206 OA
HETATM   24  O3  UNL     1       6.765  12.820  45.402  1.00  0.00    -0.206 OA
ENDBRANCH  19  21
ENDBRANCH   4  19
TORSDOF 5
ENDMDL
MODEL 4
REMARK VINA RESULT: -6.997896219      1.529      1.700
REMARK  5 active torsions:
REMARK  status: ('A' for Active; 'I' for Inactive)
REMARK    1  A    between atoms: C2_2  and  N1_4 
REMARK       I    between atoms: N1_4  and  C4_6 
REMARK       I    between atoms: C4_6  and  N2_8 
REMARK    2  A    between atoms: N2_8  and  C5_10 
REMARK    3  A    between atoms: C5_10  and  C6_11 
REMARK    4  A    between atoms: C9_16  and  N3_17 
REMARK    5  A    between atoms: N3_17  and  S1_19 
ROOT
HETATM    1  C5  UNL     1       9.688  15.626  50.524  1.00  0.00     0.093 C 
HETATM    2  C7  UNL     1       9.816  14.227  49.924  1.00  0.00     0.039 C 
HETATM    3  C8  UNL     1       8.523  13.644  49.477  1.00  0.00     0.028 C 
HETATM    4  C9  UNL     1       7.740  14.572  48.572  1.00  0.00     0.093 C 
HETATM    5  C11 UNL     1       7.484  15.826  49.403  1.00  0.00     0.028 C 
HETATM    6  C12 UNL     1       8.778  16.493  49.684  1.00  0.00     0.039 C 
ENDROOT
BRANCH   1   7
HETATM    7  N2  UNL     1      10.989  16.227  50.539  1.00  0.00    -0.328 N 
HETATM    8  C4  UNL     1      11.528  17.221  49.733  1.00  0.00     0.317 C 
HETATM    9  N1  UNL     1      12.884  17.693  49.878  1.00  0.00    -0.339 N 
HETATM   10  O1  UNL     1      10.885  17.781  48.826  1.00  0.00    -0.247 OA
ATOM     11  H1  UNL     1      13.464  17.273  50.605  1.00  0.00     0.164 HD
ATOM     12  H2  UNL     1      11.619  15.867  51.256  1.00  0.00     0.165 HD
BRANCH   9  13
HETATM   13  C2  UNL     1      13.466  18.716  49.059  1.00  0.00     0.078 C 
HETATM   14  C1  UNL     1      14.322  18.158  47.935  1.00  0.00     0.032 C 
HETATM   15  C3  UNL     1      14.340  19.664  49.851  1.00  0.00     0.032 C 
ENDBRANCH   9  13
ENDBRANCH   1   7
BRANCH   1  16
HETATM   16  C6  UNL     1       9.115  15.529  51.905  1.00  0.00     0.381 C 
HETATM   17  F1  UNL     1       9.428  16.676  52.652  1.00  0.00    -0.212 F 
HETATM   18  F2  UNL     1       9.486  14.435  52.630  1.00  0.00    -0.212 F 
ENDBRANCH   1  16
BRANCH   4  19
HETATM   19  N3  UNL     1       6.483  13.996  48.236  1.00  0.00    -0.315 N 
ATOM     20  H3  UNL     1       5.815  13.675  48.937  1.00  0.00     0.172 HD
BRANCH  19  21
HETATM   21  S1  UNL     1       6.185  13.889  46.548  1.00  0.00     0.223 S 
HETATM   22  C10 UNL     1       7.129  12.645  45.749  1.00  0.00     0.185 C 
HETATM   23  O2  UNL     1       6.358  15.205  45.856  1.00  0.00    -0.206 OA
HETATM   24  O3  UNL     1       4.718  13.517  46.389  1.00  0.00    -0.206 OA
ENDBRANCH  19  21
ENDBRANCH   4  19
TORSDOF 5
ENDMDL
MODEL 5
REMARK VINA RESULT: -6.592627369      3.615      5.081
REMARK  5 active torsions:
REMARK  status: ('A' for Active; 'I' for Inactive)
REMARK    1  A    between atoms: C2_2  and  N1_4 
REMARK       I    between atoms: N1_4  and  C4_6 
REMARK       I    between atoms: C4_6  and  N2_8 
REMARK    2  A    between atoms: N2_8  and  C5_10 
REMARK    3  A    between atoms: C5_10  and  C6_11 
REMARK    4  A    between atoms: C9_16  and  N3_17 
REMARK    5  A    between atoms: N3_17  and  S1_19 
ROOT
HETATM    1  C5  UNL     1       8.556  16.393  49.258  1.00  0.00     0.093 C 
HETATM    2  C7  UNL     1       7.959  15.482  48.186  1.00  0.00     0.039 C 
HETATM    3  C8  UNL     1       7.183  16.206  47.145  1.00  0.00     0.028 C 
HETATM    4  C9  UNL     1       7.950  17.361  46.535  1.00  0.00     0.093 C 
HETATM    5  C11 UNL     1       8.261  18.299  47.698  1.00  0.00     0.028 C 
HETATM    6  C12 UNL     1       9.185  17.619  48.635  1.00  0.00     0.039 C 
ENDROOT
BRANCH   1   7
HETATM    7  N2  UNL     1       9.580  15.664  49.945  1.00  0.00    -0.328 N 
HETATM    8  C4  UNL     1       9.533  14.424  50.569  1.00  0.00     0.317 C 
HETATM    9  N1  UNL     1      10.671  13.846  51.243  1.00  0.00    -0.339 N 
HETATM   10  O1  UNL     1       8.509  13.716  50.595  1.00  0.00    -0.247 OA
ATOM     11  H1  UNL     1      11.542  14.378  51.256  1.00  0.00     0.164 HD
ATOM     12  H2  UNL     1      10.487  16.129  49.983  1.00  0.00     0.165 HD
BRANCH   9  13
HETATM   13  C2  UNL     1      10.651  12.570  51.895  1.00  0.00     0.078 C 
HETATM   14  C1  UNL     1      10.551  11.409  50.920  1.00  0.00     0.032 C 
HETATM   15  C3  UNL     1       9.496  12.433  52.864  1.00  0.00     0.032 C 
ENDBRANCH   9  13
ENDBRANCH   1   7
BRANCH   1  16
HETATM   16  C6  UNL     1       7.476  16.835  50.198  1.00  0.00     0.381 C 
HETATM   17  F1  UNL     1       8.013  17.146  51.457  1.00  0.00    -0.212 F 
HETATM   18  F2  UNL     1       6.445  15.961  50.378  1.00  0.00    -0.212 F 
ENDBRANCH   1  16
BRANCH   4  19
HETATM   19  N3  UNL     1       7.136  18.062  45.602  1.00  0.00    -0.315 N 
ATOM     20  H3  UNL     1       6.117  18.031  45.623  1.00  0.00     0.172 HD
BRANCH  19  21
HETATM   21  S1  UNL     1       8.017  18.965  44.437  1.00  0.00     0.223 S 
HETATM   22  C10 UNL     1       7.713  20.691  44.515  1.00  0.00     0.185 C 
HETATM   23  O2  UNL     1       7.805  18.458  43.045  1.00  0.00    -0.206 OA
HETATM   24  O3  UNL     1       9.492  18.751  44.745  1.00  0.00    -0.206 OA
ENDBRANCH  19  21
ENDBRANCH   4  19
TORSDOF 5
ENDMDL
