MODEL 1
REMARK VINA RESULT: -7.329175489      0.000      0.000
REMARK  5 active torsions:
REMARK  status: ('A' for Active; 'I' for Inactive)
REMARK    1  A    between atoms: C2_2  and  O1_3 
REMARK    2  A    between atoms: O1_3  and  C3_4 
REMARK    3  A    between atoms: N1_10  and  C9_11 
REMARK    4  A    between atoms: C9_11  and  C10_12 
REMARK    5  A    between atoms: C16_19  and  N2_20 
ROOT
HETATM    1  C3  UNL     1      67.074  36.256   2.553  1.00  0.00     0.122 C 
HETATM    2  C4  UNL     1      66.413  35.714   1.350  1.00  0.00     0.033 C 
HETATM    3  C5  UNL     1      67.018  35.942   0.021  1.00  0.00     0.015 C 
HETATM    4  C6  UNL     1      68.484  36.321   0.120  1.00  0.00     0.002 C 
HETATM    5  C7  UNL     1      68.525  37.802   0.015  1.00  0.00     0.043 C 
HETATM    6  C8  UNL     1      68.479  38.002  -1.496  1.00  0.00     0.273 C 
HETATM    7  N1  UNL     1      68.397  36.616  -2.068  1.00  0.00     0.094 N 
HETATM    8  C13 UNL     1      69.263  36.020  -1.129  1.00  0.00     0.237 C 
HETATM    9  C14 UNL     1      69.792  34.685  -1.123  1.00  0.00     0.085 C 
HETATM   10  C15 UNL     1      70.821  34.760   0.015  1.00  0.00     0.011 A 
HETATM   11  S1  UNL     1      72.463  34.404   0.262  1.00  0.00    -0.057 SA
HETATM   12  C16 UNL     1      72.591  34.910   1.887  1.00  0.00     0.142 A 
HETATM   13  N3  UNL     1      71.361  35.329   2.165  1.00  0.00    -0.339 N 
ATOM     14  H3  UNL     1      71.138  35.695   3.091  1.00  0.00     0.168 HD
HETATM   15  C17 UNL     1      70.445  35.267   1.244  1.00  0.00     0.029 A 
HETATM   16  C18 UNL     1      69.001  35.647   1.286  1.00  0.00     0.050 C 
HETATM   17  C19 UNL     1      68.572  36.409   2.492  1.00  0.00     0.043 C 
ENDROOT
BRANCH   7  18
HETATM   18  C9  UNL     1      69.094  36.715  -3.349  1.00  0.00     0.277 C 
BRANCH  18  19
HETATM   19  C10 UNL     1      70.186  37.751  -3.356  1.00  0.00     0.014 A 
HETATM   20  C11 UNL     1      70.688  38.154  -4.735  1.00  0.00     0.007 A 
HETATM   21  C12 UNL     1      71.547  37.283  -3.855  1.00  0.00     0.007 A 
ENDBRANCH  18  19
ENDBRANCH   7  18
BRANCH   1  22
HETATM   22  O1  UNL     1      66.551  37.474   2.980  1.00  0.00    -0.386 OA
BRANCH  22  23
HETATM   23  C2  UNL     1      66.678  37.651   4.357  1.00  0.00     0.163 C 
HETATM   24  C1  UNL     1      66.415  36.387   5.120  1.00  0.00     0.033 C 
ENDBRANCH  22  23
ENDBRANCH   1  22
BRANCH  12  25
HETATM   25  N2  UNL     1      73.648  34.893   2.667  1.00  0.00    -0.380 N 
ATOM     26  H22 UNL     1      74.361  34.169   2.758  1.00  0.00     0.158 HD
ATOM     27  H21 UNL     1      73.956  35.601   3.334  1.00  0.00     0.158 HD
ENDBRANCH  12  25
TORSDOF 5
ENDMDL
MODEL 2
REMARK VINA RESULT: -7.232777062      1.531      2.063
REMARK  5 active torsions:
REMARK  status: ('A' for Active; 'I' for Inactive)
REMARK    1  A    between atoms: C2_2  and  O1_3 
REMARK    2  A    between atoms: O1_3  and  C3_4 
REMARK    3  A    between atoms: N1_10  and  C9_11 
REMARK    4  A    between atoms: C9_11  and  C10_12 
REMARK    5  A    between atoms: C16_19  and  N2_20 
ROOT
HETATM    1  C3  UNL     1      67.190  36.472   2.598  1.00  0.00     0.122 C 
HETATM    2  C4  UNL     1      66.283  35.756   1.678  1.00  0.00     0.033 C 
HETATM    3  C5  UNL     1      66.520  35.825   0.222  1.00  0.00     0.015 C 
HETATM    4  C6  UNL     1      67.938  36.256  -0.106  1.00  0.00     0.002 C 
HETATM    5  C7  UNL     1      67.859  37.711  -0.395  1.00  0.00     0.043 C 
HETATM    6  C8  UNL     1      67.423  37.708  -1.856  1.00  0.00     0.273 C 
HETATM    7  N1  UNL     1      67.286  36.257  -2.218  1.00  0.00     0.094 N 
HETATM    8  C13 UNL     1      68.395  35.815  -1.467  1.00  0.00     0.237 C 
HETATM    9  C14 UNL     1      68.990  34.509  -1.437  1.00  0.00     0.085 C 
HETATM   10  C15 UNL     1      70.265  34.763  -0.619  1.00  0.00     0.011 A 
HETATM   11  S1  UNL     1      71.936  34.491  -0.762  1.00  0.00    -0.057 SA
HETATM   12  C16 UNL     1      72.436  35.211   0.702  1.00  0.00     0.142 A 
HETATM   13  N3  UNL     1      71.292  35.627   1.235  1.00  0.00    -0.339 N 
ATOM     14  H3  UNL     1      71.286  36.105   2.137  1.00  0.00     0.168 HD
HETATM   15  C17 UNL     1      70.179  35.417   0.595  1.00  0.00     0.029 A 
HETATM   16  C18 UNL     1      68.772  35.757   0.961  1.00  0.00     0.050 C 
HETATM   17  C19 UNL     1      68.612  36.658   2.135  1.00  0.00     0.043 C 
ENDROOT
BRANCH   7  18
HETATM   18  C9  UNL     1      67.632  36.206  -3.636  1.00  0.00     0.277 C 
BRANCH  18  19
HETATM   19  C10 UNL     1      66.600  36.846  -4.526  1.00  0.00     0.014 A 
HETATM   20  C11 UNL     1      65.164  36.410  -4.269  1.00  0.00     0.007 A 
HETATM   21  C12 UNL     1      65.884  35.913  -5.495  1.00  0.00     0.007 A 
ENDBRANCH  18  19
ENDBRANCH   7  18
BRANCH   1  22
HETATM   22  O1  UNL     1      66.717  37.719   2.995  1.00  0.00    -0.386 OA
BRANCH  22  23
HETATM   23  C2  UNL     1      66.045  37.667   4.215  1.00  0.00     0.163 C 
HETATM   24  C1  UNL     1      66.549  36.562   5.095  1.00  0.00     0.033 C 
ENDBRANCH  22  23
ENDBRANCH   1  22
BRANCH  12  25
HETATM   25  N2  UNL     1      73.654  35.328   1.181  1.00  0.00    -0.380 N 
ATOM     26  H22 UNL     1      74.145  36.173   1.470  1.00  0.00     0.158 HD
ATOM     27  H21 UNL     1      74.342  34.594   1.352  1.00  0.00     0.158 HD
ENDBRANCH  12  25
TORSDOF 5
ENDMDL
MODEL 3
REMARK VINA RESULT: -7.216252042      0.986      1.586
REMARK  5 active torsions:
REMARK  status: ('A' for Active; 'I' for Inactive)
REMARK    1  A    between atoms: C2_2  and  O1_3 
REMARK    2  A    between atoms: O1_3  and  C3_4 
REMARK    3  A    between atoms: N1_10  and  C9_11 
REMARK    4  A    between atoms: C9_11  and  C10_12 
REMARK    5  A    between atoms: C16_19  and  N2_20 
ROOT
HETATM    1  C3  UNL     1      67.057  36.360   2.670  1.00  0.00     0.122 C 
HETATM    2  C4  UNL     1      66.325  35.734   1.551  1.00  0.00     0.033 C 
HETATM    3  C5  UNL     1      66.858  35.848   0.178  1.00  0.00     0.015 C 
HETATM    4  C6  UNL     1      68.331  36.211   0.167  1.00  0.00     0.002 C 
HETATM    5  C7  UNL     1      68.382  37.679  -0.058  1.00  0.00     0.043 C 
HETATM    6  C8  UNL     1      68.254  37.760  -1.575  1.00  0.00     0.273 C 
HETATM    7  N1  UNL     1      68.127  36.334  -2.031  1.00  0.00     0.094 N 
HETATM    8  C13 UNL     1      69.037  35.801  -1.095  1.00  0.00     0.237 C 
HETATM    9  C14 UNL     1      69.551  34.463  -1.012  1.00  0.00     0.085 C 
HETATM   10  C15 UNL     1      70.642  34.613   0.060  1.00  0.00     0.011 A 
HETATM   11  S1  UNL     1      72.292  34.253   0.244  1.00  0.00    -0.057 SA
HETATM   12  C16 UNL     1      72.515  34.883   1.815  1.00  0.00     0.142 A 
HETATM   13  N3  UNL     1      71.306  35.341   2.125  1.00  0.00    -0.339 N 
ATOM     14  H3  UNL     1      71.138  35.782   3.030  1.00  0.00     0.168 HD
HETATM   15  C17 UNL     1      70.340  35.220   1.263  1.00  0.00     0.029 A 
HETATM   16  C18 UNL     1      68.905  35.623   1.353  1.00  0.00     0.050 C 
HETATM   17  C19 UNL     1      68.551  36.484   2.515  1.00  0.00     0.043 C 
ENDROOT
BRANCH   7  18
HETATM   18  C9  UNL     1      68.754  36.322  -3.351  1.00  0.00     0.277 C 
BRANCH  18  19
HETATM   19  C10 UNL     1      67.880  35.722  -4.420  1.00  0.00     0.014 A 
HETATM   20  C11 UNL     1      66.950  34.612  -3.950  1.00  0.00     0.007 A 
HETATM   21  C12 UNL     1      68.163  34.267  -4.774  1.00  0.00     0.007 A 
ENDBRANCH  18  19
ENDBRANCH   7  18
BRANCH   1  22
HETATM   22  O1  UNL     1      66.571  37.614   3.026  1.00  0.00    -0.386 OA
BRANCH  22  23
HETATM   23  C2  UNL     1      66.439  37.759   4.406  1.00  0.00     0.163 C 
HETATM   24  C1  UNL     1      66.411  36.438   5.116  1.00  0.00     0.033 C 
ENDBRANCH  22  23
ENDBRANCH   1  22
BRANCH  12  25
HETATM   25  N2  UNL     1      73.613  34.913   2.535  1.00  0.00    -0.380 N 
ATOM     26  H22 UNL     1      74.552  34.612   2.277  1.00  0.00     0.158 HD
ATOM     27  H21 UNL     1      73.734  35.239   3.495  1.00  0.00     0.158 HD
ENDBRANCH  12  25
TORSDOF 5
ENDMDL
MODEL 4
REMARK VINA RESULT: -6.882523316      0.895      1.037
REMARK  5 active torsions:
REMARK  status: ('A' for Active; 'I' for Inactive)
REMARK    1  A    between atoms: C2_2  and  O1_3 
REMARK    2  A    between atoms: O1_3  and  C3_4 
REMARK    3  A    between atoms: N1_10  and  C9_11 
REMARK    4  A    between atoms: C9_11  and  C10_12 
REMARK    5  A    between atoms: C16_19  and  N2_20 
ROOT
HETATM    1  C3  UNL     1      67.281  36.410   2.542  1.00  0.00     0.122 C 
HETATM    2  C4  UNL     1      66.458  35.747   1.512  1.00  0.00     0.033 C 
HETATM    3  C5  UNL     1      66.833  35.872   0.088  1.00  0.00     0.015 C 
HETATM    4  C6  UNL     1      68.280  36.294  -0.085  1.00  0.00     0.002 C 
HETATM    5  C7  UNL     1      68.246  37.761  -0.318  1.00  0.00     0.043 C 
HETATM    6  C8  UNL     1      67.950  37.825  -1.813  1.00  0.00     0.273 C 
HETATM    7  N1  UNL     1      67.833  36.392  -2.247  1.00  0.00     0.094 N 
HETATM    8  C13 UNL     1      68.860  35.904  -1.414  1.00  0.00     0.237 C 
HETATM    9  C14 UNL     1      69.435  34.588  -1.384  1.00  0.00     0.085 C 
HETATM   10  C15 UNL     1      70.629  34.790  -0.439  1.00  0.00     0.011 A 
HETATM   11  S1  UNL     1      72.303  34.499  -0.434  1.00  0.00    -0.057 SA
HETATM   12  C16 UNL     1      72.669  35.149   1.100  1.00  0.00     0.142 A 
HETATM   13  N3  UNL     1      71.484  35.560   1.540  1.00  0.00    -0.339 N 
ATOM     14  H3  UNL     1      71.398  36.001   2.456  1.00  0.00     0.168 HD
HETATM   15  C17 UNL     1      70.435  35.393   0.788  1.00  0.00     0.029 A 
HETATM   16  C18 UNL     1      69.004  35.739   1.034  1.00  0.00     0.050 C 
HETATM   17  C19 UNL     1      68.743  36.594   2.225  1.00  0.00     0.043 C 
ENDROOT
BRANCH   7  18
HETATM   18  C9  UNL     1      68.311  36.395  -3.627  1.00  0.00     0.277 C 
BRANCH  18  19
HETATM   19  C10 UNL     1      68.290  37.759  -4.264  1.00  0.00     0.014 A 
HETATM   20  C11 UNL     1      68.096  37.765  -5.774  1.00  0.00     0.007 A 
HETATM   21  C12 UNL     1      69.452  38.078  -5.196  1.00  0.00     0.007 A 
ENDBRANCH  18  19
ENDBRANCH   7  18
BRANCH   1  22
HETATM   22  O1  UNL     1      66.786  37.647   2.946  1.00  0.00    -0.386 OA
BRANCH  22  23
HETATM   23  C2  UNL     1      65.970  37.549   4.071  1.00  0.00     0.163 C 
HETATM   24  C1  UNL     1      66.497  36.564   5.072  1.00  0.00     0.033 C 
ENDBRANCH  22  23
ENDBRANCH   1  22
BRANCH  12  25
HETATM   25  N2  UNL     1      73.837  35.228   1.697  1.00  0.00    -0.380 N 
ATOM     26  H22 UNL     1      74.096  35.773   2.519  1.00  0.00     0.158 HD
ATOM     27  H21 UNL     1      74.710  34.762   1.448  1.00  0.00     0.158 HD
ENDBRANCH  12  25
TORSDOF 5
ENDMDL
MODEL 5
REMARK VINA RESULT: -6.759631075      2.945      6.349
REMARK  5 active torsions:
REMARK  status: ('A' for Active; 'I' for Inactive)
REMARK    1  A    between atoms: C2_2  and  O1_3 
REMARK    2  A    between atoms: O1_3  and  C3_4 
REMARK    3  A    between atoms: N1_10  and  C9_11 
REMARK    4  A    between atoms: C9_11  and  C10_12 
REMARK    5  A    between atoms: C16_19  and  N2_20 
ROOT
HETATM    1  C3  UNL     1      71.467  35.029  -1.282  1.00  0.00     0.122 C 
HETATM    2  C4  UNL     1      70.694  34.019  -0.532  1.00  0.00     0.033 C 
HETATM    3  C5  UNL     1      69.581  34.451   0.337  1.00  0.00     0.015 C 
HETATM    4  C6  UNL     1      69.093  35.845  -0.013  1.00  0.00     0.002 C 
HETATM    5  C7  UNL     1      69.752  36.757   0.957  1.00  0.00     0.043 C 
HETATM    6  C8  UNL     1      68.830  36.636   2.165  1.00  0.00     0.273 C 
HETATM    7  N1  UNL     1      67.770  35.658   1.748  1.00  0.00     0.094 N 
HETATM    8  C13 UNL     1      67.677  36.105   0.415  1.00  0.00     0.237 C 
HETATM    9  C14 UNL     1      66.731  35.716  -0.594  1.00  0.00     0.085 C 
HETATM   10  C15 UNL     1      67.033  36.725  -1.713  1.00  0.00     0.011 A 
HETATM   11  S1  UNL     1      66.184  37.833  -2.680  1.00  0.00    -0.057 SA
HETATM   12  C16 UNL     1      67.502  38.460  -3.564  1.00  0.00     0.142 A 
HETATM   13  N3  UNL     1      68.537  37.785  -3.074  1.00  0.00    -0.339 N 
ATOM     14  H3  UNL     1      69.479  37.956  -3.427  1.00  0.00     0.168 HD
HETATM   15  C17 UNL     1      68.334  36.902  -2.140  1.00  0.00     0.029 A 
HETATM   16  C18 UNL     1      69.294  36.003  -1.433  1.00  0.00     0.050 C 
HETATM   17  C19 UNL     1      70.737  36.289  -1.668  1.00  0.00     0.043 C 
ENDROOT
BRANCH   7  18
HETATM   18  C9  UNL     1      66.577  36.091   2.471  1.00  0.00     0.277 C 
BRANCH  18  19
HETATM   19  C10 UNL     1      66.868  37.091   3.558  1.00  0.00     0.014 A 
HETATM   20  C11 UNL     1      66.399  36.691   4.950  1.00  0.00     0.007 A 
HETATM   21  C12 UNL     1      65.654  37.759   4.192  1.00  0.00     0.007 A 
ENDBRANCH  18  19
ENDBRANCH   7  18
BRANCH   1  22
HETATM   22  O1  UNL     1      72.649  35.411  -0.654  1.00  0.00    -0.386 OA
BRANCH  22  23
HETATM   23  C2  UNL     1      73.058  34.492   0.311  1.00  0.00     0.163 C 
HETATM   24  C1  UNL     1      73.449  35.154   1.598  1.00  0.00     0.033 C 
ENDBRANCH  22  23
ENDBRANCH   1  22
BRANCH  12  25
HETATM   25  N2  UNL     1      67.495  39.386  -4.496  1.00  0.00    -0.380 N 
ATOM     26  H22 UNL     1      68.250  39.666  -5.121  1.00  0.00     0.158 HD
ATOM     27  H21 UNL     1      66.732  40.007  -4.769  1.00  0.00     0.158 HD
ENDBRANCH  12  25
TORSDOF 5
ENDMDL
