MODEL 1
REMARK VINA RESULT: -7.593794386      0.000      0.000
REMARK  4 active torsions:
REMARK  status: ('A' for Active; 'I' for Inactive)
REMARK    1  A    between atoms: O1_2  and  C2_3 
REMARK    2  A    between atoms: C8_10  and  C9_11 
REMARK    3  A    between atoms: C9_11  and  C10_12 
REMARK    4  A    between atoms: C10_12  and  C11_13 
ROOT
HETATM    1  C2  UNL     1     -13.228   6.473   0.053  1.00  0.00     0.090 A 
HETATM    2  C3  UNL     1     -13.736   7.037  -1.079  1.00  0.00     0.046 A 
HETATM    3  C4  UNL     1     -12.944   7.414  -2.182  1.00  0.00    -0.048 A 
HETATM    4  C5  UNL     1     -11.581   7.198  -2.113  1.00  0.00    -0.039 A 
HETATM    5  C6  UNL     1     -11.061   6.631  -0.979  1.00  0.00     0.035 A 
HETATM    6  C7  UNL     1     -11.864   6.274   0.088  1.00  0.00     0.068 A 
HETATM    7 CL1  UNL     1     -11.162   5.547   1.530  1.00  0.00    -0.081 Cl
HETATM    8  C8  UNL     1     -10.721   7.594  -3.314  1.00  0.00     0.023 C 
HETATM    9  C12 UNL     1     -10.410   9.024  -3.108  1.00  0.00     0.005 A 
HETATM   10  C13 UNL     1     -10.843   9.721  -1.857  1.00  0.00     0.006 A 
HETATM   11  C14 UNL     1     -11.632  10.746  -2.658  1.00  0.00     0.006 A 
HETATM   12  C15 UNL     1     -11.202  10.019  -3.888  1.00  0.00    -0.003 A 
HETATM   13  C16 UNL     1     -12.229   9.483  -4.803  1.00  0.00     0.025 C 
HETATM   14  C17 UNL     1     -11.489   9.085  -6.064  1.00  0.00     0.278 C 
HETATM   15  N1  UNL     1     -10.971   7.763  -5.727  1.00  0.00     0.090 N 
HETATM   16  C18 UNL     1     -11.402   6.896  -6.851  1.00  0.00     0.310 C 
HETATM   17  C19 UNL     1     -11.603   7.318  -4.516  1.00  0.00     0.240 C 
HETATM   18  C20 UNL     1     -12.839   8.185  -4.466  1.00  0.00     0.030 C 
HETATM   19  C21 UNL     1     -13.681   8.025  -3.306  1.00  0.00     0.046 C 
ENDROOT
BRANCH   8  20
HETATM   20  C9  UNL     1      -9.623   6.612  -3.341  1.00  0.00     0.027 C 
BRANCH  20  21
HETATM   21  C10 UNL     1      -8.409   6.742  -4.142  1.00  0.00     0.114 C 
BRANCH  21  22
HETATM   22  C11 UNL     1      -8.160   5.712  -5.154  1.00  0.00     0.172 C 
HETATM   23  O2  UNL     1      -7.041   5.780  -5.781  1.00  0.00    -0.648 OA
HETATM   24  O3  UNL     1      -8.985   4.676  -5.509  1.00  0.00    -0.648 OA
ENDBRANCH  21  22
ENDBRANCH  20  21
ENDBRANCH   8  20
BRANCH   1  25
HETATM   25  O1  UNL     1     -13.986   6.099   1.143  1.00  0.00    -0.354 OA
HETATM   26  C1  UNL     1     -14.585   4.801   1.232  1.00  0.00     0.210 C 
ENDBRANCH   1  25
TORSDOF 4
ENDMDL
MODEL 2
REMARK VINA RESULT: -7.559749871      2.568      4.426
REMARK  4 active torsions:
REMARK  status: ('A' for Active; 'I' for Inactive)
REMARK    1  A    between atoms: O1_2  and  C2_3 
REMARK    2  A    between atoms: C8_10  and  C9_11 
REMARK    3  A    between atoms: C9_11  and  C10_12 
REMARK    4  A    between atoms: C10_12  and  C11_13 
ROOT
HETATM    1  C2  UNL     1     -11.446   6.111   0.544  1.00  0.00     0.090 A 
HETATM    2  C3  UNL     1     -10.217   6.661   0.336  1.00  0.00     0.046 A 
HETATM    3  C4  UNL     1      -9.945   7.588  -0.689  1.00  0.00    -0.048 A 
HETATM    4  C5  UNL     1     -10.978   7.961  -1.527  1.00  0.00    -0.039 A 
HETATM    5  C6  UNL     1     -12.219   7.412  -1.326  1.00  0.00     0.035 A 
HETATM    6  C7  UNL     1     -12.454   6.503  -0.312  1.00  0.00     0.068 A 
HETATM    7 CL1  UNL     1     -14.060   5.819  -0.082  1.00  0.00    -0.081 Cl
HETATM    8  C8  UNL     1     -10.688   8.977  -2.632  1.00  0.00     0.023 C 
HETATM    9  C12 UNL     1     -10.183   8.176  -3.767  1.00  0.00     0.005 A 
HETATM   10  C13 UNL     1     -10.153   6.682  -3.686  1.00  0.00     0.006 A 
HETATM   11  C14 UNL     1      -8.652   6.662  -3.933  1.00  0.00     0.006 A 
HETATM   12  C15 UNL     1      -8.708   8.153  -3.989  1.00  0.00    -0.003 A 
HETATM   13  C16 UNL     1      -7.881   8.939  -3.051  1.00  0.00     0.025 C 
HETATM   14  C17 UNL     1      -7.933  10.367  -3.555  1.00  0.00     0.278 C 
HETATM   15  N1  UNL     1      -9.190  10.857  -2.998  1.00  0.00     0.090 N 
HETATM   16  C18 UNL     1      -8.826  12.122  -2.314  1.00  0.00     0.310 C 
HETATM   17  C19 UNL     1      -9.660   9.910  -2.025  1.00  0.00     0.240 C 
HETATM   18  C20 UNL     1      -8.398   9.149  -1.688  1.00  0.00     0.030 C 
HETATM   19  C21 UNL     1      -8.546   8.056  -0.760  1.00  0.00     0.046 C 
ENDROOT
BRANCH   8  20
HETATM   20  C9  UNL     1     -11.938   9.743  -2.788  1.00  0.00     0.027 C 
BRANCH  20  21
HETATM   21  C10 UNL     1     -12.692   9.861  -4.032  1.00  0.00     0.114 C 
BRANCH  21  22
HETATM   22  C11 UNL     1     -13.869   9.002  -4.187  1.00  0.00     0.172 C 
HETATM   23  O2  UNL     1     -13.655   7.795  -4.570  1.00  0.00    -0.648 OA
HETATM   24  O3  UNL     1     -15.179   9.337  -3.963  1.00  0.00    -0.648 OA
ENDBRANCH  21  22
ENDBRANCH  20  21
ENDBRANCH   8  20
BRANCH   1  25
HETATM   25  O1  UNL     1     -11.733   5.201   1.540  1.00  0.00    -0.354 OA
HETATM   26  C1  UNL     1     -11.554   3.794   1.347  1.00  0.00     0.210 C 
ENDBRANCH   1  25
TORSDOF 4
ENDMDL
MODEL 3
REMARK VINA RESULT: -7.540615922      2.743      5.971
REMARK  4 active torsions:
REMARK  status: ('A' for Active; 'I' for Inactive)
REMARK    1  A    between atoms: O1_2  and  C2_3 
REMARK    2  A    between atoms: C8_10  and  C9_11 
REMARK    3  A    between atoms: C9_11  and  C10_12 
REMARK    4  A    between atoms: C10_12  and  C11_13 
ROOT
HETATM    1  C2  UNL     1     -11.919   6.923  -6.355  1.00  0.00     0.090 A 
HETATM    2  C3  UNL     1     -10.821   6.756  -5.565  1.00  0.00     0.046 A 
HETATM    3  C4  UNL     1     -10.791   7.092  -4.197  1.00  0.00    -0.048 A 
HETATM    4  C5  UNL     1     -11.934   7.616  -3.626  1.00  0.00    -0.039 A 
HETATM    5  C6  UNL     1     -13.044   7.787  -4.412  1.00  0.00     0.035 A 
HETATM    6  C7  UNL     1     -13.042   7.449  -5.753  1.00  0.00     0.068 A 
HETATM    7 CL1  UNL     1     -14.486   7.682  -6.734  1.00  0.00    -0.081 Cl
HETATM    8  C8  UNL     1     -11.908   7.968  -2.138  1.00  0.00     0.023 C 
HETATM    9  C12 UNL     1     -11.364   9.341  -2.079  1.00  0.00     0.005 A 
HETATM   10  C13 UNL     1     -11.075  10.096  -3.338  1.00  0.00     0.006 A 
HETATM   11  C14 UNL     1      -9.616  10.269  -2.942  1.00  0.00     0.006 A 
HETATM   12  C15 UNL     1      -9.928   9.496  -1.704  1.00  0.00    -0.003 A 
HETATM   13  C16 UNL     1      -9.177   8.257  -1.422  1.00  0.00     0.025 C 
HETATM   14  C17 UNL     1      -9.510   7.891   0.011  1.00  0.00     0.278 C 
HETATM   15  N1  UNL     1     -10.784   7.193  -0.126  1.00  0.00     0.090 N 
HETATM   16  C18 UNL     1     -10.589   5.914   0.601  1.00  0.00     0.310 C 
HETATM   17  C19 UNL     1     -11.009   6.917  -1.518  1.00  0.00     0.240 C 
HETATM   18  C20 UNL     1      -9.615   7.019  -2.090  1.00  0.00     0.030 C 
HETATM   19  C21 UNL     1      -9.501   6.852  -3.518  1.00  0.00     0.046 C 
ENDROOT
BRANCH   8  20
HETATM   20  C9  UNL     1     -13.278   7.712  -1.658  1.00  0.00     0.027 C 
BRANCH  20  21
HETATM   21  C10 UNL     1     -13.813   6.393  -1.332  1.00  0.00     0.114 C 
BRANCH  21  22
HETATM   22  C11 UNL     1     -14.396   6.216   0.000  1.00  0.00     0.172 C 
HETATM   23  O2  UNL     1     -14.018   7.041   0.909  1.00  0.00    -0.648 OA
HETATM   24  O3  UNL     1     -15.307   5.269   0.391  1.00  0.00    -0.648 OA
ENDBRANCH  21  22
ENDBRANCH  20  21
ENDBRANCH   8  20
BRANCH   1  25
HETATM   25  O1  UNL     1     -11.968   6.602  -7.695  1.00  0.00    -0.354 OA
HETATM   26  C1  UNL     1     -11.453   7.484  -8.699  1.00  0.00     0.210 C 
ENDBRANCH   1  25
TORSDOF 4
ENDMDL
MODEL 4
REMARK VINA RESULT: -7.216557325      3.003      4.568
REMARK  4 active torsions:
REMARK  status: ('A' for Active; 'I' for Inactive)
REMARK    1  A    between atoms: O1_2  and  C2_3 
REMARK    2  A    between atoms: C8_10  and  C9_11 
REMARK    3  A    between atoms: C9_11  and  C10_12 
REMARK    4  A    between atoms: C10_12  and  C11_13 
ROOT
HETATM    1  C2  UNL     1     -11.451   6.128   0.519  1.00  0.00     0.090 A 
HETATM    2  C3  UNL     1     -10.219   6.676   0.326  1.00  0.00     0.046 A 
HETATM    3  C4  UNL     1      -9.932   7.602  -0.697  1.00  0.00    -0.048 A 
HETATM    4  C5  UNL     1     -10.955   7.975  -1.548  1.00  0.00    -0.039 A 
HETATM    5  C6  UNL     1     -12.199   7.428  -1.361  1.00  0.00     0.035 A 
HETATM    6  C7  UNL     1     -12.448   6.521  -0.349  1.00  0.00     0.068 A 
HETATM    7 CL1  UNL     1     -14.058   5.839  -0.138  1.00  0.00    -0.081 Cl
HETATM    8  C8  UNL     1     -10.650   8.990  -2.650  1.00  0.00     0.023 C 
HETATM    9  C12 UNL     1     -10.132   8.186  -3.778  1.00  0.00     0.005 A 
HETATM   10  C13 UNL     1     -10.106   6.692  -3.695  1.00  0.00     0.006 A 
HETATM   11  C14 UNL     1      -8.602   6.670  -3.924  1.00  0.00     0.006 A 
HETATM   12  C15 UNL     1      -8.655   8.161  -3.982  1.00  0.00    -0.003 A 
HETATM   13  C16 UNL     1      -7.838   8.946  -3.035  1.00  0.00     0.025 C 
HETATM   14  C17 UNL     1      -7.882  10.374  -3.541  1.00  0.00     0.278 C 
HETATM   15  N1  UNL     1      -9.145  10.866  -3.000  1.00  0.00     0.090 N 
HETATM   16  C18 UNL     1      -8.788  12.132  -2.313  1.00  0.00     0.310 C 
HETATM   17  C19 UNL     1      -9.628   9.922  -2.032  1.00  0.00     0.240 C 
HETATM   18  C20 UNL     1      -8.372   9.159  -1.679  1.00  0.00     0.030 C 
HETATM   19  C21 UNL     1      -8.532   8.067  -0.751  1.00  0.00     0.046 C 
ENDROOT
BRANCH   8  20
HETATM   20  C9  UNL     1     -11.897   9.757  -2.822  1.00  0.00     0.027 C 
BRANCH  20  21
HETATM   21  C10 UNL     1     -12.576   9.967  -4.097  1.00  0.00     0.114 C 
BRANCH  21  22
HETATM   22  C11 UNL     1     -12.541  11.318  -4.662  1.00  0.00     0.172 C 
HETATM   23  O2  UNL     1     -12.174  12.263  -3.873  1.00  0.00    -0.648 OA
HETATM   24  O3  UNL     1     -12.852  11.693  -5.944  1.00  0.00    -0.648 OA
ENDBRANCH  21  22
ENDBRANCH  20  21
ENDBRANCH   8  20
BRANCH   1  25
HETATM   25  O1  UNL     1     -11.751   5.220   1.513  1.00  0.00    -0.354 OA
HETATM   26  C1  UNL     1     -11.564   3.813   1.327  1.00  0.00     0.210 C 
ENDBRANCH   1  25
TORSDOF 4
ENDMDL
MODEL 5
REMARK VINA RESULT: -7.102107567      0.886      1.004
REMARK  4 active torsions:
REMARK  status: ('A' for Active; 'I' for Inactive)
REMARK    1  A    between atoms: O1_2  and  C2_3 
REMARK    2  A    between atoms: C8_10  and  C9_11 
REMARK    3  A    between atoms: C9_11  and  C10_12 
REMARK    4  A    between atoms: C10_12  and  C11_13 
ROOT
HETATM    1  C2  UNL     1     -13.110   6.690  -0.337  1.00  0.00     0.090 A 
HETATM    2  C3  UNL     1     -13.774   7.270  -1.375  1.00  0.00     0.046 A 
HETATM    3  C4  UNL     1     -13.138   7.728  -2.546  1.00  0.00    -0.048 A 
HETATM    4  C5  UNL     1     -11.768   7.579  -2.647  1.00  0.00    -0.039 A 
HETATM    5  C6  UNL     1     -11.090   6.997  -1.608  1.00  0.00     0.035 A 
HETATM    6  C7  UNL     1     -11.744   6.559  -0.471  1.00  0.00     0.068 A 
HETATM    7 CL1  UNL     1     -10.842   5.815   0.846  1.00  0.00    -0.081 Cl
HETATM    8  C8  UNL     1     -11.076   8.063  -3.923  1.00  0.00     0.023 C 
HETATM    9  C12 UNL     1     -10.809   9.498  -3.692  1.00  0.00     0.005 A 
HETATM   10  C13 UNL     1     -11.121  10.125  -2.370  1.00  0.00     0.006 A 
HETATM   11  C14 UNL     1     -12.046  11.138  -3.027  1.00  0.00     0.006 A 
HETATM   12  C15 UNL     1     -11.732  10.481  -4.330  1.00  0.00    -0.003 A 
HETATM   13  C16 UNL     1     -12.836   9.928  -5.140  1.00  0.00     0.025 C 
HETATM   14  C17 UNL     1     -12.234   9.616  -6.496  1.00  0.00     0.278 C 
HETATM   15  N1  UNL     1     -11.620   8.310  -6.279  1.00  0.00     0.090 N 
HETATM   16  C18 UNL     1     -12.141   7.465  -7.382  1.00  0.00     0.310 C 
HETATM   17  C19 UNL     1     -12.081   7.788  -5.023  1.00  0.00     0.240 C 
HETATM   18  C20 UNL     1     -13.341   8.589  -4.791  1.00  0.00     0.030 C 
HETATM   19  C21 UNL     1     -14.030   8.343  -3.549  1.00  0.00     0.046 C 
ENDROOT
BRANCH   8  20
HETATM   20  C9  UNL     1      -9.945   7.139  -4.121  1.00  0.00     0.027 C 
BRANCH  20  21
HETATM   21  C10 UNL     1      -9.903   6.077  -5.122  1.00  0.00     0.114 C 
BRANCH  21  22
HETATM   22  C11 UNL     1      -8.827   5.089  -5.007  1.00  0.00     0.172 C 
HETATM   23  O2  UNL     1      -8.783   4.177  -5.910  1.00  0.00    -0.648 OA
HETATM   24  O3  UNL     1      -7.853   5.027  -4.044  1.00  0.00    -0.648 OA
ENDBRANCH  21  22
ENDBRANCH  20  21
ENDBRANCH   8  20
BRANCH   1  25
HETATM   25  O1  UNL     1     -13.714   6.237   0.817  1.00  0.00    -0.354 OA
HETATM   26  C1  UNL     1     -14.348   4.955   0.880  1.00  0.00     0.210 C 
ENDBRANCH   1  25
TORSDOF 4
ENDMDL
