MODEL 1
REMARK VINA RESULT: -5.441473537      0.000      0.000
REMARK  7 active torsions:
REMARK  status: ('A' for Active; 'I' for Inactive)
REMARK    1  A    between atoms: C2_2  and  C3_3 
REMARK    2  A    between atoms: C3_3  and  N1_4 
REMARK    3  A    between atoms: C3_3  and  C5_11 
REMARK    4  A    between atoms: N1_4  and  N2_6 
REMARK       I    between atoms: N2_6  and  C4_8 
REMARK    5  A    between atoms: C5_11  and  N4_13 
REMARK       I    between atoms: N4_13  and  C7_15 
REMARK    6  A    between atoms: C7_15  and  C8_17 
REMARK    7  A    between atoms: C8_17  and  N5_18 
REMARK       I    between atoms: N5_18  and  C9_20 
ROOT
HETATM    1  C5  UNL     1       0.024  25.595  -9.271  1.00  0.00     0.108 C 
HETATM    2  C6  UNL     1       0.095  24.558  -8.174  1.00  0.00     0.034 C 
ENDROOT
BRANCH   1   3
HETATM    3  C3  UNL     1      -1.303  25.441  -9.984  1.00  0.00     0.143 C 
BRANCH   3   4
HETATM    4  C2  UNL     1      -2.172  26.633  -9.792  1.00  0.00    -0.009 C 
HETATM    5  C1  UNL     1      -2.047  27.721 -10.505  1.00  0.00     0.009 C 
ENDBRANCH   3   4
BRANCH   3   6
HETATM    6  N1  UNL     1      -1.859  24.189  -9.833  1.00  0.00    -0.322 N 
ATOM      7  H1  UNL     1      -2.380  24.031  -8.971  1.00  0.00     0.181 HD
BRANCH   6   8
HETATM    8  N2  UNL     1      -1.800  23.157 -10.675  1.00  0.00    -0.258 N 
HETATM    9  C4  UNL     1      -1.089  21.949 -10.670  1.00  0.00     0.346 C 
HETATM   10  N3  UNL     1      -1.295  21.055 -11.800  1.00  0.00    -0.038 NA
HETATM   11  O1  UNL     1      -0.281  21.554  -9.783  1.00  0.00    -0.249 OA
ATOM     12  H2  UNL     1      -2.397  23.269 -11.494  1.00  0.00     0.191 HD
ENDBRANCH   6   8
ENDBRANCH   3   6
ENDBRANCH   1   3
BRANCH   1  13
HETATM   13  N4  UNL     1       1.121  25.216 -10.198  1.00  0.00    -0.353 N 
HETATM   14  C7  UNL     1       2.209  26.068 -10.418  1.00  0.00     0.235 C 
HETATM   15  O2  UNL     1       2.211  27.174  -9.786  1.00  0.00    -0.272 OA
ATOM     16  H4  UNL     1       1.080  24.319 -10.683  1.00  0.00     0.163 HD
BRANCH  14  17
HETATM   17  C8  UNL     1       3.340  25.803 -11.300  1.00  0.00     0.226 C 
BRANCH  17  18
HETATM   18  N5  UNL     1       3.785  26.906 -12.112  1.00  0.00    -0.337 N 
HETATM   19  C9  UNL     1       4.877  27.729 -11.729  1.00  0.00     0.329 C 
HETATM   20  N6  UNL     1       5.307  28.801 -12.521  1.00  0.00    -0.040 NA
HETATM   21  O3  UNL     1       5.459  27.474 -10.650  1.00  0.00    -0.251 OA
ATOM     22  H5  UNL     1       3.302  27.102 -12.989  1.00  0.00     0.164 HD
ENDBRANCH  17  18
ENDBRANCH  14  17
ENDBRANCH   1  13
TORSDOF 7
ENDMDL
MODEL 2
REMARK VINA RESULT: -5.436906162      2.241      3.204
REMARK  7 active torsions:
REMARK  status: ('A' for Active; 'I' for Inactive)
REMARK    1  A    between atoms: C2_2  and  C3_3 
REMARK    2  A    between atoms: C3_3  and  N1_4 
REMARK    3  A    between atoms: C3_3  and  C5_11 
REMARK    4  A    between atoms: N1_4  and  N2_6 
REMARK       I    between atoms: N2_6  and  C4_8 
REMARK    5  A    between atoms: C5_11  and  N4_13 
REMARK       I    between atoms: N4_13  and  C7_15 
REMARK    6  A    between atoms: C7_15  and  C8_17 
REMARK    7  A    between atoms: C8_17  and  N5_18 
REMARK       I    between atoms: N5_18  and  C9_20 
ROOT
HETATM    1  C5  UNL     1      -2.332  25.303 -11.807  1.00  0.00     0.108 C 
HETATM    2  C6  UNL     1      -2.996  25.698 -13.106  1.00  0.00     0.034 C 
ENDROOT
BRANCH   1   3
HETATM    3  C3  UNL     1      -2.874  26.192 -10.708  1.00  0.00     0.143 C 
BRANCH   3   4
HETATM    4  C2  UNL     1      -2.219  27.527 -10.707  1.00  0.00    -0.009 C 
HETATM    5  C1  UNL     1      -2.884  28.641 -10.859  1.00  0.00     0.009 C 
ENDBRANCH   3   4
BRANCH   3   6
HETATM    6  N1  UNL     1      -3.035  25.535  -9.507  1.00  0.00    -0.322 N 
ATOM      7  H1  UNL     1      -3.874  25.769  -8.978  1.00  0.00     0.181 HD
BRANCH   6   8
HETATM    8  N2  UNL     1      -2.229  24.629  -8.951  1.00  0.00    -0.258 N 
HETATM    9  C4  UNL     1      -0.859  24.610  -8.660  1.00  0.00     0.346 C 
HETATM   10  N3  UNL     1      -0.332  23.405  -8.035  1.00  0.00    -0.038 NA
HETATM   11  O1  UNL     1      -0.027  25.533  -8.886  1.00  0.00    -0.249 OA
ATOM     12  H2  UNL     1      -2.711  23.772  -8.682  1.00  0.00     0.191 HD
ENDBRANCH   6   8
ENDBRANCH   3   6
ENDBRANCH   1   3
BRANCH   1  13
HETATM   13  N4  UNL     1      -0.897  25.618 -12.024  1.00  0.00    -0.353 N 
HETATM   14  C7  UNL     1       0.065  24.604 -12.085  1.00  0.00     0.235 C 
HETATM   15  O2  UNL     1      -0.349  23.407 -11.947  1.00  0.00    -0.272 OA
ATOM     16  H4  UNL     1      -0.607  26.590 -12.131  1.00  0.00     0.163 HD
BRANCH  14  17
HETATM   17  C8  UNL     1       1.497  24.791 -12.293  1.00  0.00     0.226 C 
BRANCH  17  18
HETATM   18  N5  UNL     1       2.175  25.630 -11.339  1.00  0.00    -0.337 N 
HETATM   19  C9  UNL     1       3.355  26.346 -11.673  1.00  0.00     0.329 C 
HETATM   20  N6  UNL     1       4.012  27.161 -10.743  1.00  0.00    -0.040 NA
HETATM   21  O3  UNL     1       3.805  26.233 -12.836  1.00  0.00    -0.251 OA
ATOM     22  H5  UNL     1       1.797  25.713 -10.396  1.00  0.00     0.164 HD
ENDBRANCH  17  18
ENDBRANCH  14  17
ENDBRANCH   1  13
TORSDOF 7
ENDMDL
MODEL 3
REMARK VINA RESULT: -5.396935329      4.082      5.681
REMARK  7 active torsions:
REMARK  status: ('A' for Active; 'I' for Inactive)
REMARK    1  A    between atoms: C2_2  and  C3_3 
REMARK    2  A    between atoms: C3_3  and  N1_4 
REMARK    3  A    between atoms: C3_3  and  C5_11 
REMARK    4  A    between atoms: N1_4  and  N2_6 
REMARK       I    between atoms: N2_6  and  C4_8 
REMARK    5  A    between atoms: C5_11  and  N4_13 
REMARK       I    between atoms: N4_13  and  C7_15 
REMARK    6  A    between atoms: C7_15  and  C8_17 
REMARK    7  A    between atoms: C8_17  and  N5_18 
REMARK       I    between atoms: N5_18  and  C9_20 
ROOT
HETATM    1  C5  UNL     1      -2.940  27.019 -10.699  1.00  0.00     0.108 C 
HETATM    2  C6  UNL     1      -2.600  28.490 -10.638  1.00  0.00     0.034 C 
ENDROOT
BRANCH   1   3
HETATM    3  C3  UNL     1      -1.931  26.264  -9.858  1.00  0.00     0.143 C 
BRANCH   3   4
HETATM    4  C2  UNL     1      -0.543  26.466 -10.350  1.00  0.00    -0.009 C 
HETATM    5  C1  UNL     1       0.494  26.481  -9.555  1.00  0.00     0.009 C 
ENDBRANCH   3   4
BRANCH   3   6
HETATM    6  N1  UNL     1      -2.339  24.987  -9.537  1.00  0.00    -0.322 N 
ATOM      7  H1  UNL     1      -3.226  24.913  -9.039  1.00  0.00     0.181 HD
BRANCH   6   8
HETATM    8  N2  UNL     1      -1.718  23.836  -9.798  1.00  0.00    -0.258 N 
HETATM    9  C4  UNL     1      -0.770  23.075  -9.102  1.00  0.00     0.346 C 
HETATM   10  N3  UNL     1      -0.320  21.842  -9.732  1.00  0.00    -0.038 NA
HETATM   11  O1  UNL     1      -0.261  23.348  -7.979  1.00  0.00    -0.249 OA
ATOM     12  H2  UNL     1      -1.991  23.424 -10.690  1.00  0.00     0.191 HD
ENDBRANCH   6   8
ENDBRANCH   3   6
ENDBRANCH   1   3
BRANCH   1  13
HETATM   13  N4  UNL     1      -2.745  26.661 -12.128  1.00  0.00    -0.353 N 
HETATM   14  C7  UNL     1      -3.569  25.721 -12.757  1.00  0.00     0.235 C 
HETATM   15  O2  UNL     1      -4.486  25.192 -12.048  1.00  0.00    -0.272 OA
ATOM     16  H4  UNL     1      -1.999  27.109 -12.660  1.00  0.00     0.163 HD
BRANCH  14  17
HETATM   17  C8  UNL     1      -3.474  25.293 -14.148  1.00  0.00     0.226 C 
BRANCH  17  18
HETATM   18  N5  UNL     1      -2.714  26.145 -15.026  1.00  0.00    -0.337 N 
HETATM   19  C9  UNL     1      -3.320  27.199 -15.759  1.00  0.00     0.329 C 
HETATM   20  N6  UNL     1      -2.578  28.026 -16.613  1.00  0.00    -0.040 NA
HETATM   21  O3  UNL     1      -4.552  27.380 -15.626  1.00  0.00    -0.251 OA
ATOM     22  H5  UNL     1      -1.712  25.986 -15.125  1.00  0.00     0.164 HD
ENDBRANCH  17  18
ENDBRANCH  14  17
ENDBRANCH   1  13
TORSDOF 7
ENDMDL
MODEL 4
REMARK VINA RESULT: -5.365815980      4.260      6.567
REMARK  7 active torsions:
REMARK  status: ('A' for Active; 'I' for Inactive)
REMARK    1  A    between atoms: C2_2  and  C3_3 
REMARK    2  A    between atoms: C3_3  and  N1_4 
REMARK    3  A    between atoms: C3_3  and  C5_11 
REMARK    4  A    between atoms: N1_4  and  N2_6 
REMARK       I    between atoms: N2_6  and  C4_8 
REMARK    5  A    between atoms: C5_11  and  N4_13 
REMARK       I    between atoms: N4_13  and  C7_15 
REMARK    6  A    between atoms: C7_15  and  C8_17 
REMARK    7  A    between atoms: C8_17  and  N5_18 
REMARK       I    between atoms: N5_18  and  C9_20 
ROOT
HETATM    1  C5  UNL     1      -1.223  24.502  -9.999  1.00  0.00     0.108 C 
HETATM    2  C6  UNL     1      -1.593  24.570  -8.535  1.00  0.00     0.034 C 
ENDROOT
BRANCH   1   3
HETATM    3  C3  UNL     1      -1.961  25.606 -10.726  1.00  0.00     0.143 C 
BRANCH   3   4
HETATM    4  C2  UNL     1      -1.636  26.945 -10.167  1.00  0.00    -0.009 C 
HETATM    5  C1  UNL     1      -2.269  28.032 -10.522  1.00  0.00     0.009 C 
ENDBRANCH   3   4
BRANCH   3   6
HETATM    6  N1  UNL     1      -3.281  25.301 -10.983  1.00  0.00    -0.322 N 
ATOM      7  H1  UNL     1      -3.878  25.180 -10.166  1.00  0.00     0.181 HD
BRANCH   6   8
HETATM    8  N2  UNL     1      -3.873  25.143 -12.167  1.00  0.00    -0.258 N 
HETATM    9  C4  UNL     1      -3.870  24.112 -13.115  1.00  0.00     0.346 C 
HETATM   10  N3  UNL     1      -4.662  24.317 -14.319  1.00  0.00    -0.038 NA
HETATM   11  O1  UNL     1      -3.247  23.016 -13.035  1.00  0.00    -0.249 OA
ATOM     12  H2  UNL     1      -4.448  25.941 -12.440  1.00  0.00     0.191 HD
ENDBRANCH   6   8
ENDBRANCH   3   6
ENDBRANCH   1   3
BRANCH   1  13
HETATM   13  N4  UNL     1      -1.754  23.188 -10.445  1.00  0.00    -0.353 N 
HETATM   14  C7  UNL     1      -0.947  22.044 -10.446  1.00  0.00     0.235 C 
HETATM   15  O2  UNL     1       0.255  22.187 -10.047  1.00  0.00    -0.272 OA
ATOM     16  H4  UNL     1      -2.723  23.117 -10.755  1.00  0.00     0.163 HD
BRANCH  14  17
HETATM   17  C8  UNL     1      -1.356  20.706 -10.859  1.00  0.00     0.226 C 
BRANCH  17  18
HETATM   18  N5  UNL     1      -2.759  20.524 -11.127  1.00  0.00    -0.337 N 
HETATM   19  C9  UNL     1      -3.506  19.468 -10.540  1.00  0.00     0.329 C 
HETATM   20  N6  UNL     1      -4.871  19.294 -10.803  1.00  0.00    -0.040 NA
HETATM   21  O3  UNL     1      -2.910  18.683  -9.768  1.00  0.00    -0.251 OA
ATOM     22  H5  UNL     1      -3.231  21.172 -11.758  1.00  0.00     0.164 HD
ENDBRANCH  17  18
ENDBRANCH  14  17
ENDBRANCH   1  13
TORSDOF 7
ENDMDL
MODEL 5
REMARK VINA RESULT: -5.355783287      4.118      5.896
REMARK  7 active torsions:
REMARK  status: ('A' for Active; 'I' for Inactive)
REMARK    1  A    between atoms: C2_2  and  C3_3 
REMARK    2  A    between atoms: C3_3  and  N1_4 
REMARK    3  A    between atoms: C3_3  and  C5_11 
REMARK    4  A    between atoms: N1_4  and  N2_6 
REMARK       I    between atoms: N2_6  and  C4_8 
REMARK    5  A    between atoms: C5_11  and  N4_13 
REMARK       I    between atoms: N4_13  and  C7_15 
REMARK    6  A    between atoms: C7_15  and  C8_17 
REMARK    7  A    between atoms: C8_17  and  N5_18 
REMARK       I    between atoms: N5_18  and  C9_20 
ROOT
HETATM    1  C5  UNL     1      -2.025  26.149  -9.743  1.00  0.00     0.108 C 
HETATM    2  C6  UNL     1      -0.741  26.946  -9.782  1.00  0.00     0.034 C 
ENDROOT
BRANCH   1   3
HETATM    3  C3  UNL     1      -1.672  24.693  -9.519  1.00  0.00     0.143 C 
BRANCH   3   4
HETATM    4  C2  UNL     1      -0.502  24.544  -8.613  1.00  0.00    -0.009 C 
HETATM    5  C1  UNL     1      -0.539  23.825  -7.523  1.00  0.00     0.009 C 
ENDBRANCH   3   4
BRANCH   3   6
HETATM    6  N1  UNL     1      -1.714  23.941 -10.673  1.00  0.00    -0.322 N 
ATOM      7  H1  UNL     1      -1.503  24.437 -11.538  1.00  0.00     0.181 HD
BRANCH   6   8
HETATM    8  N2  UNL     1      -1.995  22.644 -10.799  1.00  0.00    -0.258 N 
HETATM    9  C4  UNL     1      -1.287  21.471 -10.501  1.00  0.00     0.346 C 
HETATM   10  N3  UNL     1      -1.948  20.207 -10.792  1.00  0.00    -0.038 NA
HETATM   11  O1  UNL     1      -0.128  21.396 -10.005  1.00  0.00    -0.249 OA
ATOM     12  H2  UNL     1      -2.918  22.468 -11.195  1.00  0.00     0.191 HD
ENDBRANCH   6   8
ENDBRANCH   3   6
ENDBRANCH   1   3
BRANCH   1  13
HETATM   13  N4  UNL     1      -2.591  26.308 -11.107  1.00  0.00    -0.353 N 
HETATM   14  C7  UNL     1      -3.876  26.825 -11.302  1.00  0.00     0.235 C 
HETATM   15  O2  UNL     1      -4.530  27.152 -10.258  1.00  0.00    -0.272 OA
ATOM     16  H4  UNL     1      -2.033  26.034 -11.917  1.00  0.00     0.163 HD
BRANCH  14  17
HETATM   17  C8  UNL     1      -4.534  27.027 -12.588  1.00  0.00     0.226 C 
BRANCH  17  18
HETATM   18  N5  UNL     1      -4.193  28.234 -13.295  1.00  0.00    -0.337 N 
HETATM   19  C9  UNL     1      -4.940  29.432 -13.140  1.00  0.00     0.329 C 
HETATM   20  N6  UNL     1      -4.606  30.605 -13.830  1.00  0.00    -0.040 NA
HETATM   21  O3  UNL     1      -5.921  29.420 -12.362  1.00  0.00    -0.251 OA
ATOM     22  H5  UNL     1      -3.392  28.229 -13.926  1.00  0.00     0.164 HD
ENDBRANCH  17  18
ENDBRANCH  14  17
ENDBRANCH   1  13
TORSDOF 7
ENDMDL
