MODEL 1
REMARK VINA RESULT: -6.027095834      0.000      0.000
REMARK  1 active torsions:
REMARK  status: ('A' for Active; 'I' for Inactive)
REMARK    1  A    between atoms: C3_3  and  C4_4 
ROOT
HETATM    1  C1  UNL     1      93.609  15.197 128.878  1.00  0.00     0.012 C 
HETATM    2  C2  UNL     1      93.303  14.426 129.757  1.00  0.00    -0.115 C 
HETATM    3  C3  UNL     1      92.929  13.502 130.848  1.00  0.00     0.133 C 
ENDROOT
BRANCH   3   4
HETATM    4  C4  UNL     1      93.145  14.255 132.143  1.00  0.00     0.160 C 
HETATM    5  C5  UNL     1      94.575  13.946 132.584  1.00  0.00     0.049 C 
HETATM    6  N1  UNL     1      93.012  15.669 131.837  1.00  0.00    -0.062 N 
HETATM    7  C6  UNL     1      92.364  16.409 132.877  1.00  0.00     0.260 C 
ATOM      8  H12 UNL     1      93.917  16.079 131.608  1.00  0.00     0.278 HD
ATOM      9  H11 UNL     1      92.537  15.805 130.944  1.00  0.00     0.278 HD
HETATM   10  C7  UNL     1      92.890  15.913 134.205  1.00  0.00     0.260 C 
HETATM   11  N2  UNL     1      92.585  14.534 134.440  1.00  0.00    -0.067 N 
HETATM   12  C8  UNL     1      92.179  13.842 133.214  1.00  0.00     0.218 C 
ATOM     13  H22 UNL     1      93.364  14.056 134.894  1.00  0.00     0.277 HD
ATOM     14  H21 UNL     1      91.882  14.431 135.173  1.00  0.00     0.277 HD
HETATM   15  C9  UNL     1      92.283  12.377 133.474  1.00  0.00     0.043 C 
ENDBRANCH   3   4
TORSDOF 1
ENDMDL
MODEL 2
REMARK VINA RESULT: -5.933128824      1.455      2.220
REMARK  1 active torsions:
REMARK  status: ('A' for Active; 'I' for Inactive)
REMARK    1  A    between atoms: C3_3  and  C4_4 
ROOT
HETATM    1  C1  UNL     1      93.349  17.652 131.953  1.00  0.00     0.012 C 
HETATM    2  C2  UNL     1      93.202  16.494 131.642  1.00  0.00    -0.115 C 
HETATM    3  C3  UNL     1      93.019  15.070 131.286  1.00  0.00     0.133 C 
ENDROOT
BRANCH   3   4
HETATM    4  C4  UNL     1      93.096  14.290 132.580  1.00  0.00     0.160 C 
HETATM    5  C5  UNL     1      94.535  13.790 132.693  1.00  0.00     0.049 C 
HETATM    6  N1  UNL     1      92.807  15.224 133.655  1.00  0.00    -0.062 N 
HETATM    7  C6  UNL     1      92.037  14.641 134.712  1.00  0.00     0.260 C 
ATOM      8  H12 UNL     1      93.665  15.640 134.016  1.00  0.00     0.278 HD
ATOM      9  H11 UNL     1      92.353  16.063 133.295  1.00  0.00     0.278 HD
HETATM   10  C7  UNL     1      92.569  13.248 134.968  1.00  0.00     0.260 C 
HETATM   11  N2  UNL     1      92.422  12.383 133.837  1.00  0.00    -0.067 N 
HETATM   12  C8  UNL     1      92.147  13.128 132.605  1.00  0.00     0.218 C 
ATOM     13  H22 UNL     1      93.235  11.776 133.728  1.00  0.00     0.277 HD
ATOM     14  H21 UNL     1      91.710  11.672 134.006  1.00  0.00     0.277 HD
HETATM   15  C9  UNL     1      92.415  12.211 131.460  1.00  0.00     0.043 C 
ENDBRANCH   3   4
TORSDOF 1
ENDMDL
MODEL 3
REMARK VINA RESULT: -5.380143569      1.262      3.475
REMARK  1 active torsions:
REMARK  status: ('A' for Active; 'I' for Inactive)
REMARK    1  A    between atoms: C3_3  and  C4_4 
ROOT
HETATM    1  C1  UNL     1      92.435  17.022 134.573  1.00  0.00     0.012 C 
HETATM    2  C2  UNL     1      92.777  16.573 133.505  1.00  0.00    -0.115 C 
HETATM    3  C3  UNL     1      93.190  16.000 132.206  1.00  0.00     0.133 C 
ENDROOT
BRANCH   3   4
HETATM    4  C4  UNL     1      93.225  14.498 132.390  1.00  0.00     0.160 C 
HETATM    5  C5  UNL     1      94.699  14.099 132.369  1.00  0.00     0.049 C 
HETATM    6  N1  UNL     1      92.650  14.219 133.694  1.00  0.00    -0.062 N 
HETATM    7  C6  UNL     1      91.856  13.028 133.714  1.00  0.00     0.260 C 
ATOM      8  H12 UNL     1      93.374  14.184 134.411  1.00  0.00     0.278 HD
ATOM      9  H11 UNL     1      92.116  15.018 134.035  1.00  0.00     0.278 HD
HETATM   10  C7  UNL     1      92.570  11.973 132.899  1.00  0.00     0.260 C 
HETATM   11  N2  UNL     1      92.714  12.340 131.523  1.00  0.00    -0.067 N 
HETATM   12  C8  UNL     1      92.483  13.771 131.307  1.00  0.00     0.218 C 
ATOM     13  H22 UNL     1      93.622  12.053 131.156  1.00  0.00     0.277 HD
ATOM     14  H21 UNL     1      92.111  11.775 130.924  1.00  0.00     0.277 HD
HETATM   15  C9  UNL     1      93.043  14.117 129.968  1.00  0.00     0.043 C 
ENDBRANCH   3   4
TORSDOF 1
ENDMDL
MODEL 4
REMARK VINA RESULT: -5.350534696      1.563      2.230
REMARK  1 active torsions:
REMARK  status: ('A' for Active; 'I' for Inactive)
REMARK    1  A    between atoms: C3_3  and  C4_4 
ROOT
HETATM    1  C1  UNL     1      92.191  11.830 130.375  1.00  0.00     0.012 C 
HETATM    2  C2  UNL     1      92.226  12.292 131.491  1.00  0.00    -0.115 C 
HETATM    3  C3  UNL     1      92.274  12.880 132.847  1.00  0.00     0.133 C 
ENDROOT
BRANCH   3   4
HETATM    4  C4  UNL     1      92.878  14.259 132.696  1.00  0.00     0.160 C 
HETATM    5  C5  UNL     1      94.376  14.101 132.950  1.00  0.00     0.049 C 
HETATM    6  N1  UNL     1      92.647  14.674 131.323  1.00  0.00    -0.062 N 
HETATM    7  C6  UNL     1      92.350  16.069 131.201  1.00  0.00     0.260 C 
ATOM      8  H12 UNL     1      93.433  14.416 130.727  1.00  0.00     0.278 HD
ATOM      9  H11 UNL     1      91.917  14.108 130.890  1.00  0.00     0.278 HD
HETATM   10  C7  UNL     1      93.267  16.828 132.134  1.00  0.00     0.260 C 
HETATM   11  N2  UNL     1      93.060  16.490 133.510  1.00  0.00    -0.067 N 
HETATM   12  C8  UNL     1      92.296  15.248 133.663  1.00  0.00     0.218 C 
ATOM     13  H22 UNL     1      93.944  16.445 134.016  1.00  0.00     0.277 HD
ATOM     14  H21 UNL     1      92.621  17.258 134.017  1.00  0.00     0.277 HD
HETATM   15  C9  UNL     1      92.486  14.778 135.066  1.00  0.00     0.043 C 
ENDBRANCH   3   4
TORSDOF 1
ENDMDL
MODEL 5
REMARK VINA RESULT: -5.153830610      1.391      1.717
REMARK  1 active torsions:
REMARK  status: ('A' for Active; 'I' for Inactive)
REMARK    1  A    between atoms: C3_3  and  C4_4 
ROOT
HETATM    1  C1  UNL     1      92.479  12.582 130.014  1.00  0.00     0.012 C 
HETATM    2  C2  UNL     1      92.468  12.566 131.222  1.00  0.00    -0.115 C 
HETATM    3  C3  UNL     1      92.457  12.572 132.700  1.00  0.00     0.133 C 
ENDROOT
BRANCH   3   4
HETATM    4  C4  UNL     1      92.909  13.951 133.129  1.00  0.00     0.160 C 
HETATM    5  C5  UNL     1      94.406  13.842 133.413  1.00  0.00     0.049 C 
HETATM    6  N1  UNL     1      92.679  14.840 132.003  1.00  0.00    -0.062 N 
HETATM    7  C6  UNL     1      92.234  16.142 132.398  1.00  0.00     0.260 C 
ATOM      8  H12 UNL     1      93.508  14.903 131.413  1.00  0.00     0.278 HD
ATOM      9  H11 UNL     1      92.031  14.421 131.335  1.00  0.00     0.278 HD
HETATM   10  C7  UNL     1      93.029  16.562 133.614  1.00  0.00     0.260 C 
HETATM   11  N2  UNL     1      92.814  15.703 134.739  1.00  0.00    -0.067 N 
HETATM   12  C8  UNL     1      92.189  14.435 134.353  1.00  0.00     0.218 C 
ATOM     13  H22 UNL     1      93.681  15.546 135.254  1.00  0.00     0.277 HD
ATOM     14  H21 UNL     1      92.276  16.174 135.466  1.00  0.00     0.277 HD
HETATM   15  C9  UNL     1      92.382  13.481 135.483  1.00  0.00     0.043 C 
ENDBRANCH   3   4
TORSDOF 1
ENDMDL
