MODEL 1
REMARK VINA RESULT: -6.827911600      0.000      0.000
REMARK  12 active torsions:
REMARK  status: ('A' for Active; 'I' for Inactive)
REMARK    1  A    between atoms: C2_2  and  C5_5 
REMARK    2  A    between atoms: C6_6  and  O1_7 
REMARK    3  A    between atoms: O1_7  and  N1_8 
REMARK    4  A    between atoms: C7_10  and  N2_11 
REMARK    5  A    between atoms: C7_10  and  C14_23 
REMARK    6  A    between atoms: N2_11  and  C8_13 
REMARK    7  A    between atoms: C8_13  and  C9_14 
REMARK    8  A    between atoms: C9_14  and  C10_15 
REMARK    9  A    between atoms: C10_15  and  C11_16 
REMARK   10  A    between atoms: C11_16  and  C12_17 
REMARK   11  A    between atoms: C12_17  and  C13_18 
REMARK   12  A    between atoms: C13_18  and  N3_19 
ROOT
HETATM    1  N1  UNL     1      10.395   6.692   1.407  1.00  0.00    -0.237 N 
ATOM      2  H1  UNL     1       9.929   7.435   1.928  1.00  0.00     0.197 HD
HETATM    3  C7  UNL     1      11.677   6.587   1.495  1.00  0.00     0.132 C 
ENDROOT
BRANCH   3   4
HETATM    4  N2  UNL     1      12.325   5.551   0.769  1.00  0.00    -0.377 N 
ATOM      5  H2  UNL     1      12.424   4.644   1.227  1.00  0.00     0.160 HD
BRANCH   4   6
HETATM    6  C8  UNL     1      12.843   5.681  -0.547  1.00  0.00     0.121 C 
BRANCH   6   7
HETATM    7  C9  UNL     1      14.202   5.030  -0.656  1.00  0.00     0.020 C 
BRANCH   7   8
HETATM    8  C10 UNL     1      14.114   3.528  -0.565  1.00  0.00     0.002 C 
BRANCH   8   9
HETATM    9  C11 UNL     1      13.625   2.888  -1.825  1.00  0.00     0.002 C 
BRANCH   9  10
HETATM   10  C12 UNL     1      14.676   2.105  -2.552  1.00  0.00     0.027 C 
BRANCH  10  11
HETATM   11  C13 UNL     1      14.157   1.832  -3.954  1.00  0.00     0.229 C 
BRANCH  11  12
HETATM   12  N3  UNL     1      15.160   1.152  -4.760  1.00  0.00    -0.079 N 
ATOM     13  H33 UNL     1      15.073   1.390  -5.748  1.00  0.00     0.274 HD
ATOM     14  H32 UNL     1      16.094   1.526  -4.592  1.00  0.00     0.274 HD
ATOM     15  H31 UNL     1      15.127   0.144  -4.612  1.00  0.00     0.274 HD
ENDBRANCH  11  12
ENDBRANCH  10  11
ENDBRANCH   9  10
ENDBRANCH   8   9
ENDBRANCH   7   8
ENDBRANCH   6   7
ENDBRANCH   4   6
ENDBRANCH   3   4
BRANCH   3  16
HETATM   16  C14 UNL     1      12.390   7.548   2.342  1.00  0.00     0.291 C 
HETATM   17  C15 UNL     1      13.837   7.117   2.595  1.00  0.00     0.048 C 
HETATM   18  C16 UNL     1      14.155   7.579   4.015  1.00  0.00    -0.009 C 
HETATM   19  C17 UNL     1      13.361   6.663   4.937  1.00  0.00     0.035 C 
HETATM   20  C20 UNL     1      13.671   9.012   4.158  1.00  0.00     0.035 C 
HETATM   21  C18 UNL     1      11.897   6.877   4.601  1.00  0.00     0.273 C 
HETATM   22  N4  UNL     1      11.687   7.824   3.554  1.00  0.00     0.100 N 
HETATM   23  C19 UNL     1      12.172   9.123   4.045  1.00  0.00     0.273 C 
ENDBRANCH   3  16
BRANCH   1  24
HETATM   24  O1  UNL     1       9.628   5.846   0.644  1.00  0.00    -0.184 OA
BRANCH  24  25
HETATM   25  C6  UNL     1       9.036   6.258  -0.512  1.00  0.00     0.085 C 
HETATM   26  C5  UNL     1       8.525   6.637  -1.540  1.00  0.00    -0.065 C 
BRANCH  26  27
HETATM   27  C2  UNL     1       7.922   7.112  -2.803  1.00  0.00     0.015 C 
HETATM   28  C1  UNL     1       8.996   7.127  -3.850  1.00  0.00     0.028 C 
HETATM   29  C3  UNL     1       7.478   8.548  -2.586  1.00  0.00     0.028 C 
HETATM   30  C4  UNL     1       6.742   6.278  -3.189  1.00  0.00     0.028 C 
ENDBRANCH  26  27
ENDBRANCH  24  25
ENDBRANCH   1  24
TORSDOF 12
ENDMDL
MODEL 2
REMARK VINA RESULT: -6.762949155      1.042      1.615
REMARK  12 active torsions:
REMARK  status: ('A' for Active; 'I' for Inactive)
REMARK    1  A    between atoms: C2_2  and  C5_5 
REMARK    2  A    between atoms: C6_6  and  O1_7 
REMARK    3  A    between atoms: O1_7  and  N1_8 
REMARK    4  A    between atoms: C7_10  and  N2_11 
REMARK    5  A    between atoms: C7_10  and  C14_23 
REMARK    6  A    between atoms: N2_11  and  C8_13 
REMARK    7  A    between atoms: C8_13  and  C9_14 
REMARK    8  A    between atoms: C9_14  and  C10_15 
REMARK    9  A    between atoms: C10_15  and  C11_16 
REMARK   10  A    between atoms: C11_16  and  C12_17 
REMARK   11  A    between atoms: C12_17  and  C13_18 
REMARK   12  A    between atoms: C13_18  and  N3_19 
ROOT
HETATM    1  N1  UNL     1      11.126   5.625   0.926  1.00  0.00    -0.237 N 
ATOM      2  H1  UNL     1      10.438   5.468   1.662  1.00  0.00     0.197 HD
HETATM    3  C7  UNL     1      12.310   6.014   1.260  1.00  0.00     0.132 C 
ENDROOT
BRANCH   3   4
HETATM    4  N2  UNL     1      13.268   6.232   0.233  1.00  0.00    -0.377 N 
ATOM      5  H2  UNL     1      13.016   6.874  -0.519  1.00  0.00     0.160 HD
BRANCH   4   6
HETATM    6  C8  UNL     1      14.550   5.623   0.174  1.00  0.00     0.121 C 
BRANCH   6   7
HETATM    7  C9  UNL     1      14.617   4.619  -0.953  1.00  0.00     0.020 C 
BRANCH   7   8
HETATM    8  C10 UNL     1      13.909   3.334  -0.603  1.00  0.00     0.002 C 
BRANCH   8   9
HETATM    9  C11 UNL     1      13.535   2.522  -1.801  1.00  0.00     0.002 C 
BRANCH   9  10
HETATM   10  C12 UNL     1      14.703   2.136  -2.658  1.00  0.00     0.027 C 
BRANCH  10  11
HETATM   11  C13 UNL     1      14.152   1.510  -3.928  1.00  0.00     0.229 C 
BRANCH  11  12
HETATM   12  N3  UNL     1      15.225   1.165  -4.849  1.00  0.00    -0.079 N 
ATOM     13  H33 UNL     1      16.095   1.640  -4.608  1.00  0.00     0.274 HD
ATOM     14  H32 UNL     1      15.534   0.201  -4.721  1.00  0.00     0.274 HD
ATOM     15  H31 UNL     1      14.952   1.347  -5.815  1.00  0.00     0.274 HD
ENDBRANCH  11  12
ENDBRANCH  10  11
ENDBRANCH   9  10
ENDBRANCH   8   9
ENDBRANCH   7   8
ENDBRANCH   6   7
ENDBRANCH   4   6
ENDBRANCH   3   4
BRANCH   3  16
HETATM   16  C14 UNL     1      12.593   6.208   2.685  1.00  0.00     0.291 C 
HETATM   17  C15 UNL     1      11.375   5.888   3.555  1.00  0.00     0.048 C 
HETATM   18  C16 UNL     1      11.441   6.869   4.722  1.00  0.00    -0.009 C 
HETATM   19  C17 UNL     1      11.094   8.232   4.138  1.00  0.00     0.035 C 
HETATM   20  C20 UNL     1      12.866   6.874   5.247  1.00  0.00     0.035 C 
HETATM   21  C18 UNL     1      12.154   8.539   3.097  1.00  0.00     0.273 C 
HETATM   22  N4  UNL     1      13.127   7.504   2.957  1.00  0.00     0.100 N 
HETATM   23  C19 UNL     1      13.846   7.413   4.237  1.00  0.00     0.273 C 
ENDBRANCH   3  16
BRANCH   1  24
HETATM   24  O1  UNL     1      10.752   5.412  -0.378  1.00  0.00    -0.184 OA
BRANCH  24  25
HETATM   25  C6  UNL     1       9.678   6.041  -0.931  1.00  0.00     0.085 C 
HETATM   26  C5  UNL     1       8.736   6.615  -1.427  1.00  0.00    -0.065 C 
BRANCH  26  27
HETATM   27  C2  UNL     1       7.601   7.331  -2.047  1.00  0.00     0.015 C 
HETATM   28  C1  UNL     1       8.151   8.238  -3.106  1.00  0.00     0.028 C 
HETATM   29  C3  UNL     1       6.974   8.208  -0.977  1.00  0.00     0.028 C 
HETATM   30  C4  UNL     1       6.577   6.375  -2.571  1.00  0.00     0.028 C 
ENDBRANCH  26  27
ENDBRANCH  24  25
ENDBRANCH   1  24
TORSDOF 12
ENDMDL
MODEL 3
REMARK VINA RESULT: -6.687396618      1.370      1.674
REMARK  12 active torsions:
REMARK  status: ('A' for Active; 'I' for Inactive)
REMARK    1  A    between atoms: C2_2  and  C5_5 
REMARK    2  A    between atoms: C6_6  and  O1_7 
REMARK    3  A    between atoms: O1_7  and  N1_8 
REMARK    4  A    between atoms: C7_10  and  N2_11 
REMARK    5  A    between atoms: C7_10  and  C14_23 
REMARK    6  A    between atoms: N2_11  and  C8_13 
REMARK    7  A    between atoms: C8_13  and  C9_14 
REMARK    8  A    between atoms: C9_14  and  C10_15 
REMARK    9  A    between atoms: C10_15  and  C11_16 
REMARK   10  A    between atoms: C11_16  and  C12_17 
REMARK   11  A    between atoms: C12_17  and  C13_18 
REMARK   12  A    between atoms: C13_18  and  N3_19 
ROOT
HETATM    1  N1  UNL     1      10.166   6.425   1.611  1.00  0.00    -0.237 N 
ATOM      2  H1  UNL     1       9.580   6.886   2.306  1.00  0.00     0.197 HD
HETATM    3  C7  UNL     1      11.444   6.586   1.675  1.00  0.00     0.132 C 
ENDROOT
BRANCH   3   4
HETATM    4  N2  UNL     1      12.259   5.942   0.705  1.00  0.00    -0.377 N 
ATOM      5  H2  UNL     1      12.511   4.968   0.872  1.00  0.00     0.160 HD
BRANCH   4   6
HETATM    6  C8  UNL     1      12.749   6.554  -0.480  1.00  0.00     0.121 C 
BRANCH   6   7
HETATM    7  C9  UNL     1      14.231   6.307  -0.638  1.00  0.00     0.020 C 
BRANCH   7   8
HETATM    8  C10 UNL     1      14.645   4.981  -0.050  1.00  0.00     0.002 C 
BRANCH   8   9
HETATM    9  C11 UNL     1      14.796   3.902  -1.075  1.00  0.00     0.002 C 
BRANCH   9  10
HETATM   10  C12 UNL     1      13.770   2.816  -0.964  1.00  0.00     0.027 C 
BRANCH  10  11
HETATM   11  C13 UNL     1      12.804   2.979  -2.126  1.00  0.00     0.229 C 
BRANCH  11  12
HETATM   12  N3  UNL     1      11.474   3.336  -1.654  1.00  0.00    -0.079 N 
ATOM     13  H33 UNL     1      11.483   4.208  -1.125  1.00  0.00     0.274 HD
ATOM     14  H32 UNL     1      10.868   3.626  -2.422  1.00  0.00     0.274 HD
ATOM     15  H31 UNL     1      11.060   2.575  -1.116  1.00  0.00     0.274 HD
ENDBRANCH  11  12
ENDBRANCH  10  11
ENDBRANCH   9  10
ENDBRANCH   8   9
ENDBRANCH   7   8
ENDBRANCH   6   7
ENDBRANCH   4   6
ENDBRANCH   3   4
BRANCH   3  16
HETATM   16  C14 UNL     1      11.977   7.428   2.750  1.00  0.00     0.291 C 
HETATM   17  C15 UNL     1      13.488   7.244   2.917  1.00  0.00     0.048 C 
HETATM   18  C16 UNL     1      13.751   7.391   4.414  1.00  0.00    -0.009 C 
HETATM   19  C17 UNL     1      13.181   6.136   5.061  1.00  0.00     0.035 C 
HETATM   20  C20 UNL     1      12.999   8.618   4.900  1.00  0.00     0.035 C 
HETATM   21  C18 UNL     1      11.694   6.132   4.759  1.00  0.00     0.273 C 
HETATM   22  N4  UNL     1      11.270   7.249   3.977  1.00  0.00     0.100 N 
HETATM   23  C19 UNL     1      11.504   8.454   4.787  1.00  0.00     0.273 C 
ENDBRANCH   3  16
BRANCH   1  24
HETATM   24  O1  UNL     1       9.559   5.658   0.646  1.00  0.00    -0.184 OA
BRANCH  24  25
HETATM   25  C6  UNL     1       9.007   6.210  -0.470  1.00  0.00     0.085 C 
HETATM   26  C5  UNL     1       8.522   6.684  -1.471  1.00  0.00    -0.065 C 
BRANCH  26  27
HETATM   27  C2  UNL     1       7.931   7.241  -2.706  1.00  0.00     0.015 C 
HETATM   28  C1  UNL     1       6.829   6.322  -3.145  1.00  0.00     0.028 C 
HETATM   29  C3  UNL     1       9.003   7.209  -3.781  1.00  0.00     0.028 C 
HETATM   30  C4  UNL     1       7.470   8.649  -2.501  1.00  0.00     0.028 C 
ENDBRANCH  26  27
ENDBRANCH  24  25
ENDBRANCH   1  24
TORSDOF 12
ENDMDL
MODEL 4
REMARK VINA RESULT: -6.640937367      1.043      1.431
REMARK  12 active torsions:
REMARK  status: ('A' for Active; 'I' for Inactive)
REMARK    1  A    between atoms: C2_2  and  C5_5 
REMARK    2  A    between atoms: C6_6  and  O1_7 
REMARK    3  A    between atoms: O1_7  and  N1_8 
REMARK    4  A    between atoms: C7_10  and  N2_11 
REMARK    5  A    between atoms: C7_10  and  C14_23 
REMARK    6  A    between atoms: N2_11  and  C8_13 
REMARK    7  A    between atoms: C8_13  and  C9_14 
REMARK    8  A    between atoms: C9_14  and  C10_15 
REMARK    9  A    between atoms: C10_15  and  C11_16 
REMARK   10  A    between atoms: C11_16  and  C12_17 
REMARK   11  A    between atoms: C12_17  and  C13_18 
REMARK   12  A    between atoms: C13_18  and  N3_19 
ROOT
HETATM    1  N1  UNL     1      10.464   6.166   1.437  1.00  0.00    -0.237 N 
ATOM      2  H1  UNL     1       9.720   6.669   1.919  1.00  0.00     0.197 HD
HETATM    3  C7  UNL     1      11.650   6.180   1.946  1.00  0.00     0.132 C 
ENDROOT
BRANCH   3   4
HETATM    4  N2  UNL     1      12.686   5.478   1.272  1.00  0.00    -0.377 N 
ATOM      5  H2  UNL     1      12.833   4.500   1.522  1.00  0.00     0.160 HD
BRANCH   4   6
HETATM    6  C8  UNL     1      13.532   6.035   0.276  1.00  0.00     0.121 C 
BRANCH   6   7
HETATM    7  C9  UNL     1      14.205   4.947  -0.528  1.00  0.00     0.020 C 
BRANCH   7   8
HETATM    8  C10 UNL     1      13.231   3.875  -0.946  1.00  0.00     0.002 C 
BRANCH   8   9
HETATM    9  C11 UNL     1      13.896   2.600  -1.355  1.00  0.00     0.002 C 
BRANCH   9  10
HETATM   10  C12 UNL     1      13.811   2.319  -2.824  1.00  0.00     0.027 C 
BRANCH  10  11
HETATM   11  C13 UNL     1      15.092   1.608  -3.230  1.00  0.00     0.229 C 
BRANCH  11  12
HETATM   12  N3  UNL     1      15.059   1.232  -4.635  1.00  0.00    -0.079 N 
ATOM     13  H33 UNL     1      14.192   0.752  -4.876  1.00  0.00     0.274 HD
ATOM     14  H32 UNL     1      14.959   2.047  -5.240  1.00  0.00     0.274 HD
ATOM     15  H31 UNL     1      15.878   0.677  -4.885  1.00  0.00     0.274 HD
ENDBRANCH  11  12
ENDBRANCH  10  11
ENDBRANCH   9  10
ENDBRANCH   8   9
ENDBRANCH   7   8
ENDBRANCH   6   7
ENDBRANCH   4   6
ENDBRANCH   3   4
BRANCH   3  16
HETATM   16  C14 UNL     1      11.855   6.924   3.191  1.00  0.00     0.291 C 
HETATM   17  C15 UNL     1      13.149   6.507   3.895  1.00  0.00     0.048 C 
HETATM   18  C16 UNL     1      12.849   6.606   5.388  1.00  0.00    -0.009 C 
HETATM   19  C17 UNL     1      11.906   5.451   5.699  1.00  0.00     0.035 C 
HETATM   20  C20 UNL     1      12.151   7.932   5.637  1.00  0.00     0.035 C 
HETATM   21  C18 UNL     1      10.657   5.679   4.868  1.00  0.00     0.273 C 
HETATM   22  N4  UNL     1      10.721   6.851   4.056  1.00  0.00     0.100 N 
HETATM   23  C19 UNL     1      10.802   8.002   4.969  1.00  0.00     0.273 C 
ENDBRANCH   3  16
BRANCH   1  24
HETATM   24  O1  UNL     1      10.160   5.501   0.274  1.00  0.00    -0.184 OA
BRANCH  24  25
HETATM   25  C6  UNL     1       9.444   6.089  -0.724  1.00  0.00     0.085 C 
HETATM   26  C5  UNL     1       8.822   6.605  -1.624  1.00  0.00    -0.065 C 
BRANCH  26  27
HETATM   27  C2  UNL     1       8.077   7.224  -2.740  1.00  0.00     0.015 C 
HETATM   28  C1  UNL     1       7.052   6.236  -3.214  1.00  0.00     0.028 C 
HETATM   29  C3  UNL     1       9.057   7.444  -3.879  1.00  0.00     0.028 C 
HETATM   30  C4  UNL     1       7.480   8.534  -2.335  1.00  0.00     0.028 C 
ENDBRANCH  26  27
ENDBRANCH  24  25
ENDBRANCH   1  24
TORSDOF 12
ENDMDL
MODEL 5
REMARK VINA RESULT: -6.587842004      1.893      6.332
REMARK  12 active torsions:
REMARK  status: ('A' for Active; 'I' for Inactive)
REMARK    1  A    between atoms: C2_2  and  C5_5 
REMARK    2  A    between atoms: C6_6  and  O1_7 
REMARK    3  A    between atoms: O1_7  and  N1_8 
REMARK    4  A    between atoms: C7_10  and  N2_11 
REMARK    5  A    between atoms: C7_10  and  C14_23 
REMARK    6  A    between atoms: N2_11  and  C8_13 
REMARK    7  A    between atoms: C8_13  and  C9_14 
REMARK    8  A    between atoms: C9_14  and  C10_15 
REMARK    9  A    between atoms: C10_15  and  C11_16 
REMARK   10  A    between atoms: C11_16  and  C12_17 
REMARK   11  A    between atoms: C12_17  and  C13_18 
REMARK   12  A    between atoms: C13_18  and  N3_19 
ROOT
HETATM    1  N1  UNL     1       8.524   6.216   0.956  1.00  0.00    -0.237 N 
ATOM      2  H1  UNL     1       7.884   6.965   1.219  1.00  0.00     0.197 HD
HETATM    3  C7  UNL     1       9.008   6.210  -0.240  1.00  0.00     0.132 C 
ENDROOT
BRANCH   3   4
HETATM    4  N2  UNL     1       9.900   5.165  -0.605  1.00  0.00    -0.377 N 
ATOM      5  H2  UNL     1       9.492   4.275  -0.892  1.00  0.00     0.160 HD
BRANCH   4   6
HETATM    6  C8  UNL     1      11.317   5.266  -0.600  1.00  0.00     0.121 C 
BRANCH   6   7
HETATM    7  C9  UNL     1      11.942   4.094  -1.320  1.00  0.00     0.020 C 
BRANCH   7   8
HETATM    8  C10 UNL     1      13.383   3.894  -0.922  1.00  0.00     0.002 C 
BRANCH   8   9
HETATM    9  C11 UNL     1      13.935   2.572  -1.350  1.00  0.00     0.002 C 
BRANCH   9  10
HETATM   10  C12 UNL     1      13.827   2.321  -2.823  1.00  0.00     0.027 C 
BRANCH  10  11
HETATM   11  C13 UNL     1      15.036   1.500  -3.238  1.00  0.00     0.229 C 
BRANCH  11  12
HETATM   12  N3  UNL     1      15.056   1.287  -4.677  1.00  0.00    -0.079 N 
ATOM     13  H33 UNL     1      14.205   1.633  -5.121  1.00  0.00     0.274 HD
ATOM     14  H32 UNL     1      15.731   1.898  -5.138  1.00  0.00     0.274 HD
ATOM     15  H31 UNL     1      15.224   0.306  -4.900  1.00  0.00     0.274 HD
ENDBRANCH  11  12
ENDBRANCH  10  11
ENDBRANCH   9  10
ENDBRANCH   8   9
ENDBRANCH   7   8
ENDBRANCH   6   7
ENDBRANCH   4   6
ENDBRANCH   3   4
BRANCH   3  16
HETATM   16  C14 UNL     1       8.605   7.285  -1.151  1.00  0.00     0.291 C 
HETATM   17  C15 UNL     1       7.364   8.024  -0.643  1.00  0.00     0.048 C 
HETATM   18  C16 UNL     1       6.582   8.411  -1.895  1.00  0.00    -0.009 C 
HETATM   19  C17 UNL     1       6.005   7.112  -2.442  1.00  0.00     0.035 C 
HETATM   20  C20 UNL     1       7.562   9.008  -2.891  1.00  0.00     0.035 C 
HETATM   21  C18 UNL     1       7.187   6.224  -2.782  1.00  0.00     0.273 C 
HETATM   22  N4  UNL     1       8.450   6.824  -2.493  1.00  0.00     0.100 N 
HETATM   23  C19 UNL     1       8.577   8.000  -3.368  1.00  0.00     0.273 C 
ENDBRANCH   3  16
BRANCH   1  24
HETATM   24  O1  UNL     1       8.833   5.259   1.891  1.00  0.00    -0.184 OA
BRANCH  24  25
HETATM   25  C6  UNL     1       9.619   5.533   2.969  1.00  0.00     0.085 C 
HETATM   26  C5  UNL     1      10.326   5.790   3.916  1.00  0.00    -0.065 C 
BRANCH  26  27
HETATM   27  C2  UNL     1      11.199   6.124   5.060  1.00  0.00     0.015 C 
HETATM   28  C1  UNL     1      12.620   6.101   4.579  1.00  0.00     0.028 C 
HETATM   29  C3  UNL     1      11.050   5.017   6.089  1.00  0.00     0.028 C 
HETATM   30  C4  UNL     1      10.813   7.432   5.675  1.00  0.00     0.028 C 
ENDBRANCH  26  27
ENDBRANCH  24  25
ENDBRANCH   1  24
TORSDOF 12
ENDMDL
