MODEL 1
REMARK VINA RESULT: -6.446464362      0.000      0.000
REMARK  12 active torsions:
REMARK  status: ('A' for Active; 'I' for Inactive)
REMARK    1  A    between atoms: C2_2  and  C3_3 
REMARK    2  A    between atoms: C3_3  and  C4_4 
REMARK    3  A    between atoms: C3_3  and  C5_7 
REMARK    4  A    between atoms: C4_4  and  O1_5 
REMARK    5  A    between atoms: C7_9  and  O2_10 
REMARK    6  A    between atoms: C13_20  and  C14_21 
REMARK    7  A    between atoms: C14_21  and  C15_22 
REMARK    8  A    between atoms: C15_22  and  O6_23 
REMARK    9  A    between atoms: C15_22  and  C16_25 
REMARK   10  A    between atoms: C16_25  and  C17_26 
REMARK       I    between atoms: C17_26  and  N1_28 
REMARK   11  A    between atoms: N1_28  and  C18_30 
REMARK   12  A    between atoms: C18_30  and  C19_31 
ROOT
HETATM    1  C5  UNL     1       4.193  59.390  25.754  1.00  0.00     0.123 C 
HETATM    2  C6  UNL     1       3.377  59.224  27.033  1.00  0.00     0.080 C 
HETATM    3  C7  UNL     1       1.967  59.188  26.539  1.00  0.00     0.153 C 
HETATM    4  C8  UNL     1       2.203  59.324  25.056  1.00  0.00     0.184 C 
HETATM    5  O3  UNL     1       3.406  58.651  24.891  1.00  0.00    -0.362 OA
HETATM    6  C9  UNL     1       2.597  60.793  24.831  1.00  0.00     0.194 C 
HETATM    7  O4  UNL     1       1.983  61.596  25.775  1.00  0.00    -0.345 OA
HETATM    8  C10 UNL     1       2.931  62.403  26.300  1.00  0.00     0.158 C 
HETATM    9  C11 UNL     1       2.821  63.759  25.624  1.00  0.00     0.078 C 
HETATM   10  C12 UNL     1       2.652  62.740  27.788  1.00  0.00     0.078 C 
HETATM   11  O5  UNL     1       4.121  61.765  26.160  1.00  0.00    -0.339 OA
HETATM   12  C13 UNL     1       4.032  60.770  25.182  1.00  0.00     0.131 C 
ENDROOT
BRANCH  12  13
HETATM   13  C14 UNL     1       5.033  60.919  24.122  1.00  0.00     0.076 C 
BRANCH  13  14
HETATM   14  C15 UNL     1       4.913  61.739  22.929  1.00  0.00     0.130 C 
BRANCH  14  15
HETATM   15  O6  UNL     1       6.267  62.037  22.496  1.00  0.00    -0.395 OA
ATOM     16  H6  UNL     1       6.261  61.997  21.547  1.00  0.00     0.210 HD
ENDBRANCH  14  15
BRANCH  14  17
HETATM   17  C16 UNL     1       4.350  61.082  21.695  1.00  0.00     0.134 C 
BRANCH  17  18
HETATM   18  C17 UNL     1       4.894  59.661  21.583  1.00  0.00     0.220 C 
HETATM   19  O7  UNL     1       6.033  59.565  21.073  1.00  0.00    -0.274 OA
HETATM   20  N1  UNL     1       4.150  58.559  22.026  1.00  0.00    -0.361 N 
ATOM     21  H1  UNL     1       3.224  58.688  22.435  1.00  0.00     0.162 HD
BRANCH  20  22
HETATM   22  C18 UNL     1       4.711  57.246  21.894  1.00  0.00     0.127 C 
BRANCH  22  23
HETATM   23  C19 UNL     1       3.671  56.168  21.728  1.00  0.00     0.003 C 
HETATM   24  C20 UNL     1       3.116  55.672  23.019  1.00  0.00     0.006 C 
HETATM   25  C21 UNL     1       2.451  54.373  22.637  1.00  0.00     0.000 C 
HETATM   26  C22 UNL     1       3.086  53.929  21.345  1.00  0.00     0.000 C 
HETATM   27  C23 UNL     1       4.226  54.920  21.090  1.00  0.00     0.006 C 
ENDBRANCH  22  23
ENDBRANCH  20  22
ENDBRANCH  17  18
ENDBRANCH  14  17
ENDBRANCH  13  14
ENDBRANCH  12  13
BRANCH   1  28
HETATM   28  C3  UNL     1       5.505  58.793  25.987  1.00  0.00    -0.020 C 
BRANCH  28  29
HETATM   29  C2  UNL     1       5.833  57.531  25.307  1.00  0.00    -0.002 C 
HETATM   30  C1  UNL     1       6.824  56.756  25.721  1.00  0.00     0.011 C 
ENDBRANCH  28  29
BRANCH  28  31
HETATM   31  C4  UNL     1       6.191  59.030  27.308  1.00  0.00     0.201 C 
BRANCH  31  32
HETATM   32  O1  UNL     1       6.576  60.395  27.420  1.00  0.00    -0.397 OA
ATOM     33  H1  UNL     1       7.459  60.458  27.767  1.00  0.00     0.209 HD
ENDBRANCH  31  32
ENDBRANCH  28  31
ENDBRANCH   1  28
BRANCH   3  34
HETATM   34  O2  UNL     1       1.319  57.978  26.818  1.00  0.00    -0.393 OA
ATOM     35  H2  UNL     1       0.590  58.077  27.418  1.00  0.00     0.210 HD
ENDBRANCH   3  34
TORSDOF 12
ENDMDL
MODEL 2
REMARK VINA RESULT: -6.335599198      2.241      3.516
REMARK  12 active torsions:
REMARK  status: ('A' for Active; 'I' for Inactive)
REMARK    1  A    between atoms: C2_2  and  C3_3 
REMARK    2  A    between atoms: C3_3  and  C4_4 
REMARK    3  A    between atoms: C3_3  and  C5_7 
REMARK    4  A    between atoms: C4_4  and  O1_5 
REMARK    5  A    between atoms: C7_9  and  O2_10 
REMARK    6  A    between atoms: C13_20  and  C14_21 
REMARK    7  A    between atoms: C14_21  and  C15_22 
REMARK    8  A    between atoms: C15_22  and  O6_23 
REMARK    9  A    between atoms: C15_22  and  C16_25 
REMARK   10  A    between atoms: C16_25  and  C17_26 
REMARK       I    between atoms: C17_26  and  N1_28 
REMARK   11  A    between atoms: N1_28  and  C18_30 
REMARK   12  A    between atoms: C18_30  and  C19_31 
ROOT
HETATM    1  C5  UNL     1       4.183  59.558  25.894  1.00  0.00     0.123 C 
HETATM    2  C6  UNL     1       3.386  59.340  27.176  1.00  0.00     0.080 C 
HETATM    3  C7  UNL     1       1.970  59.306  26.699  1.00  0.00     0.153 C 
HETATM    4  C8  UNL     1       2.186  59.494  25.218  1.00  0.00     0.184 C 
HETATM    5  O3  UNL     1       3.394  58.840  25.016  1.00  0.00    -0.362 OA
HETATM    6  C9  UNL     1       2.561  60.974  25.038  1.00  0.00     0.194 C 
HETATM    7  O4  UNL     1       1.952  61.738  26.016  1.00  0.00    -0.345 OA
HETATM    8  C10 UNL     1       2.897  62.538  26.556  1.00  0.00     0.158 C 
HETATM    9  C11 UNL     1       2.765  63.914  25.927  1.00  0.00     0.078 C 
HETATM   10  C12 UNL     1       2.633  62.822  28.057  1.00  0.00     0.078 C 
HETATM   11  O5  UNL     1       4.092  61.918  26.380  1.00  0.00    -0.339 OA
HETATM   12  C13 UNL     1       4.001  60.955  25.371  1.00  0.00     0.131 C 
ENDROOT
BRANCH  12  13
HETATM   13  C14 UNL     1       4.987  61.150  24.304  1.00  0.00     0.076 C 
BRANCH  13  14
HETATM   14  C15 UNL     1       4.780  61.861  23.055  1.00  0.00     0.130 C 
BRANCH  14  15
HETATM   15  O6  UNL     1       6.098  62.214  22.557  1.00  0.00    -0.395 OA
ATOM     16  H6  UNL     1       5.982  62.483  21.654  1.00  0.00     0.210 HD
ENDBRANCH  14  15
BRANCH  14  17
HETATM   17  C16 UNL     1       4.232  61.071  21.895  1.00  0.00     0.134 C 
BRANCH  17  18
HETATM   18  C17 UNL     1       5.270  60.047  21.442  1.00  0.00     0.220 C 
HETATM   19  O7  UNL     1       5.197  58.931  22.003  1.00  0.00    -0.274 OA
HETATM   20  N1  UNL     1       6.225  60.361  20.466  1.00  0.00    -0.361 N 
ATOM     21  H1  UNL     1       6.244  61.287  20.037  1.00  0.00     0.162 HD
BRANCH  20  22
HETATM   22  C18 UNL     1       7.176  59.360  20.080  1.00  0.00     0.127 C 
BRANCH  22  23
HETATM   23  C19 UNL     1       8.058  59.787  18.935  1.00  0.00     0.003 C 
HETATM   24  C20 UNL     1       7.858  61.207  18.528  1.00  0.00     0.006 C 
HETATM   25  C21 UNL     1       8.501  61.272  17.164  1.00  0.00     0.000 C 
HETATM   26  C22 UNL     1       8.543  59.860  16.641  1.00  0.00     0.000 C 
HETATM   27  C23 UNL     1       7.773  59.022  17.667  1.00  0.00     0.006 C 
ENDBRANCH  22  23
ENDBRANCH  20  22
ENDBRANCH  17  18
ENDBRANCH  14  17
ENDBRANCH  13  14
ENDBRANCH  12  13
BRANCH   1  28
HETATM   28  C3  UNL     1       5.505  58.968  26.091  1.00  0.00    -0.020 C 
BRANCH  28  29
HETATM   29  C2  UNL     1       5.823  57.711  25.397  1.00  0.00    -0.002 C 
HETATM   30  C1  UNL     1       6.650  56.818  25.920  1.00  0.00     0.011 C 
ENDBRANCH  28  29
BRANCH  28  31
HETATM   31  C4  UNL     1       6.221  59.203  27.395  1.00  0.00     0.201 C 
BRANCH  31  32
HETATM   32  O1  UNL     1       6.618  60.566  27.497  1.00  0.00    -0.397 OA
ATOM     33  H1  UNL     1       6.206  60.970  28.251  1.00  0.00     0.209 HD
ENDBRANCH  31  32
ENDBRANCH  28  31
ENDBRANCH   1  28
BRANCH   3  34
HETATM   34  O2  UNL     1       1.338  58.081  26.944  1.00  0.00    -0.393 OA
ATOM     35  H2  UNL     1       0.421  58.175  27.175  1.00  0.00     0.210 HD
ENDBRANCH   3  34
TORSDOF 12
ENDMDL
MODEL 3
REMARK VINA RESULT: -6.332027027      2.622      4.008
REMARK  12 active torsions:
REMARK  status: ('A' for Active; 'I' for Inactive)
REMARK    1  A    between atoms: C2_2  and  C3_3 
REMARK    2  A    between atoms: C3_3  and  C4_4 
REMARK    3  A    between atoms: C3_3  and  C5_7 
REMARK    4  A    between atoms: C4_4  and  O1_5 
REMARK    5  A    between atoms: C7_9  and  O2_10 
REMARK    6  A    between atoms: C13_20  and  C14_21 
REMARK    7  A    between atoms: C14_21  and  C15_22 
REMARK    8  A    between atoms: C15_22  and  O6_23 
REMARK    9  A    between atoms: C15_22  and  C16_25 
REMARK   10  A    between atoms: C16_25  and  C17_26 
REMARK       I    between atoms: C17_26  and  N1_28 
REMARK   11  A    between atoms: N1_28  and  C18_30 
REMARK   12  A    between atoms: C18_30  and  C19_31 
ROOT
HETATM    1  C5  UNL     1       4.555  58.578  26.090  1.00  0.00     0.123 C 
HETATM    2  C6  UNL     1       4.365  58.163  27.546  1.00  0.00     0.080 C 
HETATM    3  C7  UNL     1       3.075  58.816  27.924  1.00  0.00     0.153 C 
HETATM    4  C8  UNL     1       2.726  59.486  26.619  1.00  0.00     0.184 C 
HETATM    5  O3  UNL     1       3.232  58.590  25.688  1.00  0.00    -0.362 OA
HETATM    6  C9  UNL     1       3.682  60.685  26.499  1.00  0.00     0.194 C 
HETATM    7  O4  UNL     1       4.004  61.159  27.757  1.00  0.00    -0.345 OA
HETATM    8  C10 UNL     1       5.348  61.296  27.809  1.00  0.00     0.158 C 
HETATM    9  C11 UNL     1       5.681  62.760  27.582  1.00  0.00     0.078 C 
HETATM   10  C12 UNL     1       5.907  61.034  29.231  1.00  0.00     0.078 C 
HETATM   11  O5  UNL     1       5.872  60.422  26.912  1.00  0.00    -0.339 OA
HETATM   12  C13 UNL     1       4.904  60.035  25.980  1.00  0.00     0.131 C 
ENDROOT
BRANCH  12  13
HETATM   13  C14 UNL     1       5.313  60.279  24.595  1.00  0.00     0.076 C 
BRANCH  13  14
HETATM   14  C15 UNL     1       4.547  60.978  23.577  1.00  0.00     0.130 C 
BRANCH  14  15
HETATM   15  O6  UNL     1       5.323  62.149  23.208  1.00  0.00    -0.395 OA
ATOM     16  H6  UNL     1       6.034  62.210  23.835  1.00  0.00     0.210 HD
ENDBRANCH  14  15
BRANCH  14  17
HETATM   17  C16 UNL     1       4.393  60.297  22.242  1.00  0.00     0.134 C 
BRANCH  17  18
HETATM   18  C17 UNL     1       5.171  61.074  21.183  1.00  0.00     0.220 C 
HETATM   19  O7  UNL     1       4.489  61.869  20.498  1.00  0.00    -0.274 OA
HETATM   20  N1  UNL     1       6.550  60.890  21.010  1.00  0.00    -0.361 N 
ATOM     21  H1  UNL     1       7.062  60.229  21.594  1.00  0.00     0.162 HD
BRANCH  20  22
HETATM   22  C18 UNL     1       7.228  61.647  19.999  1.00  0.00     0.127 C 
BRANCH  22  23
HETATM   23  C19 UNL     1       7.312  60.930  18.676  1.00  0.00     0.003 C 
HETATM   24  C20 UNL     1       7.672  59.489  18.802  1.00  0.00     0.006 C 
HETATM   25  C21 UNL     1       8.096  59.112  17.405  1.00  0.00     0.000 C 
HETATM   26  C22 UNL     1       8.472  60.393  16.708  1.00  0.00     0.000 C 
HETATM   27  C23 UNL     1       8.400  61.479  17.787  1.00  0.00     0.006 C 
ENDBRANCH  22  23
ENDBRANCH  20  22
ENDBRANCH  17  18
ENDBRANCH  14  17
ENDBRANCH  13  14
ENDBRANCH  12  13
BRANCH   1  28
HETATM   28  C3  UNL     1       5.343  57.538  25.434  1.00  0.00    -0.020 C 
BRANCH  28  29
HETATM   29  C2  UNL     1       4.695  56.709  24.406  1.00  0.00    -0.002 C 
HETATM   30  C1  UNL     1       5.068  56.759  23.136  1.00  0.00     0.011 C 
ENDBRANCH  28  29
BRANCH  28  31
HETATM   31  C4  UNL     1       6.470  56.889  26.194  1.00  0.00     0.201 C 
BRANCH  31  32
HETATM   32  O1  UNL     1       7.444  57.863  26.553  1.00  0.00    -0.397 OA
ATOM     33  H1  UNL     1       7.109  58.419  27.247  1.00  0.00     0.209 HD
ENDBRANCH  31  32
ENDBRANCH  28  31
ENDBRANCH   1  28
BRANCH   3  34
HETATM   34  O2  UNL     1       2.079  57.898  28.279  1.00  0.00    -0.393 OA
ATOM     35  H2  UNL     1       1.290  57.987  27.759  1.00  0.00     0.210 HD
ENDBRANCH   3  34
TORSDOF 12
ENDMDL
MODEL 4
REMARK VINA RESULT: -6.301000899      0.813      1.089
REMARK  12 active torsions:
REMARK  status: ('A' for Active; 'I' for Inactive)
REMARK    1  A    between atoms: C2_2  and  C3_3 
REMARK    2  A    between atoms: C3_3  and  C4_4 
REMARK    3  A    between atoms: C3_3  and  C5_7 
REMARK    4  A    between atoms: C4_4  and  O1_5 
REMARK    5  A    between atoms: C7_9  and  O2_10 
REMARK    6  A    between atoms: C13_20  and  C14_21 
REMARK    7  A    between atoms: C14_21  and  C15_22 
REMARK    8  A    between atoms: C15_22  and  O6_23 
REMARK    9  A    between atoms: C15_22  and  C16_25 
REMARK   10  A    between atoms: C16_25  and  C17_26 
REMARK       I    between atoms: C17_26  and  N1_28 
REMARK   11  A    between atoms: N1_28  and  C18_30 
REMARK   12  A    between atoms: C18_30  and  C19_31 
ROOT
HETATM    1  C5  UNL     1       4.266  60.019  26.370  1.00  0.00     0.123 C 
HETATM    2  C6  UNL     1       3.471  59.973  27.671  1.00  0.00     0.080 C 
HETATM    3  C7  UNL     1       2.065  59.764  27.208  1.00  0.00     0.153 C 
HETATM    4  C8  UNL     1       2.284  59.708  25.718  1.00  0.00     0.184 C 
HETATM    5  O3  UNL     1       3.533  59.109  25.630  1.00  0.00    -0.362 OA
HETATM    6  C9  UNL     1       2.564  61.157  25.284  1.00  0.00     0.194 C 
HETATM    7  O4  UNL     1       1.896  62.036  26.117  1.00  0.00    -0.345 OA
HETATM    8  C10 UNL     1       2.783  62.977  26.510  1.00  0.00     0.158 C 
HETATM    9  C11 UNL     1       2.568  64.213  25.653  1.00  0.00     0.078 C 
HETATM   10  C12 UNL     1       2.486  63.497  27.940  1.00  0.00     0.078 C 
HETATM   11  O5  UNL     1       4.017  62.415  26.442  1.00  0.00    -0.339 OA
HETATM   12  C13 UNL     1       3.999  61.290  25.614  1.00  0.00     0.131 C 
ENDROOT
BRANCH  12  13
HETATM   13  C14 UNL     1       4.981  61.362  24.528  1.00  0.00     0.076 C 
BRANCH  13  14
HETATM   14  C15 UNL     1       4.772  61.939  23.212  1.00  0.00     0.130 C 
BRANCH  14  15
HETATM   15  O6  UNL     1       6.090  62.115  22.625  1.00  0.00    -0.395 OA
ATOM     16  H6  UNL     1       6.639  62.488  23.304  1.00  0.00     0.210 HD
ENDBRANCH  14  15
BRANCH  14  17
HETATM   17  C16 UNL     1       4.106  61.071  22.176  1.00  0.00     0.134 C 
BRANCH  17  18
HETATM   18  C17 UNL     1       4.889  59.770  22.023  1.00  0.00     0.220 C 
HETATM   19  O7  UNL     1       5.838  59.812  21.207  1.00  0.00    -0.274 OA
HETATM   20  N1  UNL     1       4.549  58.624  22.755  1.00  0.00    -0.361 N 
ATOM     21  H1  UNL     1       3.765  58.640  23.408  1.00  0.00     0.162 HD
BRANCH  20  22
HETATM   22  C18 UNL     1       5.319  57.430  22.569  1.00  0.00     0.127 C 
BRANCH  22  23
HETATM   23  C19 UNL     1       4.510  56.169  22.729  1.00  0.00     0.003 C 
HETATM   24  C20 UNL     1       4.004  55.620  21.439  1.00  0.00     0.006 C 
HETATM   25  C21 UNL     1       2.924  54.658  21.870  1.00  0.00     0.000 C 
HETATM   26  C22 UNL     1       2.499  55.079  23.252  1.00  0.00     0.000 C 
HETATM   27  C23 UNL     1       3.250  56.386  23.528  1.00  0.00     0.006 C 
ENDBRANCH  22  23
ENDBRANCH  20  22
ENDBRANCH  17  18
ENDBRANCH  14  17
ENDBRANCH  13  14
ENDBRANCH  12  13
BRANCH   1  28
HETATM   28  C3  UNL     1       5.621  59.559  26.663  1.00  0.00    -0.020 C 
BRANCH  28  29
HETATM   29  C2  UNL     1       6.092  58.315  26.035  1.00  0.00    -0.002 C 
HETATM   30  C1  UNL     1       7.078  57.603  26.559  1.00  0.00     0.011 C 
ENDBRANCH  28  29
BRANCH  28  31
HETATM   31  C4  UNL     1       6.233  59.900  27.997  1.00  0.00     0.201 C 
BRANCH  31  32
HETATM   32  O1  UNL     1       6.908  61.150  27.921  1.00  0.00    -0.397 OA
ATOM     33  H1  UNL     1       7.215  61.408  28.782  1.00  0.00     0.209 HD
ENDBRANCH  31  32
ENDBRANCH  28  31
ENDBRANCH   1  28
BRANCH   3  34
HETATM   34  O2  UNL     1       1.511  58.561  27.663  1.00  0.00    -0.393 OA
ATOM     35  H2  UNL     1       0.562  58.566  27.664  1.00  0.00     0.210 HD
ENDBRANCH   3  34
TORSDOF 12
ENDMDL
MODEL 5
REMARK VINA RESULT: -6.285523906      2.783      5.034
REMARK  12 active torsions:
REMARK  status: ('A' for Active; 'I' for Inactive)
REMARK    1  A    between atoms: C2_2  and  C3_3 
REMARK    2  A    between atoms: C3_3  and  C4_4 
REMARK    3  A    between atoms: C3_3  and  C5_7 
REMARK    4  A    between atoms: C4_4  and  O1_5 
REMARK    5  A    between atoms: C7_9  and  O2_10 
REMARK    6  A    between atoms: C13_20  and  C14_21 
REMARK    7  A    between atoms: C14_21  and  C15_22 
REMARK    8  A    between atoms: C15_22  and  O6_23 
REMARK    9  A    between atoms: C15_22  and  C16_25 
REMARK   10  A    between atoms: C16_25  and  C17_26 
REMARK       I    between atoms: C17_26  and  N1_28 
REMARK   11  A    between atoms: N1_28  and  C18_30 
REMARK   12  A    between atoms: C18_30  and  C19_31 
ROOT
HETATM    1  C5  UNL     1       5.325  59.468  26.965  1.00  0.00     0.123 C 
HETATM    2  C6  UNL     1       4.689  58.577  28.027  1.00  0.00     0.080 C 
HETATM    3  C7  UNL     1       5.494  57.321  27.949  1.00  0.00     0.153 C 
HETATM    4  C8  UNL     1       6.472  57.701  26.866  1.00  0.00     0.184 C 
HETATM    5  O3  UNL     1       6.640  59.060  27.091  1.00  0.00    -0.362 OA
HETATM    6  C9  UNL     1       5.672  57.664  25.553  1.00  0.00     0.194 C 
HETATM    7  O4  UNL     1       4.666  56.720  25.639  1.00  0.00    -0.345 OA
HETATM    8  C10 UNL     1       3.522  57.305  25.222  1.00  0.00     0.158 C 
HETATM    9  C11 UNL     1       3.277  56.887  23.782  1.00  0.00     0.078 C 
HETATM   10  C12 UNL     1       2.278  56.743  25.957  1.00  0.00     0.078 C 
HETATM   11  O5  UNL     1       3.654  58.639  25.438  1.00  0.00    -0.339 OA
HETATM   12  C13 UNL     1       5.002  58.981  25.581  1.00  0.00     0.131 C 
ENDROOT
BRANCH  12  13
HETATM   13  C14 UNL     1       5.429  60.024  24.644  1.00  0.00     0.076 C 
BRANCH  13  14
HETATM   14  C15 UNL     1       4.599  60.690  23.655  1.00  0.00     0.130 C 
BRANCH  14  15
HETATM   15  O6  UNL     1       5.256  61.948  23.345  1.00  0.00    -0.395 OA
ATOM     16  H6  UNL     1       4.582  62.617  23.368  1.00  0.00     0.210 HD
ENDBRANCH  14  15
BRANCH  14  17
HETATM   17  C16 UNL     1       4.517  60.061  22.288  1.00  0.00     0.134 C 
BRANCH  17  18
HETATM   18  C17 UNL     1       5.233  60.950  21.275  1.00  0.00     0.220 C 
HETATM   19  O7  UNL     1       4.512  61.808  20.717  1.00  0.00    -0.274 OA
HETATM   20  N1  UNL     1       6.600  60.795  21.007  1.00  0.00    -0.361 N 
ATOM     21  H1  UNL     1       7.145  60.080  21.489  1.00  0.00     0.162 HD
BRANCH  20  22
HETATM   22  C18 UNL     1       7.219  61.658  20.045  1.00  0.00     0.127 C 
BRANCH  22  23
HETATM   23  C19 UNL     1       7.350  61.032  18.681  1.00  0.00     0.003 C 
HETATM   24  C20 UNL     1       7.691  59.581  18.723  1.00  0.00     0.006 C 
HETATM   25  C21 UNL     1       8.167  59.294  17.321  1.00  0.00     0.000 C 
HETATM   26  C22 UNL     1       8.582  60.615  16.728  1.00  0.00     0.000 C 
HETATM   27  C23 UNL     1       8.477  61.626  17.875  1.00  0.00     0.006 C 
ENDBRANCH  22  23
ENDBRANCH  20  22
ENDBRANCH  17  18
ENDBRANCH  14  17
ENDBRANCH  13  14
ENDBRANCH  12  13
BRANCH   1  28
HETATM   28  C3  UNL     1       5.115  60.856  27.369  1.00  0.00    -0.020 C 
BRANCH  28  29
HETATM   29  C2  UNL     1       6.249  61.601  27.937  1.00  0.00    -0.002 C 
HETATM   30  C1  UNL     1       6.269  61.975  29.207  1.00  0.00     0.011 C 
ENDBRANCH  28  29
BRANCH  28  31
HETATM   31  C4  UNL     1       3.746  61.281  27.833  1.00  0.00     0.201 C 
BRANCH  31  32
HETATM   32  O1  UNL     1       2.859  61.366  26.723  1.00  0.00    -0.397 OA
ATOM     33  H1  UNL     1       2.055  60.895  26.911  1.00  0.00     0.209 HD
ENDBRANCH  31  32
ENDBRANCH  28  31
ENDBRANCH   1  28
BRANCH   3  34
HETATM   34  O2  UNL     1       6.176  57.031  29.138  1.00  0.00    -0.393 OA
ATOM     35  H2  UNL     1       7.033  57.438  29.183  1.00  0.00     0.210 HD
ENDBRANCH   3  34
TORSDOF 12
ENDMDL
