MODEL 1
REMARK VINA RESULT: -8.408366412      0.000      0.000
REMARK  9 active torsions:
REMARK  status: ('A' for Active; 'I' for Inactive)
REMARK    1  A    between atoms: C3_3  and  C4_4 
REMARK    2  A    between atoms: C4_4  and  O1_5 
REMARK    3  A    between atoms: C4_4  and  C5_7 
REMARK    4  A    between atoms: C7_9  and  C8_10 
REMARK    5  A    between atoms: C9_11  and  C10_12 
REMARK    6  A    between atoms: C12_18  and  C13_19 
REMARK       I    between atoms: N3_22  and  C16_23 
REMARK    7  A    between atoms: C16_23  and  C17_25 
REMARK    8  A    between atoms: C18_26  and  C19_27 
REMARK    9  A    between atoms: C19_27  and  C20_28 
ROOT
HETATM    1  C10 UNL     1     -11.342   6.850  -2.170  1.00  0.00     0.059 A 
HETATM    2  C11 UNL     1     -11.547   6.382  -3.460  1.00  0.00     0.129 A 
HETATM    3  N1  UNL     1     -12.878   6.449  -3.728  1.00  0.00    -0.310 N 
ATOM      4  H1  UNL     1     -13.316   6.170  -4.606  1.00  0.00     0.186 HD
HETATM    5  N2  UNL     1     -13.517   6.932  -2.680  1.00  0.00    -0.303 N 
ATOM      6  H2  UNL     1     -14.523   7.087  -2.613  1.00  0.00     0.186 HD
HETATM    7  C12 UNL     1     -12.620   7.185  -1.719  1.00  0.00     0.050 A 
ENDROOT
BRANCH   7   8
HETATM    8  C13 UNL     1     -12.869   7.710  -0.362  1.00  0.00     0.042 C 
HETATM    9  C14 UNL     1     -14.300   7.701   0.064  1.00  0.00     0.030 C 
HETATM   10  C15 UNL     1     -14.880   6.430   0.507  1.00  0.00     0.127 C 
HETATM   11  N3  UNL     1     -13.976   5.381   0.797  1.00  0.00    -0.349 N 
HETATM   12  C16 UNL     1     -14.586   4.092   1.122  1.00  0.00     0.243 C 
HETATM   13  C22 UNL     1     -12.560   5.530   0.799  1.00  0.00     0.127 C 
HETATM   14  O2  UNL     1     -15.837   4.083   1.136  1.00  0.00    -0.268 OA
HETATM   15  C23 UNL     1     -12.049   6.930   0.673  1.00  0.00     0.030 C 
BRANCH  12  16
HETATM   16  C17 UNL     1     -13.744   2.970   1.388  1.00  0.00     0.070 C 
HETATM   17  C18 UNL     1     -13.433   2.453   2.533  1.00  0.00    -0.021 C 
BRANCH  17  18
HETATM   18  C19 UNL     1     -13.876   2.901   3.859  1.00  0.00     0.027 C 
BRANCH  18  19
HETATM   19  C20 UNL     1     -13.047   2.216   4.947  1.00  0.00    -0.001 C 
HETATM   20  C21 UNL     1     -11.739   2.950   5.041  1.00  0.00     0.005 C 
ENDBRANCH  18  19
ENDBRANCH  17  18
ENDBRANCH  12  16
ENDBRANCH   7   8
BRANCH   1  21
HETATM   21  C9  UNL     1     -10.079   6.969  -1.494  1.00  0.00    -0.063 C 
HETATM   22  C8  UNL     1      -9.026   7.061  -0.900  1.00  0.00    -0.096 C 
BRANCH  22  23
HETATM   23  C7  UNL     1      -7.748   7.157  -0.144  1.00  0.00     0.072 A 
HETATM   24  C5  UNL     1      -7.777   7.865   1.168  1.00  0.00     0.035 A 
HETATM   25  C6  UNL     1      -7.199   8.535  -0.002  1.00  0.00     0.026 A 
BRANCH  24  26
HETATM   26  C4  UNL     1      -6.872   7.499   2.304  1.00  0.00     0.146 C 
BRANCH  26  27
HETATM   27  C3  UNL     1      -6.453   8.781   2.955  1.00  0.00     0.000 C 
HETATM   28  C2  UNL     1      -7.288   9.662   3.428  1.00  0.00    -0.033 C 
HETATM   29  C1  UNL     1      -6.779  10.905   4.057  1.00  0.00     0.036 C 
ENDBRANCH  26  27
BRANCH  26  30
HETATM   30  O1  UNL     1      -7.495   6.636   3.204  1.00  0.00    -0.391 OA
ATOM     31  H1  UNL     1      -6.894   6.321   3.869  1.00  0.00     0.210 HD
ENDBRANCH  26  30
ENDBRANCH  24  26
ENDBRANCH  22  23
ENDBRANCH   1  21
TORSDOF 9
ENDMDL
MODEL 2
REMARK VINA RESULT: -8.193253166      1.529      1.912
REMARK  9 active torsions:
REMARK  status: ('A' for Active; 'I' for Inactive)
REMARK    1  A    between atoms: C3_3  and  C4_4 
REMARK    2  A    between atoms: C4_4  and  O1_5 
REMARK    3  A    between atoms: C4_4  and  C5_7 
REMARK    4  A    between atoms: C7_9  and  C8_10 
REMARK    5  A    between atoms: C9_11  and  C10_12 
REMARK    6  A    between atoms: C12_18  and  C13_19 
REMARK       I    between atoms: N3_22  and  C16_23 
REMARK    7  A    between atoms: C16_23  and  C17_25 
REMARK    8  A    between atoms: C18_26  and  C19_27 
REMARK    9  A    between atoms: C19_27  and  C20_28 
ROOT
HETATM    1  C10 UNL     1      -9.577   7.226  -1.261  1.00  0.00     0.059 A 
HETATM    2  C11 UNL     1      -9.534   6.694  -2.541  1.00  0.00     0.129 A 
HETATM    3  N1  UNL     1     -10.800   6.354  -2.901  1.00  0.00    -0.310 N 
ATOM      4  H1  UNL     1     -11.066   5.940  -3.795  1.00  0.00     0.186 HD
HETATM    5  N2  UNL     1     -11.632   6.643  -1.920  1.00  0.00    -0.303 N 
ATOM      6  H2  UNL     1     -12.641   6.490  -1.927  1.00  0.00     0.186 HD
HETATM    7  C12 UNL     1     -10.927   7.171  -0.911  1.00  0.00     0.050 A 
ENDROOT
BRANCH   7   8
HETATM    8  C13 UNL     1     -11.425   7.622   0.403  1.00  0.00     0.042 C 
HETATM    9  C14 UNL     1     -12.894   7.884   0.466  1.00  0.00     0.030 C 
HETATM   10  C15 UNL     1     -13.795   6.734   0.579  1.00  0.00     0.127 C 
HETATM   11  N3  UNL     1     -13.210   5.496   0.934  1.00  0.00    -0.349 N 
HETATM   12  C16 UNL     1     -14.113   4.344   0.924  1.00  0.00     0.243 C 
HETATM   13  C22 UNL     1     -11.843   5.338   1.299  1.00  0.00     0.127 C 
HETATM   14  O2  UNL     1     -15.302   4.602   0.633  1.00  0.00    -0.268 OA
HETATM   15  C23 UNL     1     -11.067   6.601   1.491  1.00  0.00     0.030 C 
BRANCH  12  16
HETATM   16  C17 UNL     1     -13.594   3.050   1.232  1.00  0.00     0.070 C 
HETATM   17  C18 UNL     1     -13.583   2.440   2.373  1.00  0.00    -0.021 C 
BRANCH  17  18
HETATM   18  C19 UNL     1     -14.109   2.936   3.651  1.00  0.00     0.027 C 
BRANCH  18  19
HETATM   19  C20 UNL     1     -13.272   2.391   4.809  1.00  0.00    -0.001 C 
HETATM   20  C21 UNL     1     -11.874   2.914   4.636  1.00  0.00     0.005 C 
ENDBRANCH  18  19
ENDBRANCH  17  18
ENDBRANCH  12  16
ENDBRANCH   7   8
BRANCH   1  21
HETATM   21  C9  UNL     1      -8.462   7.731  -0.506  1.00  0.00    -0.063 C 
HETATM   22  C8  UNL     1      -7.535   8.147   0.155  1.00  0.00    -0.096 C 
BRANCH  22  23
HETATM   23  C7  UNL     1      -6.408   8.641   0.992  1.00  0.00     0.072 A 
HETATM   24  C5  UNL     1      -6.254   8.052   2.353  1.00  0.00     0.035 A 
HETATM   25  C6  UNL     1      -6.810   9.402   2.208  1.00  0.00     0.026 A 
BRANCH  24  26
HETATM   26  C4  UNL     1      -4.922   7.894   3.019  1.00  0.00     0.146 C 
BRANCH  26  27
HETATM   27  C3  UNL     1      -4.990   8.648   4.310  1.00  0.00     0.000 C 
HETATM   28  C2  UNL     1      -4.031   8.665   5.192  1.00  0.00    -0.033 C 
HETATM   29  C1  UNL     1      -4.189   9.443   6.446  1.00  0.00     0.036 C 
ENDBRANCH  26  27
BRANCH  26  30
HETATM   30  O1  UNL     1      -4.598   6.552   3.214  1.00  0.00    -0.391 OA
ATOM     31  H1  UNL     1      -3.761   6.327   2.823  1.00  0.00     0.210 HD
ENDBRANCH  26  30
ENDBRANCH  24  26
ENDBRANCH  22  23
ENDBRANCH   1  21
TORSDOF 9
ENDMDL
MODEL 3
REMARK VINA RESULT: -8.153410781      1.161      1.486
REMARK  9 active torsions:
REMARK  status: ('A' for Active; 'I' for Inactive)
REMARK    1  A    between atoms: C3_3  and  C4_4 
REMARK    2  A    between atoms: C4_4  and  O1_5 
REMARK    3  A    between atoms: C4_4  and  C5_7 
REMARK    4  A    between atoms: C7_9  and  C8_10 
REMARK    5  A    between atoms: C9_11  and  C10_12 
REMARK    6  A    between atoms: C12_18  and  C13_19 
REMARK       I    between atoms: N3_22  and  C16_23 
REMARK    7  A    between atoms: C16_23  and  C17_25 
REMARK    8  A    between atoms: C18_26  and  C19_27 
REMARK    9  A    between atoms: C19_27  and  C20_28 
ROOT
HETATM    1  C10 UNL     1      -9.929   6.875  -1.434  1.00  0.00     0.059 A 
HETATM    2  C11 UNL     1      -9.658   6.279  -2.656  1.00  0.00     0.129 A 
HETATM    3  N1  UNL     1     -10.826   6.172  -3.343  1.00  0.00    -0.310 N 
ATOM      4  H1  UNL     1     -10.925   5.770  -4.276  1.00  0.00     0.186 HD
HETATM    5  N2  UNL     1     -11.811   6.667  -2.620  1.00  0.00    -0.303 N 
ATOM      6  H2  UNL     1     -12.792   6.712  -2.898  1.00  0.00     0.186 HD
HETATM    7  C12 UNL     1     -11.305   7.102  -1.459  1.00  0.00     0.050 A 
ENDROOT
BRANCH   7   8
HETATM    8  C13 UNL     1     -12.030   7.709  -0.326  1.00  0.00     0.042 C 
HETATM    9  C14 UNL     1     -13.517   7.595  -0.395  1.00  0.00     0.030 C 
HETATM   10  C15 UNL     1     -14.129   6.315  -0.031  1.00  0.00     0.127 C 
HETATM   11  N3  UNL     1     -13.311   5.386   0.653  1.00  0.00    -0.349 N 
HETATM   12  C16 UNL     1     -13.910   4.075   0.898  1.00  0.00     0.243 C 
HETATM   13  C22 UNL     1     -11.991   5.671   1.104  1.00  0.00     0.127 C 
HETATM   14  O2  UNL     1     -15.090   3.945   0.501  1.00  0.00    -0.268 OA
HETATM   15  C23 UNL     1     -11.558   7.099   1.000  1.00  0.00     0.030 C 
BRANCH  12  16
HETATM   16  C17 UNL     1     -13.136   3.065   1.548  1.00  0.00     0.070 C 
HETATM   17  C18 UNL     1     -13.256   2.614   2.755  1.00  0.00    -0.021 C 
BRANCH  17  18
HETATM   18  C19 UNL     1     -14.232   3.036   3.768  1.00  0.00     0.027 C 
BRANCH  18  19
HETATM   19  C20 UNL     1     -13.630   2.893   5.167  1.00  0.00    -0.001 C 
HETATM   20  C21 UNL     1     -12.158   2.639   4.997  1.00  0.00     0.005 C 
ENDBRANCH  18  19
ENDBRANCH  17  18
ENDBRANCH  12  16
ENDBRANCH   7   8
BRANCH   1  21
HETATM   21  C9  UNL     1      -8.973   7.194  -0.407  1.00  0.00    -0.063 C 
HETATM   22  C8  UNL     1      -8.182   7.445   0.476  1.00  0.00    -0.096 C 
BRANCH  22  23
HETATM   23  C7  UNL     1      -7.222   7.727   1.578  1.00  0.00     0.072 A 
HETATM   24  C5  UNL     1      -7.709   8.555   2.718  1.00  0.00     0.035 A 
HETATM   25  C6  UNL     1      -6.819   9.154   1.717  1.00  0.00     0.026 A 
BRANCH  24  26
HETATM   26  C4  UNL     1      -7.201   8.383   4.117  1.00  0.00     0.146 C 
BRANCH  26  27
HETATM   27  C3  UNL     1      -6.847   9.748   4.620  1.00  0.00     0.000 C 
HETATM   28  C2  UNL     1      -5.838   9.992   5.408  1.00  0.00    -0.033 C 
HETATM   29  C1  UNL     1      -5.564  11.379   5.856  1.00  0.00     0.036 C 
ENDBRANCH  26  27
BRANCH  26  30
HETATM   30  O1  UNL     1      -8.138   7.752   4.934  1.00  0.00    -0.391 OA
ATOM     31  H1  UNL     1      -8.163   6.814   4.786  1.00  0.00     0.210 HD
ENDBRANCH  26  30
ENDBRANCH  24  26
ENDBRANCH  22  23
ENDBRANCH   1  21
TORSDOF 9
ENDMDL
MODEL 4
REMARK VINA RESULT: -7.790369252      3.134      7.257
REMARK  9 active torsions:
REMARK  status: ('A' for Active; 'I' for Inactive)
REMARK    1  A    between atoms: C3_3  and  C4_4 
REMARK    2  A    between atoms: C4_4  and  O1_5 
REMARK    3  A    between atoms: C4_4  and  C5_7 
REMARK    4  A    between atoms: C7_9  and  C8_10 
REMARK    5  A    between atoms: C9_11  and  C10_12 
REMARK    6  A    between atoms: C12_18  and  C13_19 
REMARK       I    between atoms: N3_22  and  C16_23 
REMARK    7  A    between atoms: C16_23  and  C17_25 
REMARK    8  A    between atoms: C18_26  and  C19_27 
REMARK    9  A    between atoms: C19_27  and  C20_28 
ROOT
HETATM    1  C10 UNL     1     -10.651   6.637  -0.000  1.00  0.00     0.059 A 
HETATM    2  C11 UNL     1      -9.299   6.358   0.140  1.00  0.00     0.129 A 
HETATM    3  N1  UNL     1      -8.601   7.273  -0.582  1.00  0.00    -0.310 N 
ATOM      4  H1  UNL     1      -7.584   7.309  -0.660  1.00  0.00     0.186 HD
HETATM    5  N2  UNL     1      -9.438   8.108  -1.167  1.00  0.00    -0.303 N 
ATOM      6  H2  UNL     1      -9.179   8.891  -1.767  1.00  0.00     0.186 HD
HETATM    7  C12 UNL     1     -10.686   7.753  -0.837  1.00  0.00     0.050 A 
ENDROOT
BRANCH   7   8
HETATM    8  C13 UNL     1     -11.951   8.377  -1.273  1.00  0.00     0.042 C 
HETATM    9  C14 UNL     1     -11.795   9.528  -2.211  1.00  0.00     0.030 C 
HETATM   10  C15 UNL     1     -11.515   9.238  -3.620  1.00  0.00     0.127 C 
HETATM   11  N3  UNL     1     -11.720   7.907  -4.052  1.00  0.00    -0.349 N 
HETATM   12  C16 UNL     1     -11.321   7.620  -5.429  1.00  0.00     0.243 C 
HETATM   13  C22 UNL     1     -12.290   6.886  -3.238  1.00  0.00     0.127 C 
HETATM   14  O2  UNL     1     -10.875   8.598  -6.070  1.00  0.00    -0.268 OA
HETATM   15  C23 UNL     1     -12.863   7.335  -1.932  1.00  0.00     0.030 C 
BRANCH  12  16
HETATM   16  C17 UNL     1     -11.459   6.290  -5.932  1.00  0.00     0.070 C 
HETATM   17  C18 UNL     1     -10.544   5.386  -6.072  1.00  0.00    -0.021 C 
BRANCH  17  18
HETATM   18  C19 UNL     1      -9.117   5.507  -5.745  1.00  0.00     0.027 C 
BRANCH  18  19
HETATM   19  C20 UNL     1      -8.740   4.493  -4.664  1.00  0.00    -0.001 C 
HETATM   20  C21 UNL     1      -8.412   5.266  -3.418  1.00  0.00     0.005 C 
ENDBRANCH  18  19
ENDBRANCH  17  18
ENDBRANCH  12  16
ENDBRANCH   7   8
BRANCH   1  21
HETATM   21  C9  UNL     1     -11.740   5.926   0.614  1.00  0.00    -0.063 C 
HETATM   22  C8  UNL     1     -12.674   5.350   1.128  1.00  0.00    -0.096 C 
BRANCH  22  23
HETATM   23  C7  UNL     1     -13.841   4.668   1.749  1.00  0.00     0.072 A 
HETATM   24  C5  UNL     1     -13.810   3.178   1.818  1.00  0.00     0.035 A 
HETATM   25  C6  UNL     1     -14.659   3.839   0.819  1.00  0.00     0.026 A 
BRANCH  24  26
HETATM   26  C4  UNL     1     -14.469   2.406   2.919  1.00  0.00     0.146 C 
BRANCH  26  27
HETATM   27  C3  UNL     1     -13.652   2.629   4.154  1.00  0.00     0.000 C 
HETATM   28  C2  UNL     1     -12.355   2.752   4.154  1.00  0.00    -0.033 C 
HETATM   29  C1  UNL     1     -11.630   2.972   5.429  1.00  0.00     0.036 C 
ENDBRANCH  26  27
BRANCH  26  30
HETATM   30  O1  UNL     1     -15.798   2.790   3.096  1.00  0.00    -0.391 OA
ATOM     31  H1  UNL     1     -16.233   2.267   3.759  1.00  0.00     0.210 HD
ENDBRANCH  26  30
ENDBRANCH  24  26
ENDBRANCH  22  23
ENDBRANCH   1  21
TORSDOF 9
ENDMDL
MODEL 5
REMARK VINA RESULT: -7.674026030      2.130      2.773
REMARK  9 active torsions:
REMARK  status: ('A' for Active; 'I' for Inactive)
REMARK    1  A    between atoms: C3_3  and  C4_4 
REMARK    2  A    between atoms: C4_4  and  O1_5 
REMARK    3  A    between atoms: C4_4  and  C5_7 
REMARK    4  A    between atoms: C7_9  and  C8_10 
REMARK    5  A    between atoms: C9_11  and  C10_12 
REMARK    6  A    between atoms: C12_18  and  C13_19 
REMARK       I    between atoms: N3_22  and  C16_23 
REMARK    7  A    between atoms: C16_23  and  C17_25 
REMARK    8  A    between atoms: C18_26  and  C19_27 
REMARK    9  A    between atoms: C19_27  and  C20_28 
ROOT
HETATM    1  C10 UNL     1      -9.240   7.271  -1.024  1.00  0.00     0.059 A 
HETATM    2  C11 UNL     1      -9.036   6.687  -2.265  1.00  0.00     0.129 A 
HETATM    3  N1  UNL     1     -10.246   6.312  -2.760  1.00  0.00    -0.310 N 
ATOM      4  H1  UNL     1     -10.398   5.856  -3.660  1.00  0.00     0.186 HD
HETATM    5  N2  UNL     1     -11.193   6.628  -1.899  1.00  0.00    -0.303 N 
ATOM      6  H2  UNL     1     -12.192   6.459  -2.020  1.00  0.00     0.186 HD
HETATM    7  C12 UNL     1     -10.621   7.210  -0.837  1.00  0.00     0.050 A 
ENDROOT
BRANCH   7   8
HETATM    8  C13 UNL     1     -11.278   7.708   0.387  1.00  0.00     0.042 C 
HETATM    9  C14 UNL     1     -12.757   7.889   0.280  1.00  0.00     0.030 C 
HETATM   10  C15 UNL     1     -13.606   6.699   0.372  1.00  0.00     0.127 C 
HETATM   11  N3  UNL     1     -13.002   5.518   0.864  1.00  0.00    -0.349 N 
HETATM   12  C16 UNL     1     -13.839   4.319   0.834  1.00  0.00     0.243 C 
HETATM   13  C22 UNL     1     -11.675   5.459   1.378  1.00  0.00     0.127 C 
HETATM   14  O2  UNL     1     -15.002   4.491   0.406  1.00  0.00    -0.268 OA
HETATM   15  C23 UNL     1     -10.988   6.773   1.569  1.00  0.00     0.030 C 
BRANCH  12  16
HETATM   16  C17 UNL     1     -13.292   3.076   1.276  1.00  0.00     0.070 C 
HETATM   17  C18 UNL     1     -13.650   2.356   2.290  1.00  0.00    -0.021 C 
BRANCH  17  18
HETATM   18  C19 UNL     1     -14.723   2.645   3.250  1.00  0.00     0.027 C 
BRANCH  18  19
HETATM   19  C20 UNL     1     -14.356   2.093   4.628  1.00  0.00    -0.001 C 
HETATM   20  C21 UNL     1     -12.903   2.400   4.861  1.00  0.00     0.005 C 
ENDBRANCH  18  19
ENDBRANCH  17  18
ENDBRANCH  12  16
ENDBRANCH   7   8
BRANCH   1  21
HETATM   21  C9  UNL     1      -8.229   7.826  -0.163  1.00  0.00    -0.063 C 
HETATM   22  C8  UNL     1      -7.397   8.296   0.582  1.00  0.00    -0.096 C 
BRANCH  22  23
HETATM   23  C7  UNL     1      -6.398   8.869   1.524  1.00  0.00     0.072 A 
HETATM   24  C5  UNL     1      -5.554   7.912   2.297  1.00  0.00     0.035 A 
HETATM   25  C6  UNL     1      -6.662   8.604   2.966  1.00  0.00     0.026 A 
BRANCH  24  26
HETATM   26  C4  UNL     1      -4.153   8.229   2.718  1.00  0.00     0.146 C 
BRANCH  26  27
HETATM   27  C3  UNL     1      -3.643   7.035   3.463  1.00  0.00     0.000 C 
HETATM   28  C2  UNL     1      -2.446   6.542   3.313  1.00  0.00    -0.033 C 
HETATM   29  C1  UNL     1      -2.029   5.353   4.096  1.00  0.00     0.036 C 
ENDBRANCH  26  27
BRANCH  26  30
HETATM   30  O1  UNL     1      -3.345   8.549   1.628  1.00  0.00    -0.391 OA
ATOM     31  H1  UNL     1      -3.854   8.697   0.839  1.00  0.00     0.210 HD
ENDBRANCH  26  30
ENDBRANCH  24  26
ENDBRANCH  22  23
ENDBRANCH   1  21
TORSDOF 9
ENDMDL
