MODEL 1
REMARK VINA RESULT: -7.428024364      0.000      0.000
REMARK  7 active torsions:
REMARK  status: ('A' for Active; 'I' for Inactive)
REMARK    1  A    between atoms: C2_2  and  O1_3 
REMARK    2  A    between atoms: O1_3  and  C3_4 
REMARK    3  A    between atoms: C3_4  and  N1_5 
REMARK    4  A    between atoms: C3_4  and  C7_13 
REMARK    5  A    between atoms: N1_5  and  C4_8 
REMARK    6  A    between atoms: C4_8  and  C5_9 
REMARK    7  A    between atoms: C5_9  and  C6_10 
ROOT
HETATM    1  C7  UNL     1     -10.445   7.288  -0.828  1.00  0.00     0.050 C 
HETATM    2  C8  UNL     1      -8.924   7.193  -0.745  1.00  0.00     0.010 C 
HETATM    3  C9  UNL     1      -8.265   6.110  -1.470  1.00  0.00     0.001 C 
HETATM    4  C10 UNL     1      -8.983   5.885  -2.788  1.00  0.00     0.006 C 
HETATM    5  C11 UNL     1      -9.723   7.163  -3.139  1.00  0.00    -0.000 C 
HETATM    6  C12 UNL     1      -9.750   7.322  -4.594  1.00  0.00     0.009 C 
HETATM    7  C13 UNL     1      -9.208   6.115  -5.391  1.00  0.00     0.127 C 
HETATM    8  N2  UNL     1      -9.800   5.999  -6.710  1.00  0.00    -0.361 N 
ATOM      9  H2  UNL     1      -9.177   6.128  -7.508  1.00  0.00     0.162 HD
HETATM   10  C14 UNL     1     -11.189   5.719  -7.006  1.00  0.00     0.217 C 
HETATM   11  O4  UNL     1     -11.410   5.283  -8.160  1.00  0.00    -0.274 OA
HETATM   12  C15 UNL     1     -12.418   5.859  -6.167  1.00  0.00     0.107 C 
HETATM   13  C16 UNL     1     -11.917   6.406  -4.865  1.00  0.00    -0.005 C 
HETATM   14  C17 UNL     1     -12.840   6.864  -3.860  1.00  0.00     0.006 C 
HETATM   15  C18 UNL     1     -12.170   6.798  -2.497  1.00  0.00     0.010 C 
HETATM   16  C19 UNL     1     -10.896   7.456  -2.260  1.00  0.00    -0.032 C 
HETATM   17  C20 UNL     1     -11.094   9.001  -2.415  1.00  0.00     0.016 C 
HETATM   18  C21 UNL     1     -11.060   7.610  -5.236  1.00  0.00     0.011 C 
ENDROOT
BRANCH   1  19
HETATM   19  C3  UNL     1     -11.047   6.331   0.106  1.00  0.00     0.325 C 
BRANCH  19  20
HETATM   20  O1  UNL     1     -10.085   6.097   1.108  1.00  0.00    -0.359 OA
BRANCH  20  21
HETATM   21  C2  UNL     1     -10.259   6.521   2.341  1.00  0.00     0.166 C 
HETATM   22  C1  UNL     1      -9.136   7.282   2.992  1.00  0.00     0.033 C 
ENDBRANCH  20  21
ENDBRANCH  19  20
BRANCH  19  23
HETATM   23  N1  UNL     1     -12.196   6.931   0.890  1.00  0.00    -0.048 N 
ATOM     24  H12 UNL     1     -12.014   6.890   1.893  1.00  0.00     0.280 HD
ATOM     25  H11 UNL     1     -12.231   7.942   0.769  1.00  0.00     0.280 HD
BRANCH  23  26
HETATM   26  C4  UNL     1     -13.447   6.337   0.575  1.00  0.00     0.245 C 
BRANCH  26  27
HETATM   27  C5  UNL     1     -13.335   4.831   0.843  1.00  0.00     0.141 C 
BRANCH  27  28
HETATM   28  C6  UNL     1     -14.547   4.284   1.432  1.00  0.00     0.174 C 
HETATM   29  O2  UNL     1     -15.625   4.316   0.793  1.00  0.00    -0.648 OA
HETATM   30  O3  UNL     1     -14.537   3.727   2.687  1.00  0.00    -0.648 OA
ENDBRANCH  27  28
ENDBRANCH  26  27
ENDBRANCH  23  26
ENDBRANCH  19  23
ENDBRANCH   1  19
TORSDOF 7
ENDMDL
MODEL 2
REMARK VINA RESULT: -7.332602203      3.017      6.086
REMARK  7 active torsions:
REMARK  status: ('A' for Active; 'I' for Inactive)
REMARK    1  A    between atoms: C2_2  and  O1_3 
REMARK    2  A    between atoms: O1_3  and  C3_4 
REMARK    3  A    between atoms: C3_4  and  N1_5 
REMARK    4  A    between atoms: C3_4  and  C7_13 
REMARK    5  A    between atoms: N1_5  and  C4_8 
REMARK    6  A    between atoms: C4_8  and  C5_9 
REMARK    7  A    between atoms: C5_9  and  C6_10 
ROOT
HETATM    1  C7  UNL     1     -11.464   6.517  -0.679  1.00  0.00     0.050 C 
HETATM    2  C8  UNL     1     -10.837   6.708  -2.057  1.00  0.00     0.010 C 
HETATM    3  C9  UNL     1     -10.074   7.929  -2.299  1.00  0.00     0.001 C 
HETATM    4  C10 UNL     1      -9.305   8.293  -1.042  1.00  0.00     0.006 C 
HETATM    5  C11 UNL     1      -9.141   7.030  -0.215  1.00  0.00    -0.000 C 
HETATM    6  C12 UNL     1      -7.866   7.084   0.501  1.00  0.00     0.009 C 
HETATM    7  C13 UNL     1      -7.116   8.430   0.395  1.00  0.00     0.127 C 
HETATM    8  N2  UNL     1      -6.268   8.694   1.543  1.00  0.00    -0.361 N 
ATOM      9  H2  UNL     1      -5.263   8.729   1.375  1.00  0.00     0.162 HD
HETATM   10  C14 UNL     1      -6.711   8.914   2.903  1.00  0.00     0.217 C 
HETATM   11  O4  UNL     1      -5.884   9.498   3.644  1.00  0.00    -0.274 OA
HETATM   12  C15 UNL     1      -7.993   8.566   3.587  1.00  0.00     0.107 C 
HETATM   13  C16 UNL     1      -8.799   7.872   2.530  1.00  0.00    -0.005 C 
HETATM   14  C17 UNL     1     -10.030   7.207   2.867  1.00  0.00     0.006 C 
HETATM   15  C18 UNL     1     -10.907   7.121   1.629  1.00  0.00     0.010 C 
HETATM   16  C19 UNL     1     -10.407   6.529   0.400  1.00  0.00    -0.032 C 
HETATM   17  C20 UNL     1     -10.115   5.013   0.658  1.00  0.00     0.016 C 
HETATM   18  C21 UNL     1      -7.878   6.800   1.961  1.00  0.00     0.011 C 
ENDROOT
BRANCH   1  19
HETATM   19  C3  UNL     1     -12.714   7.282  -0.600  1.00  0.00     0.325 C 
BRANCH  19  20
HETATM   20  O1  UNL     1     -13.222   7.347  -1.912  1.00  0.00    -0.359 OA
BRANCH  20  21
HETATM   21  C2  UNL     1     -14.028   8.315  -2.290  1.00  0.00     0.166 C 
HETATM   22  C1  UNL     1     -13.500   9.337  -3.260  1.00  0.00     0.033 C 
ENDBRANCH  20  21
ENDBRANCH  19  20
BRANCH  19  23
HETATM   23  N1  UNL     1     -13.805   6.535   0.137  1.00  0.00    -0.048 N 
ATOM     24  H12 UNL     1     -13.764   6.723   1.139  1.00  0.00     0.280 HD
ATOM     25  H11 UNL     1     -14.721   6.932  -0.068  1.00  0.00     0.280 HD
BRANCH  23  26
HETATM   26  C4  UNL     1     -13.787   5.138  -0.118  1.00  0.00     0.245 C 
BRANCH  26  27
HETATM   27  C5  UNL     1     -13.774   4.412   1.233  1.00  0.00     0.141 C 
BRANCH  27  28
HETATM   28  C6  UNL     1     -15.087   3.902   1.597  1.00  0.00     0.174 C 
HETATM   29  O2  UNL     1     -16.091   4.207   0.911  1.00  0.00    -0.648 OA
HETATM   30  O3  UNL     1     -15.253   3.083   2.686  1.00  0.00    -0.648 OA
ENDBRANCH  27  28
ENDBRANCH  26  27
ENDBRANCH  23  26
ENDBRANCH  19  23
ENDBRANCH   1  19
TORSDOF 7
ENDMDL
MODEL 3
REMARK VINA RESULT: -7.172976545      0.792      1.165
REMARK  7 active torsions:
REMARK  status: ('A' for Active; 'I' for Inactive)
REMARK    1  A    between atoms: C2_2  and  O1_3 
REMARK    2  A    between atoms: O1_3  and  C3_4 
REMARK    3  A    between atoms: C3_4  and  N1_5 
REMARK    4  A    between atoms: C3_4  and  C7_13 
REMARK    5  A    between atoms: N1_5  and  C4_8 
REMARK    6  A    between atoms: C4_8  and  C5_9 
REMARK    7  A    between atoms: C5_9  and  C6_10 
ROOT
HETATM    1  C7  UNL     1     -10.942   7.372  -0.869  1.00  0.00     0.050 C 
HETATM    2  C8  UNL     1      -9.435   7.334  -0.636  1.00  0.00     0.010 C 
HETATM    3  C9  UNL     1      -8.667   6.275  -1.286  1.00  0.00     0.001 C 
HETATM    4  C10 UNL     1      -9.242   6.021  -2.667  1.00  0.00     0.006 C 
HETATM    5  C11 UNL     1      -9.991   7.270  -3.097  1.00  0.00    -0.000 C 
HETATM    6  C12 UNL     1      -9.879   7.424  -4.548  1.00  0.00     0.009 C 
HETATM    7  C13 UNL     1      -9.216   6.237  -5.280  1.00  0.00     0.127 C 
HETATM    8  N2  UNL     1      -9.670   6.097  -6.652  1.00  0.00    -0.361 N 
ATOM      9  H2  UNL     1      -8.976   6.248  -7.384  1.00  0.00     0.162 HD
HETATM   10  C14 UNL     1     -11.011   5.765  -7.081  1.00  0.00     0.217 C 
HETATM   11  O4  UNL     1     -11.100   5.318  -8.250  1.00  0.00    -0.274 OA
HETATM   12  C15 UNL     1     -12.322   5.859  -6.369  1.00  0.00     0.107 C 
HETATM   13  C16 UNL     1     -11.973   6.427  -5.027  1.00  0.00    -0.005 C 
HETATM   14  C17 UNL     1     -13.007   6.852  -4.121  1.00  0.00     0.006 C 
HETATM   15  C18 UNL     1     -12.474   6.814  -2.698  1.00  0.00     0.010 C 
HETATM   16  C19 UNL     1     -11.255   7.519  -2.339  1.00  0.00    -0.032 C 
HETATM   17  C20 UNL     1     -11.494   9.056  -2.522  1.00  0.00     0.016 C 
HETATM   18  C21 UNL     1     -11.129   7.662  -5.318  1.00  0.00     0.011 C 
ENDROOT
BRANCH   1  19
HETATM   19  C3  UNL     1     -11.598   6.394   0.006  1.00  0.00     0.325 C 
BRANCH  19  20
HETATM   20  O1  UNL     1     -10.600   5.906   0.872  1.00  0.00    -0.359 OA
BRANCH  20  21
HETATM   21  C2  UNL     1     -10.897   5.140   1.900  1.00  0.00     0.166 C 
HETATM   22  C1  UNL     1     -11.244   3.701   1.631  1.00  0.00     0.033 C 
ENDBRANCH  20  21
ENDBRANCH  19  20
BRANCH  19  23
HETATM   23  N1  UNL     1     -12.576   7.039   0.965  1.00  0.00    -0.048 N 
ATOM     24  H12 UNL     1     -12.395   6.745   1.925  1.00  0.00     0.280 HD
ATOM     25  H11 UNL     1     -12.389   8.037   1.060  1.00  0.00     0.280 HD
BRANCH  23  26
HETATM   26  C4  UNL     1     -13.932   6.807   0.610  1.00  0.00     0.245 C 
BRANCH  26  27
HETATM   27  C5  UNL     1     -14.074   5.327   0.235  1.00  0.00     0.141 C 
BRANCH  27  28
HETATM   28  C6  UNL     1     -14.976   4.617   1.127  1.00  0.00     0.174 C 
HETATM   29  O2  UNL     1     -14.574   4.231   2.250  1.00  0.00    -0.648 OA
HETATM   30  O3  UNL     1     -16.274   4.357   0.763  1.00  0.00    -0.648 OA
ENDBRANCH  27  28
ENDBRANCH  26  27
ENDBRANCH  23  26
ENDBRANCH  19  23
ENDBRANCH   1  19
TORSDOF 7
ENDMDL
MODEL 4
REMARK VINA RESULT: -6.915268000      3.339      5.607
REMARK  7 active torsions:
REMARK  status: ('A' for Active; 'I' for Inactive)
REMARK    1  A    between atoms: C2_2  and  O1_3 
REMARK    2  A    between atoms: O1_3  and  C3_4 
REMARK    3  A    between atoms: C3_4  and  N1_5 
REMARK    4  A    between atoms: C3_4  and  C7_13 
REMARK    5  A    between atoms: N1_5  and  C4_8 
REMARK    6  A    between atoms: C4_8  and  C5_9 
REMARK    7  A    between atoms: C5_9  and  C6_10 
ROOT
HETATM    1  C7  UNL     1      -9.222   6.574   0.313  1.00  0.00     0.050 C 
HETATM    2  C8  UNL     1     -10.094   5.542   1.021  1.00  0.00     0.010 C 
HETATM    3  C9  UNL     1     -11.443   5.940   1.416  1.00  0.00     0.001 C 
HETATM    4  C10 UNL     1     -12.028   6.843   0.345  1.00  0.00     0.006 C 
HETATM    5  C11 UNL     1     -11.289   6.565  -0.952  1.00  0.00    -0.000 C 
HETATM    6  C12 UNL     1     -12.209   6.740  -2.078  1.00  0.00     0.009 C 
HETATM    7  C13 UNL     1     -13.592   7.318  -1.706  1.00  0.00     0.127 C 
HETATM    8  N2  UNL     1     -14.204   8.058  -2.794  1.00  0.00    -0.361 N 
ATOM      9  H2  UNL     1     -15.063   7.672  -3.187  1.00  0.00     0.162 HD
HETATM   10  C14 UNL     1     -13.715   9.289  -3.377  1.00  0.00     0.217 C 
HETATM   11  O4  UNL     1     -14.569   9.952  -4.013  1.00  0.00    -0.274 OA
HETATM   12  C15 UNL     1     -12.359   9.916  -3.352  1.00  0.00     0.107 C 
HETATM   13  C16 UNL     1     -11.520   8.952  -2.569  1.00  0.00    -0.005 C 
HETATM   14  C17 UNL     1     -10.092   9.115  -2.497  1.00  0.00     0.006 C 
HETATM   15  C18 UNL     1      -9.573   8.436  -1.240  1.00  0.00     0.010 C 
HETATM   16  C19 UNL     1      -9.873   7.041  -0.968  1.00  0.00    -0.032 C 
HETATM   17  C20 UNL     1      -9.203   6.160  -2.075  1.00  0.00     0.016 C 
HETATM   18  C21 UNL     1     -11.762   7.592  -3.212  1.00  0.00     0.011 C 
ENDROOT
BRANCH   1  19
HETATM   19  C3  UNL     1      -8.635   7.483   1.303  1.00  0.00     0.325 C 
BRANCH  19  20
HETATM   20  O1  UNL     1      -8.704   6.817   2.542  1.00  0.00    -0.359 OA
BRANCH  20  21
HETATM   21  C2  UNL     1      -9.168   7.413   3.619  1.00  0.00     0.166 C 
HETATM   22  C1  UNL     1      -8.201   8.190   4.469  1.00  0.00     0.033 C 
ENDBRANCH  20  21
ENDBRANCH  19  20
BRANCH  19  23
HETATM   23  N1  UNL     1      -7.145   7.665   1.112  1.00  0.00    -0.048 N 
ATOM     24  H12 UNL     1      -6.618   7.062   1.745  1.00  0.00     0.280 HD
ATOM     25  H11 UNL     1      -6.841   7.276   0.220  1.00  0.00     0.280 HD
BRANCH  23  26
HETATM   26  C4  UNL     1      -6.733   9.019   1.241  1.00  0.00     0.245 C 
BRANCH  26  27
HETATM   27  C5  UNL     1      -5.249   9.025   1.630  1.00  0.00     0.141 C 
BRANCH  27  28
HETATM   28  C6  UNL     1      -5.013   8.377   2.911  1.00  0.00     0.174 C 
HETATM   29  O2  UNL     1      -4.710   9.065   3.915  1.00  0.00    -0.648 OA
HETATM   30  O3  UNL     1      -5.116   7.015   3.048  1.00  0.00    -0.648 OA
ENDBRANCH  27  28
ENDBRANCH  26  27
ENDBRANCH  23  26
ENDBRANCH  19  23
ENDBRANCH   1  19
TORSDOF 7
ENDMDL
MODEL 5
REMARK VINA RESULT: -6.860469477      1.377      1.594
REMARK  7 active torsions:
REMARK  status: ('A' for Active; 'I' for Inactive)
REMARK    1  A    between atoms: C2_2  and  O1_3 
REMARK    2  A    between atoms: O1_3  and  C3_4 
REMARK    3  A    between atoms: C3_4  and  N1_5 
REMARK    4  A    between atoms: C3_4  and  C7_13 
REMARK    5  A    between atoms: N1_5  and  C4_8 
REMARK    6  A    between atoms: C4_8  and  C5_9 
REMARK    7  A    between atoms: C5_9  and  C6_10 
ROOT
HETATM    1  C7  UNL     1     -11.016   7.683  -0.998  1.00  0.00     0.050 C 
HETATM    2  C8  UNL     1      -9.565   7.335  -1.317  1.00  0.00     0.010 C 
HETATM    3  C9  UNL     1      -9.311   6.334  -2.350  1.00  0.00     0.001 C 
HETATM    4  C10 UNL     1     -10.329   6.499  -3.463  1.00  0.00     0.006 C 
HETATM    5  C11 UNL     1     -10.855   7.923  -3.405  1.00  0.00    -0.000 C 
HETATM    6  C12 UNL     1     -11.164   8.378  -4.761  1.00  0.00     0.009 C 
HETATM    7  C13 UNL     1     -11.063   7.290  -5.853  1.00  0.00     0.127 C 
HETATM    8  N2  UNL     1     -11.940   7.542  -6.982  1.00  0.00    -0.361 N 
ATOM      9  H2  UNL     1     -11.492   7.731  -7.879  1.00  0.00     0.162 HD
HETATM   10  C14 UNL     1     -13.387   7.550  -6.960  1.00  0.00     0.217 C 
HETATM   11  O4  UNL     1     -13.937   7.400  -8.076  1.00  0.00    -0.274 OA
HETATM   12  C15 UNL     1     -14.350   7.707  -5.828  1.00  0.00     0.107 C 
HETATM   13  C16 UNL     1     -13.478   7.890  -4.623  1.00  0.00    -0.005 C 
HETATM   14  C17 UNL     1     -14.048   8.272  -3.358  1.00  0.00     0.006 C 
HETATM   15  C18 UNL     1     -13.125   7.823  -2.237  1.00  0.00     0.010 C 
HETATM   16  C19 UNL     1     -11.724   8.209  -2.224  1.00  0.00    -0.032 C 
HETATM   17  C20 UNL     1     -11.635   9.765  -2.073  1.00  0.00     0.016 C 
HETATM   18  C21 UNL     1     -12.498   8.994  -4.998  1.00  0.00     0.011 C 
ENDROOT
BRANCH   1  19
HETATM   19  C3  UNL     1     -11.581   6.662  -0.109  1.00  0.00     0.325 C 
BRANCH  19  20
HETATM   20  O1  UNL     1     -10.507   6.166   0.655  1.00  0.00    -0.359 OA
BRANCH  20  21
HETATM   21  C2  UNL     1     -10.406   6.418   1.943  1.00  0.00     0.166 C 
HETATM   22  C1  UNL     1      -9.138   7.057   2.440  1.00  0.00     0.033 C 
ENDBRANCH  20  21
ENDBRANCH  19  20
BRANCH  19  23
HETATM   23  N1  UNL     1     -12.490   7.252   0.947  1.00  0.00    -0.048 N 
ATOM     24  H12 UNL     1     -12.097   7.126   1.880  1.00  0.00     0.280 HD
ATOM     25  H11 UNL     1     -12.488   8.271   0.903  1.00  0.00     0.280 HD
BRANCH  23  26
HETATM   26  C4  UNL     1     -13.815   6.744   0.881  1.00  0.00     0.245 C 
BRANCH  26  27
HETATM   27  C5  UNL     1     -13.730   5.246   0.558  1.00  0.00     0.141 C 
BRANCH  27  28
HETATM   28  C6  UNL     1     -14.737   4.472   1.266  1.00  0.00     0.174 C 
HETATM   29  O2  UNL     1     -15.868   4.296   0.754  1.00  0.00    -0.648 OA
HETATM   30  O3  UNL     1     -14.474   3.922   2.496  1.00  0.00    -0.648 OA
ENDBRANCH  27  28
ENDBRANCH  26  27
ENDBRANCH  23  26
ENDBRANCH  19  23
ENDBRANCH   1  19
TORSDOF 7
ENDMDL
