MODEL 1
REMARK VINA RESULT: -8.672734792      0.000      0.000
REMARK  8 active torsions:
REMARK  status: ('A' for Active; 'I' for Inactive)
REMARK    1  A    between atoms: C3_3  and  C4_4 
REMARK    2  A    between atoms: C3_3  and  C11_15 
REMARK    3  A    between atoms: C4_4  and  C5_5 
REMARK    4  A    between atoms: C5_5  and  C6_6 
REMARK    5  A    between atoms: C8_8  and  O1_9 
REMARK    6  A    between atoms: C12_16  and  C13_17 
REMARK    7  A    between atoms: C18_22  and  C19_23 
REMARK       I    between atoms: C19_23  and  N1_25 
REMARK    8  A    between atoms: N1_25  and  C20_27 
ROOT
HETATM    1  C11 UNL     1     -10.892   8.058   0.223  1.00  0.00     0.015 C 
HETATM    2  C12 UNL     1      -9.915   8.315  -0.597  1.00  0.00    -0.020 C 
ENDROOT
BRANCH   1   3
HETATM    3  C3  UNL     1     -11.444   6.883   0.820  1.00  0.00     0.000 C 
HETATM    4  C2  UNL     1     -12.813   6.765   0.792  1.00  0.00    -0.011 C 
HETATM    5  C1  UNL     1     -13.642   7.801   0.185  1.00  0.00     0.037 C 
BRANCH   3   6
HETATM    6  C4  UNL     1     -10.869   5.761   1.476  1.00  0.00    -0.142 C 
BRANCH   6   7
HETATM    7  C5  UNL     1     -10.381   4.810   2.032  1.00  0.00     0.118 C 
BRANCH   7   8
HETATM    8  C6  UNL     1     -11.209   3.575   2.483  1.00  0.00     0.144 C 
HETATM    9  C7  UNL     1     -12.523   3.680   1.810  1.00  0.00     0.065 C 
HETATM   10  C8  UNL     1     -13.657   2.968   2.480  1.00  0.00     0.130 C 
HETATM   11  C9  UNL     1     -13.258   2.396   3.831  1.00  0.00     0.142 C 
HETATM   12  C10 UNL     1     -12.400   3.388   4.567  1.00  0.00     0.261 C 
HETATM   13  O2  UNL     1     -12.729   3.852   5.675  1.00  0.00    -0.265 OA
HETATM   14  O3  UNL     1     -11.231   3.721   3.886  1.00  0.00    -0.315 OA
BRANCH  10  15
HETATM   15  O1  UNL     1     -14.640   3.942   2.740  1.00  0.00    -0.395 OA
ATOM     16  H1  UNL     1     -15.177   3.599   3.444  1.00  0.00     0.210 HD
ENDBRANCH  10  15
ENDBRANCH   7   8
ENDBRANCH   6   7
ENDBRANCH   3   6
ENDBRANCH   1   3
BRANCH   2  17
HETATM   17  C13 UNL     1      -8.997   7.452  -1.246  1.00  0.00     0.017 C 
HETATM   18  C14 UNL     1      -7.865   8.303  -1.969  1.00  0.00    -0.006 C 
HETATM   19  C15 UNL     1      -7.093   7.162  -2.562  1.00  0.00     0.006 C 
HETATM   20  C23 UNL     1      -7.136   8.816  -0.775  1.00  0.00     0.020 C 
HETATM   21  C16 UNL     1      -7.389   5.916  -1.706  1.00  0.00     0.006 C 
HETATM   22  C17 UNL     1      -8.020   6.622  -0.475  1.00  0.00     0.006 C 
HETATM   23  C18 UNL     1      -6.957   7.539   0.026  1.00  0.00     0.083 C 
BRANCH  23  24
HETATM   24  C19 UNL     1      -6.853   7.717   1.464  1.00  0.00     0.222 C 
HETATM   25  O4  UNL     1      -7.486   7.051   2.322  1.00  0.00    -0.273 OA
HETATM   26  N1  UNL     1      -5.959   8.723   1.965  1.00  0.00    -0.357 N 
ATOM     27  H1  UNL     1      -5.437   9.284   1.292  1.00  0.00     0.162 HD
BRANCH  26  28
HETATM   28  C20 UNL     1      -5.760   8.981   3.376  1.00  0.00     0.076 C 
HETATM   29  C21 UNL     1      -4.378   8.587   3.811  1.00  0.00     0.032 C 
HETATM   30  C22 UNL     1      -5.875  10.501   3.547  1.00  0.00     0.032 C 
ENDBRANCH  26  28
ENDBRANCH  23  24
ENDBRANCH   2  17
TORSDOF 8
ENDMDL
MODEL 2
REMARK VINA RESULT: -8.406825460      1.443      1.848
REMARK  8 active torsions:
REMARK  status: ('A' for Active; 'I' for Inactive)
REMARK    1  A    between atoms: C3_3  and  C4_4 
REMARK    2  A    between atoms: C3_3  and  C11_15 
REMARK    3  A    between atoms: C4_4  and  C5_5 
REMARK    4  A    between atoms: C5_5  and  C6_6 
REMARK    5  A    between atoms: C8_8  and  O1_9 
REMARK    6  A    between atoms: C12_16  and  C13_17 
REMARK    7  A    between atoms: C18_22  and  C19_23 
REMARK       I    between atoms: C19_23  and  N1_25 
REMARK    8  A    between atoms: N1_25  and  C20_27 
ROOT
HETATM    1  C11 UNL     1     -10.775   6.874   1.336  1.00  0.00     0.015 C 
HETATM    2  C12 UNL     1      -9.540   6.962   0.939  1.00  0.00    -0.020 C 
ENDROOT
BRANCH   1   3
HETATM    3  C3  UNL     1     -11.973   6.281   0.829  1.00  0.00     0.000 C 
HETATM    4  C2  UNL     1     -12.718   7.045  -0.037  1.00  0.00    -0.011 C 
HETATM    5  C1  UNL     1     -12.294   8.393  -0.402  1.00  0.00     0.037 C 
BRANCH   3   6
HETATM    6  C4  UNL     1     -12.601   5.023   1.038  1.00  0.00    -0.142 C 
BRANCH   6   7
HETATM    7  C5  UNL     1     -13.134   3.958   1.214  1.00  0.00     0.118 C 
BRANCH   7   8
HETATM    8  C6  UNL     1     -12.738   2.992   2.366  1.00  0.00     0.144 C 
HETATM    9  C7  UNL     1     -13.902   2.924   3.278  1.00  0.00     0.065 C 
HETATM   10  C8  UNL     1     -13.599   2.539   4.692  1.00  0.00     0.130 C 
HETATM   11  C9  UNL     1     -12.105   2.446   4.956  1.00  0.00     0.142 C 
HETATM   12  C10 UNL     1     -11.399   3.587   4.277  1.00  0.00     0.261 C 
HETATM   13  O2  UNL     1     -10.723   4.417   4.912  1.00  0.00    -0.265 OA
HETATM   14  O3  UNL     1     -11.586   3.610   2.896  1.00  0.00    -0.315 OA
BRANCH  10  15
HETATM   15  O1  UNL     1     -14.075   3.590   5.500  1.00  0.00    -0.395 OA
ATOM     16  H1  UNL     1     -14.834   3.251   5.961  1.00  0.00     0.210 HD
ENDBRANCH  10  15
ENDBRANCH   7   8
ENDBRANCH   6   7
ENDBRANCH   3   6
ENDBRANCH   1   3
BRANCH   2  17
HETATM   17  C13 UNL     1      -8.905   6.479  -0.233  1.00  0.00     0.017 C 
HETATM   18  C14 UNL     1      -9.198   7.454  -1.454  1.00  0.00    -0.006 C 
HETATM   19  C15 UNL     1      -8.449   6.697  -2.510  1.00  0.00     0.006 C 
HETATM   20  C23 UNL     1      -8.388   8.633  -1.033  1.00  0.00     0.020 C 
HETATM   21  C16 UNL     1      -7.379   5.850  -1.793  1.00  0.00     0.006 C 
HETATM   22  C17 UNL     1      -7.420   6.546  -0.405  1.00  0.00     0.006 C 
HETATM   23  C18 UNL     1      -7.070   7.969  -0.681  1.00  0.00     0.083 C 
BRANCH  23  24
HETATM   24  C19 UNL     1      -6.270   8.664   0.313  1.00  0.00     0.222 C 
HETATM   25  O4  UNL     1      -5.369   9.501   0.057  1.00  0.00    -0.273 OA
HETATM   26  N1  UNL     1      -6.517   8.391   1.701  1.00  0.00    -0.357 N 
ATOM     27  H1  UNL     1      -7.238   7.711   1.938  1.00  0.00     0.162 HD
BRANCH  26  28
HETATM   28  C20 UNL     1      -5.797   9.033   2.779  1.00  0.00     0.076 C 
HETATM   29  C21 UNL     1      -6.666   9.198   3.993  1.00  0.00     0.032 C 
HETATM   30  C22 UNL     1      -4.662   8.073   3.159  1.00  0.00     0.032 C 
ENDBRANCH  26  28
ENDBRANCH  23  24
ENDBRANCH   2  17
TORSDOF 8
ENDMDL
MODEL 3
REMARK VINA RESULT: -8.363538399      1.119      1.336
REMARK  8 active torsions:
REMARK  status: ('A' for Active; 'I' for Inactive)
REMARK    1  A    between atoms: C3_3  and  C4_4 
REMARK    2  A    between atoms: C3_3  and  C11_15 
REMARK    3  A    between atoms: C4_4  and  C5_5 
REMARK    4  A    between atoms: C5_5  and  C6_6 
REMARK    5  A    between atoms: C8_8  and  O1_9 
REMARK    6  A    between atoms: C12_16  and  C13_17 
REMARK    7  A    between atoms: C18_22  and  C19_23 
REMARK       I    between atoms: C19_23  and  N1_25 
REMARK    8  A    between atoms: N1_25  and  C20_27 
ROOT
HETATM    1  C11 UNL     1     -11.019   8.191  -0.042  1.00  0.00     0.015 C 
HETATM    2  C12 UNL     1     -10.154   8.365  -0.998  1.00  0.00    -0.020 C 
ENDROOT
BRANCH   1   3
HETATM    3  C3  UNL     1     -11.513   7.075   0.700  1.00  0.00     0.000 C 
HETATM    4  C2  UNL     1     -12.876   7.000   0.862  1.00  0.00    -0.011 C 
HETATM    5  C1  UNL     1     -13.755   8.021   0.301  1.00  0.00     0.037 C 
BRANCH   3   6
HETATM    6  C4  UNL     1     -10.882   5.979   1.349  1.00  0.00    -0.142 C 
BRANCH   6   7
HETATM    7  C5  UNL     1     -10.348   5.050   1.897  1.00  0.00     0.118 C 
BRANCH   7   8
HETATM    8  C6  UNL     1     -11.108   3.758   2.311  1.00  0.00     0.144 C 
HETATM    9  C7  UNL     1     -12.459   3.855   1.715  1.00  0.00     0.065 C 
HETATM   10  C8  UNL     1     -13.529   3.061   2.396  1.00  0.00     0.130 C 
HETATM   11  C9  UNL     1     -13.040   2.422   3.685  1.00  0.00     0.142 C 
HETATM   12  C10 UNL     1     -12.177   3.398   4.437  1.00  0.00     0.261 C 
HETATM   13  O2  UNL     1     -12.462   3.780   5.588  1.00  0.00    -0.265 OA
HETATM   14  O3  UNL     1     -11.059   3.816   3.719  1.00  0.00    -0.315 OA
BRANCH  10  15
HETATM   15  O1  UNL     1     -14.530   3.980   2.768  1.00  0.00    -0.395 OA
ATOM     16  H1  UNL     1     -14.268   4.820   2.411  1.00  0.00     0.210 HD
ENDBRANCH  10  15
ENDBRANCH   7   8
ENDBRANCH   6   7
ENDBRANCH   3   6
ENDBRANCH   1   3
BRANCH   2  17
HETATM   17  C13 UNL     1      -9.350   7.433  -1.702  1.00  0.00     0.017 C 
HETATM   18  C14 UNL     1      -8.515   8.177  -2.833  1.00  0.00    -0.006 C 
HETATM   19  C15 UNL     1      -7.813   6.978  -3.397  1.00  0.00     0.006 C 
HETATM   20  C23 UNL     1      -7.563   8.942  -1.978  1.00  0.00     0.020 C 
HETATM   21  C16 UNL     1      -7.772   5.909  -2.288  1.00  0.00     0.006 C 
HETATM   22  C17 UNL     1      -8.140   6.811  -1.079  1.00  0.00     0.006 C 
HETATM   23  C18 UNL     1      -7.076   7.853  -1.040  1.00  0.00     0.083 C 
BRANCH  23  24
HETATM   24  C19 UNL     1      -6.636   8.310   0.267  1.00  0.00     0.222 C 
HETATM   25  O4  UNL     1      -5.772   9.200   0.467  1.00  0.00    -0.273 OA
HETATM   26  N1  UNL     1      -7.227   7.715   1.433  1.00  0.00    -0.357 N 
ATOM     27  H1  UNL     1      -7.926   6.985   1.301  1.00  0.00     0.162 HD
BRANCH  26  28
HETATM   28  C20 UNL     1      -6.881   8.099   2.785  1.00  0.00     0.076 C 
HETATM   29  C21 UNL     1      -7.965   7.720   3.752  1.00  0.00     0.032 C 
HETATM   30  C22 UNL     1      -5.636   7.281   3.151  1.00  0.00     0.032 C 
ENDBRANCH  26  28
ENDBRANCH  23  24
ENDBRANCH   2  17
TORSDOF 8
ENDMDL
MODEL 4
REMARK VINA RESULT: -8.265643609      2.042      3.167
REMARK  8 active torsions:
REMARK  status: ('A' for Active; 'I' for Inactive)
REMARK    1  A    between atoms: C3_3  and  C4_4 
REMARK    2  A    between atoms: C3_3  and  C11_15 
REMARK    3  A    between atoms: C4_4  and  C5_5 
REMARK    4  A    between atoms: C5_5  and  C6_6 
REMARK    5  A    between atoms: C8_8  and  O1_9 
REMARK    6  A    between atoms: C12_16  and  C13_17 
REMARK    7  A    between atoms: C18_22  and  C19_23 
REMARK       I    between atoms: C19_23  and  N1_25 
REMARK    8  A    between atoms: N1_25  and  C20_27 
ROOT
HETATM    1  C11 UNL     1     -10.995   7.745   0.944  1.00  0.00     0.015 C 
HETATM    2  C12 UNL     1     -11.178   8.490  -0.106  1.00  0.00    -0.020 C 
ENDROOT
BRANCH   1   3
HETATM    3  C3  UNL     1     -10.958   6.342   1.211  1.00  0.00     0.000 C 
HETATM    4  C2  UNL     1      -9.719   5.793   1.441  1.00  0.00    -0.011 C 
HETATM    5  C1  UNL     1      -8.516   6.616   1.405  1.00  0.00     0.037 C 
BRANCH   3   6
HETATM    6  C4  UNL     1     -11.961   5.338   1.285  1.00  0.00    -0.142 C 
BRANCH   6   7
HETATM    7  C5  UNL     1     -12.811   4.486   1.348  1.00  0.00     0.118 C 
BRANCH   7   8
HETATM    8  C6  UNL     1     -12.720   3.268   2.310  1.00  0.00     0.144 C 
HETATM    9  C7  UNL     1     -13.996   3.225   3.058  1.00  0.00     0.065 C 
HETATM   10  C8  UNL     1     -13.951   2.535   4.385  1.00  0.00     0.130 C 
HETATM   11  C9  UNL     1     -12.536   2.144   4.782  1.00  0.00     0.142 C 
HETATM   12  C10 UNL     1     -11.588   3.259   4.434  1.00  0.00     0.261 C 
HETATM   13  O2  UNL     1     -10.894   3.828   5.298  1.00  0.00    -0.265 OA
HETATM   14  O3  UNL     1     -11.576   3.573   3.077  1.00  0.00    -0.315 OA
BRANCH  10  15
HETATM   15  O1  UNL     1     -14.379   3.479   5.338  1.00  0.00    -0.395 OA
ATOM     16  H1  UNL     1     -14.301   4.331   4.926  1.00  0.00     0.210 HD
ENDBRANCH  10  15
ENDBRANCH   7   8
ENDBRANCH   6   7
ENDBRANCH   3   6
ENDBRANCH   1   3
BRANCH   2  17
HETATM   17  C13 UNL     1     -11.442   8.142  -1.455  1.00  0.00     0.017 C 
HETATM   18  C14 UNL     1     -11.310   9.425  -2.385  1.00  0.00    -0.006 C 
HETATM   19  C15 UNL     1     -11.657   8.773  -3.690  1.00  0.00     0.006 C 
HETATM   20  C23 UNL     1      -9.836   9.632  -2.320  1.00  0.00     0.020 C 
HETATM   21  C16 UNL     1     -11.338   7.272  -3.550  1.00  0.00     0.006 C 
HETATM   22  C17 UNL     1     -10.474   7.335  -2.261  1.00  0.00     0.006 C 
HETATM   23  C18 UNL     1      -9.333   8.229  -2.610  1.00  0.00     0.083 C 
BRANCH  23  24
HETATM   24  C19 UNL     1      -8.035   7.906  -2.045  1.00  0.00     0.222 C 
HETATM   25  O4  UNL     1      -7.573   6.744  -1.915  1.00  0.00    -0.273 OA
HETATM   26  N1  UNL     1      -7.196   8.983  -1.599  1.00  0.00    -0.357 N 
ATOM     27  H1  UNL     1      -7.547   9.936  -1.685  1.00  0.00     0.162 HD
BRANCH  26  28
HETATM   28  C20 UNL     1      -5.877   8.785  -1.035  1.00  0.00     0.076 C 
HETATM   29  C21 UNL     1      -4.925   9.852  -1.491  1.00  0.00     0.032 C 
HETATM   30  C22 UNL     1      -6.041   8.939   0.483  1.00  0.00     0.032 C 
ENDBRANCH  26  28
ENDBRANCH  23  24
ENDBRANCH   2  17
TORSDOF 8
ENDMDL
MODEL 5
REMARK VINA RESULT: -8.215184801      2.641      4.558
REMARK  8 active torsions:
REMARK  status: ('A' for Active; 'I' for Inactive)
REMARK    1  A    between atoms: C3_3  and  C4_4 
REMARK    2  A    between atoms: C3_3  and  C11_15 
REMARK    3  A    between atoms: C4_4  and  C5_5 
REMARK    4  A    between atoms: C5_5  and  C6_6 
REMARK    5  A    between atoms: C8_8  and  O1_9 
REMARK    6  A    between atoms: C12_16  and  C13_17 
REMARK    7  A    between atoms: C18_22  and  C19_23 
REMARK       I    between atoms: C19_23  and  N1_25 
REMARK    8  A    between atoms: N1_25  and  C20_27 
ROOT
HETATM    1  C11 UNL     1      -8.930   7.160   0.432  1.00  0.00     0.015 C 
HETATM    2  C12 UNL     1      -9.149   7.843  -0.653  1.00  0.00    -0.020 C 
ENDROOT
BRANCH   1   3
HETATM    3  C3  UNL     1      -9.739   6.577   1.455  1.00  0.00     0.000 C 
HETATM    4  C2  UNL     1      -9.333   6.784   2.752  1.00  0.00    -0.011 C 
HETATM    5  C1  UNL     1      -8.131   7.558   3.046  1.00  0.00     0.037 C 
BRANCH   3   6
HETATM    6  C4  UNL     1     -10.919   5.785   1.432  1.00  0.00    -0.142 C 
BRANCH   6   7
HETATM    7  C5  UNL     1     -11.919   5.114   1.413  1.00  0.00     0.118 C 
BRANCH   7   8
HETATM    8  C6  UNL     1     -12.020   3.724   2.101  1.00  0.00     0.144 C 
HETATM    9  C7  UNL     1     -13.461   3.467   2.322  1.00  0.00     0.065 C 
HETATM   10  C8  UNL     1     -13.790   2.512   3.426  1.00  0.00     0.130 C 
HETATM   11  C9  UNL     1     -12.560   2.107   4.222  1.00  0.00     0.142 C 
HETATM   12  C10 UNL     1     -11.685   3.309   4.448  1.00  0.00     0.261 C 
HETATM   13  O2  UNL     1     -11.397   3.711   5.591  1.00  0.00    -0.265 OA
HETATM   14  O3  UNL     1     -11.249   3.907   3.267  1.00  0.00    -0.315 OA
BRANCH  10  15
HETATM   15  O1  UNL     1     -14.623   3.211   4.321  1.00  0.00    -0.395 OA
ATOM     16  H1  UNL     1     -15.415   3.421   3.841  1.00  0.00     0.210 HD
ENDBRANCH  10  15
ENDBRANCH   7   8
ENDBRANCH   6   7
ENDBRANCH   3   6
ENDBRANCH   1   3
BRANCH   2  17
HETATM   17  C13 UNL     1     -10.360   8.296  -1.235  1.00  0.00     0.017 C 
HETATM   18  C14 UNL     1     -10.097   9.613  -2.087  1.00  0.00    -0.006 C 
HETATM   19  C15 UNL     1     -11.506   9.856  -2.537  1.00  0.00     0.006 C 
HETATM   20  C23 UNL     1      -9.319   9.030  -3.216  1.00  0.00     0.020 C 
HETATM   21  C16 UNL     1     -12.240   8.502  -2.492  1.00  0.00     0.006 C 
HETATM   22  C17 UNL     1     -11.004   7.569  -2.373  1.00  0.00     0.006 C 
HETATM   23  C18 UNL     1     -10.195   7.850  -3.593  1.00  0.00     0.083 C 
BRANCH  23  24
HETATM   24  C19 UNL     1      -9.500   6.730  -4.205  1.00  0.00     0.222 C 
HETATM   25  O4  UNL     1      -9.930   6.058  -5.176  1.00  0.00    -0.273 OA
HETATM   26  N1  UNL     1      -8.219   6.351  -3.679  1.00  0.00    -0.357 N 
ATOM     27  H1  UNL     1      -7.848   6.875  -2.886  1.00  0.00     0.162 HD
BRANCH  26  28
HETATM   28  C20 UNL     1      -7.427   5.265  -4.215  1.00  0.00     0.076 C 
HETATM   29  C21 UNL     1      -6.413   5.767  -5.202  1.00  0.00     0.032 C 
HETATM   30  C22 UNL     1      -6.655   4.679  -3.026  1.00  0.00     0.032 C 
ENDBRANCH  26  28
ENDBRANCH  23  24
ENDBRANCH   2  17
TORSDOF 8
ENDMDL
