MODEL 1
REMARK VINA RESULT: -5.510654837      0.000      0.000
REMARK  17 active torsions:
REMARK  status: ('A' for Active; 'I' for Inactive)
REMARK    1  A    between atoms: N1_1  and  C1_4 
REMARK    2  A    between atoms: C2_7  and  N3_8 
REMARK    3  A    between atoms: N6_16  and  C4_17 
REMARK    4  A    between atoms: C4_17  and  C5_18 
REMARK    5  A    between atoms: C5_18  and  O1_19 
REMARK    6  A    between atoms: C5_18  and  C6_21 
REMARK    7  A    between atoms: C6_21  and  O2_22 
REMARK    8  A    between atoms: C6_21  and  C7_24 
REMARK    9  A    between atoms: C7_24  and  C8_25 
REMARK   10  A    between atoms: N9_30  and  C9_31 
REMARK   11  A    between atoms: C10_35  and  C11_36 
REMARK   12  A    between atoms: C11_36  and  O3_37 
REMARK   13  A    between atoms: C11_36  and  O4_39 
REMARK   14  A    between atoms: C12_41  and  O5_42 
REMARK   15  A    between atoms: C13_44  and  O6_45 
REMARK   16  A    between atoms: C14_47  and  O7_48 
REMARK   17  A    between atoms: C15_50  and  O8_51 
ROOT
HETATM    1  C8  UNL     1       9.033   7.721   1.248  1.00  0.00     0.082 A 
HETATM    2  N7  UNL     1       8.601   6.485   0.899  1.00  0.00    -0.286 N 
ATOM      3  H7  UNL     1       9.141   5.790   0.384  1.00  0.00     0.188 HD
HETATM    4  N8  UNL     1       7.384   6.331   1.330  1.00  0.00    -0.236 N 
ATOM      5  H8  UNL     1       6.833   5.484   1.197  1.00  0.00     0.208 HD
HETATM    6  N9  UNL     1       6.946   7.420   1.972  1.00  0.00    -0.220 N 
HETATM    7  C15 UNL     1       7.977   8.300   1.925  1.00  0.00     0.185 A 
ENDROOT
BRANCH   1   8
HETATM    8  C7  UNL     1      10.361   8.331   0.968  1.00  0.00     0.097 C 
BRANCH   8   9
HETATM    9  C6  UNL     1      11.502   7.542   1.540  1.00  0.00     0.154 C 
BRANCH   9  10
HETATM   10  C5  UNL     1      11.782   7.967   2.956  1.00  0.00     0.167 C 
BRANCH  10  11
HETATM   11  C4  UNL     1      11.808   6.781   3.911  1.00  0.00     0.186 C 
BRANCH  11  12
HETATM   12  N6  UNL     1      10.448   6.450   4.293  1.00  0.00    -0.257 N 
HETATM   13  N5  UNL     1       9.752   5.380   3.972  1.00  0.00    -0.238 N 
HETATM   14  N4  UNL     1       8.542   5.422   4.498  1.00  0.00    -0.279 N 
ATOM     15  H5  UNL     1      10.102   4.617   3.392  1.00  0.00     0.208 HD
HETATM   16  C3  UNL     1       8.413   6.563   5.200  1.00  0.00     0.140 A 
ATOM     17  H4  UNL     1       7.823   4.706   4.390  1.00  0.00     0.189 HD
HETATM   18  C2  UNL     1       7.373   7.095   5.934  1.00  0.00     0.147 A 
HETATM   19  C16 UNL     1       9.640   7.208   5.059  1.00  0.00     0.171 A 
HETATM   20  N2  UNL     1       7.583   8.282   6.524  1.00  0.00    -0.175 N 
HETATM   21  C1  UNL     1       8.761   8.948   6.415  1.00  0.00     0.679 A 
ATOM     22  H2  UNL     1       6.831   8.699   7.073  1.00  0.00     0.186 HD
HETATM   23  N11 UNL     1       9.755   8.391   5.685  1.00  0.00    -0.173 N 
ATOM     24  H11 UNL     1      10.638   8.897   5.606  1.00  0.00     0.186 HD
BRANCH  18  25
HETATM   25  N3  UNL     1       6.232   6.472   6.053  1.00  0.00    -0.383 N 
ATOM     26  H32 UNL     1       6.175   5.454   6.024  1.00  0.00     0.157 HD
ATOM     27  H31 UNL     1       5.359   6.986   6.179  1.00  0.00     0.157 HD
ENDBRANCH  18  25
BRANCH  21  28
HETATM   28  N1  UNL     1       8.918  10.100   7.006  1.00  0.00    -0.234 N 
ATOM     29  H12 UNL     1       8.177  10.801   7.005  1.00  0.00     0.174 HD
ATOM     30  H11 UNL     1       9.794  10.314   7.483  1.00  0.00     0.174 HD
ENDBRANCH  21  28
ENDBRANCH  11  12
ENDBRANCH  10  11
BRANCH  10  31
HETATM   31  O1  UNL     1      12.972   8.689   3.054  1.00  0.00    -0.391 OA
ATOM     32  H1  UNL     1      13.371   8.547   3.905  1.00  0.00     0.210 HD
ENDBRANCH  10  31
ENDBRANCH   9  10
BRANCH   9  33
HETATM   33  O2  UNL     1      11.386   6.180   1.417  1.00  0.00    -0.393 OA
ATOM     34  H2  UNL     1      11.140   5.916   0.537  1.00  0.00     0.210 HD
ENDBRANCH   9  33
ENDBRANCH   8   9
ENDBRANCH   1   8
BRANCH   7  35
HETATM   35  O8  UNL     1       8.026   9.566   2.441  1.00  0.00    -0.344 OA
ATOM     36  H8  UNL     1       7.257  10.027   2.756  1.00  0.00     0.219 HD
ENDBRANCH   7  35
BRANCH   6  37
HETATM   37  C9  UNL     1       5.655   7.599   2.572  1.00  0.00     0.342 C 
HETATM   38  N10 UNL     1       4.925   8.626   1.900  1.00  0.00    -0.038 N 
HETATM   39  C10 UNL     1       3.603   8.831   2.411  1.00  0.00     0.273 C 
ATOM     40 2H10 UNL     1       5.450   9.499   1.905  1.00  0.00     0.280 HD
ATOM     41 1H10 UNL     1       4.897   8.447   0.896  1.00  0.00     0.280 HD
HETATM   42  C12 UNL     1       3.254   7.928   3.544  1.00  0.00     0.185 C 
HETATM   43  C13 UNL     1       3.592   6.490   3.330  1.00  0.00     0.181 C 
HETATM   44  C14 UNL     1       4.895   6.293   2.628  1.00  0.00     0.201 C 
BRANCH  39  45
HETATM   45  C11 UNL     1       2.587   8.789   1.291  1.00  0.00     0.287 C 
BRANCH  45  46
HETATM   46  O3  UNL     1       3.062   8.137   0.172  1.00  0.00    -0.369 OA
ATOM     47  H3  UNL     1       2.476   7.451  -0.125  1.00  0.00     0.212 HD
ENDBRANCH  45  46
BRANCH  45  48
HETATM   48  O4  UNL     1       2.219  10.074   0.897  1.00  0.00    -0.369 OA
ATOM     49  H4  UNL     1       2.297  10.180  -0.043  1.00  0.00     0.212 HD
ENDBRANCH  45  48
ENDBRANCH  39  45
BRANCH  42  50
HETATM   50  O5  UNL     1       1.914   8.088   3.875  1.00  0.00    -0.391 OA
ATOM     51  H5  UNL     1       1.839   8.608   4.666  1.00  0.00     0.210 HD
ENDBRANCH  42  50
BRANCH  43  52
HETATM   52  O6  UNL     1       3.702   5.879   4.596  1.00  0.00    -0.390 OA
ATOM     53  H6  UNL     1       3.942   6.552   5.222  1.00  0.00     0.210 HD
ENDBRANCH  43  52
BRANCH  44  54
HETATM   54  O7  UNL     1       5.723   5.378   3.317  1.00  0.00    -0.389 OA
ATOM     55  H7  UNL     1       6.614   5.689   3.211  1.00  0.00     0.210 HD
ENDBRANCH  44  54
ENDBRANCH   6  37
TORSDOF 17
ENDMDL
MODEL 2
REMARK VINA RESULT: -5.510161246      1.955      6.692
REMARK  17 active torsions:
REMARK  status: ('A' for Active; 'I' for Inactive)
REMARK    1  A    between atoms: N1_1  and  C1_4 
REMARK    2  A    between atoms: C2_7  and  N3_8 
REMARK    3  A    between atoms: N6_16  and  C4_17 
REMARK    4  A    between atoms: C4_17  and  C5_18 
REMARK    5  A    between atoms: C5_18  and  O1_19 
REMARK    6  A    between atoms: C5_18  and  C6_21 
REMARK    7  A    between atoms: C6_21  and  O2_22 
REMARK    8  A    between atoms: C6_21  and  C7_24 
REMARK    9  A    between atoms: C7_24  and  C8_25 
REMARK   10  A    between atoms: N9_30  and  C9_31 
REMARK   11  A    between atoms: C10_35  and  C11_36 
REMARK   12  A    between atoms: C11_36  and  O3_37 
REMARK   13  A    between atoms: C11_36  and  O4_39 
REMARK   14  A    between atoms: C12_41  and  O5_42 
REMARK   15  A    between atoms: C13_44  and  O6_45 
REMARK   16  A    between atoms: C14_47  and  O7_48 
REMARK   17  A    between atoms: C15_50  and  O8_51 
ROOT
HETATM    1  C8  UNL     1       7.164   6.265   1.330  1.00  0.00     0.082 A 
HETATM    2  N7  UNL     1       7.891   6.928   0.398  1.00  0.00    -0.286 N 
ATOM      3  H7  UNL     1       7.564   7.199  -0.529  1.00  0.00     0.188 HD
HETATM    4  N8  UNL     1       9.075   7.162   0.882  1.00  0.00    -0.236 N 
ATOM      5  H8  UNL     1       9.813   7.650   0.376  1.00  0.00     0.208 HD
HETATM    6  N9  UNL     1       9.204   6.684   2.124  1.00  0.00    -0.220 N 
HETATM    7  C15 UNL     1       8.006   6.118   2.414  1.00  0.00     0.185 A 
ENDROOT
BRANCH   1   8
HETATM    8  C7  UNL     1       5.757   5.794   1.216  1.00  0.00     0.097 C 
BRANCH   8   9
HETATM    9  C6  UNL     1       4.759   6.801   1.708  1.00  0.00     0.154 C 
BRANCH   9  10
HETATM   10  C5  UNL     1       4.368   6.508   3.132  1.00  0.00     0.167 C 
BRANCH  10  11
HETATM   11  C4  UNL     1       4.464   7.745   4.014  1.00  0.00     0.186 C 
BRANCH  11  12
HETATM   12  N6  UNL     1       5.712   7.704   4.754  1.00  0.00    -0.257 N 
HETATM   13  N5  UNL     1       6.084   6.836   5.670  1.00  0.00    -0.238 N 
HETATM   14  N4  UNL     1       7.289   7.115   6.132  1.00  0.00    -0.279 N 
ATOM     15  H5  UNL     1       5.516   6.049   5.983  1.00  0.00     0.208 HD
HETATM   16  C3  UNL     1       7.749   8.215   5.507  1.00  0.00     0.140 A 
ATOM     17  H4  UNL     1       7.788   6.585   6.846  1.00  0.00     0.189 HD
HETATM   18  C2  UNL     1       8.929   8.922   5.609  1.00  0.00     0.147 A 
HETATM   19  C16 UNL     1       6.730   8.578   4.629  1.00  0.00     0.171 A 
HETATM   20  N2  UNL     1       9.070   9.997   4.818  1.00  0.00    -0.175 N 
HETATM   21  C1  UNL     1       8.105  10.389   3.948  1.00  0.00     0.679 A 
ATOM     22  H2  UNL     1       9.933  10.538   4.873  1.00  0.00     0.186 HD
HETATM   23  N11 UNL     1       6.962   9.668   3.879  1.00  0.00    -0.173 N 
ATOM     24  H11 UNL     1       6.240   9.968   3.224  1.00  0.00     0.186 HD
BRANCH  18  25
HETATM   25  N3  UNL     1       9.871   8.562   6.437  1.00  0.00    -0.383 N 
ATOM     26  H32 UNL     1      10.148   9.155   7.221  1.00  0.00     0.157 HD
ATOM     27  H31 UNL     1      10.362   7.674   6.328  1.00  0.00     0.157 HD
ENDBRANCH  18  25
BRANCH  21  28
HETATM   28  N1  UNL     1       8.288  11.442   3.200  1.00  0.00    -0.234 N 
ATOM     29  H12 UNL     1       8.954  11.433   2.427  1.00  0.00     0.174 HD
ATOM     30  H11 UNL     1       7.760  12.295   3.381  1.00  0.00     0.174 HD
ENDBRANCH  21  28
ENDBRANCH  11  12
ENDBRANCH  10  11
BRANCH  10  31
HETATM   31  O1  UNL     1       3.089   5.957   3.214  1.00  0.00    -0.391 OA
ATOM     32  H1  UNL     1       3.143   5.041   3.462  1.00  0.00     0.210 HD
ENDBRANCH  10  31
ENDBRANCH   9  10
BRANCH   9  33
HETATM   33  O2  UNL     1       5.119   8.113   1.525  1.00  0.00    -0.393 OA
ATOM     34  H2  UNL     1       6.037   8.208   1.299  1.00  0.00     0.210 HD
ENDBRANCH   9  33
ENDBRANCH   8   9
ENDBRANCH   1   8
BRANCH   7  35
HETATM   35  O8  UNL     1       7.631   5.488   3.570  1.00  0.00    -0.344 OA
ATOM     36  H8  UNL     1       7.529   5.943   4.398  1.00  0.00     0.219 HD
ENDBRANCH   7  35
BRANCH   6  37
HETATM   37  C9  UNL     1      10.371   6.762   2.955  1.00  0.00     0.342 C 
HETATM   38  N10 UNL     1      11.048   5.506   2.993  1.00  0.00    -0.038 N 
HETATM   39  C10 UNL     1      12.255   5.516   3.765  1.00  0.00     0.273 C 
ATOM     40 2H10 UNL     1      10.421   4.771   3.319  1.00  0.00     0.280 HD
ATOM     41 1H10 UNL     1      11.231   5.169   2.048  1.00  0.00     0.280 HD
HETATM   42  C12 UNL     1      12.562   6.841   4.375  1.00  0.00     0.185 C 
HETATM   43  C13 UNL     1      12.439   8.004   3.447  1.00  0.00     0.181 C 
HETATM   44  C14 UNL     1      11.276   7.892   2.517  1.00  0.00     0.201 C 
BRANCH  39  45
HETATM   45  C11 UNL     1      13.406   4.957   2.960  1.00  0.00     0.287 C 
BRANCH  45  46
HETATM   46  O3  UNL     1      13.255   5.169   1.605  1.00  0.00    -0.369 OA
ATOM     47  H3  UNL     1      14.079   5.360   1.172  1.00  0.00     0.212 HD
ENDBRANCH  45  46
BRANCH  45  48
HETATM   48  O4  UNL     1      13.536   3.584   3.152  1.00  0.00    -0.369 OA
ATOM     49  H4  UNL     1      14.133   3.203   2.519  1.00  0.00     0.212 HD
ENDBRANCH  45  48
ENDBRANCH  39  45
BRANCH  42  50
HETATM   50  O5  UNL     1      13.815   6.801   4.972  1.00  0.00    -0.391 OA
ATOM     51  H5  UNL     1      13.719   6.779   5.917  1.00  0.00     0.210 HD
ENDBRANCH  42  50
BRANCH  43  52
HETATM   52  O6  UNL     1      12.241   9.160   4.229  1.00  0.00    -0.390 OA
ATOM     53  H6  UNL     1      11.639   9.727   3.761  1.00  0.00     0.210 HD
ENDBRANCH  43  52
BRANCH  44  54
HETATM   54  O7  UNL     1      10.486   9.064   2.531  1.00  0.00    -0.389 OA
ATOM     55  H7  UNL     1      11.016   9.740   2.936  1.00  0.00     0.210 HD
ENDBRANCH  44  54
ENDBRANCH   6  37
TORSDOF 17
ENDMDL
MODEL 3
REMARK VINA RESULT: -5.378539069      2.489      4.750
REMARK  17 active torsions:
REMARK  status: ('A' for Active; 'I' for Inactive)
REMARK    1  A    between atoms: N1_1  and  C1_4 
REMARK    2  A    between atoms: C2_7  and  N3_8 
REMARK    3  A    between atoms: N6_16  and  C4_17 
REMARK    4  A    between atoms: C4_17  and  C5_18 
REMARK    5  A    between atoms: C5_18  and  O1_19 
REMARK    6  A    between atoms: C5_18  and  C6_21 
REMARK    7  A    between atoms: C6_21  and  O2_22 
REMARK    8  A    between atoms: C6_21  and  C7_24 
REMARK    9  A    between atoms: C7_24  and  C8_25 
REMARK   10  A    between atoms: N9_30  and  C9_31 
REMARK   11  A    between atoms: C10_35  and  C11_36 
REMARK   12  A    between atoms: C11_36  and  O3_37 
REMARK   13  A    between atoms: C11_36  and  O4_39 
REMARK   14  A    between atoms: C12_41  and  O5_42 
REMARK   15  A    between atoms: C13_44  and  O6_45 
REMARK   16  A    between atoms: C14_47  and  O7_48 
REMARK   17  A    between atoms: C15_50  and  O8_51 
ROOT
HETATM    1  C8  UNL     1       9.584   8.476   6.683  1.00  0.00     0.082 A 
HETATM    2  N7  UNL     1       8.591   9.247   7.189  1.00  0.00    -0.286 N 
ATOM      3  H7  UNL     1       8.675   9.878   7.987  1.00  0.00     0.188 HD
HETATM    4  N8  UNL     1       7.513   9.051   6.491  1.00  0.00    -0.236 N 
ATOM      5  H8  UNL     1       6.623   9.516   6.669  1.00  0.00     0.208 HD
HETATM    6  N9  UNL     1       7.715   8.167   5.508  1.00  0.00    -0.220 N 
HETATM    7  C15 UNL     1       9.015   7.800   5.622  1.00  0.00     0.185 A 
ENDROOT
BRANCH   1   8
HETATM    8  C7  UNL     1      10.989   8.377   7.162  1.00  0.00     0.097 C 
BRANCH   8   9
HETATM    9  C6  UNL     1      11.760   9.653   6.991  1.00  0.00     0.154 C 
BRANCH   9  10
HETATM   10  C5  UNL     1      12.911   9.453   6.041  1.00  0.00     0.167 C 
BRANCH  10  11
HETATM   11  C4  UNL     1      12.608  10.011   4.657  1.00  0.00     0.186 C 
BRANCH  11  12
HETATM   12  N6  UNL     1      12.257   8.916   3.772  1.00  0.00    -0.257 N 
HETATM   13  N5  UNL     1      12.579   7.644   3.886  1.00  0.00    -0.238 N 
HETATM   14  N4  UNL     1      12.086   6.935   2.888  1.00  0.00    -0.279 N 
ATOM     15  H5  UNL     1      13.137   7.258   4.647  1.00  0.00     0.208 HD
HETATM   16  C3  UNL     1      11.406   7.756   2.066  1.00  0.00     0.140 A 
ATOM     17  H4  UNL     1      12.202   5.929   2.761  1.00  0.00     0.189 HD
HETATM   18  C2  UNL     1      10.708   7.538   0.896  1.00  0.00     0.147 A 
HETATM   19  C16 UNL     1      11.525   9.017   2.646  1.00  0.00     0.171 A 
HETATM   20  N2  UNL     1      10.132   8.603   0.318  1.00  0.00    -0.175 N 
HETATM   21  C1  UNL     1      10.220   9.851   0.845  1.00  0.00     0.679 A 
ATOM     22  H2  UNL     1       9.610   8.471  -0.548  1.00  0.00     0.186 HD
HETATM   23  N11 UNL     1      10.915  10.022   1.994  1.00  0.00    -0.173 N 
ATOM     24  H11 UNL     1      10.979  10.962   2.385  1.00  0.00     0.186 HD
BRANCH  18  25
HETATM   25  N3  UNL     1      10.609   6.347   0.372  1.00  0.00    -0.383 N 
ATOM     26  H32 UNL     1       9.820   6.089  -0.221  1.00  0.00     0.157 HD
ATOM     27  H31 UNL     1      11.321   5.634   0.539  1.00  0.00     0.157 HD
ENDBRANCH  18  25
BRANCH  21  28
HETATM   28  N1  UNL     1       9.644  10.856   0.247  1.00  0.00    -0.234 N 
ATOM     29  H12 UNL     1       9.339  10.790  -0.725  1.00  0.00     0.174 HD
ATOM     30  H11 UNL     1       9.488  11.729   0.750  1.00  0.00     0.174 HD
ENDBRANCH  21  28
ENDBRANCH  11  12
ENDBRANCH  10  11
BRANCH  10  31
HETATM   31  O1  UNL     1      14.091  10.009   6.535  1.00  0.00    -0.391 OA
ATOM     32  H1  UNL     1      14.153   9.864   7.473  1.00  0.00     0.210 HD
ENDBRANCH  10  31
ENDBRANCH   9  10
BRANCH   9  33
HETATM   33  O2  UNL     1      11.002  10.751   6.668  1.00  0.00    -0.393 OA
ATOM     34  H2  UNL     1      10.609  11.156   7.433  1.00  0.00     0.210 HD
ENDBRANCH   9  33
ENDBRANCH   8   9
ENDBRANCH   1   8
BRANCH   7  35
HETATM   35  O8  UNL     1       9.710   6.910   4.847  1.00  0.00    -0.344 OA
ATOM     36  H8  UNL     1       9.578   5.970   4.894  1.00  0.00     0.219 HD
ENDBRANCH   7  35
BRANCH   6  37
HETATM   37  C9  UNL     1       6.747   7.714   4.550  1.00  0.00     0.342 C 
HETATM   38  N10 UNL     1       7.306   7.699   3.237  1.00  0.00    -0.038 N 
HETATM   39  C10 UNL     1       6.415   7.210   2.229  1.00  0.00     0.273 C 
ATOM     40 2H10 UNL     1       7.657   8.623   2.987  1.00  0.00     0.280 HD
ATOM     41 1H10 UNL     1       8.181   7.174   3.226  1.00  0.00     0.280 HD
HETATM   42  C12 UNL     1       5.078   6.813   2.755  1.00  0.00     0.185 C 
HETATM   43  C13 UNL     1       5.113   5.963   3.982  1.00  0.00     0.181 C 
HETATM   44  C14 UNL     1       6.175   6.372   4.949  1.00  0.00     0.201 C 
BRANCH  39  45
HETATM   45  C11 UNL     1       7.076   6.118   1.418  1.00  0.00     0.287 C 
BRANCH  45  46
HETATM   46  O3  UNL     1       8.129   5.528   2.086  1.00  0.00    -0.369 OA
ATOM     47  H3  UNL     1       8.071   4.580   2.091  1.00  0.00     0.212 HD
ENDBRANCH  45  46
BRANCH  45  48
HETATM   48  O4  UNL     1       7.574   6.614   0.216  1.00  0.00    -0.369 OA
ATOM     49  H4  UNL     1       7.130   6.223  -0.528  1.00  0.00     0.212 HD
ENDBRANCH  45  48
ENDBRANCH  39  45
BRANCH  42  50
HETATM   50  O5  UNL     1       4.337   6.212   1.746  1.00  0.00    -0.391 OA
ATOM     51  H5  UNL     1       4.111   5.325   1.998  1.00  0.00     0.210 HD
ENDBRANCH  42  50
BRANCH  43  52
HETATM   52  O6  UNL     1       3.872   6.102   4.638  1.00  0.00    -0.390 OA
ATOM     53  H6  UNL     1       3.194   6.131   3.973  1.00  0.00     0.210 HD
ENDBRANCH  43  52
BRANCH  44  54
HETATM   54  O7  UNL     1       5.655   6.531   6.254  1.00  0.00    -0.389 OA
ATOM     55  H7  UNL     1       5.478   5.657   6.581  1.00  0.00     0.210 HD
ENDBRANCH  44  54
ENDBRANCH   6  37
TORSDOF 17
ENDMDL
MODEL 4
REMARK VINA RESULT: -5.316103050      2.015      6.758
REMARK  17 active torsions:
REMARK  status: ('A' for Active; 'I' for Inactive)
REMARK    1  A    between atoms: N1_1  and  C1_4 
REMARK    2  A    between atoms: C2_7  and  N3_8 
REMARK    3  A    between atoms: N6_16  and  C4_17 
REMARK    4  A    between atoms: C4_17  and  C5_18 
REMARK    5  A    between atoms: C5_18  and  O1_19 
REMARK    6  A    between atoms: C5_18  and  C6_21 
REMARK    7  A    between atoms: C6_21  and  O2_22 
REMARK    8  A    between atoms: C6_21  and  C7_24 
REMARK    9  A    between atoms: C7_24  and  C8_25 
REMARK   10  A    between atoms: N9_30  and  C9_31 
REMARK   11  A    between atoms: C10_35  and  C11_36 
REMARK   12  A    between atoms: C11_36  and  O3_37 
REMARK   13  A    between atoms: C11_36  and  O4_39 
REMARK   14  A    between atoms: C12_41  and  O5_42 
REMARK   15  A    between atoms: C13_44  and  O6_45 
REMARK   16  A    between atoms: C14_47  and  O7_48 
REMARK   17  A    between atoms: C15_50  and  O8_51 
ROOT
HETATM    1  C8  UNL     1       6.926   6.159   1.336  1.00  0.00     0.082 A 
HETATM    2  N7  UNL     1       7.771   6.475   0.324  1.00  0.00    -0.286 N 
ATOM      3  H7  UNL     1       7.519   6.539  -0.662  1.00  0.00     0.188 HD
HETATM    4  N8  UNL     1       8.955   6.682   0.818  1.00  0.00    -0.236 N 
ATOM      5  H8  UNL     1       9.771   6.935   0.262  1.00  0.00     0.208 HD
HETATM    6  N9  UNL     1       8.971   6.522   2.146  1.00  0.00    -0.220 N 
HETATM    7  C15 UNL     1       7.698   6.193   2.481  1.00  0.00     0.185 A 
ENDROOT
BRANCH   1   8
HETATM    8  C7  UNL     1       5.475   5.845   1.242  1.00  0.00     0.097 C 
BRANCH   8   9
HETATM    9  C6  UNL     1       4.679   6.392   2.391  1.00  0.00     0.154 C 
BRANCH   9  10
HETATM   10  C5  UNL     1       3.985   7.668   1.995  1.00  0.00     0.167 C 
BRANCH  10  11
HETATM   11  C4  UNL     1       4.705   8.897   2.533  1.00  0.00     0.186 C 
BRANCH  11  12
HETATM   12  N6  UNL     1       4.550   8.943   3.975  1.00  0.00    -0.257 N 
HETATM   13  N5  UNL     1       3.433   9.008   4.670  1.00  0.00    -0.238 N 
HETATM   14  N4  UNL     1       3.678   9.039   5.967  1.00  0.00    -0.279 N 
ATOM     15  H5  UNL     1       2.500   9.031   4.259  1.00  0.00     0.208 HD
HETATM   16  C3  UNL     1       5.010   8.995   6.158  1.00  0.00     0.140 A 
ATOM     17  H4  UNL     1       2.974   9.088   6.703  1.00  0.00     0.189 HD
HETATM   18  C2  UNL     1       5.791   9.000   7.295  1.00  0.00     0.147 A 
HETATM   19  C16 UNL     1       5.552   8.934   4.875  1.00  0.00     0.171 A 
HETATM   20  N2  UNL     1       7.121   8.944   7.126  1.00  0.00    -0.175 N 
HETATM   21  C1  UNL     1       7.694   8.883   5.897  1.00  0.00     0.679 A 
ATOM     22  H2  UNL     1       7.723   8.947   7.950  1.00  0.00     0.186 HD
HETATM   23  N11 UNL     1       6.893   8.880   4.807  1.00  0.00    -0.173 N 
ATOM     24  H11 UNL     1       7.329   8.835   3.885  1.00  0.00     0.186 HD
BRANCH  18  25
HETATM   25  N3  UNL     1       5.262   9.058   8.486  1.00  0.00    -0.383 N 
ATOM     26  H32 UNL     1       5.594   8.464   9.247  1.00  0.00     0.157 HD
ATOM     27  H31 UNL     1       4.497   9.700   8.696  1.00  0.00     0.157 HD
ENDBRANCH  18  25
BRANCH  21  28
HETATM   28  N1  UNL     1       8.992   8.829   5.783  1.00  0.00    -0.234 N 
ATOM     29  H12 UNL     1       9.504   7.964   5.957  1.00  0.00     0.174 HD
ATOM     30  H11 UNL     1       9.517   9.662   5.515  1.00  0.00     0.174 HD
ENDBRANCH  21  28
ENDBRANCH  11  12
ENDBRANCH  10  11
BRANCH  10  31
HETATM   31  O1  UNL     1       3.835   7.767   0.611  1.00  0.00    -0.391 OA
ATOM     32  H1  UNL     1       3.421   6.982   0.270  1.00  0.00     0.210 HD
ENDBRANCH  10  31
ENDBRANCH   9  10
BRANCH   9  33
HETATM   33  O2  UNL     1       3.826   5.496   2.986  1.00  0.00    -0.393 OA
ATOM     34  H2  UNL     1       3.200   5.131   2.371  1.00  0.00     0.210 HD
ENDBRANCH   9  33
ENDBRANCH   8   9
ENDBRANCH   1   8
BRANCH   7  35
HETATM   35  O8  UNL     1       7.198   5.925   3.726  1.00  0.00    -0.344 OA
ATOM     36  H8  UNL     1       6.706   6.560   4.234  1.00  0.00     0.219 HD
ENDBRANCH   7  35
BRANCH   6  37
HETATM   37  C9  UNL     1      10.105   6.669   3.013  1.00  0.00     0.342 C 
HETATM   38  N10 UNL     1      10.922   5.499   2.978  1.00  0.00    -0.038 N 
HETATM   39  C10 UNL     1      12.104   5.588   3.782  1.00  0.00     0.273 C 
ATOM     40 2H10 UNL     1      10.378   4.675   3.231  1.00  0.00     0.280 HD
ATOM     41 1H10 UNL     1      11.161   5.259   2.016  1.00  0.00     0.280 HD
HETATM   42  C12 UNL     1      12.243   6.889   4.496  1.00  0.00     0.185 C 
HETATM   43  C13 UNL     1      12.004   8.097   3.653  1.00  0.00     0.181 C 
HETATM   44  C14 UNL     1      10.880   7.925   2.685  1.00  0.00     0.201 C 
BRANCH  39  45
HETATM   45  C11 UNL     1      13.328   5.228   2.971  1.00  0.00     0.287 C 
BRANCH  45  46
HETATM   46  O3  UNL     1      13.120   5.362   1.613  1.00  0.00    -0.369 OA
ATOM     47  H3  UNL     1      12.417   5.968   1.411  1.00  0.00     0.212 HD
ENDBRANCH  45  46
BRANCH  45  48
HETATM   48  O4  UNL     1      13.716   3.910   3.201  1.00  0.00    -0.369 OA
ATOM     49  H4  UNL     1      13.881   3.453   2.386  1.00  0.00     0.212 HD
ENDBRANCH  45  48
ENDBRANCH  39  45
BRANCH  42  50
HETATM   50  O5  UNL     1      13.481   6.947   5.124  1.00  0.00    -0.391 OA
ATOM     51  H5  UNL     1      13.444   7.563   5.847  1.00  0.00     0.210 HD
ENDBRANCH  42  50
BRANCH  43  52
HETATM   52  O6  UNL     1      11.658   9.161   4.513  1.00  0.00    -0.390 OA
ATOM     53  H6  UNL     1      11.111   8.808   5.204  1.00  0.00     0.210 HD
ENDBRANCH  43  52
BRANCH  44  54
HETATM   54  O7  UNL     1       9.960   8.995   2.763  1.00  0.00    -0.389 OA
ATOM     55  H7  UNL     1       9.344   8.771   3.450  1.00  0.00     0.210 HD
ENDBRANCH  44  54
ENDBRANCH   6  37
TORSDOF 17
ENDMDL
MODEL 5
REMARK VINA RESULT: -5.285801962      2.764      6.489
REMARK  17 active torsions:
REMARK  status: ('A' for Active; 'I' for Inactive)
REMARK    1  A    between atoms: N1_1  and  C1_4 
REMARK    2  A    between atoms: C2_7  and  N3_8 
REMARK    3  A    between atoms: N6_16  and  C4_17 
REMARK    4  A    between atoms: C4_17  and  C5_18 
REMARK    5  A    between atoms: C5_18  and  O1_19 
REMARK    6  A    between atoms: C5_18  and  C6_21 
REMARK    7  A    between atoms: C6_21  and  O2_22 
REMARK    8  A    between atoms: C6_21  and  C7_24 
REMARK    9  A    between atoms: C7_24  and  C8_25 
REMARK   10  A    between atoms: N9_30  and  C9_31 
REMARK   11  A    between atoms: C10_35  and  C11_36 
REMARK   12  A    between atoms: C11_36  and  O3_37 
REMARK   13  A    between atoms: C11_36  and  O4_39 
REMARK   14  A    between atoms: C12_41  and  O5_42 
REMARK   15  A    between atoms: C13_44  and  O6_45 
REMARK   16  A    between atoms: C14_47  and  O7_48 
REMARK   17  A    between atoms: C15_50  and  O8_51 
ROOT
HETATM    1  C8  UNL     1       6.899   9.123   3.049  1.00  0.00     0.082 A 
HETATM    2  N7  UNL     1       7.160  10.438   3.245  1.00  0.00    -0.286 N 
ATOM      3  H7  UNL     1       6.585  11.084   3.787  1.00  0.00     0.188 HD
HETATM    4  N8  UNL     1       8.262  10.741   2.628  1.00  0.00    -0.236 N 
ATOM      5  H8  UNL     1       8.677  11.673   2.621  1.00  0.00     0.208 HD
HETATM    6  N9  UNL     1       8.787   9.681   2.004  1.00  0.00    -0.220 N 
HETATM    7  C15 UNL     1       7.936   8.658   2.264  1.00  0.00     0.185 A 
ENDROOT
BRANCH   1   8
HETATM    8  C7  UNL     1       5.746   8.339   3.569  1.00  0.00     0.097 C 
BRANCH   8   9
HETATM    9  C6  UNL     1       5.778   8.164   5.059  1.00  0.00     0.154 C 
BRANCH   9  10
HETATM   10  C5  UNL     1       6.562   6.934   5.431  1.00  0.00     0.167 C 
BRANCH  10  11
HETATM   11  C4  UNL     1       8.009   7.265   5.772  1.00  0.00     0.186 C 
BRANCH  11  12
HETATM   12  N6  UNL     1       8.886   6.499   4.906  1.00  0.00    -0.257 N 
HETATM   13  N5  UNL     1       8.578   5.474   4.139  1.00  0.00    -0.238 N 
HETATM   14  N4  UNL     1       9.637   5.024   3.493  1.00  0.00    -0.279 N 
ATOM     15  H5  UNL     1       7.641   5.080   4.054  1.00  0.00     0.208 HD
HETATM   16  C3  UNL     1      10.704   5.770   3.837  1.00  0.00     0.140 A 
ATOM     17  H4  UNL     1       9.646   4.240   2.841  1.00  0.00     0.189 HD
HETATM   18  C2  UNL     1      12.031   5.730   3.462  1.00  0.00     0.147 A 
HETATM   19  C16 UNL     1      10.207   6.707   4.740  1.00  0.00     0.171 A 
HETATM   20  N2  UNL     1      12.850   6.643   4.006  1.00  0.00    -0.175 N 
HETATM   21  C1  UNL     1      12.411   7.576   4.889  1.00  0.00     0.679 A 
ATOM     22  H2  UNL     1      13.837   6.637   3.746  1.00  0.00     0.186 HD
HETATM   23  N11 UNL     1      11.102   7.581   5.231  1.00  0.00    -0.173 N 
ATOM     24  H11 UNL     1      10.778   8.283   5.896  1.00  0.00     0.186 HD
BRANCH  18  25
HETATM   25  N3  UNL     1      12.474   4.843   2.614  1.00  0.00    -0.383 N 
ATOM     26  H32 UNL     1      13.106   4.095   2.905  1.00  0.00     0.157 HD
ATOM     27  H31 UNL     1      12.202   4.868   1.631  1.00  0.00     0.157 HD
ENDBRANCH  18  25
BRANCH  21  28
HETATM   28  N1  UNL     1      13.245   8.444   5.392  1.00  0.00    -0.234 N 
ATOM     29  H12 UNL     1      14.122   8.148   5.823  1.00  0.00     0.174 HD
ATOM     30  H11 UNL     1      13.028   9.440   5.358  1.00  0.00     0.174 HD
ENDBRANCH  21  28
ENDBRANCH  11  12
ENDBRANCH  10  11
BRANCH  10  31
HETATM   31  O1  UNL     1       5.967   6.241   6.485  1.00  0.00    -0.391 OA
ATOM     32  H1  UNL     1       6.527   5.525   6.763  1.00  0.00     0.210 HD
ENDBRANCH  10  31
ENDBRANCH   9  10
BRANCH   9  33
HETATM   33  O2  UNL     1       6.177   9.272   5.766  1.00  0.00    -0.393 OA
ATOM     34  H2  UNL     1       6.964   9.665   5.406  1.00  0.00     0.210 HD
ENDBRANCH   9  33
ENDBRANCH   8   9
ENDBRANCH   1   8
BRANCH   7  35
HETATM   35  O8  UNL     1       8.030   7.358   1.845  1.00  0.00    -0.344 OA
ATOM     36  H8  UNL     1       7.950   6.617   2.435  1.00  0.00     0.219 HD
ENDBRANCH   7  35
BRANCH   6  37
HETATM   37  C9  UNL     1       9.993   9.654   1.227  1.00  0.00     0.342 C 
HETATM   38  N10 UNL     1      10.684   8.419   1.412  1.00  0.00    -0.038 N 
HETATM   39  C10 UNL     1      11.877   8.295   0.629  1.00  0.00     0.273 C 
ATOM     40 2H10 UNL     1      10.887   8.266   2.399  1.00  0.00     0.280 HD
ATOM     41 1H10 UNL     1      10.060   7.630   1.240  1.00  0.00     0.280 HD
HETATM   42  C12 UNL     1      12.158   9.484  -0.224  1.00  0.00     0.185 C 
HETATM   43  C13 UNL     1      10.987   9.992  -0.999  1.00  0.00     0.181 C 
HETATM   44  C14 UNL     1       9.709   9.944  -0.229  1.00  0.00     0.201 C 
BRANCH  39  45
HETATM   45  C11 UNL     1      11.869   7.000  -0.152  1.00  0.00     0.287 C 
BRANCH  45  46
HETATM   46  O3  UNL     1      10.812   6.183   0.192  1.00  0.00    -0.369 OA
ATOM     47  H3  UNL     1      10.085   6.666   0.566  1.00  0.00     0.212 HD
ENDBRANCH  45  46
BRANCH  45  48
HETATM   48  O4  UNL     1      13.039   6.275   0.063  1.00  0.00    -0.369 OA
ATOM     49  H4  UNL     1      12.923   5.360  -0.163  1.00  0.00     0.212 HD
ENDBRANCH  45  48
ENDBRANCH  39  45
BRANCH  42  50
HETATM   50  O5  UNL     1      13.238   9.219  -1.056  1.00  0.00    -0.391 OA
ATOM     51  H5  UNL     1      13.492  10.012  -1.514  1.00  0.00     0.210 HD
ENDBRANCH  42  50
BRANCH  43  52
HETATM   52  O6  UNL     1      11.235  11.344  -1.318  1.00  0.00    -0.390 OA
ATOM     53  H6  UNL     1      10.951  11.487  -2.213  1.00  0.00     0.210 HD
ENDBRANCH  43  52
BRANCH  44  54
HETATM   54  O7  UNL     1       9.034  11.186  -0.266  1.00  0.00    -0.389 OA
ATOM     55  H7  UNL     1       8.512  11.231   0.526  1.00  0.00     0.210 HD
ENDBRANCH  44  54
ENDBRANCH   6  37
TORSDOF 17
ENDMDL
