MODEL 1
REMARK VINA RESULT: -8.582679040      0.000      0.000
REMARK  11 active torsions:
REMARK  status: ('A' for Active; 'I' for Inactive)
REMARK    1  A    between atoms: C2_2  and  O2_4 
REMARK    2  A    between atoms: O2_4  and  C3_5 
REMARK    3  A    between atoms: C9_11  and  O3_12 
REMARK    4  A    between atoms: C17_21  and  C18_22 
REMARK    5  A    between atoms: C18_22  and  C19_23 
REMARK    6  A    between atoms: C19_23  and  C20_24 
REMARK    7  A    between atoms: C20_24  and  C21_25 
REMARK    8  A    between atoms: C21_25  and  C22_26 
REMARK    9  A    between atoms: C22_26  and  C23_27 
REMARK   10  A    between atoms: C23_27  and  C24_28 
REMARK   11  A    between atoms: C24_28  and  O4_29 
ROOT
HETATM    1  C3  UNL     1       4.702   8.967  16.139  1.00  0.00     0.137 C 
HETATM    2  C4  UNL     1       4.967  10.390  16.602  1.00  0.00     0.042 C 
HETATM    3  C5  UNL     1       3.981  11.412  16.058  1.00  0.00    -0.037 C 
HETATM    4  C6  UNL     1       4.075  12.575  17.072  1.00  0.00     0.015 C 
HETATM    5  C7  UNL     1       4.514  11.943  14.780  1.00  0.00     0.012 C 
HETATM    6  C8  UNL     1       3.736  11.759  13.542  1.00  0.00     0.032 C 
HETATM    7  C9  UNL     1       2.280  11.986  13.838  1.00  0.00     0.118 C 
HETATM    8  C10 UNL     1       1.895  10.839  14.752  1.00  0.00     0.037 C 
HETATM    9  C11 UNL     1       2.578  10.929  16.085  1.00  0.00     0.001 C 
HETATM   10  C12 UNL     1       2.383   9.608  16.804  1.00  0.00    -0.002 C 
HETATM   11  C13 UNL     1       2.340   9.770  18.283  1.00  0.00     0.006 C 
HETATM   12  C14 UNL     1       2.928   8.666  19.081  1.00  0.00     0.011 C 
HETATM   13  C15 UNL     1       2.694   7.296  18.439  1.00  0.00    -0.033 C 
HETATM   14  C16 UNL     1       1.250   6.985  18.772  1.00  0.00     0.016 C 
HETATM   15  C17 UNL     1       3.669   6.376  19.190  1.00  0.00    -0.006 C 
HETATM   16  C25 UNL     1       4.226   5.466  18.151  1.00  0.00     0.006 C 
HETATM   17  C26 UNL     1       4.005   6.143  16.805  1.00  0.00     0.011 C 
HETATM   18  C27 UNL     1       3.011   7.241  16.993  1.00  0.00    -0.030 C 
HETATM   19  C28 UNL     1       1.728   6.676  16.316  1.00  0.00     0.016 C 
HETATM   20  C29 UNL     1       3.306   8.524  16.302  1.00  0.00     0.029 C 
ENDROOT
BRANCH  15  21
HETATM   21  C18 UNL     1       3.018   5.672  20.296  1.00  0.00     0.005 C 
BRANCH  21  22
HETATM   22  C19 UNL     1       3.471   5.817  21.685  1.00  0.00     0.000 C 
BRANCH  22  23
HETATM   23  C20 UNL     1       4.308   6.999  22.013  1.00  0.00     0.000 C 
BRANCH  23  24
HETATM   24  C21 UNL     1       5.747   6.541  22.368  1.00  0.00     0.000 C 
BRANCH  24  25
HETATM   25  C22 UNL     1       6.709   6.917  21.284  1.00  0.00     0.002 C 
BRANCH  25  26
HETATM   26  C23 UNL     1       6.451   8.278  20.678  1.00  0.00     0.026 C 
BRANCH  26  27
HETATM   27  C24 UNL     1       7.753   9.077  20.766  1.00  0.00     0.164 C 
BRANCH  27  28
HETATM   28  O4  UNL     1       8.128   9.263  22.088  1.00  0.00    -0.401 OA
ATOM     29  H4  UNL     1       8.625  10.067  22.188  1.00  0.00     0.209 HD
ENDBRANCH  27  28
ENDBRANCH  26  27
ENDBRANCH  25  26
ENDBRANCH  24  25
ENDBRANCH  23  24
ENDBRANCH  22  23
ENDBRANCH  21  22
ENDBRANCH  15  21
BRANCH   1  30
HETATM   30  O2  UNL     1       5.171   8.951  14.796  1.00  0.00    -0.316 OA
BRANCH  30  31
HETATM   31  C2  UNL     1       5.303   7.777  14.099  1.00  0.00     0.255 C 
HETATM   32  C1  UNL     1       6.606   7.036  14.206  1.00  0.00     0.126 C 
HETATM   33  O1  UNL     1       4.400   7.284  13.378  1.00  0.00    -0.266 OA
ENDBRANCH  30  31
ENDBRANCH   1  30
BRANCH   7  34
HETATM   34  O3  UNL     1       2.012  13.222  14.377  1.00  0.00    -0.396 OA
ATOM     35  H3  UNL     1       1.333  13.700  13.916  1.00  0.00     0.210 HD
ENDBRANCH   7  34
TORSDOF 11
ENDMDL
MODEL 2
REMARK VINA RESULT: -8.492290712      1.084      1.249
REMARK  11 active torsions:
REMARK  status: ('A' for Active; 'I' for Inactive)
REMARK    1  A    between atoms: C2_2  and  O2_4 
REMARK    2  A    between atoms: O2_4  and  C3_5 
REMARK    3  A    between atoms: C9_11  and  O3_12 
REMARK    4  A    between atoms: C17_21  and  C18_22 
REMARK    5  A    between atoms: C18_22  and  C19_23 
REMARK    6  A    between atoms: C19_23  and  C20_24 
REMARK    7  A    between atoms: C20_24  and  C21_25 
REMARK    8  A    between atoms: C21_25  and  C22_26 
REMARK    9  A    between atoms: C22_26  and  C23_27 
REMARK   10  A    between atoms: C23_27  and  C24_28 
REMARK   11  A    between atoms: C24_28  and  O4_29 
ROOT
HETATM    1  C3  UNL     1       4.598   8.891  16.095  1.00  0.00     0.137 C 
HETATM    2  C4  UNL     1       4.869  10.279  16.651  1.00  0.00     0.042 C 
HETATM    3  C5  UNL     1       3.933  11.353  16.121  1.00  0.00    -0.037 C 
HETATM    4  C6  UNL     1       4.002  12.454  17.205  1.00  0.00     0.015 C 
HETATM    5  C7  UNL     1       4.538  11.943  14.903  1.00  0.00     0.012 C 
HETATM    6  C8  UNL     1       3.818  11.849  13.621  1.00  0.00     0.032 C 
HETATM    7  C9  UNL     1       2.354  12.092  13.859  1.00  0.00     0.118 C 
HETATM    8  C10 UNL     1       1.902  10.905  14.687  1.00  0.00     0.037 C 
HETATM    9  C11 UNL     1       2.521  10.902  16.053  1.00  0.00     0.001 C 
HETATM   10  C12 UNL     1       2.263   9.548  16.684  1.00  0.00    -0.002 C 
HETATM   11  C13 UNL     1       2.151   9.626  18.167  1.00  0.00     0.006 C 
HETATM   12  C14 UNL     1       2.677   8.465  18.926  1.00  0.00     0.011 C 
HETATM   13  C15 UNL     1       2.446   7.139  18.195  1.00  0.00    -0.033 C 
HETATM   14  C16 UNL     1       0.981   6.844  18.441  1.00  0.00     0.016 C 
HETATM   15  C17 UNL     1       3.364   6.155  18.938  1.00  0.00    -0.006 C 
HETATM   16  C25 UNL     1       3.952   5.293  17.874  1.00  0.00     0.006 C 
HETATM   17  C26 UNL     1       3.811   6.050  16.562  1.00  0.00     0.011 C 
HETATM   18  C27 UNL     1       2.832   7.159  16.765  1.00  0.00    -0.030 C 
HETATM   19  C28 UNL     1       1.572   6.665  15.997  1.00  0.00     0.016 C 
HETATM   20  C29 UNL     1       3.187   8.472  16.165  1.00  0.00     0.029 C 
ENDROOT
BRANCH  15  21
HETATM   21  C18 UNL     1       2.644   5.405  19.968  1.00  0.00     0.005 C 
BRANCH  21  22
HETATM   22  C19 UNL     1       3.064   5.420  21.376  1.00  0.00     0.000 C 
BRANCH  22  23
HETATM   23  C20 UNL     1       3.685   6.665  21.893  1.00  0.00     0.000 C 
BRANCH  23  24
HETATM   24  C21 UNL     1       3.505   6.741  23.432  1.00  0.00     0.000 C 
BRANCH  24  25
HETATM   25  C22 UNL     1       4.825   6.922  24.115  1.00  0.00     0.002 C 
BRANCH  25  26
HETATM   26  C23 UNL     1       6.019   6.737  23.206  1.00  0.00     0.026 C 
BRANCH  26  27
HETATM   27  C24 UNL     1       7.217   7.418  23.871  1.00  0.00     0.164 C 
BRANCH  27  28
HETATM   28  O4  UNL     1       6.799   8.441  24.709  1.00  0.00    -0.401 OA
ATOM     29  H4  UNL     1       6.341   9.113  24.219  1.00  0.00     0.209 HD
ENDBRANCH  27  28
ENDBRANCH  26  27
ENDBRANCH  25  26
ENDBRANCH  24  25
ENDBRANCH  23  24
ENDBRANCH  22  23
ENDBRANCH  21  22
ENDBRANCH  15  21
BRANCH   1  30
HETATM   30  O2  UNL     1       5.132   8.941  14.776  1.00  0.00    -0.316 OA
BRANCH  30  31
HETATM   31  C2  UNL     1       5.299   7.802  14.030  1.00  0.00     0.255 C 
HETATM   32  C1  UNL     1       6.627   7.103  14.099  1.00  0.00     0.126 C 
HETATM   33  O1  UNL     1       4.409   7.309  13.293  1.00  0.00    -0.266 OA
ENDBRANCH  30  31
ENDBRANCH   1  30
BRANCH   7  34
HETATM   34  O3  UNL     1       2.086  13.301  14.457  1.00  0.00    -0.396 OA
ATOM     35  H3  UNL     1       1.336  13.751  14.086  1.00  0.00     0.210 HD
ENDBRANCH   7  34
TORSDOF 11
ENDMDL
MODEL 3
REMARK VINA RESULT: -8.444358937      2.258      6.974
REMARK  11 active torsions:
REMARK  status: ('A' for Active; 'I' for Inactive)
REMARK    1  A    between atoms: C2_2  and  O2_4 
REMARK    2  A    between atoms: O2_4  and  C3_5 
REMARK    3  A    between atoms: C9_11  and  O3_12 
REMARK    4  A    between atoms: C17_21  and  C18_22 
REMARK    5  A    between atoms: C18_22  and  C19_23 
REMARK    6  A    between atoms: C19_23  and  C20_24 
REMARK    7  A    between atoms: C20_24  and  C21_25 
REMARK    8  A    between atoms: C21_25  and  C22_26 
REMARK    9  A    between atoms: C22_26  and  C23_27 
REMARK   10  A    between atoms: C23_27  and  C24_28 
REMARK   11  A    between atoms: C24_28  and  O4_29 
ROOT
HETATM    1  C3  UNL     1       3.693   7.139  19.235  1.00  0.00     0.137 C 
HETATM    2  C4  UNL     1       3.672   8.388  20.101  1.00  0.00     0.042 C 
HETATM    3  C5  UNL     1       4.850   8.500  21.056  1.00  0.00    -0.037 C 
HETATM    4  C6  UNL     1       4.925  10.016  21.354  1.00  0.00     0.015 C 
HETATM    5  C7  UNL     1       4.479   7.852  22.336  1.00  0.00     0.012 C 
HETATM    6  C8  UNL     1       5.264   6.700  22.816  1.00  0.00     0.032 C 
HETATM    7  C9  UNL     1       6.722   6.959  22.563  1.00  0.00     0.118 C 
HETATM    8  C10 UNL     1       6.852   6.958  21.052  1.00  0.00     0.037 C 
HETATM    9  C11 UNL     1       6.139   8.120  20.426  1.00  0.00     0.001 C 
HETATM   10  C12 UNL     1       6.059   7.874  18.932  1.00  0.00    -0.002 C 
HETATM   11  C13 UNL     1       6.066   9.141  18.148  1.00  0.00     0.006 C 
HETATM   12  C14 UNL     1       5.253   9.149  16.908  1.00  0.00     0.011 C 
HETATM   13  C15 UNL     1       5.261   7.792  16.198  1.00  0.00    -0.033 C 
HETATM   14  C16 UNL     1       6.609   7.756  15.508  1.00  0.00     0.016 C 
HETATM   15  C17 UNL     1       4.103   7.905  15.194  1.00  0.00    -0.006 C 
HETATM   16  C25 UNL     1       3.436   6.573  15.218  1.00  0.00     0.006 C 
HETATM   17  C26 UNL     1       3.835   5.901  16.524  1.00  0.00     0.011 C 
HETATM   18  C27 UNL     1       5.003   6.639  17.090  1.00  0.00    -0.030 C 
HETATM   19  C28 UNL     1       6.190   5.661  16.847  1.00  0.00     0.016 C 
HETATM   20  C29 UNL     1       4.977   6.891  18.555  1.00  0.00     0.029 C 
ENDROOT
BRANCH  15  21
HETATM   21  C18 UNL     1       4.568   8.304  13.864  1.00  0.00     0.005 C 
BRANCH  21  22
HETATM   22  C19 UNL     1       4.165   9.575  13.249  1.00  0.00     0.000 C 
BRANCH  22  23
HETATM   23  C20 UNL     1       2.740   9.972  13.367  1.00  0.00     0.000 C 
BRANCH  23  24
HETATM   24  C21 UNL     1       2.630  11.309  14.146  1.00  0.00     0.000 C 
BRANCH  24  25
HETATM   25  C22 UNL     1       3.983  11.914  14.362  1.00  0.00     0.002 C 
BRANCH  25  26
HETATM   26  C23 UNL     1       4.117  12.670  15.664  1.00  0.00     0.026 C 
BRANCH  26  27
HETATM   27  C24 UNL     1       2.813  13.438  15.889  1.00  0.00     0.164 C 
BRANCH  27  28
HETATM   28  O4  UNL     1       2.482  13.463  17.235  1.00  0.00    -0.401 OA
ATOM     29  H4  UNL     1       2.192  14.330  17.494  1.00  0.00     0.209 HD
ENDBRANCH  27  28
ENDBRANCH  26  27
ENDBRANCH  25  26
ENDBRANCH  24  25
ENDBRANCH  23  24
ENDBRANCH  22  23
ENDBRANCH  21  22
ENDBRANCH  15  21
BRANCH   1  30
HETATM   30  O2  UNL     1       3.288   6.102  20.122  1.00  0.00    -0.316 OA
BRANCH  30  31
HETATM   31  C2  UNL     1       2.367   5.158  19.743  1.00  0.00     0.255 C 
HETATM   32  C1  UNL     1       1.202   5.608  18.906  1.00  0.00     0.126 C 
HETATM   33  O1  UNL     1       2.438   3.944  20.054  1.00  0.00    -0.266 OA
ENDBRANCH  30  31
ENDBRANCH   1  30
BRANCH   7  34
HETATM   34  O3  UNL     1       7.187   8.114  23.145  1.00  0.00    -0.396 OA
ATOM     35  H3  UNL     1       7.033   8.893  22.623  1.00  0.00     0.210 HD
ENDBRANCH   7  34
TORSDOF 11
ENDMDL
MODEL 4
REMARK VINA RESULT: -8.427675327      2.131      6.666
REMARK  11 active torsions:
REMARK  status: ('A' for Active; 'I' for Inactive)
REMARK    1  A    between atoms: C2_2  and  O2_4 
REMARK    2  A    between atoms: O2_4  and  C3_5 
REMARK    3  A    between atoms: C9_11  and  O3_12 
REMARK    4  A    between atoms: C17_21  and  C18_22 
REMARK    5  A    between atoms: C18_22  and  C19_23 
REMARK    6  A    between atoms: C19_23  and  C20_24 
REMARK    7  A    between atoms: C20_24  and  C21_25 
REMARK    8  A    between atoms: C21_25  and  C22_26 
REMARK    9  A    between atoms: C22_26  and  C23_27 
REMARK   10  A    between atoms: C23_27  and  C24_28 
REMARK   11  A    between atoms: C24_28  and  O4_29 
ROOT
HETATM    1  C3  UNL     1       3.910   7.813  19.093  1.00  0.00     0.137 C 
HETATM    2  C4  UNL     1       4.034   9.212  19.674  1.00  0.00     0.042 C 
HETATM    3  C5  UNL     1       5.410   9.529  20.237  1.00  0.00    -0.037 C 
HETATM    4  C6  UNL     1       5.462  11.074  20.205  1.00  0.00     0.015 C 
HETATM    5  C7  UNL     1       5.427   9.152  21.671  1.00  0.00     0.012 C 
HETATM    6  C8  UNL     1       6.382   8.130  22.137  1.00  0.00     0.032 C 
HETATM    7  C9  UNL     1       7.705   8.347  21.458  1.00  0.00     0.118 C 
HETATM    8  C10 UNL     1       7.437   8.040  19.998  1.00  0.00     0.037 C 
HETATM    9  C11 UNL     1       6.512   9.042  19.372  1.00  0.00     0.001 C 
HETATM   10  C12 UNL     1       6.063   8.495  18.031  1.00  0.00    -0.002 C 
HETATM   11  C13 UNL     1       5.785   9.575  17.044  1.00  0.00     0.006 C 
HETATM   12  C14 UNL     1       4.678   9.322  16.089  1.00  0.00     0.011 C 
HETATM   13  C15 UNL     1       4.589   7.849  15.680  1.00  0.00    -0.033 C 
HETATM   14  C16 UNL     1       5.710   7.686  14.675  1.00  0.00     0.016 C 
HETATM   15  C17 UNL     1       3.205   7.742  15.021  1.00  0.00    -0.006 C 
HETATM   16  C25 UNL     1       2.654   6.436  15.480  1.00  0.00     0.006 C 
HETATM   17  C26 UNL     1       3.421   6.049  16.736  1.00  0.00     0.011 C 
HETATM   18  C27 UNL     1       4.646   6.899  16.815  1.00  0.00    -0.030 C 
HETATM   19  C28 UNL     1       5.790   5.905  16.458  1.00  0.00     0.016 C 
HETATM   20  C29 UNL     1       4.986   7.445  18.156  1.00  0.00     0.029 C 
ENDROOT
BRANCH  15  21
HETATM   21  C18 UNL     1       3.281   7.866  13.564  1.00  0.00     0.005 C 
BRANCH  21  22
HETATM   22  C19 UNL     1       2.686   9.001  12.848  1.00  0.00     0.000 C 
BRANCH  22  23
HETATM   23  C20 UNL     1       3.248  10.350  13.115  1.00  0.00     0.000 C 
BRANCH  23  24
HETATM   24  C21 UNL     1       2.211  11.207  13.887  1.00  0.00     0.000 C 
BRANCH  24  25
HETATM   25  C22 UNL     1       2.856  12.423  14.476  1.00  0.00     0.002 C 
BRANCH  25  26
HETATM   26  C23 UNL     1       4.347  12.505  14.237  1.00  0.00     0.026 C 
BRANCH  26  27
HETATM   27  C24 UNL     1       5.006  12.902  15.559  1.00  0.00     0.164 C 
BRANCH  27  28
HETATM   28  O4  UNL     1       4.078  12.909  16.589  1.00  0.00    -0.401 OA
ATOM     29  H4  UNL     1       4.445  13.305  17.371  1.00  0.00     0.209 HD
ENDBRANCH  27  28
ENDBRANCH  26  27
ENDBRANCH  25  26
ENDBRANCH  24  25
ENDBRANCH  23  24
ENDBRANCH  22  23
ENDBRANCH  21  22
ENDBRANCH  15  21
BRANCH   1  30
HETATM   30  O2  UNL     1       3.816   6.975  20.240  1.00  0.00    -0.316 OA
BRANCH  30  31
HETATM   31  C2  UNL     1       2.814   6.046  20.366  1.00  0.00     0.255 C 
HETATM   32  C1  UNL     1       1.590   6.212  19.510  1.00  0.00     0.126 C 
HETATM   33  O1  UNL     1       2.859   5.068  21.152  1.00  0.00    -0.266 OA
ENDBRANCH  30  31
ENDBRANCH   1  30
BRANCH   7  34
HETATM   34  O3  UNL     1       8.230   9.602  21.659  1.00  0.00    -0.396 OA
ATOM     35  H3  UNL     1       8.403  10.076  20.855  1.00  0.00     0.210 HD
ENDBRANCH   7  34
TORSDOF 11
ENDMDL
MODEL 5
REMARK VINA RESULT: -8.174855397      2.097      7.074
REMARK  11 active torsions:
REMARK  status: ('A' for Active; 'I' for Inactive)
REMARK    1  A    between atoms: C2_2  and  O2_4 
REMARK    2  A    between atoms: O2_4  and  C3_5 
REMARK    3  A    between atoms: C9_11  and  O3_12 
REMARK    4  A    between atoms: C17_21  and  C18_22 
REMARK    5  A    between atoms: C18_22  and  C19_23 
REMARK    6  A    between atoms: C19_23  and  C20_24 
REMARK    7  A    between atoms: C20_24  and  C21_25 
REMARK    8  A    between atoms: C21_25  and  C22_26 
REMARK    9  A    between atoms: C22_26  and  C23_27 
REMARK   10  A    between atoms: C23_27  and  C24_28 
REMARK   11  A    between atoms: C24_28  and  O4_29 
ROOT
HETATM    1  C3  UNL     1       4.734   8.977  19.224  1.00  0.00     0.137 C 
HETATM    2  C4  UNL     1       6.214   8.631  19.226  1.00  0.00     0.042 C 
HETATM    3  C5  UNL     1       6.633   7.709  20.360  1.00  0.00    -0.037 C 
HETATM    4  C6  UNL     1       7.936   7.064  19.833  1.00  0.00     0.015 C 
HETATM    5  C7  UNL     1       7.033   8.544  21.518  1.00  0.00     0.012 C 
HETATM    6  C8  UNL     1       6.299   8.415  22.789  1.00  0.00     0.032 C 
HETATM    7  C9  UNL     1       6.009   6.962  23.044  1.00  0.00     0.118 C 
HETATM    8  C10 UNL     1       5.033   6.572  21.951  1.00  0.00     0.037 C 
HETATM    9  C11 UNL     1       5.668   6.607  20.592  1.00  0.00     0.001 C 
HETATM   10  C12 UNL     1       4.566   6.509  19.555  1.00  0.00    -0.002 C 
HETATM   11  C13 UNL     1       5.020   5.830  18.309  1.00  0.00     0.006 C 
HETATM   12  C14 UNL     1       4.430   6.325  17.041  1.00  0.00     0.011 C 
HETATM   13  C15 UNL     1       2.970   6.755  17.207  1.00  0.00    -0.033 C 
HETATM   14  C16 UNL     1       2.211   5.446  17.239  1.00  0.00     0.016 C 
HETATM   15  C17 UNL     1       2.684   7.556  15.927  1.00  0.00    -0.006 C 
HETATM   16  C25 UNL     1       1.852   8.711  16.368  1.00  0.00     0.006 C 
HETATM   17  C26 UNL     1       2.079   8.875  17.864  1.00  0.00     0.011 C 
HETATM   18  C27 UNL     1       2.725   7.630  18.377  1.00  0.00    -0.030 C 
HETATM   19  C28 UNL     1       1.578   6.938  19.170  1.00  0.00     0.016 C 
HETATM   20  C29 UNL     1       3.837   7.814  19.347  1.00  0.00     0.029 C 
ENDROOT
BRANCH  15  21
HETATM   21  C18 UNL     1       2.045   6.734  14.898  1.00  0.00     0.005 C 
BRANCH  21  22
HETATM   22  C19 UNL     1       2.284   6.957  13.466  1.00  0.00     0.000 C 
BRANCH  22  23
HETATM   23  C20 UNL     1       3.418   7.838  13.090  1.00  0.00     0.000 C 
BRANCH  23  24
HETATM   24  C21 UNL     1       2.932   9.307  12.990  1.00  0.00     0.000 C 
BRANCH  24  25
HETATM   25  C22 UNL     1       3.890  10.234  13.673  1.00  0.00     0.002 C 
BRANCH  25  26
HETATM   26  C23 UNL     1       3.223  11.293  14.520  1.00  0.00     0.026 C 
BRANCH  26  27
HETATM   27  C24 UNL     1       2.029  11.833  13.730  1.00  0.00     0.164 C 
BRANCH  27  28
HETATM   28  O4  UNL     1       0.873  11.791  14.494  1.00  0.00    -0.401 OA
ATOM     29  H4  UNL     1       1.054  12.041  15.393  1.00  0.00     0.209 HD
ENDBRANCH  27  28
ENDBRANCH  26  27
ENDBRANCH  25  26
ENDBRANCH  24  25
ENDBRANCH  23  24
ENDBRANCH  22  23
ENDBRANCH  21  22
ENDBRANCH  15  21
BRANCH   1  30
HETATM   30  O2  UNL     1       4.605   9.933  20.270  1.00  0.00    -0.316 OA
BRANCH  30  31
HETATM   31  C2  UNL     1       4.874  11.262  20.061  1.00  0.00     0.255 C 
HETATM   32  C1  UNL     1       3.820  12.096  19.388  1.00  0.00     0.126 C 
HETATM   33  O1  UNL     1       5.946  11.822  20.398  1.00  0.00    -0.266 OA
ENDBRANCH  30  31
ENDBRANCH   1  30
BRANCH   7  34
HETATM   34  O3  UNL     1       7.133   6.172  23.073  1.00  0.00    -0.396 OA
ATOM     35  H3  UNL     1       7.160   5.575  23.812  1.00  0.00     0.210 HD
ENDBRANCH   7  34
TORSDOF 11
ENDMDL
