MODEL 1
REMARK VINA RESULT: -8.866152586      0.000      0.000
REMARK  15 active torsions:
REMARK  status: ('A' for Active; 'I' for Inactive)
REMARK    1  A    between atoms: O1_2  and  C2_3 
REMARK    2  A    between atoms: C4_5  and  N1_6 
REMARK    3  A    between atoms: N1_6  and  C5_8 
REMARK    4  A    between atoms: C8_13  and  N3_14 
REMARK    5  A    between atoms: N3_14  and  C9_16 
REMARK    6  A    between atoms: C9_16  and  C10_17 
REMARK    7  A    between atoms: C10_17  and  C11_18 
REMARK    8  A    between atoms: C11_18  and  N4_19 
REMARK    9  A    between atoms: C17_28  and  O2_29 
REMARK   10  A    between atoms: C19_31  and  O3_32 
REMARK   11  A    between atoms: O3_32  and  C20_33 
REMARK   12  A    between atoms: C25_39  and  O5_40 
REMARK   13  A    between atoms: O5_40  and  C26_41 
REMARK   14  A    between atoms: C26_41  and  C27_42 
REMARK   15  A    between atoms: C27_42  and  N7_43 
ROOT
HETATM    1  C2  UNL     1      15.792  21.740  15.650  1.00  0.00     0.106 A 
HETATM    2  C3  UNL     1      14.599  21.248  16.087  1.00  0.00     0.072 A 
HETATM    3  C4  UNL     1      14.199  21.352  17.392  1.00  0.00     0.088 A 
HETATM    4  C17 UNL     1      15.067  21.987  18.264  1.00  0.00     0.132 A 
HETATM    5  C19 UNL     1      16.302  22.510  17.883  1.00  0.00     0.141 A 
HETATM    6  C25 UNL     1      16.660  22.380  16.563  1.00  0.00     0.138 A 
ENDROOT
BRANCH   3   7
HETATM    7  N1  UNL     1      12.950  20.812  17.815  1.00  0.00    -0.189 N 
ATOM      8  H1  UNL     1      12.216  21.470  18.073  1.00  0.00     0.184 HD
BRANCH   7   9
HETATM    9  C5  UNL     1      12.679  19.559  17.897  1.00  0.00     0.684 A 
HETATM   10  N2  UNL     1      13.418  18.670  18.586  1.00  0.00    -0.202 N 
HETATM   11  C6  UNL     1      13.102  17.355  18.654  1.00  0.00     0.110 A 
ATOM     12  H2  UNL     1      14.249  19.000  19.078  1.00  0.00     0.183 HD
HETATM   13  C7  UNL     1      11.986  16.866  18.003  1.00  0.00     0.066 A 
HETATM   14  C8  UNL     1      11.225  17.791  17.291  1.00  0.00     0.118 A 
HETATM   15  N6  UNL     1      11.586  19.085  17.258  1.00  0.00    -0.177 N 
ATOM     16  H6  UNL     1      11.009  19.738  16.728  1.00  0.00     0.186 HD
BRANCH  14  17
HETATM   17  N3  UNL     1      10.162  17.370  16.662  1.00  0.00    -0.376 N 
ATOM     18  H3  UNL     1       9.237  17.736  16.886  1.00  0.00     0.161 HD
BRANCH  17  19
HETATM   19  C9  UNL     1      10.336  16.380  15.649  1.00  0.00     0.123 C 
BRANCH  19  20
HETATM   20  C10 UNL     1      10.023  16.843  14.254  1.00  0.00     0.050 C 
BRANCH  20  21
HETATM   21  C11 UNL     1      11.223  17.435  13.562  1.00  0.00     0.274 C 
BRANCH  21  22
HETATM   22  N4  UNL     1      11.099  18.827  13.282  1.00  0.00     0.091 N 
HETATM   23  C12 UNL     1       9.730  19.196  13.190  1.00  0.00     0.302 C 
HETATM   24  C13 UNL     1       9.531  20.678  12.933  1.00  0.00     0.302 C 
HETATM   25  N5  UNL     1      10.138  21.372  14.045  1.00  0.00     0.087 N 
HETATM   26  C14 UNL     1       9.480  21.159  15.296  1.00  0.00     0.310 C 
HETATM   27  C15 UNL     1      11.540  21.126  14.042  1.00  0.00     0.302 C 
HETATM   28  C16 UNL     1      11.949  19.690  14.009  1.00  0.00     0.302 C 
ENDBRANCH  21  22
ENDBRANCH  20  21
ENDBRANCH  19  20
ENDBRANCH  17  19
ENDBRANCH  14  17
ENDBRANCH   7   9
ENDBRANCH   3   7
BRANCH   4  29
HETATM   29  O2  UNL     1      14.578  22.053  19.581  1.00  0.00    -0.351 OA
HETATM   30  C18 UNL     1      14.930  21.031  20.511  1.00  0.00     0.210 C 
ENDBRANCH   4  29
BRANCH   1  31
HETATM   31  O1  UNL     1      16.157  21.613  14.295  1.00  0.00    -0.353 OA
HETATM   32  C1  UNL     1      15.171  21.655  13.308  1.00  0.00     0.210 C 
ENDBRANCH   1  31
BRANCH   5  33
HETATM   33  O3  UNL     1      17.082  23.119  18.792  1.00  0.00    -0.333 OA
BRANCH  33  34
HETATM   34  C20 UNL     1      17.842  22.748  19.860  1.00  0.00     0.198 C 
HETATM   35  C21 UNL     1      18.301  24.070  20.562  1.00  0.00     0.041 C 
HETATM   36  C22 UNL     1      19.275  24.616  19.525  1.00  0.00     0.010 C 
HETATM   37  C23 UNL     1      19.978  23.359  19.021  1.00  0.00     0.081 C 
HETATM   38  C24 UNL     1      19.218  22.222  19.594  1.00  0.00     0.156 C 
HETATM   39  O4  UNL     1      19.612  21.121  19.805  1.00  0.00    -0.295 OA
ENDBRANCH  33  34
ENDBRANCH   5  33
BRANCH   6  40
HETATM   40  O5  UNL     1      17.820  22.830  15.982  1.00  0.00    -0.344 OA
BRANCH  40  41
HETATM   41  C26 UNL     1      17.984  23.979  15.248  1.00  0.00     0.195 C 
BRANCH  41  42
HETATM   42  C27 UNL     1      18.640  25.078  15.999  1.00  0.00     0.143 C 
BRANCH  42  43
HETATM   43  N7  UNL     1      19.694  25.748  15.288  1.00  0.00    -0.410 N 
HETATM   44  C28 UNL     1      19.231  26.818  14.478  1.00  0.00     0.117 C 
HETATM   45  C29 UNL     1      20.179  28.000  14.462  1.00  0.00     0.019 C 
HETATM   46  C30 UNL     1      21.618  27.600  14.288  1.00  0.00     0.003 C 
HETATM   47  C31 UNL     1      21.974  26.273  14.877  1.00  0.00     0.019 C 
HETATM   48  C32 UNL     1      20.936  25.899  15.937  1.00  0.00     0.117 C 
ENDBRANCH  42  43
ENDBRANCH  41  42
ENDBRANCH  40  41
ENDBRANCH   6  40
TORSDOF 15
ENDMDL
MODEL 2
REMARK VINA RESULT: -8.814571478      0.841      1.501
REMARK  15 active torsions:
REMARK  status: ('A' for Active; 'I' for Inactive)
REMARK    1  A    between atoms: O1_2  and  C2_3 
REMARK    2  A    between atoms: C4_5  and  N1_6 
REMARK    3  A    between atoms: N1_6  and  C5_8 
REMARK    4  A    between atoms: C8_13  and  N3_14 
REMARK    5  A    between atoms: N3_14  and  C9_16 
REMARK    6  A    between atoms: C9_16  and  C10_17 
REMARK    7  A    between atoms: C10_17  and  C11_18 
REMARK    8  A    between atoms: C11_18  and  N4_19 
REMARK    9  A    between atoms: C17_28  and  O2_29 
REMARK   10  A    between atoms: C19_31  and  O3_32 
REMARK   11  A    between atoms: O3_32  and  C20_33 
REMARK   12  A    between atoms: C25_39  and  O5_40 
REMARK   13  A    between atoms: O5_40  and  C26_41 
REMARK   14  A    between atoms: C26_41  and  C27_42 
REMARK   15  A    between atoms: C27_42  and  N7_43 
ROOT
HETATM    1  C2  UNL     1      15.726  21.730  15.457  1.00  0.00     0.106 A 
HETATM    2  C3  UNL     1      14.540  21.201  15.871  1.00  0.00     0.072 A 
HETATM    3  C4  UNL     1      14.113  21.291  17.168  1.00  0.00     0.088 A 
HETATM    4  C17 UNL     1      14.945  21.950  18.057  1.00  0.00     0.132 A 
HETATM    5  C19 UNL     1      16.171  22.511  17.700  1.00  0.00     0.141 A 
HETATM    6  C25 UNL     1      16.558  22.394  16.387  1.00  0.00     0.138 A 
ENDROOT
BRANCH   3   7
HETATM    7  N1  UNL     1      12.874  20.712  17.567  1.00  0.00    -0.189 N 
ATOM      8  H1  UNL     1      12.068  21.332  17.647  1.00  0.00     0.184 HD
BRANCH   7   9
HETATM    9  C5  UNL     1      12.693  19.469  17.834  1.00  0.00     0.684 A 
HETATM   10  N2  UNL     1      13.635  18.666  18.365  1.00  0.00    -0.202 N 
HETATM   11  C6  UNL     1      13.410  17.359  18.637  1.00  0.00     0.110 A 
ATOM     12  H2  UNL     1      14.553  19.058  18.571  1.00  0.00     0.183 HD
HETATM   13  C7  UNL     1      12.180  16.787  18.372  1.00  0.00     0.066 A 
HETATM   14  C8  UNL     1      11.210  17.623  17.823  1.00  0.00     0.118 A 
HETATM   15  N6  UNL     1      11.488  18.914  17.574  1.00  0.00    -0.177 N 
ATOM     16  H6  UNL     1      10.758  19.501  17.171  1.00  0.00     0.186 HD
BRANCH  14  17
HETATM   17  N3  UNL     1      10.034  17.122  17.559  1.00  0.00    -0.376 N 
ATOM     18  H3  UNL     1       9.181  17.626  17.801  1.00  0.00     0.161 HD
BRANCH  17  19
HETATM   19  C9  UNL     1       9.981  15.848  16.922  1.00  0.00     0.123 C 
BRANCH  19  20
HETATM   20  C10 UNL     1      10.586  15.805  15.546  1.00  0.00     0.050 C 
BRANCH  20  21
HETATM   21  C11 UNL     1       9.965  16.812  14.614  1.00  0.00     0.274 C 
BRANCH  21  22
HETATM   22  N4  UNL     1      10.860  17.840  14.198  1.00  0.00     0.091 N 
HETATM   23  C12 UNL     1      11.675  17.388  13.124  1.00  0.00     0.302 C 
HETATM   24  C13 UNL     1      12.622  18.455  12.609  1.00  0.00     0.302 C 
HETATM   25  N5  UNL     1      11.797  19.550  12.152  1.00  0.00     0.087 N 
HETATM   26  C14 UNL     1      10.992  19.240  11.013  1.00  0.00     0.310 C 
HETATM   27  C15 UNL     1      11.099  20.104  13.262  1.00  0.00     0.302 C 
HETATM   28  C16 UNL     1      10.312  19.138  14.085  1.00  0.00     0.302 C 
ENDBRANCH  21  22
ENDBRANCH  20  21
ENDBRANCH  19  20
ENDBRANCH  17  19
ENDBRANCH  14  17
ENDBRANCH   7   9
ENDBRANCH   3   7
BRANCH   4  29
HETATM   29  O2  UNL     1      14.430  21.998  19.365  1.00  0.00    -0.351 OA
HETATM   30  C18 UNL     1      14.879  21.051  20.331  1.00  0.00     0.210 C 
ENDBRANCH   4  29
BRANCH   1  31
HETATM   31  O1  UNL     1      16.121  21.617  14.109  1.00  0.00    -0.353 OA
HETATM   32  C1  UNL     1      15.149  21.493  13.114  1.00  0.00     0.210 C 
ENDBRANCH   1  31
BRANCH   5  33
HETATM   33  O3  UNL     1      16.914  23.142  18.625  1.00  0.00    -0.333 OA
BRANCH  33  34
HETATM   34  C20 UNL     1      17.683  22.791  19.693  1.00  0.00     0.198 C 
HETATM   35  C21 UNL     1      18.172  24.125  20.349  1.00  0.00     0.041 C 
HETATM   36  C22 UNL     1      19.140  24.625  19.283  1.00  0.00     0.010 C 
HETATM   37  C23 UNL     1      19.817  23.342  18.808  1.00  0.00     0.081 C 
HETATM   38  C24 UNL     1      19.047  22.235  19.425  1.00  0.00     0.156 C 
HETATM   39  O4  UNL     1      19.427  21.135  19.663  1.00  0.00    -0.295 OA
ENDBRANCH  33  34
ENDBRANCH   5  33
BRANCH   6  40
HETATM   40  O5  UNL     1      17.713  22.880  15.829  1.00  0.00    -0.344 OA
BRANCH  40  41
HETATM   41  C26 UNL     1      17.855  24.032  15.094  1.00  0.00     0.195 C 
BRANCH  41  42
HETATM   42  C27 UNL     1      18.041  25.249  15.923  1.00  0.00     0.143 C 
BRANCH  42  43
HETATM   43  N7  UNL     1      19.162  26.068  15.547  1.00  0.00    -0.410 N 
HETATM   44  C28 UNL     1      20.414  25.430  15.750  1.00  0.00     0.117 C 
HETATM   45  C29 UNL     1      21.424  25.753  14.667  1.00  0.00     0.019 C 
HETATM   46  C30 UNL     1      21.463  27.213  14.314  1.00  0.00     0.003 C 
HETATM   47  C31 UNL     1      20.158  27.927  14.454  1.00  0.00     0.019 C 
HETATM   48  C32 UNL     1      19.020  26.904  14.421  1.00  0.00     0.117 C 
ENDBRANCH  42  43
ENDBRANCH  41  42
ENDBRANCH  40  41
ENDBRANCH   6  40
TORSDOF 15
ENDMDL
MODEL 3
REMARK VINA RESULT: -8.715490981      2.030      4.365
REMARK  15 active torsions:
REMARK  status: ('A' for Active; 'I' for Inactive)
REMARK    1  A    between atoms: O1_2  and  C2_3 
REMARK    2  A    between atoms: C4_5  and  N1_6 
REMARK    3  A    between atoms: N1_6  and  C5_8 
REMARK    4  A    between atoms: C8_13  and  N3_14 
REMARK    5  A    between atoms: N3_14  and  C9_16 
REMARK    6  A    between atoms: C9_16  and  C10_17 
REMARK    7  A    between atoms: C10_17  and  C11_18 
REMARK    8  A    between atoms: C11_18  and  N4_19 
REMARK    9  A    between atoms: C17_28  and  O2_29 
REMARK   10  A    between atoms: C19_31  and  O3_32 
REMARK   11  A    between atoms: O3_32  and  C20_33 
REMARK   12  A    between atoms: C25_39  and  O5_40 
REMARK   13  A    between atoms: O5_40  and  C26_41 
REMARK   14  A    between atoms: C26_41  and  C27_42 
REMARK   15  A    between atoms: C27_42  and  N7_43 
ROOT
HETATM    1  C2  UNL     1      18.338  24.688  15.522  1.00  0.00     0.106 A 
HETATM    2  C3  UNL     1      17.587  23.698  14.963  1.00  0.00     0.072 A 
HETATM    3  C4  UNL     1      16.888  22.796  15.719  1.00  0.00     0.088 A 
HETATM    4  C17 UNL     1      16.973  22.932  17.094  1.00  0.00     0.132 A 
HETATM    5  C19 UNL     1      17.724  23.921  17.729  1.00  0.00     0.141 A 
HETATM    6  C25 UNL     1      18.410  24.802  16.929  1.00  0.00     0.138 A 
ENDROOT
BRANCH   3   7
HETATM    7  N1  UNL     1      16.126  21.764  15.100  1.00  0.00    -0.189 N 
ATOM      8  H1  UNL     1      16.632  20.954  14.743  1.00  0.00     0.184 HD
BRANCH   7   9
HETATM    9  C5  UNL     1      14.850  21.775  14.956  1.00  0.00     0.684 A 
HETATM   10  N2  UNL     1      14.114  22.896  14.838  1.00  0.00    -0.202 N 
HETATM   11  C6  UNL     1      12.768  22.872  14.684  1.00  0.00     0.110 A 
ATOM     12  H2  UNL     1      14.587  23.799  14.864  1.00  0.00     0.183 HD
HETATM   13  C7  UNL     1      12.086  21.672  14.644  1.00  0.00     0.066 A 
HETATM   14  C8  UNL     1      12.854  20.515  14.767  1.00  0.00     0.118 A 
HETATM   15  N6  UNL     1      14.187  20.598  14.917  1.00  0.00    -0.177 N 
ATOM     16  H6  UNL     1      14.722  19.734  15.005  1.00  0.00     0.186 HD
BRANCH  14  17
HETATM   17  N3  UNL     1      12.248  19.359  14.733  1.00  0.00    -0.376 N 
ATOM     18  H3  UNL     1      12.745  18.512  14.462  1.00  0.00     0.161 HD
BRANCH  17  19
HETATM   19  C9  UNL     1      10.868  19.321  15.090  1.00  0.00     0.123 C 
BRANCH  19  20
HETATM   20  C10 UNL     1      10.543  18.440  16.264  1.00  0.00     0.050 C 
BRANCH  20  21
HETATM   21  C11 UNL     1      10.929  19.067  17.577  1.00  0.00     0.274 C 
BRANCH  21  22
HETATM   22  N4  UNL     1      11.777  18.249  18.380  1.00  0.00     0.091 N 
HETATM   23  C12 UNL     1      13.135  18.641  18.231  1.00  0.00     0.302 C 
HETATM   24  C13 UNL     1      14.084  17.832  19.094  1.00  0.00     0.302 C 
HETATM   25  N5  UNL     1      13.675  18.045  20.463  1.00  0.00     0.087 N 
HETATM   26  C14 UNL     1      13.860  19.384  20.928  1.00  0.00     0.310 C 
HETATM   27  C15 UNL     1      12.370  17.508  20.651  1.00  0.00     0.302 C 
HETATM   28  C16 UNL     1      11.327  17.981  19.693  1.00  0.00     0.302 C 
ENDBRANCH  21  22
ENDBRANCH  20  21
ENDBRANCH  19  20
ENDBRANCH  17  19
ENDBRANCH  14  17
ENDBRANCH   7   9
ENDBRANCH   3   7
BRANCH   4  29
HETATM   29  O2  UNL     1      16.224  21.970  17.793  1.00  0.00    -0.351 OA
HETATM   30  C18 UNL     1      16.776  20.673  18.010  1.00  0.00     0.210 C 
ENDBRANCH   4  29
BRANCH   1  31
HETATM   31  O1  UNL     1      19.037  25.596  14.701  1.00  0.00    -0.353 OA
HETATM   32  C1  UNL     1      18.372  26.708  14.180  1.00  0.00     0.210 C 
ENDBRANCH   1  31
BRANCH   5  33
HETATM   33  O3  UNL     1      17.746  23.989  19.071  1.00  0.00    -0.333 OA
BRANCH  33  34
HETATM   34  C20 UNL     1      18.098  23.172  20.103  1.00  0.00     0.198 C 
HETATM   35  C21 UNL     1      18.466  24.104  21.305  1.00  0.00     0.041 C 
HETATM   36  C22 UNL     1      19.764  24.721  20.797  1.00  0.00     0.010 C 
HETATM   37  C23 UNL     1      20.443  23.551  20.089  1.00  0.00     0.081 C 
HETATM   38  C24 UNL     1      19.422  22.477  20.029  1.00  0.00     0.156 C 
HETATM   39  O4  UNL     1      19.608  21.307  19.944  1.00  0.00    -0.295 OA
ENDBRANCH  33  34
ENDBRANCH   5  33
BRANCH   6  40
HETATM   40  O5  UNL     1      19.195  25.847  17.348  1.00  0.00    -0.344 OA
BRANCH  40  41
HETATM   41  C26 UNL     1      20.559  25.842  17.512  1.00  0.00     0.195 C 
BRANCH  41  42
HETATM   42  C27 UNL     1      21.104  27.126  18.017  1.00  0.00     0.143 C 
BRANCH  42  43
HETATM   43  N7  UNL     1      22.109  27.723  17.181  1.00  0.00    -0.410 N 
HETATM   44  C28 UNL     1      23.405  27.182  17.389  1.00  0.00     0.117 C 
HETATM   45  C29 UNL     1      24.207  27.059  16.109  1.00  0.00     0.019 C 
HETATM   46  C30 UNL     1      24.121  28.283  15.240  1.00  0.00     0.003 C 
HETATM   47  C31 UNL     1      22.827  29.024  15.326  1.00  0.00     0.019 C 
HETATM   48  C32 UNL     1      21.746  28.084  15.868  1.00  0.00     0.117 C 
ENDBRANCH  42  43
ENDBRANCH  41  42
ENDBRANCH  40  41
ENDBRANCH   6  40
TORSDOF 15
ENDMDL
MODEL 4
REMARK VINA RESULT: -8.689642960      2.887     11.186
REMARK  15 active torsions:
REMARK  status: ('A' for Active; 'I' for Inactive)
REMARK    1  A    between atoms: O1_2  and  C2_3 
REMARK    2  A    between atoms: C4_5  and  N1_6 
REMARK    3  A    between atoms: N1_6  and  C5_8 
REMARK    4  A    between atoms: C8_13  and  N3_14 
REMARK    5  A    between atoms: N3_14  and  C9_16 
REMARK    6  A    between atoms: C9_16  and  C10_17 
REMARK    7  A    between atoms: C10_17  and  C11_18 
REMARK    8  A    between atoms: C11_18  and  N4_19 
REMARK    9  A    between atoms: C17_28  and  O2_29 
REMARK   10  A    between atoms: C19_31  and  O3_32 
REMARK   11  A    between atoms: O3_32  and  C20_33 
REMARK   12  A    between atoms: C25_39  and  O5_40 
REMARK   13  A    between atoms: O5_40  and  C26_41 
REMARK   14  A    between atoms: C26_41  and  C27_42 
REMARK   15  A    between atoms: C27_42  and  N7_43 
ROOT
HETATM    1  C2  UNL     1      18.557  22.361  18.468  1.00  0.00     0.106 A 
HETATM    2  C3  UNL     1      19.179  23.574  18.455  1.00  0.00     0.072 A 
HETATM    3  C4  UNL     1      18.662  24.653  17.791  1.00  0.00     0.088 A 
HETATM    4  C17 UNL     1      17.464  24.463  17.124  1.00  0.00     0.132 A 
HETATM    5  C19 UNL     1      16.778  23.249  17.095  1.00  0.00     0.141 A 
HETATM    6  C25 UNL     1      17.336  22.194  17.775  1.00  0.00     0.138 A 
ENDROOT
BRANCH   3   7
HETATM    7  N1  UNL     1      19.348  25.902  17.787  1.00  0.00    -0.189 N 
ATOM      8  H1  UNL     1      18.962  26.653  18.358  1.00  0.00     0.184 HD
BRANCH   7   9
HETATM    9  C5  UNL     1      20.416  26.153  17.119  1.00  0.00     0.684 A 
HETATM   10  N2  UNL     1      20.586  25.838  15.822  1.00  0.00    -0.202 N 
HETATM   11  C6  UNL     1      21.725  26.121  15.146  1.00  0.00     0.110 A 
ATOM     12  H2  UNL     1      19.828  25.369  15.327  1.00  0.00     0.183 HD
HETATM   13  C7  UNL     1      22.778  26.755  15.776  1.00  0.00     0.066 A 
HETATM   14  C8  UNL     1      22.596  27.079  17.120  1.00  0.00     0.118 A 
HETATM   15  N6  UNL     1      21.444  26.775  17.740  1.00  0.00    -0.177 N 
ATOM     16  H6  UNL     1      21.340  27.024  18.724  1.00  0.00     0.186 HD
BRANCH  14  17
HETATM   17  N3  UNL     1      23.566  27.680  17.752  1.00  0.00    -0.376 N 
ATOM     18  H3  UNL     1      23.432  28.600  18.171  1.00  0.00     0.161 HD
BRANCH  17  19
HETATM   19  C9  UNL     1      24.821  27.007  17.840  1.00  0.00     0.123 C 
BRANCH  19  20
HETATM   20  C10 UNL     1      25.179  26.516  19.215  1.00  0.00     0.050 C 
BRANCH  20  21
HETATM   21  C11 UNL     1      24.652  25.131  19.486  1.00  0.00     0.274 C 
BRANCH  21  22
HETATM   22  N4  UNL     1      23.681  25.077  20.528  1.00  0.00     0.091 N 
HETATM   23  C12 UNL     1      23.859  26.159  21.432  1.00  0.00     0.302 C 
HETATM   24  C13 UNL     1      22.827  26.180  22.543  1.00  0.00     0.302 C 
HETATM   25  N5  UNL     1      21.538  26.303  21.903  1.00  0.00     0.087 N 
HETATM   26  C14 UNL     1      21.333  27.549  21.234  1.00  0.00     0.310 C 
HETATM   27  C15 UNL     1      21.292  25.140  21.119  1.00  0.00     0.302 C 
HETATM   28  C16 UNL     1      22.356  24.782  20.134  1.00  0.00     0.302 C 
ENDBRANCH  21  22
ENDBRANCH  20  21
ENDBRANCH  19  20
ENDBRANCH  17  19
ENDBRANCH  14  17
ENDBRANCH   7   9
ENDBRANCH   3   7
BRANCH   4  29
HETATM   29  O2  UNL     1      17.003  25.621  16.472  1.00  0.00    -0.351 OA
HETATM   30  C18 UNL     1      17.331  25.831  15.101  1.00  0.00     0.210 C 
ENDBRANCH   4  29
BRANCH   1  31
HETATM   31  O1  UNL     1      19.126  21.281  19.170  1.00  0.00    -0.353 OA
HETATM   32  C1  UNL     1      19.850  21.522  20.339  1.00  0.00     0.210 C 
ENDBRANCH   1  31
BRANCH   5  33
HETATM   33  O3  UNL     1      15.614  23.152  16.430  1.00  0.00    -0.333 OA
BRANCH  33  34
HETATM   34  C20 UNL     1      15.211  23.134  15.129  1.00  0.00     0.198 C 
HETATM   35  C21 UNL     1      13.648  23.229  15.144  1.00  0.00     0.041 C 
HETATM   36  C22 UNL     1      13.288  21.862  15.714  1.00  0.00     0.010 C 
HETATM   37  C23 UNL     1      14.309  20.939  15.053  1.00  0.00     0.081 C 
HETATM   38  C24 UNL     1      15.284  21.835  14.388  1.00  0.00     0.156 C 
HETATM   39  O4  UNL     1      15.980  21.584  13.458  1.00  0.00    -0.295 OA
ENDBRANCH  33  34
ENDBRANCH   5  33
BRANCH   6  40
HETATM   40  O5  UNL     1      16.823  20.926  17.881  1.00  0.00    -0.344 OA
BRANCH  40  41
HETATM   41  C26 UNL     1      15.755  20.528  18.648  1.00  0.00     0.195 C 
BRANCH  41  42
HETATM   42  C27 UNL     1      15.130  19.263  18.190  1.00  0.00     0.143 C 
BRANCH  42  43
HETATM   43  N7  UNL     1      13.943  18.884  18.907  1.00  0.00    -0.410 N 
HETATM   44  C28 UNL     1      12.818  19.690  18.590  1.00  0.00     0.117 C 
HETATM   45  C29 UNL     1      11.522  18.903  18.545  1.00  0.00     0.019 C 
HETATM   46  C30 UNL     1      11.367  17.957  19.703  1.00  0.00     0.003 C 
HETATM   47  C31 UNL     1      12.648  17.394  20.228  1.00  0.00     0.019 C 
HETATM   48  C32 UNL     1      13.728  17.513  19.150  1.00  0.00     0.117 C 
ENDBRANCH  42  43
ENDBRANCH  41  42
ENDBRANCH  40  41
ENDBRANCH   6  40
TORSDOF 15
ENDMDL
MODEL 5
REMARK VINA RESULT: -8.639788732      1.127      3.108
REMARK  15 active torsions:
REMARK  status: ('A' for Active; 'I' for Inactive)
REMARK    1  A    between atoms: O1_2  and  C2_3 
REMARK    2  A    between atoms: C4_5  and  N1_6 
REMARK    3  A    between atoms: N1_6  and  C5_8 
REMARK    4  A    between atoms: C8_13  and  N3_14 
REMARK    5  A    between atoms: N3_14  and  C9_16 
REMARK    6  A    between atoms: C9_16  and  C10_17 
REMARK    7  A    between atoms: C10_17  and  C11_18 
REMARK    8  A    between atoms: C11_18  and  N4_19 
REMARK    9  A    between atoms: C17_28  and  O2_29 
REMARK   10  A    between atoms: C19_31  and  O3_32 
REMARK   11  A    between atoms: O3_32  and  C20_33 
REMARK   12  A    between atoms: C25_39  and  O5_40 
REMARK   13  A    between atoms: O5_40  and  C26_41 
REMARK   14  A    between atoms: C26_41  and  C27_42 
REMARK   15  A    between atoms: C27_42  and  N7_43 
ROOT
HETATM    1  C2  UNL     1      15.915  22.300  15.418  1.00  0.00     0.106 A 
HETATM    2  C3  UNL     1      14.745  21.652  15.680  1.00  0.00     0.072 A 
HETATM    3  C4  UNL     1      14.254  21.515  16.950  1.00  0.00     0.088 A 
HETATM    4  C17 UNL     1      15.003  22.069  17.974  1.00  0.00     0.132 A 
HETATM    5  C19 UNL     1      16.208  22.742  17.775  1.00  0.00     0.141 A 
HETATM    6  C25 UNL     1      16.661  22.853  16.483  1.00  0.00     0.138 A 
ENDROOT
BRANCH   3   7
HETATM    7  N1  UNL     1      13.035  20.817  17.188  1.00  0.00    -0.189 N 
ATOM      8  H1  UNL     1      12.818  20.562  18.151  1.00  0.00     0.184 HD
BRANCH   7   9
HETATM    9  C5  UNL     1      12.188  20.484  16.282  1.00  0.00     0.684 A 
HETATM   10  N2  UNL     1      11.345  21.346  15.684  1.00  0.00    -0.202 N 
HETATM   11  C6  UNL     1      10.465  20.962  14.728  1.00  0.00     0.110 A 
ATOM     12  H2  UNL     1      11.368  22.327  15.961  1.00  0.00     0.183 HD
HETATM   13  C7  UNL     1      10.398  19.643  14.323  1.00  0.00     0.066 A 
HETATM   14  C8  UNL     1      11.274  18.755  14.945  1.00  0.00     0.118 A 
HETATM   15  N6  UNL     1      12.127  19.192  15.887  1.00  0.00    -0.177 N 
ATOM     16  H6  UNL     1      12.756  18.519  16.325  1.00  0.00     0.186 HD
BRANCH  14  17
HETATM   17  N3  UNL     1      11.244  17.500  14.590  1.00  0.00    -0.376 N 
ATOM     18  H3  UNL     1      11.887  17.135  13.888  1.00  0.00     0.161 HD
BRANCH  17  19
HETATM   19  C9  UNL     1      10.283  16.654  15.219  1.00  0.00     0.123 C 
BRANCH  19  20
HETATM   20  C10 UNL     1      10.862  15.466  15.937  1.00  0.00     0.050 C 
BRANCH  20  21
HETATM   21  C11 UNL     1      10.797  15.614  17.434  1.00  0.00     0.274 C 
BRANCH  21  22
HETATM   22  N4  UNL     1      11.474  16.766  17.930  1.00  0.00     0.091 N 
HETATM   23  C12 UNL     1      10.674  17.438  18.894  1.00  0.00     0.302 C 
HETATM   24  C13 UNL     1      11.359  18.652  19.490  1.00  0.00     0.302 C 
HETATM   25  N5  UNL     1      12.565  18.173  20.125  1.00  0.00     0.087 N 
HETATM   26  C14 UNL     1      12.336  17.330  21.256  1.00  0.00     0.310 C 
HETATM   27  C15 UNL     1      13.436  17.641  19.132  1.00  0.00     0.302 C 
HETATM   28  C16 UNL     1      12.845  16.604  18.235  1.00  0.00     0.302 C 
ENDBRANCH  21  22
ENDBRANCH  20  21
ENDBRANCH  19  20
ENDBRANCH  17  19
ENDBRANCH  14  17
ENDBRANCH   7   9
ENDBRANCH   3   7
BRANCH   4  29
HETATM   29  O2  UNL     1      14.427  21.886  19.244  1.00  0.00    -0.351 OA
HETATM   30  C18 UNL     1      14.896  20.831  20.081  1.00  0.00     0.210 C 
ENDBRANCH   4  29
BRANCH   1  31
HETATM   31  O1  UNL     1      16.377  22.420  14.092  1.00  0.00    -0.353 OA
HETATM   32  C1  UNL     1      15.639  21.854  13.051  1.00  0.00     0.210 C 
ENDBRANCH   1  31
BRANCH   5  33
HETATM   33  O3  UNL     1      16.869  23.259  18.825  1.00  0.00    -0.333 OA
BRANCH  33  34
HETATM   34  C20 UNL     1      17.628  22.787  19.853  1.00  0.00     0.198 C 
HETATM   35  C21 UNL     1      18.166  24.040  20.623  1.00  0.00     0.041 C 
HETATM   36  C22 UNL     1      19.148  24.598  19.599  1.00  0.00     0.010 C 
HETATM   37  C23 UNL     1      19.777  23.339  19.009  1.00  0.00     0.081 C 
HETATM   38  C24 UNL     1      18.971  22.210  19.529  1.00  0.00     0.156 C 
HETATM   39  O4  UNL     1      19.312  21.080  19.667  1.00  0.00    -0.295 OA
ENDBRANCH  33  34
ENDBRANCH   5  33
BRANCH   6  40
HETATM   40  O5  UNL     1      17.810  23.480  16.070  1.00  0.00    -0.344 OA
BRANCH  40  41
HETATM   41  C26 UNL     1      18.119  24.812  16.206  1.00  0.00     0.195 C 
BRANCH  41  42
HETATM   42  C27 UNL     1      18.243  25.531  14.914  1.00  0.00     0.143 C 
BRANCH  42  43
HETATM   43  N7  UNL     1      19.550  26.066  14.646  1.00  0.00    -0.410 N 
HETATM   44  C28 UNL     1      19.536  27.454  14.348  1.00  0.00     0.117 C 
HETATM   45  C29 UNL     1      20.730  28.193  14.918  1.00  0.00     0.019 C 
HETATM   46  C30 UNL     1      22.030  27.471  14.698  1.00  0.00     0.003 C 
HETATM   47  C31 UNL     1      21.924  25.980  14.678  1.00  0.00     0.019 C 
HETATM   48  C32 UNL     1      20.636  25.560  15.388  1.00  0.00     0.117 C 
ENDBRANCH  42  43
ENDBRANCH  41  42
ENDBRANCH  40  41
ENDBRANCH   6  40
TORSDOF 15
ENDMDL
