MODEL 1
REMARK VINA RESULT: -8.395451251      0.000      0.000
REMARK  14 active torsions:
REMARK  status: ('A' for Active; 'I' for Inactive)
REMARK    1  A    between atoms: C2_2  and  C3_3 
REMARK    2  A    between atoms: C3_3  and  C4_4 
REMARK    3  A    between atoms: C4_4  and  C5_5 
REMARK    4  A    between atoms: C5_5  and  C6_6 
REMARK    5  A    between atoms: C6_6  and  O1_7 
REMARK    6  A    between atoms: O1_7  and  C7_8 
REMARK       I    between atoms: C7_8  and  N1_10 
REMARK    7  A    between atoms: N2_13  and  C10_14 
REMARK    8  A    between atoms: C10_14  and  C11_15 
REMARK    9  A    between atoms: C10_14  and  C21_27 
REMARK   10  A    between atoms: C11_15  and  N3_16 
REMARK   11  A    between atoms: C15_20  and  C16_21 
REMARK       I    between atoms: C21_27  and  N5_29 
REMARK   12  A    between atoms: N5_29  and  C22_31 
REMARK   13  A    between atoms: C23_32  and  C24_33 
REMARK   14  A    between atoms: N6_35  and  C26_36 
ROOT
HETATM    1  N3  UNL     1      20.570  25.197  19.820  1.00  0.00    -0.354 N 
HETATM    2  C12 UNL     1      20.846  23.849  19.527  1.00  0.00     0.065 C 
HETATM    3  C13 UNL     1      21.277  23.105  20.751  1.00  0.00     0.045 C 
HETATM    4  C14 UNL     1      22.675  23.318  21.197  1.00  0.00     0.010 C 
HETATM    5  C15 UNL     1      23.507  24.238  20.378  1.00  0.00    -0.012 C 
HETATM    6  C18 UNL     1      22.947  25.636  20.288  1.00  0.00     0.045 C 
HETATM    7  C19 UNL     1      21.517  25.698  20.779  1.00  0.00     0.195 C 
HETATM    8  C20 UNL     1      21.255  27.073  21.191  1.00  0.00     0.085 C 
HETATM    9  N4  UNL     1      21.029  28.157  21.529  1.00  0.00    -0.195 NA
ENDROOT
BRANCH   1  10
HETATM   10  C11 UNL     1      20.238  26.103  18.796  1.00  0.00     0.110 C 
BRANCH  10  11
HETATM   11  C10 UNL     1      20.542  25.710  17.374  1.00  0.00     0.352 C 
BRANCH  11  12
HETATM   12  N2  UNL     1      19.521  25.866  16.423  1.00  0.00     0.110 N 
HETATM   13  C9  UNL     1      18.170  25.736  16.885  1.00  0.00     0.294 C 
HETATM   14  C8  UNL     1      17.560  24.402  17.007  1.00  0.00     0.158 C 
HETATM   15  N1  UNL     1      18.291  23.271  16.568  1.00  0.00    -0.325 N 
HETATM   16  C7  UNL     1      17.798  21.976  16.803  1.00  0.00     0.362 C 
HETATM   17  C31 UNL     1      19.522  23.450  15.870  1.00  0.00     0.158 C 
HETATM   18  O2  UNL     1      18.416  20.929  16.447  1.00  0.00    -0.238 OA
HETATM   19  C30 UNL     1      19.679  24.876  15.379  1.00  0.00     0.294 C 
BRANCH  16  20
HETATM   20  O1  UNL     1      16.574  21.750  17.453  1.00  0.00    -0.304 OA
BRANCH  20  21
HETATM   21  C6  UNL     1      16.305  20.501  18.059  1.00  0.00     0.180 C 
BRANCH  21  22
HETATM   22  C5  UNL     1      14.960  20.468  18.719  1.00  0.00     0.027 C 
BRANCH  22  23
HETATM   23  C4  UNL     1      14.986  20.673  20.197  1.00  0.00     0.002 C 
BRANCH  23  24
HETATM   24  C3  UNL     1      14.227  19.585  20.908  1.00  0.00    -0.000 C 
BRANCH  24  25
HETATM   25  C2  UNL     1      13.869  18.439  20.004  1.00  0.00    -0.005 C 
HETATM   26  C1  UNL     1      12.679  17.696  20.615  1.00  0.00     0.005 C 
ENDBRANCH  24  25
ENDBRANCH  23  24
ENDBRANCH  22  23
ENDBRANCH  21  22
ENDBRANCH  20  21
ENDBRANCH  16  20
ENDBRANCH  11  12
BRANCH  11  27
HETATM   27  C21 UNL     1      21.674  26.641  17.029  1.00  0.00     0.261 C 
HETATM   28  O3  UNL     1      21.572  27.812  17.514  1.00  0.00    -0.270 OA
HETATM   29  N5  UNL     1      22.794  26.340  16.236  1.00  0.00    -0.319 N 
ATOM     30  H5  UNL     1      22.905  25.407  15.838  1.00  0.00     0.169 HD
BRANCH  29  31
HETATM   31  C22 UNL     1      23.772  27.341  15.991  1.00  0.00     0.127 A 
HETATM   32  C23 UNL     1      24.934  27.521  16.683  1.00  0.00     0.048 A 
HETATM   33  N6  UNL     1      25.787  28.536  16.367  1.00  0.00    -0.301 N 
HETATM   34  C28 UNL     1      25.486  29.375  15.360  1.00  0.00     0.329 A 
HETATM   35  O4  UNL     1      26.321  30.302  15.112  1.00  0.00    -0.246 OA
HETATM   36  N7  UNL     1      24.360  29.234  14.656  1.00  0.00    -0.273 N 
HETATM   37  C29 UNL     1      23.513  28.241  14.957  1.00  0.00     0.278 A 
ATOM     38  H7  UNL     1      24.146  29.879  13.895  1.00  0.00     0.173 HD
HETATM   39  O5  UNL     1      22.446  28.105  14.294  1.00  0.00    -0.265 OA
BRANCH  32  40
HETATM   40  C24 UNL     1      25.324  26.623  17.767  1.00  0.00     0.055 C 
HETATM   41  C25 UNL     1      26.079  25.389  17.280  1.00  0.00     0.011 C 
ENDBRANCH  32  40
BRANCH  33  42
HETATM   42  C26 UNL     1      27.003  28.698  17.116  1.00  0.00     0.129 C 
HETATM   43  C27 UNL     1      26.847  29.669  18.265  1.00  0.00     0.027 C 
ENDBRANCH  33  42
ENDBRANCH  29  31
ENDBRANCH  11  27
ENDBRANCH  10  11
ENDBRANCH   1  10
BRANCH   5  44
HETATM   44  C16 UNL     1      24.924  24.253  20.824  1.00  0.00     0.000 C 
HETATM   45  C17 UNL     1      25.787  23.204  20.209  1.00  0.00     0.005 C 
ENDBRANCH   5  44
TORSDOF 14
ENDMDL
MODEL 2
REMARK VINA RESULT: -8.352065665      1.001      1.723
REMARK  14 active torsions:
REMARK  status: ('A' for Active; 'I' for Inactive)
REMARK    1  A    between atoms: C2_2  and  C3_3 
REMARK    2  A    between atoms: C3_3  and  C4_4 
REMARK    3  A    between atoms: C4_4  and  C5_5 
REMARK    4  A    between atoms: C5_5  and  C6_6 
REMARK    5  A    between atoms: C6_6  and  O1_7 
REMARK    6  A    between atoms: O1_7  and  C7_8 
REMARK       I    between atoms: C7_8  and  N1_10 
REMARK    7  A    between atoms: N2_13  and  C10_14 
REMARK    8  A    between atoms: C10_14  and  C11_15 
REMARK    9  A    between atoms: C10_14  and  C21_27 
REMARK   10  A    between atoms: C11_15  and  N3_16 
REMARK   11  A    between atoms: C15_20  and  C16_21 
REMARK       I    between atoms: C21_27  and  N5_29 
REMARK   12  A    between atoms: N5_29  and  C22_31 
REMARK   13  A    between atoms: C23_32  and  C24_33 
REMARK   14  A    between atoms: N6_35  and  C26_36 
ROOT
HETATM    1  N3  UNL     1      21.508  24.914  19.568  1.00  0.00    -0.354 N 
HETATM    2  C12 UNL     1      22.910  25.041  19.577  1.00  0.00     0.065 C 
HETATM    3  C13 UNL     1      23.525  24.177  20.631  1.00  0.00     0.045 C 
HETATM    4  C14 UNL     1      23.447  24.675  22.025  1.00  0.00     0.010 C 
HETATM    5  C15 UNL     1      22.777  25.985  22.232  1.00  0.00    -0.012 C 
HETATM    6  C18 UNL     1      21.342  26.006  21.768  1.00  0.00     0.045 C 
HETATM    7  C19 UNL     1      21.013  24.802  20.913  1.00  0.00     0.195 C 
HETATM    8  C20 UNL     1      19.570  24.594  20.985  1.00  0.00     0.085 C 
HETATM    9  N4  UNL     1      18.429  24.408  21.036  1.00  0.00    -0.195 NA
ENDROOT
BRANCH   1  10
HETATM   10  C11 UNL     1      20.719  25.710  18.717  1.00  0.00     0.110 C 
BRANCH  10  11
HETATM   11  C10 UNL     1      20.889  25.543  17.229  1.00  0.00     0.352 C 
BRANCH  11  12
HETATM   12  N2  UNL     1      19.781  25.821  16.412  1.00  0.00     0.110 N 
HETATM   13  C9  UNL     1      18.486  25.757  17.022  1.00  0.00     0.294 C 
HETATM   14  C8  UNL     1      17.796  24.463  17.151  1.00  0.00     0.158 C 
HETATM   15  N1  UNL     1      18.387  23.312  16.576  1.00  0.00    -0.325 N 
HETATM   16  C7  UNL     1      17.830  22.041  16.804  1.00  0.00     0.362 C 
HETATM   17  C31 UNL     1      19.542  23.445  15.748  1.00  0.00     0.158 C 
HETATM   18  O2  UNL     1      18.325  20.977  16.329  1.00  0.00    -0.238 OA
HETATM   19  C30 UNL     1      19.746  24.883  15.311  1.00  0.00     0.294 C 
BRANCH  16  20
HETATM   20  O1  UNL     1      16.674  21.863  17.581  1.00  0.00    -0.304 OA
BRANCH  20  21
HETATM   21  C6  UNL     1      16.688  20.994  18.696  1.00  0.00     0.180 C 
BRANCH  21  22
HETATM   22  C5  UNL     1      15.358  20.341  18.924  1.00  0.00     0.027 C 
BRANCH  22  23
HETATM   23  C4  UNL     1      14.683  20.728  20.197  1.00  0.00     0.002 C 
BRANCH  23  24
HETATM   24  C3  UNL     1      14.300  19.514  20.998  1.00  0.00    -0.000 C 
BRANCH  24  25
HETATM   25  C2  UNL     1      13.745  18.406  20.148  1.00  0.00    -0.005 C 
HETATM   26  C1  UNL     1      12.458  17.896  20.800  1.00  0.00     0.005 C 
ENDBRANCH  24  25
ENDBRANCH  23  24
ENDBRANCH  22  23
ENDBRANCH  21  22
ENDBRANCH  20  21
ENDBRANCH  16  20
ENDBRANCH  11  12
BRANCH  11  27
HETATM   27  C21 UNL     1      21.978  26.538  16.927  1.00  0.00     0.261 C 
HETATM   28  O3  UNL     1      21.787  27.703  17.401  1.00  0.00    -0.270 OA
HETATM   29  N5  UNL     1      23.146  26.302  16.183  1.00  0.00    -0.319 N 
ATOM     30  H5  UNL     1      23.329  25.376  15.796  1.00  0.00     0.169 HD
BRANCH  29  31
HETATM   31  C22 UNL     1      24.072  27.358  15.973  1.00  0.00     0.127 A 
HETATM   32  C23 UNL     1      25.221  27.576  16.678  1.00  0.00     0.048 A 
HETATM   33  N6  UNL     1      26.022  28.642  16.398  1.00  0.00    -0.301 N 
HETATM   34  C28 UNL     1      25.684  29.494  15.413  1.00  0.00     0.329 A 
HETATM   35  O4  UNL     1      26.472  30.469  15.198  1.00  0.00    -0.246 OA
HETATM   36  N7  UNL     1      24.570  29.317  14.698  1.00  0.00    -0.273 N 
HETATM   37  C29 UNL     1      23.773  28.274  14.964  1.00  0.00     0.278 A 
ATOM     38  H7  UNL     1      24.327  29.972  13.955  1.00  0.00     0.173 HD
HETATM   39  O5  UNL     1      22.718  28.103  14.291  1.00  0.00    -0.265 OA
BRANCH  32  40
HETATM   40  C24 UNL     1      25.651  26.668  17.738  1.00  0.00     0.055 C 
HETATM   41  C25 UNL     1      26.320  25.404  17.207  1.00  0.00     0.011 C 
ENDBRANCH  32  40
BRANCH  33  42
HETATM   42  C26 UNL     1      27.225  28.844  17.158  1.00  0.00     0.129 C 
HETATM   43  C27 UNL     1      27.012  29.770  18.336  1.00  0.00     0.027 C 
ENDBRANCH  33  42
ENDBRANCH  29  31
ENDBRANCH  11  27
ENDBRANCH  10  11
ENDBRANCH   1  10
BRANCH   5  44
HETATM   44  C16 UNL     1      22.896  26.455  23.637  1.00  0.00     0.000 C 
HETATM   45  C17 UNL     1      21.788  27.342  24.097  1.00  0.00     0.005 C 
ENDBRANCH   5  44
TORSDOF 14
ENDMDL
MODEL 3
REMARK VINA RESULT: -8.127524619      1.576      2.306
REMARK  14 active torsions:
REMARK  status: ('A' for Active; 'I' for Inactive)
REMARK    1  A    between atoms: C2_2  and  C3_3 
REMARK    2  A    between atoms: C3_3  and  C4_4 
REMARK    3  A    between atoms: C4_4  and  C5_5 
REMARK    4  A    between atoms: C5_5  and  C6_6 
REMARK    5  A    between atoms: C6_6  and  O1_7 
REMARK    6  A    between atoms: O1_7  and  C7_8 
REMARK       I    between atoms: C7_8  and  N1_10 
REMARK    7  A    between atoms: N2_13  and  C10_14 
REMARK    8  A    between atoms: C10_14  and  C11_15 
REMARK    9  A    between atoms: C10_14  and  C21_27 
REMARK   10  A    between atoms: C11_15  and  N3_16 
REMARK   11  A    between atoms: C15_20  and  C16_21 
REMARK       I    between atoms: C21_27  and  N5_29 
REMARK   12  A    between atoms: N5_29  and  C22_31 
REMARK   13  A    between atoms: C23_32  and  C24_33 
REMARK   14  A    between atoms: N6_35  and  C26_36 
ROOT
HETATM    1  N3  UNL     1      20.680  25.293  19.828  1.00  0.00    -0.354 N 
HETATM    2  C12 UNL     1      21.025  23.959  19.543  1.00  0.00     0.065 C 
HETATM    3  C13 UNL     1      21.465  23.238  20.777  1.00  0.00     0.045 C 
HETATM    4  C14 UNL     1      22.841  23.516  21.252  1.00  0.00     0.010 C 
HETATM    5  C15 UNL     1      23.647  24.474  20.449  1.00  0.00    -0.012 C 
HETATM    6  C18 UNL     1      23.023  25.844  20.345  1.00  0.00     0.045 C 
HETATM    7  C19 UNL     1      21.582  25.839  20.806  1.00  0.00     0.195 C 
HETATM    8  C20 UNL     1      21.247  27.201  21.209  1.00  0.00     0.085 C 
HETATM    9  N4  UNL     1      20.964  28.273  21.541  1.00  0.00    -0.195 NA
ENDROOT
BRANCH   1  10
HETATM   10  C11 UNL     1      20.327  26.182  18.796  1.00  0.00     0.110 C 
BRANCH  10  11
HETATM   11  C10 UNL     1      20.636  25.780  17.377  1.00  0.00     0.352 C 
BRANCH  11  12
HETATM   12  N2  UNL     1      19.619  25.932  16.421  1.00  0.00     0.110 N 
HETATM   13  C9  UNL     1      18.266  25.798  16.877  1.00  0.00     0.294 C 
HETATM   14  C8  UNL     1      17.660  24.463  16.998  1.00  0.00     0.158 C 
HETATM   15  N1  UNL     1      18.396  23.334  16.564  1.00  0.00    -0.325 N 
HETATM   16  C7  UNL     1      17.906  22.037  16.797  1.00  0.00     0.362 C 
HETATM   17  C31 UNL     1      19.630  23.515  15.871  1.00  0.00     0.158 C 
HETATM   18  O2  UNL     1      18.528  20.992  16.445  1.00  0.00    -0.238 OA
HETATM   19  C30 UNL     1      19.784  24.942  15.379  1.00  0.00     0.294 C 
BRANCH  16  20
HETATM   20  O1  UNL     1      16.679  21.808  17.442  1.00  0.00    -0.304 OA
BRANCH  20  21
HETATM   21  C6  UNL     1      15.558  21.356  16.708  1.00  0.00     0.180 C 
BRANCH  21  22
HETATM   22  C5  UNL     1      14.601  22.465  16.393  1.00  0.00     0.027 C 
BRANCH  22  23
HETATM   23  C4  UNL     1      14.559  22.864  14.956  1.00  0.00     0.002 C 
BRANCH  23  24
HETATM   24  C3  UNL     1      15.572  22.095  14.152  1.00  0.00    -0.000 C 
BRANCH  24  25
HETATM   25  C2  UNL     1      14.971  21.414  12.955  1.00  0.00    -0.005 C 
HETATM   26  C1  UNL     1      14.089  20.264  13.445  1.00  0.00     0.005 C 
ENDBRANCH  24  25
ENDBRANCH  23  24
ENDBRANCH  22  23
ENDBRANCH  21  22
ENDBRANCH  20  21
ENDBRANCH  16  20
ENDBRANCH  11  12
BRANCH  11  27
HETATM   27  C21 UNL     1      21.771  26.707  17.031  1.00  0.00     0.261 C 
HETATM   28  O3  UNL     1      21.656  27.889  17.487  1.00  0.00    -0.270 OA
HETATM   29  N5  UNL     1      22.906  26.393  16.264  1.00  0.00    -0.319 N 
ATOM     30  H5  UNL     1      23.027  25.451  15.890  1.00  0.00     0.169 HD
BRANCH  29  31
HETATM   31  C22 UNL     1      23.884  27.392  16.013  1.00  0.00     0.127 A 
HETATM   32  C23 UNL     1      25.035  27.590  16.720  1.00  0.00     0.048 A 
HETATM   33  N6  UNL     1      25.889  28.601  16.397  1.00  0.00    -0.301 N 
HETATM   34  C28 UNL     1      25.602  29.418  15.367  1.00  0.00     0.329 A 
HETATM   35  O4  UNL     1      26.438  30.342  15.113  1.00  0.00    -0.246 OA
HETATM   36  N7  UNL     1      24.487  29.258  14.649  1.00  0.00    -0.273 N 
HETATM   37  C29 UNL     1      23.638  28.269  14.957  1.00  0.00     0.278 A 
ATOM     38  H7  UNL     1      24.284  29.886  13.871  1.00  0.00     0.173 HD
HETATM   39  O5  UNL     1      22.583  28.115  14.280  1.00  0.00    -0.265 OA
BRANCH  32  40
HETATM   40  C24 UNL     1      25.410  26.716  17.828  1.00  0.00     0.055 C 
HETATM   41  C25 UNL     1      26.015  25.393  17.369  1.00  0.00     0.011 C 
ENDBRANCH  32  40
BRANCH  33  42
HETATM   42  C26 UNL     1      27.093  28.783  17.160  1.00  0.00     0.129 C 
HETATM   43  C27 UNL     1      26.917  29.783  18.282  1.00  0.00     0.027 C 
ENDBRANCH  33  42
ENDBRANCH  29  31
ENDBRANCH  11  27
ENDBRANCH  10  11
ENDBRANCH   1  10
BRANCH   5  44
HETATM   44  C16 UNL     1      25.052  24.556  20.925  1.00  0.00     0.000 C 
HETATM   45  C17 UNL     1      25.366  25.761  21.747  1.00  0.00     0.005 C 
ENDBRANCH   5  44
TORSDOF 14
ENDMDL
MODEL 4
REMARK VINA RESULT: -7.826450192      1.554      2.651
REMARK  14 active torsions:
REMARK  status: ('A' for Active; 'I' for Inactive)
REMARK    1  A    between atoms: C2_2  and  C3_3 
REMARK    2  A    between atoms: C3_3  and  C4_4 
REMARK    3  A    between atoms: C4_4  and  C5_5 
REMARK    4  A    between atoms: C5_5  and  C6_6 
REMARK    5  A    between atoms: C6_6  and  O1_7 
REMARK    6  A    between atoms: O1_7  and  C7_8 
REMARK       I    between atoms: C7_8  and  N1_10 
REMARK    7  A    between atoms: N2_13  and  C10_14 
REMARK    8  A    between atoms: C10_14  and  C11_15 
REMARK    9  A    between atoms: C10_14  and  C21_27 
REMARK   10  A    between atoms: C11_15  and  N3_16 
REMARK   11  A    between atoms: C15_20  and  C16_21 
REMARK       I    between atoms: C21_27  and  N5_29 
REMARK   12  A    between atoms: N5_29  and  C22_31 
REMARK   13  A    between atoms: C23_32  and  C24_33 
REMARK   14  A    between atoms: N6_35  and  C26_36 
ROOT
HETATM    1  N3  UNL     1      21.451  24.880  19.582  1.00  0.00    -0.354 N 
HETATM    2  C12 UNL     1      22.855  24.978  19.560  1.00  0.00     0.065 C 
HETATM    3  C13 UNL     1      23.475  24.119  20.615  1.00  0.00     0.045 C 
HETATM    4  C14 UNL     1      23.437  24.641  22.002  1.00  0.00     0.010 C 
HETATM    5  C15 UNL     1      22.799  25.969  22.200  1.00  0.00    -0.012 C 
HETATM    6  C18 UNL     1      21.354  26.012  21.766  1.00  0.00     0.045 C 
HETATM    7  C19 UNL     1      20.983  24.801  20.939  1.00  0.00     0.195 C 
HETATM    8  C20 UNL     1      19.538  24.624  21.045  1.00  0.00     0.085 C 
HETATM    9  N4  UNL     1      18.395  24.463  21.123  1.00  0.00    -0.195 NA
ENDROOT
BRANCH   1  10
HETATM   10  C11 UNL     1      20.661  25.677  18.734  1.00  0.00     0.110 C 
BRANCH  10  11
HETATM   11  C10 UNL     1      20.830  25.516  17.246  1.00  0.00     0.352 C 
BRANCH  11  12
HETATM   12  N2  UNL     1      19.722  25.796  16.430  1.00  0.00     0.110 N 
HETATM   13  C9  UNL     1      18.426  25.729  17.040  1.00  0.00     0.294 C 
HETATM   14  C8  UNL     1      17.739  24.433  17.162  1.00  0.00     0.158 C 
HETATM   15  N1  UNL     1      18.331  23.285  16.582  1.00  0.00    -0.325 N 
HETATM   16  C7  UNL     1      17.775  22.013  16.804  1.00  0.00     0.362 C 
HETATM   17  C31 UNL     1      19.485  23.423  15.755  1.00  0.00     0.158 C 
HETATM   18  O2  UNL     1      18.270  20.952  16.324  1.00  0.00    -0.238 OA
HETATM   19  C30 UNL     1      19.688  24.864  15.324  1.00  0.00     0.294 C 
BRANCH  16  20
HETATM   20  O1  UNL     1      16.618  21.830  17.580  1.00  0.00    -0.304 OA
BRANCH  20  21
HETATM   21  C6  UNL     1      15.870  20.635  17.479  1.00  0.00     0.180 C 
BRANCH  21  22
HETATM   22  C5  UNL     1      14.398  20.893  17.379  1.00  0.00     0.027 C 
BRANCH  22  23
HETATM   23  C4  UNL     1      13.867  20.945  15.986  1.00  0.00     0.002 C 
BRANCH  23  24
HETATM   24  C3  UNL     1      13.739  22.366  15.508  1.00  0.00    -0.000 C 
BRANCH  24  25
HETATM   25  C2  UNL     1      14.219  22.552  14.096  1.00  0.00    -0.005 C 
HETATM   26  C1  UNL     1      15.385  21.592  13.852  1.00  0.00     0.005 C 
ENDBRANCH  24  25
ENDBRANCH  23  24
ENDBRANCH  22  23
ENDBRANCH  21  22
ENDBRANCH  20  21
ENDBRANCH  16  20
ENDBRANCH  11  12
BRANCH  11  27
HETATM   27  C21 UNL     1      21.919  26.512  16.947  1.00  0.00     0.261 C 
HETATM   28  O3  UNL     1      21.751  27.662  17.464  1.00  0.00    -0.270 OA
HETATM   29  N5  UNL     1      23.064  26.291  16.163  1.00  0.00    -0.319 N 
ATOM     30  H5  UNL     1      23.228  25.377  15.741  1.00  0.00     0.169 HD
BRANCH  29  31
HETATM   31  C22 UNL     1      23.994  27.347  15.964  1.00  0.00     0.127 A 
HETATM   32  C23 UNL     1      25.138  27.560  16.676  1.00  0.00     0.048 A 
HETATM   33  N6  UNL     1      25.943  28.626  16.405  1.00  0.00    -0.301 N 
HETATM   34  C28 UNL     1      25.612  29.482  15.421  1.00  0.00     0.329 A 
HETATM   35  O4  UNL     1      26.403  30.457  15.215  1.00  0.00    -0.246 OA
HETATM   36  N7  UNL     1      24.502  29.310  14.699  1.00  0.00    -0.273 N 
HETATM   37  C29 UNL     1      23.702  28.267  14.956  1.00  0.00     0.278 A 
ATOM     38  H7  UNL     1      24.265  29.968  13.957  1.00  0.00     0.173 HD
HETATM   39  O5  UNL     1      22.651  28.101  14.276  1.00  0.00    -0.265 OA
BRANCH  32  40
HETATM   40  C24 UNL     1      25.561  26.647  17.734  1.00  0.00     0.055 C 
HETATM   41  C25 UNL     1      26.199  25.368  17.202  1.00  0.00     0.011 C 
ENDBRANCH  32  40
BRANCH  33  42
HETATM   42  C26 UNL     1      27.142  28.822  17.173  1.00  0.00     0.129 C 
HETATM   43  C27 UNL     1      26.953  29.829  18.286  1.00  0.00     0.027 C 
ENDBRANCH  33  42
ENDBRANCH  29  31
ENDBRANCH  11  27
ENDBRANCH  10  11
ENDBRANCH   1  10
BRANCH   5  44
HETATM   44  C16 UNL     1      22.956  26.460  23.594  1.00  0.00     0.000 C 
HETATM   45  C17 UNL     1      21.841  27.319  24.086  1.00  0.00     0.005 C 
ENDBRANCH   5  44
TORSDOF 14
ENDMDL
MODEL 5
REMARK VINA RESULT: -7.748911252      4.138      8.606
REMARK  14 active torsions:
REMARK  status: ('A' for Active; 'I' for Inactive)
REMARK    1  A    between atoms: C2_2  and  C3_3 
REMARK    2  A    between atoms: C3_3  and  C4_4 
REMARK    3  A    between atoms: C4_4  and  C5_5 
REMARK    4  A    between atoms: C5_5  and  C6_6 
REMARK    5  A    between atoms: C6_6  and  O1_7 
REMARK    6  A    between atoms: O1_7  and  C7_8 
REMARK       I    between atoms: C7_8  and  N1_10 
REMARK    7  A    between atoms: N2_13  and  C10_14 
REMARK    8  A    between atoms: C10_14  and  C11_15 
REMARK    9  A    between atoms: C10_14  and  C21_27 
REMARK   10  A    between atoms: C11_15  and  N3_16 
REMARK   11  A    between atoms: C15_20  and  C16_21 
REMARK       I    between atoms: C21_27  and  N5_29 
REMARK   12  A    between atoms: N5_29  and  C22_31 
REMARK   13  A    between atoms: C23_32  and  C24_33 
REMARK   14  A    between atoms: N6_35  and  C26_36 
ROOT
HETATM    1  N3  UNL     1      14.264  19.764  17.176  1.00  0.00    -0.354 N 
HETATM    2  C12 UNL     1      15.323  19.178  17.894  1.00  0.00     0.065 C 
HETATM    3  C13 UNL     1      14.982  17.786  18.324  1.00  0.00     0.045 C 
HETATM    4  C14 UNL     1      14.084  17.656  19.496  1.00  0.00     0.010 C 
HETATM    5  C15 UNL     1      13.624  18.919  20.131  1.00  0.00    -0.012 C 
HETATM    6  C18 UNL     1      12.855  19.818  19.194  1.00  0.00     0.045 C 
HETATM    7  C19 UNL     1      13.004  19.381  17.753  1.00  0.00     0.195 C 
HETATM    8  C20 UNL     1      11.850  19.892  17.020  1.00  0.00     0.085 C 
HETATM    9  N4  UNL     1      10.939  20.281  16.422  1.00  0.00    -0.195 NA
ENDROOT
BRANCH   1  10
HETATM   10  C11 UNL     1      14.333  21.105  16.757  1.00  0.00     0.110 C 
BRANCH  10  11
HETATM   11  C10 UNL     1      15.164  21.427  15.542  1.00  0.00     0.352 C 
BRANCH  11  12
HETATM   12  N2  UNL     1      14.565  22.190  14.527  1.00  0.00     0.110 N 
HETATM   13  C9  UNL     1      13.137  22.315  14.558  1.00  0.00     0.294 C 
HETATM   14  C8  UNL     1      12.294  21.261  13.969  1.00  0.00     0.158 C 
HETATM   15  N1  UNL     1      12.916  20.185  13.290  1.00  0.00    -0.325 N 
HETATM   16  C7  UNL     1      12.152  19.094  12.843  1.00  0.00     0.362 C 
HETATM   17  C31 UNL     1      14.321  20.220  13.043  1.00  0.00     0.158 C 
HETATM   18  O2  UNL     1      12.656  18.098  12.245  1.00  0.00    -0.238 OA
HETATM   19  C30 UNL     1      14.884  21.615  13.238  1.00  0.00     0.294 C 
BRANCH  16  20
HETATM   20  O1  UNL     1      10.761  19.032  13.030  1.00  0.00    -0.304 OA
BRANCH  20  21
HETATM   21  C6  UNL     1      10.134  17.801  13.334  1.00  0.00     0.180 C 
BRANCH  21  22
HETATM   22  C5  UNL     1      10.393  17.365  14.744  1.00  0.00     0.027 C 
BRANCH  22  23
HETATM   23  C4  UNL     1      10.909  15.972  14.882  1.00  0.00     0.002 C 
BRANCH  23  24
HETATM   24  C3  UNL     1      10.636  15.426  16.257  1.00  0.00    -0.000 C 
BRANCH  24  25
HETATM   25  C2  UNL     1      11.428  16.121  17.328  1.00  0.00    -0.005 C 
HETATM   26  C1  UNL     1      10.452  16.668  18.373  1.00  0.00     0.005 C 
ENDBRANCH  24  25
ENDBRANCH  23  24
ENDBRANCH  22  23
ENDBRANCH  21  22
ENDBRANCH  20  21
ENDBRANCH  16  20
ENDBRANCH  11  12
BRANCH  11  27
HETATM   27  C21 UNL     1      16.297  22.218  16.140  1.00  0.00     0.261 C 
HETATM   28  O3  UNL     1      17.458  21.756  15.902  1.00  0.00    -0.270 OA
HETATM   29  N5  UNL     1      16.186  23.382  16.920  1.00  0.00    -0.319 N 
ATOM     30  H5  UNL     1      15.268  23.778  17.122  1.00  0.00     0.169 HD
BRANCH  29  31
HETATM   31  C22 UNL     1      17.359  24.003  17.425  1.00  0.00     0.127 A 
HETATM   32  C23 UNL     1      17.950  23.753  18.630  1.00  0.00     0.048 A 
HETATM   33  N6  UNL     1      19.067  24.431  19.017  1.00  0.00    -0.301 N 
HETATM   34  C28 UNL     1      19.600  25.361  18.204  1.00  0.00     0.329 A 
HETATM   35  O4  UNL     1      20.642  25.961  18.619  1.00  0.00    -0.246 OA
HETATM   36  N7  UNL     1      19.055  25.636  17.017  1.00  0.00    -0.273 N 
HETATM   37  C29 UNL     1      17.957  24.977  16.625  1.00  0.00     0.278 A 
ATOM     38  H7  UNL     1      19.471  26.344  16.412  1.00  0.00     0.173 HD
HETATM   39  O5  UNL     1      17.437  25.234  15.503  1.00  0.00    -0.265 OA
BRANCH  32  40
HETATM   40  C24 UNL     1      17.431  22.734  19.539  1.00  0.00     0.055 C 
HETATM   41  C25 UNL     1      17.991  21.342  19.262  1.00  0.00     0.011 C 
ENDBRANCH  32  40
BRANCH  33  42
HETATM   42  C26 UNL     1      19.665  24.144  20.291  1.00  0.00     0.129 C 
HETATM   43  C27 UNL     1      20.891  23.267  20.167  1.00  0.00     0.027 C 
ENDBRANCH  33  42
ENDBRANCH  29  31
ENDBRANCH  11  27
ENDBRANCH  10  11
ENDBRANCH   1  10
BRANCH   5  44
HETATM   44  C16 UNL     1      12.862  18.668  21.382  1.00  0.00     0.000 C 
HETATM   45  C17 UNL     1      12.305  17.290  21.511  1.00  0.00     0.005 C 
ENDBRANCH   5  44
TORSDOF 14
ENDMDL
