MODEL 1
REMARK VINA RESULT: -8.829201145      0.000      0.000
REMARK  17 active torsions:
REMARK  status: ('A' for Active; 'I' for Inactive)
REMARK    1  A    between atoms: C2_2  and  C3_3 
REMARK    2  A    between atoms: C3_3  and  C4_4 
REMARK    3  A    between atoms: C7_9  and  C8_10 
REMARK    4  A    between atoms: C8_10  and  C9_11 
REMARK    5  A    between atoms: C10_12  and  N2_13 
REMARK    6  A    between atoms: N3_16  and  C13_17 
REMARK    7  A    between atoms: C13_17  and  O1_18 
REMARK    8  A    between atoms: C13_17  and  C14_20 
REMARK       I    between atoms: C14_20  and  N4_22 
REMARK    9  A    between atoms: N4_22  and  C15_24 
REMARK   10  A    between atoms: C15_24  and  C16_25 
REMARK   11  A    between atoms: N6_33  and  C20_34 
REMARK   12  A    between atoms: C20_34  and  C21_35 
REMARK   13  A    between atoms: C24_38  and  C25_39 
REMARK   14  A    between atoms: C25_39  and  N7_40 
REMARK       I    between atoms: N7_40  and  C27_42 
REMARK   15  A    between atoms: C27_42  and  C28_44 
REMARK   16  A    between atoms: C28_44  and  C29_45 
REMARK   17  A    between atoms: C28_44  and  C31_47 
ROOT
HETATM    1  C4  UNL     1      14.844  22.829  15.441  1.00  0.00     0.022 C 
HETATM    2  C5  UNL     1      15.992  23.506  15.419  1.00  0.00     0.104 A 
HETATM    3  N1  UNL     1      16.169  24.786  15.016  1.00  0.00    -0.350 N 
ATOM      4  H1  UNL     1      15.429  25.399  14.672  1.00  0.00     0.166 HD
HETATM    5  C6  UNL     1      17.461  25.128  15.135  1.00  0.00     0.119 A 
HETATM    6  C7  UNL     1      18.156  24.030  15.635  1.00  0.00     0.052 A 
HETATM    7  N6  UNL     1      17.203  23.068  15.790  1.00  0.00    -0.327 N 
ENDROOT
BRANCH   6   8
HETATM    8  C8  UNL     1      19.452  23.929  15.872  1.00  0.00     0.052 C 
BRANCH   8   9
HETATM    9  C9  UNL     1      20.188  25.180  16.125  1.00  0.00     0.079 A 
HETATM   10  C10 UNL     1      20.406  25.637  17.407  1.00  0.00     0.131 A 
HETATM   11  N3  UNL     1      21.077  26.800  17.633  1.00  0.00    -0.223 N 
HETATM   12  C18 UNL     1      21.493  27.437  16.525  1.00  0.00     0.337 A 
HETATM   13  O3  UNL     1      22.117  28.510  16.590  1.00  0.00    -0.246 OA
HETATM   14  N5  UNL     1      21.282  26.989  15.250  1.00  0.00    -0.274 N 
HETATM   15  C19 UNL     1      20.627  25.854  15.014  1.00  0.00     0.263 A 
ATOM     16  H5  UNL     1      21.634  27.536  14.464  1.00  0.00     0.173 HD
HETATM   17  O4  UNL     1      20.421  25.419  13.848  1.00  0.00    -0.267 OA
BRANCH  10  18
HETATM   18  N2  UNL     1      19.911  24.812  18.443  1.00  0.00    -0.375 N 
HETATM   19  C11 UNL     1      20.829  23.784  18.965  1.00  0.00     0.150 C 
HETATM   20  C12 UNL     1      18.587  24.846  19.002  1.00  0.00     0.150 C 
ENDBRANCH  10  18
BRANCH  11  21
HETATM   21  C13 UNL     1      21.282  27.263  18.947  1.00  0.00     0.222 C 
BRANCH  21  22
HETATM   22  O1  UNL     1      20.466  28.198  19.372  1.00  0.00    -0.342 OA
ATOM     23  H1  UNL     1      20.711  28.642  20.175  1.00  0.00     0.219 HD
ENDBRANCH  21  22
BRANCH  21  24
HETATM   24  C14 UNL     1      22.228  26.922  19.967  1.00  0.00     0.293 C 
HETATM   25  O2  UNL     1      22.145  27.320  21.146  1.00  0.00    -0.264 OA
HETATM   26  N4  UNL     1      23.359  26.070  19.659  1.00  0.00    -0.354 N 
ATOM     27  H4  UNL     1      23.465  25.721  18.706  1.00  0.00     0.162 HD
BRANCH  26  28
HETATM   28  C15 UNL     1      24.332  25.698  20.639  1.00  0.00     0.122 C 
BRANCH  28  29
HETATM   29  C16 UNL     1      24.209  24.300  21.170  1.00  0.00     0.015 C 
HETATM   30  C17 UNL     1      24.156  24.343  22.698  1.00  0.00     0.006 C 
ENDBRANCH  28  29
ENDBRANCH  26  28
ENDBRANCH  21  24
ENDBRANCH  11  21
ENDBRANCH   8   9
ENDBRANCH   6   8
BRANCH   7  31
HETATM   31  C20 UNL     1      17.518  21.733  16.286  1.00  0.00     0.187 C 
BRANCH  31  32
HETATM   32  C21 UNL     1      17.296  21.603  17.745  1.00  0.00     0.028 A 
HETATM   33  C22 UNL     1      18.267  21.281  18.704  1.00  0.00     0.028 A 
HETATM   34  C23 UNL     1      17.689  21.224  19.946  1.00  0.00     0.028 A 
HETATM   35  C24 UNL     1      16.355  21.513  19.757  1.00  0.00     0.027 A 
HETATM   36  N8  UNL     1      16.145  21.739  18.419  1.00  0.00    -0.360 N 
ATOM     37  H8  UNL     1      15.246  21.975  18.000  1.00  0.00     0.165 HD
BRANCH  35  38
HETATM   38  C25 UNL     1      15.329  21.550  20.826  1.00  0.00     0.182 C 
BRANCH  38  39
HETATM   39  N7  UNL     1      14.879  20.148  21.012  1.00  0.00    -0.351 N 
HETATM   40  C26 UNL     1      15.429  19.460  22.132  1.00  0.00     0.153 C 
HETATM   41  C27 UNL     1      13.938  19.587  20.141  1.00  0.00     0.224 C 
HETATM   42  O5  UNL     1      13.434  20.306  19.185  1.00  0.00    -0.273 OA
BRANCH  41  43
HETATM   43  C28 UNL     1      13.483  18.196  20.254  1.00  0.00     0.077 C 
BRANCH  43  44
HETATM   44  C29 UNL     1      13.678  17.443  18.981  1.00  0.00     0.009 C 
HETATM   45  C30 UNL     1      15.125  17.479  18.576  1.00  0.00     0.006 C 
ENDBRANCH  43  44
BRANCH  43  46
HETATM   46  C31 UNL     1      12.006  18.145  20.620  1.00  0.00     0.009 C 
HETATM   47  C32 UNL     1      11.261  17.475  19.514  1.00  0.00     0.006 C 
ENDBRANCH  43  46
ENDBRANCH  41  43
ENDBRANCH  38  39
ENDBRANCH  35  38
ENDBRANCH  31  32
ENDBRANCH   7  31
BRANCH   1  48
HETATM   48  C3  UNL     1      13.624  23.537  14.977  1.00  0.00     0.030 C 
BRANCH  48  49
HETATM   49  C2  UNL     1      12.708  22.647  14.159  1.00  0.00    -0.001 C 
HETATM   50  C1  UNL     1      13.550  21.692  13.349  1.00  0.00     0.005 C 
ENDBRANCH  48  49
ENDBRANCH   1  48
TORSDOF 17
ENDMDL
MODEL 2
REMARK VINA RESULT: -8.429838768      1.989      3.191
REMARK  17 active torsions:
REMARK  status: ('A' for Active; 'I' for Inactive)
REMARK    1  A    between atoms: C2_2  and  C3_3 
REMARK    2  A    between atoms: C3_3  and  C4_4 
REMARK    3  A    between atoms: C7_9  and  C8_10 
REMARK    4  A    between atoms: C8_10  and  C9_11 
REMARK    5  A    between atoms: C10_12  and  N2_13 
REMARK    6  A    between atoms: N3_16  and  C13_17 
REMARK    7  A    between atoms: C13_17  and  O1_18 
REMARK    8  A    between atoms: C13_17  and  C14_20 
REMARK       I    between atoms: C14_20  and  N4_22 
REMARK    9  A    between atoms: N4_22  and  C15_24 
REMARK   10  A    between atoms: C15_24  and  C16_25 
REMARK   11  A    between atoms: N6_33  and  C20_34 
REMARK   12  A    between atoms: C20_34  and  C21_35 
REMARK   13  A    between atoms: C24_38  and  C25_39 
REMARK   14  A    between atoms: C25_39  and  N7_40 
REMARK       I    between atoms: N7_40  and  C27_42 
REMARK   15  A    between atoms: C27_42  and  C28_44 
REMARK   16  A    between atoms: C28_44  and  C29_45 
REMARK   17  A    between atoms: C28_44  and  C31_47 
ROOT
HETATM    1  C4  UNL     1      14.530  22.481  15.535  1.00  0.00     0.022 C 
HETATM    2  C5  UNL     1      15.650  23.200  15.606  1.00  0.00     0.104 A 
HETATM    3  N1  UNL     1      15.793  24.510  15.297  1.00  0.00    -0.350 N 
ATOM      4  H1  UNL     1      15.044  25.118  14.966  1.00  0.00     0.166 HD
HETATM    5  C6  UNL     1      17.065  24.890  15.492  1.00  0.00     0.119 A 
HETATM    6  C7  UNL     1      17.783  23.786  15.946  1.00  0.00     0.052 A 
HETATM    7  N6  UNL     1      16.862  22.782  15.996  1.00  0.00    -0.327 N 
ENDROOT
BRANCH   6   8
HETATM    8  C8  UNL     1      19.071  23.716  16.228  1.00  0.00     0.052 C 
BRANCH   8   9
HETATM    9  C9  UNL     1      19.665  24.859  16.943  1.00  0.00     0.079 A 
HETATM   10  C10 UNL     1      20.403  25.816  16.278  1.00  0.00     0.131 A 
HETATM   11  N3  UNL     1      20.958  26.864  16.947  1.00  0.00    -0.223 N 
HETATM   12  C18 UNL     1      20.726  26.875  18.271  1.00  0.00     0.337 A 
HETATM   13  O3  UNL     1      21.177  27.776  19.000  1.00  0.00    -0.246 OA
HETATM   14  N5  UNL     1      19.995  25.931  18.937  1.00  0.00    -0.274 N 
HETATM   15  C19 UNL     1      19.447  24.901  18.296  1.00  0.00     0.263 A 
ATOM     16  H5  UNL     1      19.868  26.017  19.945  1.00  0.00     0.173 HD
HETATM   17  O4  UNL     1      18.767  24.018  18.887  1.00  0.00    -0.267 OA
BRANCH  10  18
HETATM   18  N2  UNL     1      20.513  25.641  14.880  1.00  0.00    -0.375 N 
HETATM   19  C11 UNL     1      19.582  26.417  14.041  1.00  0.00     0.150 C 
HETATM   20  C12 UNL     1      21.409  24.746  14.199  1.00  0.00     0.150 C 
ENDBRANCH  10  18
BRANCH  11  21
HETATM   21  C13 UNL     1      21.720  27.828  16.259  1.00  0.00     0.222 C 
BRANCH  21  22
HETATM   22  O1  UNL     1      21.050  28.786  15.663  1.00  0.00    -0.342 OA
ATOM     23  H1  UNL     1      20.897  29.575  16.169  1.00  0.00     0.219 HD
ENDBRANCH  21  22
BRANCH  21  24
HETATM   24  C14 UNL     1      23.127  28.000  16.059  1.00  0.00     0.293 C 
HETATM   25  O2  UNL     1      23.649  28.167  14.938  1.00  0.00    -0.264 OA
HETATM   26  N4  UNL     1      24.034  27.985  17.189  1.00  0.00    -0.354 N 
ATOM     27  H4  UNL     1      23.649  27.851  18.125  1.00  0.00     0.162 HD
BRANCH  26  28
HETATM   28  C15 UNL     1      25.447  28.153  17.045  1.00  0.00     0.122 C 
BRANCH  28  29
HETATM   29  C16 UNL     1      26.253  26.889  17.092  1.00  0.00     0.015 C 
HETATM   30  C17 UNL     1      26.747  26.553  15.684  1.00  0.00     0.006 C 
ENDBRANCH  28  29
ENDBRANCH  26  28
ENDBRANCH  21  24
ENDBRANCH  11  21
ENDBRANCH   8   9
ENDBRANCH   6   8
BRANCH   7  31
HETATM   31  C20 UNL     1      17.209  21.428  16.414  1.00  0.00     0.187 C 
BRANCH  31  32
HETATM   32  C21 UNL     1      16.676  21.094  17.755  1.00  0.00     0.028 A 
HETATM   33  C22 UNL     1      17.239  21.464  18.985  1.00  0.00     0.028 A 
HETATM   34  C23 UNL     1      16.485  20.953  20.011  1.00  0.00     0.028 A 
HETATM   35  C24 UNL     1      15.451  20.265  19.415  1.00  0.00     0.027 A 
HETATM   36  N8  UNL     1      15.590  20.366  18.053  1.00  0.00    -0.360 N 
ATOM     37  H8  UNL     1      14.959  19.949  17.367  1.00  0.00     0.165 HD
BRANCH  35  38
HETATM   38  C25 UNL     1      14.388  19.526  20.137  1.00  0.00     0.182 C 
BRANCH  38  39
HETATM   39  N7  UNL     1      13.860  18.525  19.178  1.00  0.00    -0.351 N 
HETATM   40  C26 UNL     1      14.794  17.556  18.709  1.00  0.00     0.153 C 
HETATM   41  C27 UNL     1      12.508  18.539  18.816  1.00  0.00     0.224 C 
HETATM   42  O5  UNL     1      11.707  19.415  19.343  1.00  0.00    -0.273 OA
BRANCH  41  43
HETATM   43  C28 UNL     1      11.936  17.598  17.845  1.00  0.00     0.077 C 
BRANCH  43  44
HETATM   44  C29 UNL     1      10.878  18.235  17.010  1.00  0.00     0.009 C 
HETATM   45  C30 UNL     1      11.501  19.174  16.016  1.00  0.00     0.006 C 
ENDBRANCH  43  44
BRANCH  43  46
HETATM   46  C31 UNL     1      11.326  16.399  18.560  1.00  0.00     0.009 C 
HETATM   47  C32 UNL     1      11.029  15.340  17.552  1.00  0.00     0.006 C 
ENDBRANCH  43  46
ENDBRANCH  41  43
ENDBRANCH  38  39
ENDBRANCH  35  38
ENDBRANCH  31  32
ENDBRANCH   7  31
BRANCH   1  48
HETATM   48  C3  UNL     1      13.302  23.175  15.070  1.00  0.00     0.030 C 
BRANCH  48  49
HETATM   49  C2  UNL     1      12.627  22.458  13.916  1.00  0.00    -0.001 C 
HETATM   50  C1  UNL     1      13.517  21.329  13.456  1.00  0.00     0.005 C 
ENDBRANCH  48  49
ENDBRANCH   1  48
TORSDOF 17
ENDMDL
MODEL 3
REMARK VINA RESULT: -8.378987368      2.909      9.797
REMARK  17 active torsions:
REMARK  status: ('A' for Active; 'I' for Inactive)
REMARK    1  A    between atoms: C2_2  and  C3_3 
REMARK    2  A    between atoms: C3_3  and  C4_4 
REMARK    3  A    between atoms: C7_9  and  C8_10 
REMARK    4  A    between atoms: C8_10  and  C9_11 
REMARK    5  A    between atoms: C10_12  and  N2_13 
REMARK    6  A    between atoms: N3_16  and  C13_17 
REMARK    7  A    between atoms: C13_17  and  O1_18 
REMARK    8  A    between atoms: C13_17  and  C14_20 
REMARK       I    between atoms: C14_20  and  N4_22 
REMARK    9  A    between atoms: N4_22  and  C15_24 
REMARK   10  A    between atoms: C15_24  and  C16_25 
REMARK   11  A    between atoms: N6_33  and  C20_34 
REMARK   12  A    between atoms: C20_34  and  C21_35 
REMARK   13  A    between atoms: C24_38  and  C25_39 
REMARK   14  A    between atoms: C25_39  and  N7_40 
REMARK       I    between atoms: N7_40  and  C27_42 
REMARK   15  A    between atoms: C27_42  and  C28_44 
REMARK   16  A    between atoms: C28_44  and  C29_45 
REMARK   17  A    between atoms: C28_44  and  C31_47 
ROOT
HETATM    1  C4  UNL     1      18.108  24.466  16.023  1.00  0.00     0.022 C 
HETATM    2  C5  UNL     1      17.049  23.702  15.750  1.00  0.00     0.104 A 
HETATM    3  N1  UNL     1      15.854  24.117  15.271  1.00  0.00    -0.350 N 
ATOM      4  H1  UNL     1      15.613  25.085  15.056  1.00  0.00     0.166 HD
HETATM    5  C6  UNL     1      15.032  23.067  15.120  1.00  0.00     0.119 A 
HETATM    6  C7  UNL     1      15.716  21.921  15.515  1.00  0.00     0.052 A 
HETATM    7  N6  UNL     1      16.946  22.373  15.891  1.00  0.00    -0.327 N 
ENDROOT
BRANCH   6   8
HETATM    8  C8  UNL     1      15.265  20.680  15.556  1.00  0.00     0.052 C 
BRANCH   8   9
HETATM    9  C9  UNL     1      13.826  20.480  15.313  1.00  0.00     0.079 A 
HETATM   10  C10 UNL     1      12.959  20.183  16.343  1.00  0.00     0.131 A 
HETATM   11  N3  UNL     1      11.631  19.989  16.110  1.00  0.00    -0.223 N 
HETATM   12  C18 UNL     1      11.261  20.112  14.824  1.00  0.00     0.337 A 
HETATM   13  O3  UNL     1      10.078  19.958  14.473  1.00  0.00    -0.246 OA
HETATM   14  N5  UNL     1      12.114  20.408  13.796  1.00  0.00    -0.274 N 
HETATM   15  C19 UNL     1      13.414  20.599  14.010  1.00  0.00     0.263 A 
ATOM     16  H5  UNL     1      11.747  20.483  12.848  1.00  0.00     0.173 HD
HETATM   17  O4  UNL     1      14.221  20.875  13.081  1.00  0.00    -0.267 OA
BRANCH  10  18
HETATM   18  N2  UNL     1      13.538  20.121  17.631  1.00  0.00    -0.375 N 
HETATM   19  C11 UNL     1      13.589  21.381  18.395  1.00  0.00     0.150 C 
HETATM   20  C12 UNL     1      14.126  18.963  18.249  1.00  0.00     0.150 C 
ENDBRANCH  10  18
BRANCH  11  21
HETATM   21  C13 UNL     1      10.759  19.673  17.168  1.00  0.00     0.222 C 
BRANCH  21  22
HETATM   22  O1  UNL     1       9.941  20.623  17.555  1.00  0.00    -0.342 OA
ATOM     23  H1  UNL     1       9.537  20.514  18.408  1.00  0.00     0.219 HD
ENDBRANCH  21  22
BRANCH  21  24
HETATM   24  C14 UNL     1      10.559  18.490  17.950  1.00  0.00     0.293 C 
HETATM   25  O2  UNL     1      10.831  18.412  19.165  1.00  0.00    -0.264 OA
HETATM   26  N4  UNL     1      10.013  17.294  17.339  1.00  0.00    -0.354 N 
ATOM     27  H4  UNL     1       9.777  17.315  16.347  1.00  0.00     0.162 HD
BRANCH  26  28
HETATM   28  C15 UNL     1       9.793  16.087  18.074  1.00  0.00     0.122 C 
BRANCH  28  29
HETATM   29  C16 UNL     1      10.600  14.904  17.625  1.00  0.00     0.015 C 
HETATM   30  C17 UNL     1       9.850  13.619  17.980  1.00  0.00     0.006 C 
ENDBRANCH  28  29
ENDBRANCH  26  28
ENDBRANCH  21  24
ENDBRANCH  11  21
ENDBRANCH   8   9
ENDBRANCH   6   8
BRANCH   7  31
HETATM   31  C20 UNL     1      17.985  21.481  16.393  1.00  0.00     0.187 C 
BRANCH  31  32
HETATM   32  C21 UNL     1      18.097  21.515  17.870  1.00  0.00     0.028 A 
HETATM   33  C22 UNL     1      17.173  20.987  18.782  1.00  0.00     0.028 A 
HETATM   34  C23 UNL     1      17.598  21.230  20.064  1.00  0.00     0.028 A 
HETATM   35  C24 UNL     1      18.789  21.911  19.945  1.00  0.00     0.027 A 
HETATM   36  N8  UNL     1      19.068  22.069  18.610  1.00  0.00    -0.360 N 
ATOM     37  H8  UNL     1      19.893  22.539  18.236  1.00  0.00     0.165 HD
BRANCH  35  38
HETATM   38  C25 UNL     1      19.610  22.401  21.078  1.00  0.00     0.182 C 
BRANCH  38  39
HETATM   39  N7  UNL     1      19.835  23.846  20.826  1.00  0.00    -0.351 N 
HETATM   40  C26 UNL     1      18.677  24.676  20.875  1.00  0.00     0.153 C 
HETATM   41  C27 UNL     1      21.129  24.330  20.602  1.00  0.00     0.224 C 
HETATM   42  O5  UNL     1      22.140  23.516  20.643  1.00  0.00    -0.273 OA
BRANCH  41  43
HETATM   43  C28 UNL     1      21.409  25.742  20.312  1.00  0.00     0.077 C 
BRANCH  43  44
HETATM   44  C29 UNL     1      21.873  25.939  18.909  1.00  0.00     0.009 C 
HETATM   45  C30 UNL     1      20.892  26.792  18.156  1.00  0.00     0.006 C 
ENDBRANCH  43  44
BRANCH  43  46
HETATM   46  C31 UNL     1      22.481  26.277  21.252  1.00  0.00     0.009 C 
HETATM   47  C32 UNL     1      21.861  26.553  22.580  1.00  0.00     0.006 C 
ENDBRANCH  43  46
ENDBRANCH  41  43
ENDBRANCH  38  39
ENDBRANCH  35  38
ENDBRANCH  31  32
ENDBRANCH   7  31
BRANCH   1  48
HETATM   48  C3  UNL     1      17.977  25.925  15.782  1.00  0.00     0.030 C 
BRANCH  48  49
HETATM   49  C2  UNL     1      18.605  26.359  14.471  1.00  0.00    -0.001 C 
HETATM   50  C1  UNL     1      20.069  25.991  14.486  1.00  0.00     0.005 C 
ENDBRANCH  48  49
ENDBRANCH   1  48
TORSDOF 17
ENDMDL
MODEL 4
REMARK VINA RESULT: -8.361608158      3.524     10.743
REMARK  17 active torsions:
REMARK  status: ('A' for Active; 'I' for Inactive)
REMARK    1  A    between atoms: C2_2  and  C3_3 
REMARK    2  A    between atoms: C3_3  and  C4_4 
REMARK    3  A    between atoms: C7_9  and  C8_10 
REMARK    4  A    between atoms: C8_10  and  C9_11 
REMARK    5  A    between atoms: C10_12  and  N2_13 
REMARK    6  A    between atoms: N3_16  and  C13_17 
REMARK    7  A    between atoms: C13_17  and  O1_18 
REMARK    8  A    between atoms: C13_17  and  C14_20 
REMARK       I    between atoms: C14_20  and  N4_22 
REMARK    9  A    between atoms: N4_22  and  C15_24 
REMARK   10  A    between atoms: C15_24  and  C16_25 
REMARK   11  A    between atoms: N6_33  and  C20_34 
REMARK   12  A    between atoms: C20_34  and  C21_35 
REMARK   13  A    between atoms: C24_38  and  C25_39 
REMARK   14  A    between atoms: C25_39  and  N7_40 
REMARK       I    between atoms: N7_40  and  C27_42 
REMARK   15  A    between atoms: C27_42  and  C28_44 
REMARK   16  A    between atoms: C28_44  and  C29_45 
REMARK   17  A    between atoms: C28_44  and  C31_47 
ROOT
HETATM    1  C4  UNL     1      16.384  22.168  19.424  1.00  0.00     0.022 C 
HETATM    2  C5  UNL     1      15.568  21.573  18.553  1.00  0.00     0.104 A 
HETATM    3  N1  UNL     1      15.373  20.242  18.408  1.00  0.00    -0.350 N 
ATOM      4  H1  UNL     1      15.835  19.518  18.959  1.00  0.00     0.166 HD
HETATM    5  C6  UNL     1      14.480  20.015  17.432  1.00  0.00     0.119 A 
HETATM    6  C7  UNL     1      14.076  21.245  16.919  1.00  0.00     0.052 A 
HETATM    7  N6  UNL     1      14.777  22.161  17.646  1.00  0.00    -0.327 N 
ENDROOT
BRANCH   6   8
HETATM    8  C8  UNL     1      13.234  21.474  15.927  1.00  0.00     0.052 C 
BRANCH   8   9
HETATM    9  C9  UNL     1      12.995  20.370  14.981  1.00  0.00     0.079 A 
HETATM   10  C10 UNL     1      11.842  19.615  15.037  1.00  0.00     0.131 A 
HETATM   11  N3  UNL     1      11.632  18.589  14.167  1.00  0.00    -0.223 N 
HETATM   12  C18 UNL     1      12.622  18.390  13.280  1.00  0.00     0.337 A 
HETATM   13  O3  UNL     1      12.558  17.485  12.430  1.00  0.00    -0.246 OA
HETATM   14  N5  UNL     1      13.768  19.134  13.217  1.00  0.00    -0.274 N 
HETATM   15  C19 UNL     1      13.986  20.141  14.062  1.00  0.00     0.263 A 
ATOM     16  H5  UNL     1      14.469  18.915  12.510  1.00  0.00     0.173 HD
HETATM   17  O4  UNL     1      15.033  20.843  14.024  1.00  0.00    -0.267 OA
BRANCH  10  18
HETATM   18  N2  UNL     1      10.908  19.997  16.027  1.00  0.00    -0.375 N 
HETATM   19  C11 UNL     1       9.873  20.966  15.621  1.00  0.00     0.150 C 
HETATM   20  C12 UNL     1      10.898  19.572  17.401  1.00  0.00     0.150 C 
ENDBRANCH  10  18
BRANCH  11  21
HETATM   21  C13 UNL     1      10.457  17.818  14.241  1.00  0.00     0.222 C 
BRANCH  21  22
HETATM   22  O1  UNL     1       9.493  18.139  13.412  1.00  0.00    -0.342 OA
ATOM     23  H1  UNL     1       9.482  17.684  12.578  1.00  0.00     0.219 HD
ENDBRANCH  21  22
BRANCH  21  24
HETATM   24  C14 UNL     1      10.066  16.711  15.061  1.00  0.00     0.293 C 
HETATM   25  O2  UNL     1       8.904  16.256  15.098  1.00  0.00    -0.264 OA
HETATM   26  N4  UNL     1      11.037  16.051  15.911  1.00  0.00    -0.354 N 
ATOM     27  H4  UNL     1      11.998  16.392  15.912  1.00  0.00     0.162 HD
BRANCH  26  28
HETATM   28  C15 UNL     1      10.699  14.942  16.748  1.00  0.00     0.122 C 
BRANCH  28  29
HETATM   29  C16 UNL     1      10.351  15.287  18.166  1.00  0.00     0.015 C 
HETATM   30  C17 UNL     1      11.407  16.242  18.726  1.00  0.00     0.006 C 
ENDBRANCH  28  29
ENDBRANCH  26  28
ENDBRANCH  21  24
ENDBRANCH  11  21
ENDBRANCH   8   9
ENDBRANCH   6   8
BRANCH   7  31
HETATM   31  C20 UNL     1      14.656  23.596  17.415  1.00  0.00     0.187 C 
BRANCH  31  32
HETATM   32  C21 UNL     1      15.798  24.145  16.647  1.00  0.00     0.028 A 
HETATM   33  C22 UNL     1      16.081  23.899  15.296  1.00  0.00     0.028 A 
HETATM   34  C23 UNL     1      17.232  24.554  14.938  1.00  0.00     0.028 A 
HETATM   35  C24 UNL     1      17.663  25.209  16.071  1.00  0.00     0.027 A 
HETATM   36  N8  UNL     1      16.779  24.946  17.088  1.00  0.00    -0.360 N 
ATOM     37  H8  UNL     1      16.857  25.306  18.039  1.00  0.00     0.165 HD
BRANCH  35  38
HETATM   38  C25 UNL     1      18.889  26.037  16.165  1.00  0.00     0.182 C 
BRANCH  38  39
HETATM   39  N7  UNL     1      19.765  25.363  17.155  1.00  0.00    -0.351 N 
HETATM   40  C26 UNL     1      19.765  23.938  17.120  1.00  0.00     0.153 C 
HETATM   41  C27 UNL     1      20.560  26.119  18.024  1.00  0.00     0.224 C 
HETATM   42  O5  UNL     1      20.554  27.415  17.943  1.00  0.00    -0.273 OA
BRANCH  41  43
HETATM   43  C28 UNL     1      21.418  25.509  19.047  1.00  0.00     0.077 C 
BRANCH  43  44
HETATM   44  C29 UNL     1      20.974  25.862  20.426  1.00  0.00     0.009 C 
HETATM   45  C30 UNL     1      19.920  24.897  20.892  1.00  0.00     0.006 C 
ENDBRANCH  43  44
BRANCH  43  46
HETATM   46  C31 UNL     1      22.861  25.967  18.877  1.00  0.00     0.009 C 
HETATM   47  C32 UNL     1      23.552  25.874  20.195  1.00  0.00     0.006 C 
ENDBRANCH  43  46
ENDBRANCH  41  43
ENDBRANCH  38  39
ENDBRANCH  35  38
ENDBRANCH  31  32
ENDBRANCH   7  31
BRANCH   1  48
HETATM   48  C3  UNL     1      17.165  21.294  20.335  1.00  0.00     0.030 C 
BRANCH  48  49
HETATM   49  C2  UNL     1      18.660  21.395  20.102  1.00  0.00    -0.001 C 
HETATM   50  C1  UNL     1      19.364  21.389  21.438  1.00  0.00     0.005 C 
ENDBRANCH  48  49
ENDBRANCH   1  48
TORSDOF 17
ENDMDL
MODEL 5
REMARK VINA RESULT: -8.334906139      3.625     11.112
REMARK  17 active torsions:
REMARK  status: ('A' for Active; 'I' for Inactive)
REMARK    1  A    between atoms: C2_2  and  C3_3 
REMARK    2  A    between atoms: C3_3  and  C4_4 
REMARK    3  A    between atoms: C7_9  and  C8_10 
REMARK    4  A    between atoms: C8_10  and  C9_11 
REMARK    5  A    between atoms: C10_12  and  N2_13 
REMARK    6  A    between atoms: N3_16  and  C13_17 
REMARK    7  A    between atoms: C13_17  and  O1_18 
REMARK    8  A    between atoms: C13_17  and  C14_20 
REMARK       I    between atoms: C14_20  and  N4_22 
REMARK    9  A    between atoms: N4_22  and  C15_24 
REMARK   10  A    between atoms: C15_24  and  C16_25 
REMARK   11  A    between atoms: N6_33  and  C20_34 
REMARK   12  A    between atoms: C20_34  and  C21_35 
REMARK   13  A    between atoms: C24_38  and  C25_39 
REMARK   14  A    between atoms: C25_39  and  N7_40 
REMARK       I    between atoms: N7_40  and  C27_42 
REMARK   15  A    between atoms: C27_42  and  C28_44 
REMARK   16  A    between atoms: C28_44  and  C29_45 
REMARK   17  A    between atoms: C28_44  and  C31_47 
ROOT
HETATM    1  C4  UNL     1      16.085  21.883  19.645  1.00  0.00     0.022 C 
HETATM    2  C5  UNL     1      15.232  21.362  18.762  1.00  0.00     0.104 A 
HETATM    3  N1  UNL     1      14.813  20.077  18.704  1.00  0.00    -0.350 N 
ATOM      4  H1  UNL     1      15.105  19.336  19.342  1.00  0.00     0.166 HD
HETATM    5  C6  UNL     1      13.956  19.921  17.683  1.00  0.00     0.119 A 
HETATM    6  C7  UNL     1      13.809  21.152  17.049  1.00  0.00     0.052 A 
HETATM    7  N6  UNL     1      14.614  21.994  17.755  1.00  0.00    -0.327 N 
ENDROOT
BRANCH   6   8
HETATM    8  C8  UNL     1      13.084  21.433  15.981  1.00  0.00     0.052 C 
BRANCH   8   9
HETATM    9  C9  UNL     1      12.916  20.362  14.982  1.00  0.00     0.079 A 
HETATM   10  C10 UNL     1      11.761  19.611  14.923  1.00  0.00     0.131 A 
HETATM   11  N3  UNL     1      11.617  18.616  14.005  1.00  0.00    -0.223 N 
HETATM   12  C18 UNL     1      12.672  18.443  13.190  1.00  0.00     0.337 A 
HETATM   13  O3  UNL     1      12.672  17.567  12.308  1.00  0.00    -0.246 OA
HETATM   14  N5  UNL     1      13.820  19.184  13.242  1.00  0.00    -0.274 N 
HETATM   15  C19 UNL     1      13.975  20.160  14.135  1.00  0.00     0.263 A 
ATOM     16  H5  UNL     1      14.573  18.986  12.583  1.00  0.00     0.173 HD
HETATM   17  O4  UNL     1      15.022  20.859  14.202  1.00  0.00    -0.267 OA
BRANCH  10  18
HETATM   18  N2  UNL     1      10.754  19.963  15.851  1.00  0.00    -0.375 N 
HETATM   19  C11 UNL     1       9.826  21.034  15.445  1.00  0.00     0.150 C 
HETATM   20  C12 UNL     1      10.577  19.414  17.168  1.00  0.00     0.150 C 
ENDBRANCH  10  18
BRANCH  11  21
HETATM   21  C13 UNL     1      10.438  17.848  13.963  1.00  0.00     0.222 C 
BRANCH  21  22
HETATM   22  O1  UNL     1       9.496  18.266  13.151  1.00  0.00    -0.342 OA
ATOM     23  H1  UNL     1       9.127  17.619  12.562  1.00  0.00     0.219 HD
ENDBRANCH  21  22
BRANCH  21  24
HETATM   24  C14 UNL     1      10.023  16.657  14.642  1.00  0.00     0.293 C 
HETATM   25  O2  UNL     1       8.864  16.199  14.586  1.00  0.00    -0.264 OA
HETATM   26  N4  UNL     1      10.967  15.910  15.449  1.00  0.00    -0.354 N 
ATOM     27  H4  UNL     1      11.926  16.249  15.523  1.00  0.00     0.162 HD
BRANCH  26  28
HETATM   28  C15 UNL     1      10.605  14.715  16.147  1.00  0.00     0.122 C 
BRANCH  28  29
HETATM   29  C16 UNL     1      10.497  14.847  17.638  1.00  0.00     0.015 C 
HETATM   30  C17 UNL     1      11.439  15.954  18.115  1.00  0.00     0.006 C 
ENDBRANCH  28  29
ENDBRANCH  26  28
ENDBRANCH  21  24
ENDBRANCH  11  21
ENDBRANCH   8   9
ENDBRANCH   6   8
BRANCH   7  31
HETATM   31  C20 UNL     1      14.764  23.403  17.406  1.00  0.00     0.187 C 
BRANCH  31  32
HETATM   32  C21 UNL     1      16.015  23.672  16.659  1.00  0.00     0.028 A 
HETATM   33  C22 UNL     1      16.108  24.217  15.370  1.00  0.00     0.028 A 
HETATM   34  C23 UNL     1      17.425  24.295  14.996  1.00  0.00     0.028 A 
HETATM   35  C24 UNL     1      18.151  23.799  16.056  1.00  0.00     0.027 A 
HETATM   36  N8  UNL     1      17.275  23.431  17.048  1.00  0.00    -0.360 N 
ATOM     37  H8  UNL     1      17.544  23.032  17.947  1.00  0.00     0.165 HD
BRANCH  35  38
HETATM   38  C25 UNL     1      19.627  23.671  16.096  1.00  0.00     0.182 C 
BRANCH  38  39
HETATM   39  N7  UNL     1      20.155  25.049  16.251  1.00  0.00    -0.351 N 
HETATM   40  C26 UNL     1      19.805  25.718  17.460  1.00  0.00     0.153 C 
HETATM   41  C27 UNL     1      20.978  25.605  15.266  1.00  0.00     0.224 C 
HETATM   42  O5  UNL     1      21.306  24.901  14.225  1.00  0.00    -0.273 OA
BRANCH  41  43
HETATM   43  C28 UNL     1      21.500  26.975  15.347  1.00  0.00     0.077 C 
BRANCH  43  44
HETATM   44  C29 UNL     1      20.946  27.845  14.269  1.00  0.00     0.009 C 
HETATM   45  C30 UNL     1      19.446  27.772  14.267  1.00  0.00     0.006 C 
ENDBRANCH  43  44
BRANCH  43  46
HETATM   46  C31 UNL     1      23.018  26.976  15.231  1.00  0.00     0.009 C 
HETATM   47  C32 UNL     1      23.487  28.385  15.089  1.00  0.00     0.006 C 
ENDBRANCH  43  46
ENDBRANCH  41  43
ENDBRANCH  38  39
ENDBRANCH  35  38
ENDBRANCH  31  32
ENDBRANCH   7  31
BRANCH   1  48
HETATM   48  C3  UNL     1      16.641  20.972  20.676  1.00  0.00     0.030 C 
BRANCH  48  49
HETATM   49  C2  UNL     1      18.084  21.291  21.020  1.00  0.00    -0.001 C 
HETATM   50  C1  UNL     1      18.817  21.661  19.753  1.00  0.00     0.005 C 
ENDBRANCH  48  49
ENDBRANCH   1  48
TORSDOF 17
ENDMDL
