MODEL 1
REMARK VINA RESULT: -7.898419422      0.000      0.000
REMARK  8 active torsions:
REMARK  status: ('A' for Active; 'I' for Inactive)
REMARK    1  A    between atoms: O1_2  and  C2_3 
REMARK    2  A    between atoms: C4_5  and  C5_6 
REMARK    3  A    between atoms: C5_6  and  C6_8 
REMARK    4  A    between atoms: C8_10  and  O3_11 
REMARK    5  A    between atoms: C10_13  and  O4_14 
REMARK    6  A    between atoms: C14_19  and  O5_20 
REMARK    7  A    between atoms: C16_23  and  O6_24 
REMARK    8  A    between atoms: C18_26  and  O7_27 
ROOT
HETATM    1  C6  UNL     1       4.109  13.920  42.025  1.00  0.00     0.052 A 
HETATM    2  C7  UNL     1       4.424  12.591  41.763  1.00  0.00     0.058 A 
HETATM    3  C8  UNL     1       4.091  12.024  40.543  1.00  0.00     0.104 A 
HETATM    4  C10 UNL     1       3.448  12.770  39.591  1.00  0.00     0.125 A 
HETATM    5  C12 UNL     1       3.120  14.084  39.810  1.00  0.00     0.114 A 
HETATM    6  C13 UNL     1       2.449  14.878  38.824  1.00  0.00     0.105 C 
HETATM    7  N1  UNL     1       1.905  15.537  38.039  1.00  0.00    -0.191 NA
HETATM    8  C14 UNL     1       3.464  14.650  41.055  1.00  0.00     0.103 A 
ENDROOT
BRANCH   4   9
HETATM    9  O4  UNL     1       3.120  12.192  38.376  1.00  0.00    -0.352 OA
HETATM   10  C11 UNL     1       1.902  11.463  38.288  1.00  0.00     0.210 C 
ENDBRANCH   4   9
BRANCH   8  11
HETATM   11  O5  UNL     1       3.126  15.955  41.238  1.00  0.00    -0.358 OA
ATOM     12  H5  UNL     1       3.622  16.528  41.812  1.00  0.00     0.217 HD
ENDBRANCH   8  11
BRANCH   3  13
HETATM   13  O3  UNL     1       4.408  10.715  40.306  1.00  0.00    -0.353 OA
HETATM   14  C9  UNL     1       5.661  10.223  39.939  1.00  0.00     0.210 C 
ENDBRANCH   3  13
BRANCH   1  15
HETATM   15  C5  UNL     1       4.415  14.402  43.353  1.00  0.00     0.195 C 
HETATM   16  O2  UNL     1       4.264  15.643  43.580  1.00  0.00    -0.287 OA
BRANCH  15  17
HETATM   17  C4  UNL     1       4.888  13.578  44.466  1.00  0.00     0.020 A 
HETATM   18  C3  UNL     1       4.150  13.439  45.615  1.00  0.00     0.055 A 
HETATM   19  C2  UNL     1       4.614  12.699  46.683  1.00  0.00     0.105 A 
HETATM   20  C18 UNL     1       5.851  12.075  46.606  1.00  0.00     0.135 A 
HETATM   21  C16 UNL     1       6.622  12.189  45.466  1.00  0.00     0.105 A 
HETATM   22  C15 UNL     1       6.111  12.938  44.435  1.00  0.00     0.055 A 
BRANCH  19  23
HETATM   23  O1  UNL     1       3.856  12.584  47.810  1.00  0.00    -0.353 OA
HETATM   24  C1  UNL     1       2.765  13.370  48.172  1.00  0.00     0.210 C 
ENDBRANCH  19  23
BRANCH  20  25
HETATM   25  O7  UNL     1       6.291  11.338  47.693  1.00  0.00    -0.351 OA
HETATM   26  C19 UNL     1       6.311   9.942  47.771  1.00  0.00     0.210 C 
ENDBRANCH  20  25
BRANCH  21  27
HETATM   27  O6  UNL     1       7.866  11.550  45.406  1.00  0.00    -0.353 OA
HETATM   28  C17 UNL     1       8.084  10.608  44.397  1.00  0.00     0.210 C 
ENDBRANCH  21  27
ENDBRANCH  15  17
ENDBRANCH   1  15
TORSDOF 8
ENDMDL
MODEL 2
REMARK VINA RESULT: -7.858915058      3.302      6.805
REMARK  8 active torsions:
REMARK  status: ('A' for Active; 'I' for Inactive)
REMARK    1  A    between atoms: O1_2  and  C2_3 
REMARK    2  A    between atoms: C4_5  and  C5_6 
REMARK    3  A    between atoms: C5_6  and  C6_8 
REMARK    4  A    between atoms: C8_10  and  O3_11 
REMARK    5  A    between atoms: C10_13  and  O4_14 
REMARK    6  A    between atoms: C14_19  and  O5_20 
REMARK    7  A    between atoms: C16_23  and  O6_24 
REMARK    8  A    between atoms: C18_26  and  O7_27 
ROOT
HETATM    1  C6  UNL     1       5.960  11.108  44.002  1.00  0.00     0.052 A 
HETATM    2  C7  UNL     1       6.224  10.737  45.316  1.00  0.00     0.058 A 
HETATM    3  C8  UNL     1       5.722  11.489  46.366  1.00  0.00     0.104 A 
HETATM    4  C10 UNL     1       4.966  12.603  46.113  1.00  0.00     0.125 A 
HETATM    5  C12 UNL     1       4.683  13.003  44.832  1.00  0.00     0.114 A 
HETATM    6  C13 UNL     1       3.893  14.165  44.551  1.00  0.00     0.105 C 
HETATM    7  N1  UNL     1       3.255  15.102  44.303  1.00  0.00    -0.191 NA
HETATM    8  C14 UNL     1       5.198  12.229  43.772  1.00  0.00     0.103 A 
ENDROOT
BRANCH   4   9
HETATM    9  O4  UNL     1       4.470  13.348  47.171  1.00  0.00    -0.352 OA
HETATM   10  C11 UNL     1       3.168  13.041  47.654  1.00  0.00     0.210 C 
ENDBRANCH   4   9
BRANCH   8  11
HETATM   11  O5  UNL     1       4.898  12.652  42.514  1.00  0.00    -0.358 OA
ATOM     12  H5  UNL     1       5.525  13.121  41.976  1.00  0.00     0.217 HD
ENDBRANCH   8  11
BRANCH   3  13
HETATM   13  O3  UNL     1       5.994  11.109  47.651  1.00  0.00    -0.353 OA
HETATM   14  C9  UNL     1       6.703   9.972  48.042  1.00  0.00     0.210 C 
ENDBRANCH   3  13
BRANCH   1  15
HETATM   15  C5  UNL     1       6.595  10.317  42.972  1.00  0.00     0.195 C 
HETATM   16  O2  UNL     1       6.054  10.299  41.822  1.00  0.00    -0.287 OA
BRANCH  15  17
HETATM   17  C4  UNL     1       7.816   9.527  43.142  1.00  0.00     0.020 A 
HETATM   18  C3  UNL     1       9.054  10.068  42.899  1.00  0.00     0.055 A 
HETATM   19  C2  UNL     1      10.203   9.313  43.014  1.00  0.00     0.105 A 
HETATM   20  C18 UNL     1      10.119   7.979  43.385  1.00  0.00     0.135 A 
HETATM   21  C16 UNL     1       8.892   7.400  43.641  1.00  0.00     0.105 A 
HETATM   22  C15 UNL     1       7.782   8.197  43.509  1.00  0.00     0.055 A 
BRANCH  19  23
HETATM   23  O1  UNL     1      11.417   9.881  42.764  1.00  0.00    -0.353 OA
HETATM   24  C1  UNL     1      11.772  10.646  41.655  1.00  0.00     0.210 C 
ENDBRANCH  19  23
BRANCH  20  25
HETATM   25  O7  UNL     1      11.289   7.246  43.494  1.00  0.00    -0.351 OA
HETATM   26  C19 UNL     1      11.844   6.449  42.487  1.00  0.00     0.210 C 
ENDBRANCH  20  25
BRANCH  21  27
HETATM   27  O6  UNL     1       8.827   6.052  44.016  1.00  0.00    -0.353 OA
HETATM   28  C17 UNL     1       8.353   5.123  43.087  1.00  0.00     0.210 C 
ENDBRANCH  21  27
ENDBRANCH  15  17
ENDBRANCH   1  15
TORSDOF 8
ENDMDL
MODEL 3
REMARK VINA RESULT: -7.847633392      0.114      2.507
REMARK  8 active torsions:
REMARK  status: ('A' for Active; 'I' for Inactive)
REMARK    1  A    between atoms: O1_2  and  C2_3 
REMARK    2  A    between atoms: C4_5  and  C5_6 
REMARK    3  A    between atoms: C5_6  and  C6_8 
REMARK    4  A    between atoms: C8_10  and  O3_11 
REMARK    5  A    between atoms: C10_13  and  O4_14 
REMARK    6  A    between atoms: C14_19  and  O5_20 
REMARK    7  A    between atoms: C16_23  and  O6_24 
REMARK    8  A    between atoms: C18_26  and  O7_27 
ROOT
HETATM    1  C6  UNL     1       4.108  13.925  42.116  1.00  0.00     0.052 A 
HETATM    2  C7  UNL     1       4.445  12.599  41.870  1.00  0.00     0.058 A 
HETATM    3  C8  UNL     1       4.147  12.020  40.647  1.00  0.00     0.104 A 
HETATM    4  C10 UNL     1       3.516  12.753  39.676  1.00  0.00     0.125 A 
HETATM    5  C12 UNL     1       3.166  14.063  39.879  1.00  0.00     0.114 A 
HETATM    6  C13 UNL     1       2.507  14.842  38.874  1.00  0.00     0.105 C 
HETATM    7  N1  UNL     1       1.973  15.490  38.072  1.00  0.00    -0.191 NA
HETATM    8  C14 UNL     1       3.476  14.641  41.127  1.00  0.00     0.103 A 
ENDROOT
BRANCH   4   9
HETATM    9  O4  UNL     1       3.222  12.163  38.457  1.00  0.00    -0.352 OA
HETATM   10  C11 UNL     1       2.010  11.426  38.345  1.00  0.00     0.210 C 
ENDBRANCH   4   9
BRANCH   8  11
HETATM   11  O5  UNL     1       3.118  15.943  41.296  1.00  0.00    -0.358 OA
ATOM     12  H5  UNL     1       2.542  16.390  40.686  1.00  0.00     0.217 HD
ENDBRANCH   8  11
BRANCH   3  13
HETATM   13  O3  UNL     1       4.485  10.714  40.425  1.00  0.00    -0.353 OA
HETATM   14  C9  UNL     1       5.759  10.231  40.125  1.00  0.00     0.210 C 
ENDBRANCH   3  13
BRANCH   1  15
HETATM   15  C5  UNL     1       4.379  14.419  43.448  1.00  0.00     0.195 C 
HETATM   16  O2  UNL     1       4.144  15.646  43.682  1.00  0.00    -0.287 OA
BRANCH  15  17
HETATM   17  C4  UNL     1       4.906  13.622  44.557  1.00  0.00     0.020 A 
HETATM   18  C3  UNL     1       6.104  12.960  44.452  1.00  0.00     0.055 A 
HETATM   19  C2  UNL     1       6.581  12.172  45.479  1.00  0.00     0.105 A 
HETATM   20  C18 UNL     1       5.845  12.038  46.647  1.00  0.00     0.135 A 
HETATM   21  C16 UNL     1       4.636  12.690  46.791  1.00  0.00     0.105 A 
HETATM   22  C15 UNL     1       4.209  13.460  45.738  1.00  0.00     0.055 A 
BRANCH  19  23
HETATM   23  O1  UNL     1       7.774  11.526  45.342  1.00  0.00    -0.353 OA
HETATM   24  C1  UNL     1       8.151  10.669  44.310  1.00  0.00     0.210 C 
ENDBRANCH  19  23
BRANCH  20  25
HETATM   25  O7  UNL     1       6.349  11.241  47.662  1.00  0.00    -0.351 OA
HETATM   26  C19 UNL     1       6.312   9.842  47.688  1.00  0.00     0.210 C 
ENDBRANCH  20  25
BRANCH  21  27
HETATM   27  O6  UNL     1       3.909  12.545  47.978  1.00  0.00    -0.353 OA
HETATM   28  C17 UNL     1       2.775  13.341  48.167  1.00  0.00     0.210 C 
ENDBRANCH  21  27
ENDBRANCH  15  17
ENDBRANCH   1  15
TORSDOF 8
ENDMDL
MODEL 4
REMARK VINA RESULT: -7.843400023      1.322      2.898
REMARK  8 active torsions:
REMARK  status: ('A' for Active; 'I' for Inactive)
REMARK    1  A    between atoms: O1_2  and  C2_3 
REMARK    2  A    between atoms: C4_5  and  C5_6 
REMARK    3  A    between atoms: C5_6  and  C6_8 
REMARK    4  A    between atoms: C8_10  and  O3_11 
REMARK    5  A    between atoms: C10_13  and  O4_14 
REMARK    6  A    between atoms: C14_19  and  O5_20 
REMARK    7  A    between atoms: C16_23  and  O6_24 
REMARK    8  A    between atoms: C18_26  and  O7_27 
ROOT
HETATM    1  C6  UNL     1       3.825  14.406  41.501  1.00  0.00     0.052 A 
HETATM    2  C7  UNL     1       4.333  13.123  41.330  1.00  0.00     0.058 A 
HETATM    3  C8  UNL     1       3.986  12.380  40.213  1.00  0.00     0.104 A 
HETATM    4  C10 UNL     1       3.140  12.907  39.273  1.00  0.00     0.125 A 
HETATM    5  C12 UNL     1       2.617  14.168  39.404  1.00  0.00     0.114 A 
HETATM    6  C13 UNL     1       1.731  14.733  38.430  1.00  0.00     0.105 C 
HETATM    7  N1  UNL     1       1.012  15.207  37.652  1.00  0.00    -0.191 NA
HETATM    8  C14 UNL     1       2.978  14.914  40.545  1.00  0.00     0.103 A 
ENDROOT
BRANCH   4   9
HETATM    9  O4  UNL     1       2.800  12.154  38.161  1.00  0.00    -0.352 OA
HETATM   10  C11 UNL     1       1.703  11.255  38.270  1.00  0.00     0.210 C 
ENDBRANCH   4   9
BRANCH   8  11
HETATM   11  O5  UNL     1       2.443  16.162  40.644  1.00  0.00    -0.358 OA
ATOM     12  H5  UNL     1       2.532  16.688  41.430  1.00  0.00     0.217 HD
ENDBRANCH   8  11
BRANCH   3  13
HETATM   13  O3  UNL     1       4.495  11.120  40.064  1.00  0.00    -0.353 OA
HETATM   14  C9  UNL     1       5.798  10.716  40.359  1.00  0.00     0.210 C 
ENDBRANCH   3  13
BRANCH   1  15
HETATM   15  C5  UNL     1       4.170  15.074  42.736  1.00  0.00     0.195 C 
HETATM   16  O2  UNL     1       4.632  16.255  42.661  1.00  0.00    -0.287 OA
BRANCH  15  17
HETATM   17  C4  UNL     1       4.032  14.501  44.076  1.00  0.00     0.020 A 
HETATM   18  C3  UNL     1       4.605  13.295  44.397  1.00  0.00     0.055 A 
HETATM   19  C2  UNL     1       4.440  12.730  45.645  1.00  0.00     0.105 A 
HETATM   20  C18 UNL     1       3.682  13.386  46.605  1.00  0.00     0.135 A 
HETATM   21  C16 UNL     1       3.092  14.601  46.321  1.00  0.00     0.105 A 
HETATM   22  C15 UNL     1       3.289  15.116  45.063  1.00  0.00     0.055 A 
BRANCH  19  23
HETATM   23  O1  UNL     1       5.021  11.531  45.931  1.00  0.00    -0.353 OA
HETATM   24  C1  UNL     1       6.377  11.280  46.123  1.00  0.00     0.210 C 
ENDBRANCH  19  23
BRANCH  20  25
HETATM   25  O7  UNL     1       3.533  12.796  47.850  1.00  0.00    -0.351 OA
HETATM   26  C19 UNL     1       4.376  12.997  48.948  1.00  0.00     0.210 C 
ENDBRANCH  20  25
BRANCH  21  27
HETATM   27  O6  UNL     1       2.333  15.249  47.303  1.00  0.00    -0.353 OA
HETATM   28  C17 UNL     1       2.639  16.577  47.614  1.00  0.00     0.210 C 
ENDBRANCH  21  27
ENDBRANCH  15  17
ENDBRANCH   1  15
TORSDOF 8
ENDMDL
MODEL 5
REMARK VINA RESULT: -7.837822280      1.321      1.862
REMARK  8 active torsions:
REMARK  status: ('A' for Active; 'I' for Inactive)
REMARK    1  A    between atoms: O1_2  and  C2_3 
REMARK    2  A    between atoms: C4_5  and  C5_6 
REMARK    3  A    between atoms: C5_6  and  C6_8 
REMARK    4  A    between atoms: C8_10  and  O3_11 
REMARK    5  A    between atoms: C10_13  and  O4_14 
REMARK    6  A    between atoms: C14_19  and  O5_20 
REMARK    7  A    between atoms: C16_23  and  O6_24 
REMARK    8  A    between atoms: C18_26  and  O7_27 
ROOT
HETATM    1  C6  UNL     1       3.824  14.421  41.522  1.00  0.00     0.052 A 
HETATM    2  C7  UNL     1       4.315  13.133  41.341  1.00  0.00     0.058 A 
HETATM    3  C8  UNL     1       3.977  12.411  40.208  1.00  0.00     0.104 A 
HETATM    4  C10 UNL     1       3.155  12.963  39.262  1.00  0.00     0.125 A 
HETATM    5  C12 UNL     1       2.649  14.230  39.402  1.00  0.00     0.114 A 
HETATM    6  C13 UNL     1       1.789  14.822  38.421  1.00  0.00     0.105 C 
HETATM    7  N1  UNL     1       1.091  15.319  37.638  1.00  0.00    -0.191 NA
HETATM    8  C14 UNL     1       3.001  14.955  40.559  1.00  0.00     0.103 A 
ENDROOT
BRANCH   4   9
HETATM    9  O4  UNL     1       2.824  12.231  38.133  1.00  0.00    -0.352 OA
HETATM   10  C11 UNL     1       1.722  11.335  38.215  1.00  0.00     0.210 C 
ENDBRANCH   4   9
BRANCH   8  11
HETATM   11  O5  UNL     1       2.484  16.209  40.666  1.00  0.00    -0.358 OA
ATOM     12  H5  UNL     1       1.563  16.362  40.842  1.00  0.00     0.217 HD
ENDBRANCH   8  11
BRANCH   3  13
HETATM   13  O3  UNL     1       4.470  11.145  40.050  1.00  0.00    -0.353 OA
HETATM   14  C9  UNL     1       5.813  10.770  40.101  1.00  0.00     0.210 C 
ENDBRANCH   3  13
BRANCH   1  15
HETATM   15  C5  UNL     1       4.157  15.066  42.772  1.00  0.00     0.195 C 
HETATM   16  O2  UNL     1       4.657  16.233  42.721  1.00  0.00    -0.287 OA
BRANCH  15  17
HETATM   17  C4  UNL     1       3.967  14.485  44.102  1.00  0.00     0.020 A 
HETATM   18  C3  UNL     1       3.242  15.137  45.068  1.00  0.00     0.055 A 
HETATM   19  C2  UNL     1       3.099  14.613  46.337  1.00  0.00     0.105 A 
HETATM   20  C18 UNL     1       3.695  13.400  46.654  1.00  0.00     0.135 A 
HETATM   21  C16 UNL     1       4.430  12.713  45.709  1.00  0.00     0.105 A 
HETATM   22  C15 UNL     1       4.540  13.282  44.464  1.00  0.00     0.055 A 
BRANCH  19  23
HETATM   23  O1  UNL     1       2.374  15.288  47.273  1.00  0.00    -0.353 OA
HETATM   24  C1  UNL     1       2.560  16.604  47.690  1.00  0.00     0.210 C 
ENDBRANCH  19  23
BRANCH  20  25
HETATM   25  O7  UNL     1       3.535  12.898  47.935  1.00  0.00    -0.351 OA
HETATM   26  C19 UNL     1       4.467  13.008  48.972  1.00  0.00     0.210 C 
ENDBRANCH  20  25
BRANCH  21  27
HETATM   27  O6  UNL     1       5.022  11.490  46.047  1.00  0.00    -0.353 OA
HETATM   28  C17 UNL     1       6.413  11.431  46.158  1.00  0.00     0.210 C 
ENDBRANCH  21  27
ENDBRANCH  15  17
ENDBRANCH   1  15
TORSDOF 8
ENDMDL
