MODEL 1
REMARK VINA RESULT: -5.382521337      0.000      0.000
REMARK  16 active torsions:
REMARK  status: ('A' for Active; 'I' for Inactive)
REMARK    1  A    between atoms: C2_2  and  C3_3 
REMARK    2  A    between atoms: C3_3  and  C4_4 
REMARK    3  A    between atoms: C4_4  and  C5_5 
REMARK    4  A    between atoms: C5_5  and  C6_6 
REMARK    5  A    between atoms: C8_8  and  O1_9 
REMARK    6  A    between atoms: C9_11  and  O2_12 
REMARK    7  A    between atoms: C11_15  and  C12_16 
REMARK    8  A    between atoms: C12_16  and  C13_17 
REMARK    9  A    between atoms: C13_17  and  C14_18 
REMARK   10  A    between atoms: C14_18  and  C15_19 
REMARK   11  A    between atoms: C16_20  and  C18_22 
REMARK   12  A    between atoms: C19_23  and  C20_24 
REMARK   13  A    between atoms: C20_24  and  C22_26 
REMARK   14  A    between atoms: C22_26  and  C23_27 
REMARK   15  A    between atoms: C23_27  and  C25_29 
REMARK   16  A    between atoms: C25_29  and  O4_31 
ROOT
HETATM    1  C12 UNL     1      61.333  -5.785  46.295  1.00  0.00    -0.167 C 
ENDROOT
BRANCH   1   2
HETATM    2  C11 UNL     1      60.339  -5.826  47.022  1.00  0.00     0.059 C 
HETATM    3  C6  UNL     1      60.084  -5.360  48.371  1.00  0.00     0.003 C 
HETATM    4  C7  UNL     1      58.535  -4.877  48.266  1.00  0.00     0.040 C 
HETATM    5  C8  UNL     1      57.630  -6.022  48.128  1.00  0.00     0.147 C 
HETATM    6  C9  UNL     1      58.434  -7.284  47.827  1.00  0.00     0.148 C 
HETATM    7  C10 UNL     1      59.226  -6.852  46.577  1.00  0.00     0.051 C 
BRANCH   3   8
HETATM    8  C5  UNL     1      60.626  -4.031  48.834  1.00  0.00     0.006 C 
BRANCH   8   9
HETATM    9  C4  UNL     1      60.279  -2.763  48.250  1.00  0.00     0.000 C 
BRANCH   9  10
HETATM   10  C3  UNL     1      61.362  -1.881  47.708  1.00  0.00    -0.000 C 
BRANCH  10  11
HETATM   11  C2  UNL     1      61.468  -1.570  46.300  1.00  0.00    -0.005 C 
HETATM   12  C1  UNL     1      60.535  -2.337  45.419  1.00  0.00     0.005 C 
ENDBRANCH  10  11
ENDBRANCH   9  10
ENDBRANCH   8   9
ENDBRANCH   3   8
BRANCH   5  13
HETATM   13  O1  UNL     1      56.784  -5.903  46.989  1.00  0.00    -0.393 OA
ATOM     14  H1  UNL     1      55.970  -5.458  47.193  1.00  0.00     0.210 HD
ENDBRANCH   5  13
BRANCH   6  15
HETATM   15  O2  UNL     1      57.535  -8.238  47.376  1.00  0.00    -0.393 OA
ATOM     16  H2  UNL     1      58.006  -9.062  47.325  1.00  0.00     0.210 HD
ENDBRANCH   6  15
ENDBRANCH   1   2
BRANCH   1  17
HETATM   17  C13 UNL     1      62.477  -5.738  45.459  1.00  0.00     0.165 C 
BRANCH  17  18
HETATM   18  C14 UNL     1      63.374  -4.866  45.707  1.00  0.00    -0.144 C 
BRANCH  18  19
HETATM   19  C15 UNL     1      64.325  -3.922  45.933  1.00  0.00     0.058 C 
HETATM   20  C16 UNL     1      64.934  -3.126  46.765  1.00  0.00    -0.055 C 
HETATM   21  C17 UNL     1      64.749  -2.948  48.189  1.00  0.00     0.049 C 
BRANCH  20  22
HETATM   22  C18 UNL     1      65.632  -2.037  46.005  1.00  0.00     0.004 C 
HETATM   23  C19 UNL     1      65.650  -1.527  44.862  1.00  0.00    -0.022 C 
BRANCH  23  24
HETATM   24  C20 UNL     1      66.681  -0.364  44.623  1.00  0.00     0.005 C 
HETATM   25  C21 UNL     1      66.347   0.767  45.596  1.00  0.00     0.014 C 
BRANCH  24  26
HETATM   26  C22 UNL     1      68.024  -0.852  45.035  1.00  0.00     0.022 C 
BRANCH  26  27
HETATM   27  C23 UNL     1      68.822  -1.460  43.919  1.00  0.00     0.082 C 
HETATM   28  C24 UNL     1      70.063  -0.511  43.728  1.00  0.00     0.020 C 
BRANCH  27  29
HETATM   29  C25 UNL     1      69.468  -2.721  44.447  1.00  0.00     0.262 C 
HETATM   30  O3  UNL     1      68.745  -3.410  45.205  1.00  0.00    -0.265 OA
BRANCH  29  31
HETATM   31  O4  UNL     1      70.740  -3.129  44.145  1.00  0.00    -0.326 OA
HETATM   32  C26 UNL     1      70.993  -4.293  43.368  1.00  0.00     0.213 C 
ENDBRANCH  29  31
ENDBRANCH  27  29
ENDBRANCH  26  27
ENDBRANCH  24  26
ENDBRANCH  23  24
ENDBRANCH  20  22
ENDBRANCH  18  19
ENDBRANCH  17  18
ENDBRANCH   1  17
TORSDOF 16
ENDMDL
MODEL 2
REMARK VINA RESULT: -5.359897874      1.575      2.505
REMARK  16 active torsions:
REMARK  status: ('A' for Active; 'I' for Inactive)
REMARK    1  A    between atoms: C2_2  and  C3_3 
REMARK    2  A    between atoms: C3_3  and  C4_4 
REMARK    3  A    between atoms: C4_4  and  C5_5 
REMARK    4  A    between atoms: C5_5  and  C6_6 
REMARK    5  A    between atoms: C8_8  and  O1_9 
REMARK    6  A    between atoms: C9_11  and  O2_12 
REMARK    7  A    between atoms: C11_15  and  C12_16 
REMARK    8  A    between atoms: C12_16  and  C13_17 
REMARK    9  A    between atoms: C13_17  and  C14_18 
REMARK   10  A    between atoms: C14_18  and  C15_19 
REMARK   11  A    between atoms: C16_20  and  C18_22 
REMARK   12  A    between atoms: C19_23  and  C20_24 
REMARK   13  A    between atoms: C20_24  and  C22_26 
REMARK   14  A    between atoms: C22_26  and  C23_27 
REMARK   15  A    between atoms: C23_27  and  C25_29 
REMARK   16  A    between atoms: C25_29  and  O4_31 
ROOT
HETATM    1  C12 UNL     1      61.187  -5.757  46.098  1.00  0.00    -0.167 C 
ENDROOT
BRANCH   1   2
HETATM    2  C11 UNL     1      60.262  -5.904  46.898  1.00  0.00     0.059 C 
HETATM    3  C6  UNL     1      60.114  -5.585  48.305  1.00  0.00     0.003 C 
HETATM    4  C7  UNL     1      58.550  -5.147  48.380  1.00  0.00     0.040 C 
HETATM    5  C8  UNL     1      57.666  -6.303  48.203  1.00  0.00     0.147 C 
HETATM    6  C9  UNL     1      58.473  -7.500  47.708  1.00  0.00     0.148 C 
HETATM    7  C10 UNL     1      59.141  -6.918  46.446  1.00  0.00     0.051 C 
BRANCH   3   8
HETATM    8  C5  UNL     1      60.660  -4.291  48.853  1.00  0.00     0.006 C 
BRANCH   8   9
HETATM    9  C4  UNL     1      60.136  -2.988  48.539  1.00  0.00     0.000 C 
BRANCH   9  10
HETATM   10  C3  UNL     1      61.031  -1.970  47.901  1.00  0.00    -0.000 C 
BRANCH  10  11
HETATM   11  C2  UNL     1      61.329  -1.988  46.486  1.00  0.00    -0.005 C 
HETATM   12  C1  UNL     1      60.156  -2.274  45.604  1.00  0.00     0.005 C 
ENDBRANCH  10  11
ENDBRANCH   9  10
ENDBRANCH   8   9
ENDBRANCH   3   8
BRANCH   5  13
HETATM   13  O1  UNL     1      56.720  -6.100  47.157  1.00  0.00    -0.393 OA
ATOM     14  H1  UNL     1      55.892  -5.769  47.483  1.00  0.00     0.210 HD
ENDBRANCH   5  13
BRANCH   6  15
HETATM   15  O2  UNL     1      57.563  -8.436  47.238  1.00  0.00    -0.393 OA
ATOM     16  H2  UNL     1      57.944  -9.293  47.387  1.00  0.00     0.210 HD
ENDBRANCH   6  15
ENDBRANCH   1   2
BRANCH   1  17
HETATM   17  C13 UNL     1      62.251  -5.587  45.177  1.00  0.00     0.165 C 
BRANCH  17  18
HETATM   18  C14 UNL     1      63.310  -4.997  45.575  1.00  0.00    -0.144 C 
BRANCH  18  19
HETATM   19  C15 UNL     1      64.457  -4.404  45.994  1.00  0.00     0.058 C 
HETATM   20  C16 UNL     1      65.073  -3.642  46.852  1.00  0.00    -0.055 C 
HETATM   21  C17 UNL     1      64.574  -2.983  48.040  1.00  0.00     0.049 C 
BRANCH  20  22
HETATM   22  C18 UNL     1      66.354  -3.138  46.255  1.00  0.00     0.004 C 
HETATM   23  C19 UNL     1      67.334  -3.555  45.597  1.00  0.00    -0.022 C 
BRANCH  23  24
HETATM   24  C20 UNL     1      68.464  -2.511  45.272  1.00  0.00     0.005 C 
HETATM   25  C21 UNL     1      69.461  -3.179  44.324  1.00  0.00     0.014 C 
BRANCH  24  26
HETATM   26  C22 UNL     1      67.854  -1.407  44.485  1.00  0.00     0.022 C 
BRANCH  26  27
HETATM   27  C23 UNL     1      68.520  -0.077  44.682  1.00  0.00     0.082 C 
HETATM   28  C24 UNL     1      67.944   0.850  43.548  1.00  0.00     0.020 C 
BRANCH  27  29
HETATM   29  C25 UNL     1      67.936   0.551  45.928  1.00  0.00     0.262 C 
HETATM   30  O3  UNL     1      66.701   0.389  46.076  1.00  0.00    -0.265 OA
BRANCH  29  31
HETATM   31  O4  UNL     1      68.658   1.249  46.860  1.00  0.00    -0.326 OA
HETATM   32  C26 UNL     1      68.635   2.669  46.922  1.00  0.00     0.213 C 
ENDBRANCH  29  31
ENDBRANCH  27  29
ENDBRANCH  26  27
ENDBRANCH  24  26
ENDBRANCH  23  24
ENDBRANCH  20  22
ENDBRANCH  18  19
ENDBRANCH  17  18
ENDBRANCH   1  17
TORSDOF 16
ENDMDL
MODEL 3
REMARK VINA RESULT: -5.260754205      1.393      2.081
REMARK  16 active torsions:
REMARK  status: ('A' for Active; 'I' for Inactive)
REMARK    1  A    between atoms: C2_2  and  C3_3 
REMARK    2  A    between atoms: C3_3  and  C4_4 
REMARK    3  A    between atoms: C4_4  and  C5_5 
REMARK    4  A    between atoms: C5_5  and  C6_6 
REMARK    5  A    between atoms: C8_8  and  O1_9 
REMARK    6  A    between atoms: C9_11  and  O2_12 
REMARK    7  A    between atoms: C11_15  and  C12_16 
REMARK    8  A    between atoms: C12_16  and  C13_17 
REMARK    9  A    between atoms: C13_17  and  C14_18 
REMARK   10  A    between atoms: C14_18  and  C15_19 
REMARK   11  A    between atoms: C16_20  and  C18_22 
REMARK   12  A    between atoms: C19_23  and  C20_24 
REMARK   13  A    between atoms: C20_24  and  C22_26 
REMARK   14  A    between atoms: C22_26  and  C23_27 
REMARK   15  A    between atoms: C23_27  and  C25_29 
REMARK   16  A    between atoms: C25_29  and  O4_31 
ROOT
HETATM    1  C12 UNL     1      61.196  -5.732  46.113  1.00  0.00    -0.167 C 
ENDROOT
BRANCH   1   2
HETATM    2  C11 UNL     1      60.287  -5.838  46.938  1.00  0.00     0.059 C 
HETATM    3  C6  UNL     1      60.172  -5.462  48.333  1.00  0.00     0.003 C 
HETATM    4  C7  UNL     1      58.614  -5.005  48.424  1.00  0.00     0.040 C 
HETATM    5  C8  UNL     1      57.715  -6.157  48.311  1.00  0.00     0.147 C 
HETATM    6  C9  UNL     1      58.499  -7.382  47.847  1.00  0.00     0.148 C 
HETATM    7  C10 UNL     1      59.147  -6.857  46.550  1.00  0.00     0.051 C 
BRANCH   3   8
HETATM    8  C5  UNL     1      60.742  -4.153  48.819  1.00  0.00     0.006 C 
BRANCH   8   9
HETATM    9  C4  UNL     1      60.238  -2.858  48.447  1.00  0.00     0.000 C 
BRANCH   9  10
HETATM   10  C3  UNL     1      61.113  -1.924  47.669  1.00  0.00    -0.000 C 
BRANCH  10  11
HETATM   11  C2  UNL     1      61.225  -1.996  46.228  1.00  0.00    -0.005 C 
HETATM   12  C1  UNL     1      59.955  -2.345  45.520  1.00  0.00     0.005 C 
ENDBRANCH  10  11
ENDBRANCH   9  10
ENDBRANCH   8   9
ENDBRANCH   3   8
BRANCH   5  13
HETATM   13  O1  UNL     1      56.750  -5.986  47.278  1.00  0.00    -0.393 OA
ATOM     14  H1  UNL     1      56.634  -6.775  46.763  1.00  0.00     0.210 HD
ENDBRANCH   5  13
BRANCH   6  15
HETATM   15  O2  UNL     1      57.570  -8.325  47.434  1.00  0.00    -0.393 OA
ATOM     16  H2  UNL     1      57.860  -9.166  47.770  1.00  0.00     0.210 HD
ENDBRANCH   6  15
ENDBRANCH   1   2
BRANCH   1  17
HETATM   17  C13 UNL     1      62.242  -5.611  45.164  1.00  0.00     0.165 C 
BRANCH  17  18
HETATM   18  C14 UNL     1      63.324  -5.038  45.523  1.00  0.00    -0.144 C 
BRANCH  18  19
HETATM   19  C15 UNL     1      64.454  -4.403  45.928  1.00  0.00     0.058 C 
HETATM   20  C16 UNL     1      65.051  -3.614  46.775  1.00  0.00    -0.055 C 
HETATM   21  C17 UNL     1      64.539  -2.963  47.963  1.00  0.00     0.049 C 
BRANCH  20  22
HETATM   22  C18 UNL     1      66.309  -3.071  46.163  1.00  0.00     0.004 C 
HETATM   23  C19 UNL     1      67.333  -3.470  45.565  1.00  0.00    -0.022 C 
BRANCH  23  24
HETATM   24  C20 UNL     1      68.395  -2.379  45.174  1.00  0.00     0.005 C 
HETATM   25  C21 UNL     1      69.530  -3.077  44.424  1.00  0.00     0.014 C 
BRANCH  24  26
HETATM   26  C22 UNL     1      67.769  -1.469  44.178  1.00  0.00     0.022 C 
BRANCH  26  27
HETATM   27  C23 UNL     1      67.898  -0.013  44.516  1.00  0.00     0.082 C 
HETATM   28  C24 UNL     1      68.531   0.028  45.956  1.00  0.00     0.020 C 
BRANCH  27  29
HETATM   29  C25 UNL     1      69.010   0.562  43.667  1.00  0.00     0.262 C 
HETATM   30  O3  UNL     1      68.650   1.429  42.836  1.00  0.00    -0.265 OA
BRANCH  29  31
HETATM   31  O4  UNL     1      70.329   0.202  43.764  1.00  0.00    -0.326 OA
HETATM   32  C26 UNL     1      71.219   0.304  42.661  1.00  0.00     0.213 C 
ENDBRANCH  29  31
ENDBRANCH  27  29
ENDBRANCH  26  27
ENDBRANCH  24  26
ENDBRANCH  23  24
ENDBRANCH  20  22
ENDBRANCH  18  19
ENDBRANCH  17  18
ENDBRANCH   1  17
TORSDOF 16
ENDMDL
MODEL 4
REMARK VINA RESULT: -5.224252748      3.342     10.360
REMARK  16 active torsions:
REMARK  status: ('A' for Active; 'I' for Inactive)
REMARK    1  A    between atoms: C2_2  and  C3_3 
REMARK    2  A    between atoms: C3_3  and  C4_4 
REMARK    3  A    between atoms: C4_4  and  C5_5 
REMARK    4  A    between atoms: C5_5  and  C6_6 
REMARK    5  A    between atoms: C8_8  and  O1_9 
REMARK    6  A    between atoms: C9_11  and  O2_12 
REMARK    7  A    between atoms: C11_15  and  C12_16 
REMARK    8  A    between atoms: C12_16  and  C13_17 
REMARK    9  A    between atoms: C13_17  and  C14_18 
REMARK   10  A    between atoms: C14_18  and  C15_19 
REMARK   11  A    between atoms: C16_20  and  C18_22 
REMARK   12  A    between atoms: C19_23  and  C20_24 
REMARK   13  A    between atoms: C20_24  and  C22_26 
REMARK   14  A    between atoms: C22_26  and  C23_27 
REMARK   15  A    between atoms: C23_27  and  C25_29 
REMARK   16  A    between atoms: C25_29  and  O4_31 
ROOT
HETATM    1  C12 UNL     1      61.832  -4.049  48.007  1.00  0.00    -0.167 C 
ENDROOT
BRANCH   1   2
HETATM    2  C11 UNL     1      62.793  -3.617  47.369  1.00  0.00     0.059 C 
HETATM    3  C6  UNL     1      63.769  -4.251  46.503  1.00  0.00     0.003 C 
HETATM    4  C7  UNL     1      64.006  -3.103  45.377  1.00  0.00     0.040 C 
HETATM    5  C8  UNL     1      64.739  -1.960  45.929  1.00  0.00     0.147 C 
HETATM    6  C9  UNL     1      64.791  -2.066  47.451  1.00  0.00     0.148 C 
HETATM    7  C10 UNL     1      63.295  -2.185  47.802  1.00  0.00     0.051 C 
BRANCH   3   8
HETATM    8  C5  UNL     1      63.344  -5.327  45.536  1.00  0.00     0.006 C 
BRANCH   8   9
HETATM    9  C4  UNL     1      62.241  -5.207  44.619  1.00  0.00     0.000 C 
BRANCH   9  10
HETATM   10  C3  UNL     1      61.264  -6.335  44.494  1.00  0.00    -0.000 C 
BRANCH  10  11
HETATM   11  C2  UNL     1      61.501  -7.465  43.624  1.00  0.00    -0.005 C 
HETATM   12  C1  UNL     1      61.552  -7.132  42.167  1.00  0.00     0.005 C 
ENDBRANCH  10  11
ENDBRANCH   9  10
ENDBRANCH   8   9
ENDBRANCH   3   8
BRANCH   5  13
HETATM   13  O1  UNL     1      64.054  -0.730  45.718  1.00  0.00    -0.393 OA
ATOM     14  H1  UNL     1      63.620  -0.422  46.505  1.00  0.00     0.210 HD
ENDBRANCH   5  13
BRANCH   6  15
HETATM   15  O2  UNL     1      65.179  -0.823  47.930  1.00  0.00    -0.393 OA
ATOM     16  H2  UNL     1      64.565  -0.586  48.616  1.00  0.00     0.210 HD
ENDBRANCH   6  15
ENDBRANCH   1   2
BRANCH   1  17
HETATM   17  C13 UNL     1      60.726  -4.547  48.740  1.00  0.00     0.165 C 
BRANCH  17  18
HETATM   18  C14 UNL     1      59.944  -5.377  48.170  1.00  0.00    -0.144 C 
BRANCH  18  19
HETATM   19  C15 UNL     1      59.123  -6.290  47.589  1.00  0.00     0.058 C 
HETATM   20  C16 UNL     1      57.989  -6.931  47.584  1.00  0.00    -0.055 C 
HETATM   21  C17 UNL     1      56.856  -6.827  48.479  1.00  0.00     0.049 C 
BRANCH  20  22
HETATM   22  C18 UNL     1      58.109  -8.168  46.743  1.00  0.00     0.004 C 
HETATM   23  C19 UNL     1      58.551  -8.530  45.629  1.00  0.00    -0.022 C 
BRANCH  23  24
HETATM   24  C20 UNL     1      58.347 -10.041  45.244  1.00  0.00     0.005 C 
HETATM   25  C21 UNL     1      59.485 -10.443  44.305  1.00  0.00     0.014 C 
BRANCH  24  26
HETATM   26  C22 UNL     1      58.545 -10.856  46.471  1.00  0.00     0.022 C 
BRANCH  26  27
HETATM   27  C23 UNL     1      58.097 -12.282  46.336  1.00  0.00     0.082 C 
HETATM   28  C24 UNL     1      59.242 -13.143  46.987  1.00  0.00     0.020 C 
BRANCH  27  29
HETATM   29  C25 UNL     1      56.952 -12.500  47.301  1.00  0.00     0.262 C 
HETATM   30  O3  UNL     1      55.916 -11.839  47.053  1.00  0.00    -0.265 OA
BRANCH  29  31
HETATM   31  O4  UNL     1      56.991 -13.348  48.376  1.00  0.00    -0.326 OA
HETATM   32  C26 UNL     1      55.866 -13.543  49.222  1.00  0.00     0.213 C 
ENDBRANCH  29  31
ENDBRANCH  27  29
ENDBRANCH  26  27
ENDBRANCH  24  26
ENDBRANCH  23  24
ENDBRANCH  20  22
ENDBRANCH  18  19
ENDBRANCH  17  18
ENDBRANCH   1  17
TORSDOF 16
ENDMDL
MODEL 5
REMARK VINA RESULT: -5.125425209      3.618     10.144
REMARK  16 active torsions:
REMARK  status: ('A' for Active; 'I' for Inactive)
REMARK    1  A    between atoms: C2_2  and  C3_3 
REMARK    2  A    between atoms: C3_3  and  C4_4 
REMARK    3  A    between atoms: C4_4  and  C5_5 
REMARK    4  A    between atoms: C5_5  and  C6_6 
REMARK    5  A    between atoms: C8_8  and  O1_9 
REMARK    6  A    between atoms: C9_11  and  O2_12 
REMARK    7  A    between atoms: C11_15  and  C12_16 
REMARK    8  A    between atoms: C12_16  and  C13_17 
REMARK    9  A    between atoms: C13_17  and  C14_18 
REMARK   10  A    between atoms: C14_18  and  C15_19 
REMARK   11  A    between atoms: C16_20  and  C18_22 
REMARK   12  A    between atoms: C19_23  and  C20_24 
REMARK   13  A    between atoms: C20_24  and  C22_26 
REMARK   14  A    between atoms: C22_26  and  C23_27 
REMARK   15  A    between atoms: C23_27  and  C25_29 
REMARK   16  A    between atoms: C25_29  and  O4_31 
ROOT
HETATM    1  C12 UNL     1      61.724  -4.137  47.983  1.00  0.00    -0.167 C 
ENDROOT
BRANCH   1   2
HETATM    2  C11 UNL     1      62.693  -3.736  47.337  1.00  0.00     0.059 C 
HETATM    3  C6  UNL     1      63.678  -4.412  46.514  1.00  0.00     0.003 C 
HETATM    4  C7  UNL     1      63.930  -3.319  45.337  1.00  0.00     0.040 C 
HETATM    5  C8  UNL     1      64.658  -2.151  45.844  1.00  0.00     0.147 C 
HETATM    6  C9  UNL     1      64.692  -2.185  47.370  1.00  0.00     0.148 C 
HETATM    7  C10 UNL     1      63.191  -2.286  47.707  1.00  0.00     0.051 C 
BRANCH   3   8
HETATM    8  C5  UNL     1      63.263  -5.532  45.594  1.00  0.00     0.006 C 
BRANCH   8   9
HETATM    9  C4  UNL     1      62.162  -5.461  44.670  1.00  0.00     0.000 C 
BRANCH   9  10
HETATM   10  C3  UNL     1      61.154  -6.568  44.640  1.00  0.00    -0.000 C 
BRANCH  10  11
HETATM   11  C2  UNL     1      61.254  -7.674  43.714  1.00  0.00    -0.005 C 
HETATM   12  C1  UNL     1      61.631  -7.289  42.320  1.00  0.00     0.005 C 
ENDBRANCH  10  11
ENDBRANCH   9  10
ENDBRANCH   8   9
ENDBRANCH   3   8
BRANCH   5  13
HETATM   13  O1  UNL     1      63.977  -0.932  45.566  1.00  0.00    -0.393 OA
ATOM     14  H1  UNL     1      64.312  -0.504  44.788  1.00  0.00     0.210 HD
ENDBRANCH   5  13
BRANCH   6  15
HETATM   15  O2  UNL     1      65.075  -0.921  47.794  1.00  0.00    -0.393 OA
ATOM     16  H2  UNL     1      64.282  -0.454  48.028  1.00  0.00     0.210 HD
ENDBRANCH   6  15
ENDBRANCH   1   2
BRANCH   1  17
HETATM   17  C13 UNL     1      60.608  -4.599  48.726  1.00  0.00     0.165 C 
BRANCH  17  18
HETATM   18  C14 UNL     1      59.880  -5.517  48.221  1.00  0.00    -0.144 C 
BRANCH  18  19
HETATM   19  C15 UNL     1      59.079  -6.465  47.670  1.00  0.00     0.058 C 
HETATM   20  C16 UNL     1      57.931  -7.080  47.641  1.00  0.00    -0.055 C 
HETATM   21  C17 UNL     1      56.738  -6.864  48.431  1.00  0.00     0.049 C 
BRANCH  20  22
HETATM   22  C18 UNL     1      58.078  -8.396  46.936  1.00  0.00     0.004 C 
HETATM   23  C19 UNL     1      58.490  -8.860  45.849  1.00  0.00    -0.022 C 
BRANCH  23  24
HETATM   24  C20 UNL     1      58.348 -10.413  45.643  1.00  0.00     0.005 C 
HETATM   25  C21 UNL     1      59.302 -10.826  44.522  1.00  0.00     0.014 C 
BRANCH  24  26
HETATM   26  C22 UNL     1      58.863 -11.084  46.864  1.00  0.00     0.022 C 
BRANCH  26  27
HETATM   27  C23 UNL     1      57.948 -12.140  47.413  1.00  0.00     0.082 C 
HETATM   28  C24 UNL     1      56.611 -12.001  46.594  1.00  0.00     0.020 C 
BRANCH  27  29
HETATM   29  C25 UNL     1      58.463 -13.484  46.947  1.00  0.00     0.262 C 
HETATM   30  O3  UNL     1      57.602 -14.395  46.901  1.00  0.00    -0.265 OA
BRANCH  29  31
HETATM   31  O4  UNL     1      59.759 -13.739  46.586  1.00  0.00    -0.326 OA
HETATM   32  C26 UNL     1      60.091 -14.731  45.623  1.00  0.00     0.213 C 
ENDBRANCH  29  31
ENDBRANCH  27  29
ENDBRANCH  26  27
ENDBRANCH  24  26
ENDBRANCH  23  24
ENDBRANCH  20  22
ENDBRANCH  18  19
ENDBRANCH  17  18
ENDBRANCH   1  17
TORSDOF 16
ENDMDL
