MODEL 1
REMARK VINA RESULT: -6.429903870      0.000      0.000
REMARK  10 active torsions:
REMARK  status: ('A' for Active; 'I' for Inactive)
REMARK    1  A    between atoms: C2_2  and  O2_4 
REMARK    2  A    between atoms: O2_4  and  C3_5 
REMARK    3  A    between atoms: C7_10  and  C8_11 
REMARK       I    between atoms: C8_11  and  N1_13 
REMARK    4  A    between atoms: N1_13  and  C9_15 
REMARK    5  A    between atoms: C9_15  and  C10_16 
REMARK    6  A    between atoms: C14_23  and  S2_24 
REMARK    7  A    between atoms: S2_24  and  N3_27 
REMARK    8  A    between atoms: N3_27  and  C15_29 
REMARK    9  A    between atoms: C15_29  and  C16_30 
REMARK   10  A    between atoms: C17_31  and  C18_32 
ROOT
HETATM    1  C3  UNL     1     -16.213   7.848  -5.207  1.00  0.00     0.152 C 
HETATM    2  C4  UNL     1     -16.776   7.870  -4.022  1.00  0.00    -0.009 C 
HETATM    3  C5  UNL     1     -16.941   6.539  -3.333  1.00  0.00     0.115 C 
HETATM    4  S1  UNL     1     -16.530   6.681  -1.574  1.00  0.00    -0.136 SA
HETATM    5  C6  UNL     1     -16.840   8.384  -0.970  1.00  0.00     0.192 C 
HETATM    6  C7  UNL     1     -15.912   8.764   0.122  1.00  0.00     0.258 C 
HETATM    7  O4  UNL     1     -14.924   9.553  -0.463  1.00  0.00    -0.286 OA
HETATM    8  C13 UNL     1     -15.503  10.112  -1.628  1.00  0.00     0.366 C 
HETATM    9  O5  UNL     1     -15.094  11.203  -2.095  1.00  0.00    -0.238 OA
HETATM   10  N2  UNL     1     -16.521   9.252  -2.075  1.00  0.00    -0.287 N 
HETATM   11  C14 UNL     1     -17.256   9.066  -3.304  1.00  0.00     0.266 C 
ENDROOT
BRANCH  11  12
HETATM   12  S2  UNL     1     -17.389  10.523  -4.251  1.00  0.00     0.253 S 
HETATM   13  O6  UNL     1     -18.008  11.670  -3.462  1.00  0.00    -0.203 OA
HETATM   14  O7  UNL     1     -18.315  10.289  -5.412  1.00  0.00    -0.203 OA
BRANCH  12  15
HETATM   15  N3  UNL     1     -15.895  11.071  -4.889  1.00  0.00    -0.306 N 
ATOM     16  H3  UNL     1     -15.047  10.505  -4.880  1.00  0.00     0.173 HD
BRANCH  15  17
HETATM   17  C15 UNL     1     -15.942  12.390  -5.436  1.00  0.00     0.225 C 
BRANCH  17  18
HETATM   18  C16 UNL     1     -15.367  12.405  -6.756  1.00  0.00    -0.086 C 
HETATM   19  C17 UNL     1     -14.902  12.415  -7.874  1.00  0.00    -0.097 C 
BRANCH  19  20
HETATM   20  C18 UNL     1     -14.360  12.424  -9.245  1.00  0.00     0.101 A 
HETATM   21  C19 UNL     1     -13.001  13.000  -9.465  1.00  0.00     0.058 A 
HETATM   22  C20 UNL     1     -13.226  11.523  -9.579  1.00  0.00     0.187 A 
HETATM   23  F1  UNL     1     -12.708  10.675  -8.612  1.00  0.00    -0.248 F 
ENDBRANCH  19  20
ENDBRANCH  17  18
ENDBRANCH  15  17
ENDBRANCH  12  15
ENDBRANCH  11  12
BRANCH   1  24
HETATM   24  O2  UNL     1     -15.784   6.657  -5.809  1.00  0.00    -0.291 OA
BRANCH  24  25
HETATM   25  C2  UNL     1     -15.986   6.521  -7.167  1.00  0.00     0.259 C 
HETATM   26  C1  UNL     1     -16.647   5.342  -7.776  1.00  0.00     0.126 C 
HETATM   27  O1  UNL     1     -15.600   7.430  -7.950  1.00  0.00    -0.265 OA
ENDBRANCH  24  25
ENDBRANCH   1  24
BRANCH   6  28
HETATM   28  C8  UNL     1     -15.398   7.551   0.775  1.00  0.00     0.250 C 
HETATM   29  O3  UNL     1     -16.176   6.897   1.512  1.00  0.00    -0.271 OA
HETATM   30  N1  UNL     1     -14.074   7.064   0.631  1.00  0.00    -0.358 N 
ATOM     31  H1  UNL     1     -13.430   7.584   0.036  1.00  0.00     0.162 HD
BRANCH  30  32
HETATM   32  C9  UNL     1     -13.596   5.876   1.279  1.00  0.00     0.126 C 
BRANCH  32  33
HETATM   33  C10 UNL     1     -13.476   4.708   0.331  1.00  0.00    -0.005 C 
HETATM   34  C11 UNL     1     -12.068   4.176   0.254  1.00  0.00     0.011 C 
HETATM   35  C12 UNL     1     -14.413   3.591   0.668  1.00  0.00     0.011 C 
ENDBRANCH  32  33
ENDBRANCH  30  32
ENDBRANCH   6  28
TORSDOF 10
ENDMDL
MODEL 2
REMARK VINA RESULT: -6.306410022      4.042      7.593
REMARK  10 active torsions:
REMARK  status: ('A' for Active; 'I' for Inactive)
REMARK    1  A    between atoms: C2_2  and  O2_4 
REMARK    2  A    between atoms: O2_4  and  C3_5 
REMARK    3  A    between atoms: C7_10  and  C8_11 
REMARK       I    between atoms: C8_11  and  N1_13 
REMARK    4  A    between atoms: N1_13  and  C9_15 
REMARK    5  A    between atoms: C9_15  and  C10_16 
REMARK    6  A    between atoms: C14_23  and  S2_24 
REMARK    7  A    between atoms: S2_24  and  N3_27 
REMARK    8  A    between atoms: N3_27  and  C15_29 
REMARK    9  A    between atoms: C15_29  and  C16_30 
REMARK   10  A    between atoms: C17_31  and  C18_32 
ROOT
HETATM    1  C3  UNL     1     -15.742  11.367  -5.329  1.00  0.00     0.152 C 
HETATM    2  C4  UNL     1     -16.190  11.481  -4.101  1.00  0.00    -0.009 C 
HETATM    3  C5  UNL     1     -16.302  12.883  -3.557  1.00  0.00     0.115 C 
HETATM    4  S1  UNL     1     -17.844  13.080  -2.626  1.00  0.00    -0.136 SA
HETATM    5  C6  UNL     1     -18.385  11.478  -1.919  1.00  0.00     0.192 C 
HETATM    6  C7  UNL     1     -19.861  11.386  -1.814  1.00  0.00     0.258 C 
HETATM    7  O4  UNL     1     -20.282  10.622  -2.899  1.00  0.00    -0.286 OA
HETATM    8  C13 UNL     1     -19.177   9.818  -3.269  1.00  0.00     0.366 C 
HETATM    9  O5  UNL     1     -19.342   8.715  -3.846  1.00  0.00    -0.238 OA
HETATM   10  N2  UNL     1     -17.998  10.477  -2.881  1.00  0.00    -0.287 N 
HETATM   11  C14 UNL     1     -16.596  10.377  -3.212  1.00  0.00     0.266 C 
ENDROOT
BRANCH  11  12
HETATM   12  S2  UNL     1     -16.123   8.777  -3.716  1.00  0.00     0.253 S 
HETATM   13  O6  UNL     1     -16.546   7.708  -2.716  1.00  0.00    -0.203 OA
HETATM   14  O7  UNL     1     -14.624   8.691  -3.787  1.00  0.00    -0.203 OA
BRANCH  12  15
HETATM   15  N3  UNL     1     -16.735   8.329  -5.254  1.00  0.00    -0.306 N 
ATOM     16  H3  UNL     1     -17.730   8.328  -5.477  1.00  0.00     0.173 HD
BRANCH  15  17
HETATM   17  C15 UNL     1     -15.728   7.957  -6.197  1.00  0.00     0.225 C 
BRANCH  17  18
HETATM   18  C16 UNL     1     -16.076   6.715  -6.836  1.00  0.00    -0.086 C 
HETATM   19  C17 UNL     1     -16.351   5.669  -7.382  1.00  0.00    -0.097 C 
BRANCH  19  20
HETATM   20  C18 UNL     1     -16.662   4.397  -8.059  1.00  0.00     0.101 A 
HETATM   21  C19 UNL     1     -17.992   3.768  -7.806  1.00  0.00     0.058 A 
HETATM   22  C20 UNL     1     -17.684   4.384  -9.138  1.00  0.00     0.187 A 
HETATM   23  F1  UNL     1     -18.314   5.562  -9.509  1.00  0.00    -0.248 F 
ENDBRANCH  19  20
ENDBRANCH  17  18
ENDBRANCH  15  17
ENDBRANCH  12  15
ENDBRANCH  11  12
BRANCH   1  24
HETATM   24  O2  UNL     1     -15.384  12.481  -6.101  1.00  0.00    -0.291 OA
BRANCH  24  25
HETATM   25  C2  UNL     1     -14.880  12.245  -7.363  1.00  0.00     0.259 C 
HETATM   26  C1  UNL     1     -15.513  11.318  -8.332  1.00  0.00     0.126 C 
HETATM   27  O1  UNL     1     -13.829  12.834  -7.737  1.00  0.00    -0.265 OA
ENDBRANCH  24  25
ENDBRANCH   1  24
BRANCH   6  28
HETATM   28  C8  UNL     1     -20.436  12.738  -1.777  1.00  0.00     0.250 C 
HETATM   29  O3  UNL     1     -20.226  13.448  -0.762  1.00  0.00    -0.271 OA
HETATM   30  N1  UNL     1     -21.220  13.304  -2.815  1.00  0.00    -0.358 N 
ATOM     31  H1  UNL     1     -21.401  12.740  -3.646  1.00  0.00     0.162 HD
BRANCH  30  32
HETATM   32  C9  UNL     1     -21.771  14.628  -2.757  1.00  0.00     0.126 C 
BRANCH  32  33
HETATM   33  C10 UNL     1     -21.131  15.565  -3.752  1.00  0.00    -0.005 C 
HETATM   34  C11 UNL     1     -22.150  16.390  -4.496  1.00  0.00     0.011 C 
HETATM   35  C12 UNL     1     -20.118  16.470  -3.126  1.00  0.00     0.011 C 
ENDBRANCH  32  33
ENDBRANCH  30  32
ENDBRANCH   6  28
TORSDOF 10
ENDMDL
MODEL 3
REMARK VINA RESULT: -6.178745822      3.716      6.999
REMARK  10 active torsions:
REMARK  status: ('A' for Active; 'I' for Inactive)
REMARK    1  A    between atoms: C2_2  and  O2_4 
REMARK    2  A    between atoms: O2_4  and  C3_5 
REMARK    3  A    between atoms: C7_10  and  C8_11 
REMARK       I    between atoms: C8_11  and  N1_13 
REMARK    4  A    between atoms: N1_13  and  C9_15 
REMARK    5  A    between atoms: C9_15  and  C10_16 
REMARK    6  A    between atoms: C14_23  and  S2_24 
REMARK    7  A    between atoms: S2_24  and  N3_27 
REMARK    8  A    between atoms: N3_27  and  C15_29 
REMARK    9  A    between atoms: C15_29  and  C16_30 
REMARK   10  A    between atoms: C17_31  and  C18_32 
ROOT
HETATM    1  C3  UNL     1     -19.240   9.699  -2.021  1.00  0.00     0.152 C 
HETATM    2  C4  UNL     1     -18.688  10.661  -2.722  1.00  0.00    -0.009 C 
HETATM    3  C5  UNL     1     -19.453  11.958  -2.798  1.00  0.00     0.115 C 
HETATM    4  S1  UNL     1     -18.328  13.368  -2.624  1.00  0.00    -0.136 SA
HETATM    5  C6  UNL     1     -16.648  12.935  -3.219  1.00  0.00     0.192 C 
HETATM    6  C7  UNL     1     -15.591  13.672  -2.486  1.00  0.00     0.258 C 
HETATM    7  O4  UNL     1     -15.078  12.785  -1.543  1.00  0.00    -0.286 OA
HETATM    8  C13 UNL     1     -15.336  11.486  -2.043  1.00  0.00     0.366 C 
HETATM    9  O5  UNL     1     -14.610  10.512  -1.723  1.00  0.00    -0.238 OA
HETATM   10  N2  UNL     1     -16.462  11.546  -2.882  1.00  0.00    -0.287 N 
HETATM   11  C14 UNL     1     -17.398  10.595  -3.434  1.00  0.00     0.266 C 
ENDROOT
BRANCH  11  12
HETATM   12  S2  UNL     1     -16.718   9.003  -3.636  1.00  0.00     0.253 S 
HETATM   13  O6  UNL     1     -17.641   8.075  -4.416  1.00  0.00    -0.203 OA
HETATM   14  O7  UNL     1     -16.539   8.355  -2.291  1.00  0.00    -0.203 OA
BRANCH  12  15
HETATM   15  N3  UNL     1     -15.190   8.999  -4.414  1.00  0.00    -0.306 N 
ATOM     16  H3  UNL     1     -14.336   9.321  -3.960  1.00  0.00     0.173 HD
BRANCH  15  17
HETATM   17  C15 UNL     1     -15.217   8.503  -5.753  1.00  0.00     0.225 C 
BRANCH  17  18
HETATM   18  C16 UNL     1     -15.335   9.592  -6.687  1.00  0.00    -0.086 C 
HETATM   19  C17 UNL     1     -15.423  10.498  -7.486  1.00  0.00    -0.097 C 
BRANCH  19  20
HETATM   20  C18 UNL     1     -15.517  11.586  -8.476  1.00  0.00     0.101 A 
HETATM   21  C19 UNL     1     -15.319  12.990  -8.006  1.00  0.00     0.058 A 
HETATM   22  C20 UNL     1     -14.283  12.321  -8.859  1.00  0.00     0.187 A 
HETATM   23  F1  UNL     1     -13.064  11.965  -8.303  1.00  0.00    -0.248 F 
ENDBRANCH  19  20
ENDBRANCH  17  18
ENDBRANCH  15  17
ENDBRANCH  12  15
ENDBRANCH  11  12
BRANCH   1  24
HETATM   24  O2  UNL     1     -20.474   9.858  -1.375  1.00  0.00    -0.291 OA
BRANCH  24  25
HETATM   25  C2  UNL     1     -21.520   9.063  -1.795  1.00  0.00     0.259 C 
HETATM   26  C1  UNL     1     -21.530   8.354  -3.097  1.00  0.00     0.126 C 
HETATM   27  O1  UNL     1     -22.530   8.915  -1.054  1.00  0.00    -0.265 OA
ENDBRANCH  24  25
ENDBRANCH   1  24
BRANCH   6  28
HETATM   28  C8  UNL     1     -16.159  14.898  -1.904  1.00  0.00     0.250 C 
HETATM   29  O3  UNL     1     -16.418  14.910  -0.675  1.00  0.00    -0.271 OA
HETATM   30  N1  UNL     1     -16.439  16.077  -2.640  1.00  0.00    -0.358 N 
ATOM     31  H1  UNL     1     -16.236  16.084  -3.639  1.00  0.00     0.162 HD
BRANCH  30  32
HETATM   32  C9  UNL     1     -16.994  17.262  -2.050  1.00  0.00     0.126 C 
BRANCH  32  33
HETATM   33  C10 UNL     1     -17.994  17.944  -2.953  1.00  0.00    -0.005 C 
HETATM   34  C11 UNL     1     -17.328  18.808  -3.993  1.00  0.00     0.011 C 
HETATM   35  C12 UNL     1     -18.918  16.978  -3.625  1.00  0.00     0.011 C 
ENDBRANCH  32  33
ENDBRANCH  30  32
ENDBRANCH   6  28
TORSDOF 10
ENDMDL
MODEL 4
REMARK VINA RESULT: -6.107069113      3.969      5.361
REMARK  10 active torsions:
REMARK  status: ('A' for Active; 'I' for Inactive)
REMARK    1  A    between atoms: C2_2  and  O2_4 
REMARK    2  A    between atoms: O2_4  and  C3_5 
REMARK    3  A    between atoms: C7_10  and  C8_11 
REMARK       I    between atoms: C8_11  and  N1_13 
REMARK    4  A    between atoms: N1_13  and  C9_15 
REMARK    5  A    between atoms: C9_15  and  C10_16 
REMARK    6  A    between atoms: C14_23  and  S2_24 
REMARK    7  A    between atoms: S2_24  and  N3_27 
REMARK    8  A    between atoms: N3_27  and  C15_29 
REMARK    9  A    between atoms: C15_29  and  C16_30 
REMARK   10  A    between atoms: C17_31  and  C18_32 
ROOT
HETATM    1  C3  UNL     1     -14.839  10.317  -2.117  1.00  0.00     0.152 C 
HETATM    2  C4  UNL     1     -15.702  10.794  -1.251  1.00  0.00    -0.009 C 
HETATM    3  C5  UNL     1     -15.518  10.366   0.182  1.00  0.00     0.115 C 
HETATM    4  S1  UNL     1     -15.772  11.770   1.300  1.00  0.00    -0.136 SA
HETATM    5  C6  UNL     1     -16.918  12.992   0.556  1.00  0.00     0.192 C 
HETATM    6  C7  UNL     1     -16.616  14.376   0.995  1.00  0.00     0.258 C 
HETATM    7  O4  UNL     1     -15.905  14.969  -0.046  1.00  0.00    -0.286 OA
HETATM    8  C13 UNL     1     -16.265  14.267  -1.221  1.00  0.00     0.366 C 
HETATM    9  O5  UNL     1     -16.211  14.818  -2.348  1.00  0.00    -0.238 OA
HETATM   10  N2  UNL     1     -16.651  12.964  -0.860  1.00  0.00    -0.287 N 
HETATM   11  C14 UNL     1     -16.824  11.705  -1.546  1.00  0.00     0.266 C 
ENDROOT
BRANCH  11  12
HETATM   12  S2  UNL     1     -17.234  11.893  -3.229  1.00  0.00     0.253 S 
HETATM   13  O6  UNL     1     -18.462  12.772  -3.431  1.00  0.00    -0.203 OA
HETATM   14  O7  UNL     1     -17.596  10.556  -3.813  1.00  0.00    -0.203 OA
BRANCH  12  15
HETATM   15  N3  UNL     1     -15.963  12.540  -4.182  1.00  0.00    -0.306 N 
ATOM     16  H3  UNL     1     -14.992  12.562  -3.871  1.00  0.00     0.173 HD
BRANCH  15  17
HETATM   17  C15 UNL     1     -16.383  13.045  -5.450  1.00  0.00     0.225 C 
BRANCH  17  18
HETATM   18  C16 UNL     1     -15.950  12.168  -6.507  1.00  0.00    -0.086 C 
HETATM   19  C17 UNL     1     -15.604  11.428  -7.401  1.00  0.00    -0.097 C 
BRANCH  19  20
HETATM   20  C18 UNL     1     -15.209  10.526  -8.498  1.00  0.00     0.101 A 
HETATM   21  C19 UNL     1     -13.771  10.141  -8.614  1.00  0.00     0.058 A 
HETATM   22  C20 UNL     1     -14.793   9.136  -8.174  1.00  0.00     0.187 A 
HETATM   23  F1  UNL     1     -14.802   8.699  -6.858  1.00  0.00    -0.248 F 
ENDBRANCH  19  20
ENDBRANCH  17  18
ENDBRANCH  15  17
ENDBRANCH  12  15
ENDBRANCH  11  12
BRANCH   1  24
HETATM   24  O2  UNL     1     -13.799   9.456  -1.740  1.00  0.00    -0.291 OA
BRANCH  24  25
HETATM   25  C2  UNL     1     -13.919   8.125  -2.083  1.00  0.00     0.259 C 
HETATM   26  C1  UNL     1     -14.235   7.665  -3.457  1.00  0.00     0.126 C 
HETATM   27  O1  UNL     1     -13.755   7.235  -1.205  1.00  0.00    -0.265 OA
ENDBRANCH  24  25
ENDBRANCH   1  24
BRANCH   6  28
HETATM   28  C8  UNL     1     -15.887  14.339   2.271  1.00  0.00     0.250 C 
HETATM   29  O3  UNL     1     -16.545  14.181   3.329  1.00  0.00    -0.271 OA
HETATM   30  N1  UNL     1     -14.480  14.471   2.393  1.00  0.00    -0.358 N 
ATOM     31  H1  UNL     1     -13.931  14.600   1.543  1.00  0.00     0.162 HD
BRANCH  30  32
HETATM   32  C9  UNL     1     -13.790  14.431   3.651  1.00  0.00     0.126 C 
BRANCH  32  33
HETATM   33  C10 UNL     1     -13.115  13.104   3.898  1.00  0.00    -0.005 C 
HETATM   34  C11 UNL     1     -11.793  13.258   4.606  1.00  0.00     0.011 C 
HETATM   35  C12 UNL     1     -13.979  12.149   4.660  1.00  0.00     0.011 C 
ENDBRANCH  32  33
ENDBRANCH  30  32
ENDBRANCH   6  28
TORSDOF 10
ENDMDL
MODEL 5
REMARK VINA RESULT: -6.051082521      4.168      7.622
REMARK  10 active torsions:
REMARK  status: ('A' for Active; 'I' for Inactive)
REMARK    1  A    between atoms: C2_2  and  O2_4 
REMARK    2  A    between atoms: O2_4  and  C3_5 
REMARK    3  A    between atoms: C7_10  and  C8_11 
REMARK       I    between atoms: C8_11  and  N1_13 
REMARK    4  A    between atoms: N1_13  and  C9_15 
REMARK    5  A    between atoms: C9_15  and  C10_16 
REMARK    6  A    between atoms: C14_23  and  S2_24 
REMARK    7  A    between atoms: S2_24  and  N3_27 
REMARK    8  A    between atoms: N3_27  and  C15_29 
REMARK    9  A    between atoms: C15_29  and  C16_30 
REMARK   10  A    between atoms: C17_31  and  C18_32 
ROOT
HETATM    1  C3  UNL     1     -16.536  10.942  -0.941  1.00  0.00     0.152 C 
HETATM    2  C4  UNL     1     -17.584  11.658  -1.274  1.00  0.00    -0.009 C 
HETATM    3  C5  UNL     1     -18.158  12.545  -0.199  1.00  0.00     0.115 C 
HETATM    4  S1  UNL     1     -18.607  14.161  -0.884  1.00  0.00    -0.136 SA
HETATM    5  C6  UNL     1     -19.023  14.020  -2.664  1.00  0.00     0.192 C 
HETATM    6  C7  UNL     1     -18.684  15.253  -3.414  1.00  0.00     0.258 C 
HETATM    7  O4  UNL     1     -17.477  14.999  -4.060  1.00  0.00    -0.286 OA
HETATM    8  C13 UNL     1     -17.397  13.593  -4.207  1.00  0.00     0.366 C 
HETATM    9  O5  UNL     1     -16.729  13.075  -5.136  1.00  0.00    -0.238 OA
HETATM   10  N2  UNL     1     -18.155  12.994  -3.185  1.00  0.00    -0.287 N 
HETATM   11  C14 UNL     1     -18.244  11.680  -2.594  1.00  0.00     0.266 C 
ENDROOT
BRANCH  11  12
HETATM   12  S2  UNL     1     -17.800  10.402  -3.691  1.00  0.00     0.253 S 
HETATM   13  O6  UNL     1     -18.629  10.425  -4.970  1.00  0.00    -0.203 OA
HETATM   14  O7  UNL     1     -18.079   9.069  -3.055  1.00  0.00    -0.203 OA
BRANCH  12  15
HETATM   15  N3  UNL     1     -16.145  10.419  -4.139  1.00  0.00    -0.306 N 
ATOM     16  H3  UNL     1     -15.492  11.135  -3.821  1.00  0.00     0.173 HD
BRANCH  15  17
HETATM   17  C15 UNL     1     -15.760   9.343  -4.996  1.00  0.00     0.225 C 
BRANCH  17  18
HETATM   18  C16 UNL     1     -15.393   9.845  -6.294  1.00  0.00    -0.086 C 
HETATM   19  C17 UNL     1     -15.068  10.276  -7.379  1.00  0.00    -0.097 C 
BRANCH  19  20
HETATM   20  C18 UNL     1     -14.651  10.811  -8.688  1.00  0.00     0.101 A 
HETATM   21  C19 UNL     1     -13.391  11.610  -8.757  1.00  0.00     0.058 A 
HETATM   22  C20 UNL     1     -13.453  10.236  -9.354  1.00  0.00     0.187 A 
HETATM   23  F1  UNL     1     -12.758   9.197  -8.753  1.00  0.00    -0.248 F 
ENDBRANCH  19  20
ENDBRANCH  17  18
ENDBRANCH  15  17
ENDBRANCH  12  15
ENDBRANCH  11  12
BRANCH   1  24
HETATM   24  O2  UNL     1     -15.975  10.990   0.343  1.00  0.00    -0.291 OA
BRANCH  24  25
HETATM   25  C2  UNL     1     -14.901  11.834   0.537  1.00  0.00     0.259 C 
HETATM   26  C1  UNL     1     -14.664  12.572   1.801  1.00  0.00     0.126 C 
HETATM   27  O1  UNL     1     -14.064  12.005  -0.391  1.00  0.00    -0.265 OA
ENDBRANCH  24  25
ENDBRANCH   1  24
BRANCH   6  28
HETATM   28  C8  UNL     1     -18.636  16.394  -2.487  1.00  0.00     0.250 C 
HETATM   29  O3  UNL     1     -19.721  16.899  -2.107  1.00  0.00    -0.271 OA
HETATM   30  N1  UNL     1     -17.440  16.970  -1.988  1.00  0.00    -0.358 N 
ATOM     31  H1  UNL     1     -16.550  16.573  -2.288  1.00  0.00     0.162 HD
BRANCH  30  32
HETATM   32  C9  UNL     1     -17.418  18.084  -1.084  1.00  0.00     0.126 C 
BRANCH  32  33
HETATM   33  C10 UNL     1     -17.101  17.673   0.333  1.00  0.00    -0.005 C 
HETATM   34  C11 UNL     1     -16.260  18.697   1.051  1.00  0.00     0.011 C 
HETATM   35  C12 UNL     1     -18.327  17.381   1.139  1.00  0.00     0.011 C 
ENDBRANCH  32  33
ENDBRANCH  30  32
ENDBRANCH   6  28
TORSDOF 10
ENDMDL
