MODEL 1
REMARK VINA RESULT: -6.973411993      0.000      0.000
REMARK  1 active torsions:
REMARK  status: ('A' for Active; 'I' for Inactive)
REMARK    1  A    between atoms: C2_2  and  C3_3 
ROOT
HETATM    1  C3  UNL     1      15.200  27.575  31.385  1.00  0.00     0.130 C 
HETATM    2  C4  UNL     1      15.900  27.647  30.068  1.00  0.00     0.044 C 
HETATM    3  C5  UNL     1      16.378  29.035  29.726  1.00  0.00    -0.015 C 
HETATM    4  C6  UNL     1      17.133  28.990  28.400  1.00  0.00     0.011 C 
HETATM    5  C7  UNL     1      18.085  30.026  29.005  1.00  0.00     0.002 C 
HETATM    6  C8  UNL     1      17.681  29.448  30.369  1.00  0.00     0.011 C 
HETATM    7  C9  UNL     1      15.306  30.065  29.783  1.00  0.00     0.175 C 
HETATM    8  C10 UNL     1      14.739  30.314  28.455  1.00  0.00     0.073 C 
HETATM    9  N1  UNL     1      14.276  30.511  27.412  1.00  0.00    -0.196 NA
HETATM   10  C11 UNL     1      14.240  29.681  30.730  1.00  0.00     0.130 C 
HETATM   11  N2  UNL     1      13.072  30.211  30.606  1.00  0.00    -0.382 N 
ATOM     12  H21 UNL     1      12.335  29.946  31.260  1.00  0.00     0.158 HD
ATOM     13  H22 UNL     1      12.863  30.888  29.873  1.00  0.00     0.158 HD
HETATM   14  O1  UNL     1      14.521  28.768  31.718  1.00  0.00    -0.333 OA
ENDROOT
BRANCH   1  15
HETATM   15  C2  UNL     1      14.113  26.500  31.254  1.00  0.00     0.028 C 
HETATM   16  C1  UNL     1      13.922  26.080  29.824  1.00  0.00     0.007 C 
ENDBRANCH   1  15
TORSDOF 1
ENDMDL
MODEL 2
REMARK VINA RESULT: -6.808324662      1.004      1.199
REMARK  1 active torsions:
REMARK  status: ('A' for Active; 'I' for Inactive)
REMARK    1  A    between atoms: C2_2  and  C3_3 
ROOT
HETATM    1  C3  UNL     1      14.343  26.622  31.467  1.00  0.00     0.130 C 
HETATM    2  C4  UNL     1      15.372  26.950  30.435  1.00  0.00     0.044 C 
HETATM    3  C5  UNL     1      15.771  28.404  30.439  1.00  0.00    -0.015 C 
HETATM    4  C6  UNL     1      16.868  28.621  29.400  1.00  0.00     0.011 C 
HETATM    5  C7  UNL     1      17.493  29.608  30.391  1.00  0.00     0.002 C 
HETATM    6  C8  UNL     1      16.789  28.792  31.486  1.00  0.00     0.011 C 
HETATM    7  C9  UNL     1      14.621  29.338  30.317  1.00  0.00     0.175 C 
HETATM    8  C10 UNL     1      14.425  29.759  28.927  1.00  0.00     0.073 C 
HETATM    9  N1  UNL     1      14.255  30.089  27.831  1.00  0.00    -0.196 NA
HETATM   10  C11 UNL     1      13.381  28.738  30.848  1.00  0.00     0.130 C 
HETATM   11  N2  UNL     1      12.244  29.202  30.459  1.00  0.00    -0.382 N 
ATOM     12  H21 UNL     1      11.387  28.788  30.826  1.00  0.00     0.158 HD
ATOM     13  H22 UNL     1      12.176  29.973  29.795  1.00  0.00     0.158 HD
HETATM   14  O1  UNL     1      13.472  27.699  31.743  1.00  0.00    -0.333 OA
ENDROOT
BRANCH   1  15
HETATM   15  C2  UNL     1      13.461  25.512  30.879  1.00  0.00     0.028 C 
HETATM   16  C1  UNL     1      13.660  25.377  29.395  1.00  0.00     0.007 C 
ENDBRANCH   1  15
TORSDOF 1
ENDMDL
MODEL 3
REMARK VINA RESULT: -6.699934919      1.500      3.964
REMARK  1 active torsions:
REMARK  status: ('A' for Active; 'I' for Inactive)
REMARK    1  A    between atoms: C2_2  and  C3_3 
ROOT
HETATM    1  C3  UNL     1      17.375  29.159  28.554  1.00  0.00     0.130 C 
HETATM    2  C4  UNL     1      17.101  28.967  30.009  1.00  0.00     0.044 C 
HETATM    3  C5  UNL     1      15.706  28.471  30.289  1.00  0.00    -0.015 C 
HETATM    4  C6  UNL     1      15.549  28.246  31.791  1.00  0.00     0.011 C 
HETATM    5  C7  UNL     1      14.704  27.020  31.432  1.00  0.00     0.002 C 
HETATM    6  C8  UNL     1      15.501  26.984  30.120  1.00  0.00     0.011 C 
HETATM    7  C9  UNL     1      14.642  29.316  29.685  1.00  0.00     0.175 C 
HETATM    8  C10 UNL     1      14.115  30.280  30.654  1.00  0.00     0.073 C 
HETATM    9  N1  UNL     1      13.699  31.054  31.409  1.00  0.00    -0.196 NA
HETATM   10  C11 UNL     1      15.129  30.018  28.480  1.00  0.00     0.130 C 
HETATM   11  N2  UNL     1      14.516  31.077  28.081  1.00  0.00    -0.382 N 
ATOM     12  H21 UNL     1      14.852  31.562  27.249  1.00  0.00     0.158 HD
ATOM     13  H22 UNL     1      13.702  31.445  28.573  1.00  0.00     0.158 HD
HETATM   14  O1  UNL     1      16.226  29.521  27.817  1.00  0.00    -0.333 OA
ENDROOT
BRANCH   1  15
HETATM   15  C2  UNL     1      18.339  30.347  28.434  1.00  0.00     0.028 C 
HETATM   16  C1  UNL     1      18.652  30.662  26.999  1.00  0.00     0.007 C 
ENDBRANCH   1  15
TORSDOF 1
ENDMDL
MODEL 4
REMARK VINA RESULT: -6.369569664      1.871      4.220
REMARK  1 active torsions:
REMARK  status: ('A' for Active; 'I' for Inactive)
REMARK    1  A    between atoms: C2_2  and  C3_3 
ROOT
HETATM    1  C3  UNL     1      15.293  27.834  30.091  1.00  0.00     0.130 C 
HETATM    2  C4  UNL     1      14.690  27.848  31.458  1.00  0.00     0.044 C 
HETATM    3  C5  UNL     1      13.221  28.185  31.453  1.00  0.00    -0.015 C 
HETATM    4  C6  UNL     1      12.689  28.108  32.882  1.00  0.00     0.011 C 
HETATM    5  C7  UNL     1      11.407  27.521  32.282  1.00  0.00     0.002 C 
HETATM    6  C8  UNL     1      12.295  27.037  31.126  1.00  0.00     0.011 C 
HETATM    7  C9  UNL     1      12.904  29.456  30.751  1.00  0.00     0.175 C 
HETATM    8  C10 UNL     1      12.797  30.572  31.696  1.00  0.00     0.073 C 
HETATM    9  N1  UNL     1      12.722  31.462  32.432  1.00  0.00    -0.196 NA
HETATM   10  C11 UNL     1      13.907  29.763  29.711  1.00  0.00     0.130 C 
HETATM   11  N2  UNL     1      14.037  30.979  29.306  1.00  0.00    -0.382 N 
ATOM     12  H21 UNL     1      14.730  31.190  28.587  1.00  0.00     0.158 HD
ATOM     13  H22 UNL     1      13.467  31.736  29.683  1.00  0.00     0.158 HD
HETATM   14  O1  UNL     1      14.675  28.743  29.204  1.00  0.00    -0.333 OA
ENDROOT
BRANCH   1  15
HETATM   15  C2  UNL     1      16.742  28.317  30.239  1.00  0.00     0.028 C 
HETATM   16  C1  UNL     1      16.941  29.087  31.514  1.00  0.00     0.007 C 
ENDBRANCH   1  15
TORSDOF 1
ENDMDL
MODEL 5
REMARK VINA RESULT: -6.170433071      1.542      1.991
REMARK  1 active torsions:
REMARK  status: ('A' for Active; 'I' for Inactive)
REMARK    1  A    between atoms: C2_2  and  C3_3 
ROOT
HETATM    1  C3  UNL     1      13.752  27.845  30.283  1.00  0.00     0.130 C 
HETATM    2  C4  UNL     1      15.241  27.740  30.238  1.00  0.00     0.044 C 
HETATM    3  C5  UNL     1      15.935  29.062  30.445  1.00  0.00    -0.015 C 
HETATM    4  C6  UNL     1      17.445  28.836  30.447  1.00  0.00     0.011 C 
HETATM    5  C7  UNL     1      17.517  29.903  31.543  1.00  0.00     0.002 C 
HETATM    6  C8  UNL     1      16.074  29.502  31.883  1.00  0.00     0.011 C 
HETATM    7  C9  UNL     1      15.479  30.126  29.513  1.00  0.00     0.175 C 
HETATM    8  C10 UNL     1      16.372  30.238  28.357  1.00  0.00     0.073 C 
HETATM    9  N1  UNL     1      17.065  30.327  27.433  1.00  0.00    -0.196 NA
HETATM   10  C11 UNL     1      14.091  29.892  29.065  1.00  0.00     0.130 C 
HETATM   11  N2  UNL     1      13.684  30.442  27.974  1.00  0.00    -0.382 N 
ATOM     12  H21 UNL     1      12.725  30.281  27.665  1.00  0.00     0.158 HD
ATOM     13  H22 UNL     1      14.292  31.036  27.411  1.00  0.00     0.158 HD
HETATM   14  O1  UNL     1      13.271  29.091  29.824  1.00  0.00    -0.333 OA
ENDROOT
BRANCH   1  15
HETATM   15  C2  UNL     1      13.201  26.800  29.305  1.00  0.00     0.028 C 
HETATM   16  C1  UNL     1      11.883  26.248  29.770  1.00  0.00     0.007 C 
ENDBRANCH   1  15
TORSDOF 1
ENDMDL
