MODEL 1
REMARK VINA RESULT: -6.748221999      0.000      0.000
REMARK  10 active torsions:
REMARK  status: ('A' for Active; 'I' for Inactive)
REMARK    1  A    between atoms: C2_2  and  C3_3 
REMARK    2  A    between atoms: C3_3  and  C4_4 
REMARK    3  A    between atoms: C5_5  and  C6_6 
REMARK    4  A    between atoms: C6_6  and  N1_7 
REMARK       I    between atoms: N1_7  and  C7_9 
REMARK    5  A    between atoms: C7_9  and  C8_11 
REMARK    6  A    between atoms: C8_11  and  C9_13 
REMARK    7  A    between atoms: C8_11  and  N4_23 
REMARK       I    between atoms: C9_13  and  N2_15 
REMARK    8  A    between atoms: N2_15  and  C10_17 
REMARK    9  A    between atoms: C10_17  and  C11_18 
REMARK   10  A    between atoms: C11_18  and  N3_19 
ROOT
HETATM    1  C8  UNL     1     -31.787  11.929 -18.306  1.00  0.00     0.249 C 
HETATM    2 BR1  UNL     1     -31.058  13.660 -17.694  1.00  0.00    -0.041 Br
ENDROOT
BRANCH   1   3
HETATM    3  C7  UNL     1     -32.176  11.244 -17.024  1.00  0.00     0.267 C 
HETATM    4  N1  UNL     1     -31.315  11.108 -15.916  1.00  0.00    -0.347 N 
ATOM      5  H1  UNL     1     -30.365  11.480 -15.937  1.00  0.00     0.163 HD
HETATM    6  O1  UNL     1     -33.352  10.754 -16.917  1.00  0.00    -0.269 OA
BRANCH   4   7
HETATM    7  C6  UNL     1     -31.830  10.413 -14.733  1.00  0.00     0.217 C 
BRANCH   7   8
HETATM    8  C5  UNL     1     -31.578  11.250 -13.546  1.00  0.00    -0.087 C 
HETATM    9  C4  UNL     1     -31.367  11.953 -12.588  1.00  0.00    -0.105 C 
BRANCH   9  10
HETATM   10  C3  UNL     1     -31.129  12.814 -11.429  1.00  0.00     0.093 C 
BRANCH  10  11
HETATM   11  C2  UNL     1     -29.670  12.749 -10.990  1.00  0.00     0.007 C 
HETATM   12  C1  UNL     1     -29.226  14.137 -10.608  1.00  0.00     0.006 C 
ENDBRANCH  10  11
ENDBRANCH   9  10
ENDBRANCH   7   8
ENDBRANCH   4   7
ENDBRANCH   1   3
BRANCH   1  13
HETATM   13  C9  UNL     1     -33.038  12.244 -19.027  1.00  0.00     0.267 C 
HETATM   14  O2  UNL     1     -33.360  11.455 -19.948  1.00  0.00    -0.269 OA
HETATM   15  N2  UNL     1     -33.895  13.336 -18.779  1.00  0.00    -0.356 N 
ATOM     16  H2  UNL     1     -33.643  13.982 -18.031  1.00  0.00     0.162 HD
BRANCH  15  17
HETATM   17  C10 UNL     1     -35.101  13.598 -19.513  1.00  0.00     0.150 C 
BRANCH  17  18
HETATM   18  C11 UNL     1     -35.720  14.934 -19.293  1.00  0.00     0.255 C 
BRANCH  18  19
HETATM   19  N3  UNL     1     -35.751  15.806 -20.419  1.00  0.00    -0.077 N 
HETATM   20  C12 UNL     1     -36.661  15.325 -21.471  1.00  0.00     0.271 C 
HETATM   21  C13 UNL     1     -34.502  16.081 -21.052  1.00  0.00     0.271 C 
HETATM   22  C14 UNL     1     -36.314  17.095 -19.998  1.00  0.00     0.271 C 
ENDBRANCH  18  19
ENDBRANCH  17  18
ENDBRANCH  15  17
ENDBRANCH   1  13
BRANCH   1  23
HETATM   23  N4  UNL     1     -30.768  11.297 -19.024  1.00  0.00    -0.388 N 
HETATM   24  C15 UNL     1     -29.521  11.933 -19.206  1.00  0.00     0.145 C 
HETATM   25  C16 UNL     1     -30.744   9.873 -19.017  1.00  0.00     0.145 C 
ENDBRANCH   1  23
TORSDOF 10
ENDMDL
MODEL 2
REMARK VINA RESULT: -6.482422607      1.628      2.136
REMARK  10 active torsions:
REMARK  status: ('A' for Active; 'I' for Inactive)
REMARK    1  A    between atoms: C2_2  and  C3_3 
REMARK    2  A    between atoms: C3_3  and  C4_4 
REMARK    3  A    between atoms: C5_5  and  C6_6 
REMARK    4  A    between atoms: C6_6  and  N1_7 
REMARK       I    between atoms: N1_7  and  C7_9 
REMARK    5  A    between atoms: C7_9  and  C8_11 
REMARK    6  A    between atoms: C8_11  and  C9_13 
REMARK    7  A    between atoms: C8_11  and  N4_23 
REMARK       I    between atoms: C9_13  and  N2_15 
REMARK    8  A    between atoms: N2_15  and  C10_17 
REMARK    9  A    between atoms: C10_17  and  C11_18 
REMARK   10  A    between atoms: C11_18  and  N3_19 
ROOT
HETATM    1  C8  UNL     1     -32.240  12.577 -19.212  1.00  0.00     0.249 C 
HETATM    2 BR1  UNL     1     -30.810  13.090 -20.474  1.00  0.00    -0.041 Br
ENDROOT
BRANCH   1   3
HETATM    3  C7  UNL     1     -31.897  13.351 -17.967  1.00  0.00     0.267 C 
HETATM    4  N1  UNL     1     -31.272  12.781 -16.838  1.00  0.00    -0.347 N 
ATOM      5  H1  UNL     1     -31.017  11.794 -16.818  1.00  0.00     0.163 HD
HETATM    6  O1  UNL     1     -32.181  14.596 -17.914  1.00  0.00    -0.269 OA
BRANCH   4   7
HETATM    7  C6  UNL     1     -31.001  13.657 -15.694  1.00  0.00     0.217 C 
BRANCH   7   8
HETATM    8  C5  UNL     1     -31.085  12.859 -14.458  1.00  0.00    -0.087 C 
HETATM    9  C4  UNL     1     -31.176  12.207 -13.446  1.00  0.00    -0.105 C 
BRANCH   9  10
HETATM   10  C3  UNL     1     -31.292  11.401 -12.231  1.00  0.00     0.093 C 
BRANCH  10  11
HETATM   11  C2  UNL     1     -31.350  12.287 -10.991  1.00  0.00     0.007 C 
HETATM   12  C1  UNL     1     -30.099  13.124 -10.945  1.00  0.00     0.006 C 
ENDBRANCH  10  11
ENDBRANCH   9  10
ENDBRANCH   7   8
ENDBRANCH   4   7
ENDBRANCH   1   3
BRANCH   1  13
HETATM   13  C9  UNL     1     -33.488  13.154 -19.751  1.00  0.00     0.267 C 
HETATM   14  O2  UNL     1     -33.547  13.281 -20.998  1.00  0.00    -0.269 OA
HETATM   15  N2  UNL     1     -34.610  13.571 -19.003  1.00  0.00    -0.356 N 
ATOM     16  H2  UNL     1     -34.572  13.469 -17.988  1.00  0.00     0.162 HD
BRANCH  15  17
HETATM   17  C10 UNL     1     -35.800  14.129 -19.578  1.00  0.00     0.150 C 
BRANCH  17  18
HETATM   18  C11 UNL     1     -35.955  15.604 -19.451  1.00  0.00     0.255 C 
BRANCH  18  19
HETATM   19  N3  UNL     1     -36.194  16.318 -20.660  1.00  0.00    -0.077 N 
HETATM   20  C12 UNL     1     -36.820  17.628 -20.420  1.00  0.00     0.271 C 
HETATM   21  C13 UNL     1     -36.987  15.660 -21.646  1.00  0.00     0.271 C 
HETATM   22  C14 UNL     1     -34.902  16.629 -21.284  1.00  0.00     0.271 C 
ENDBRANCH  18  19
ENDBRANCH  17  18
ENDBRANCH  15  17
ENDBRANCH   1  13
BRANCH   1  23
HETATM   23  N4  UNL     1     -32.175  11.187 -19.076  1.00  0.00    -0.388 N 
HETATM   24  C15 UNL     1     -33.324  10.394 -19.280  1.00  0.00     0.145 C 
HETATM   25  C16 UNL     1     -30.928  10.557 -19.355  1.00  0.00     0.145 C 
ENDBRANCH   1  23
TORSDOF 10
ENDMDL
MODEL 3
REMARK VINA RESULT: -6.432076640      1.858      7.418
REMARK  10 active torsions:
REMARK  status: ('A' for Active; 'I' for Inactive)
REMARK    1  A    between atoms: C2_2  and  C3_3 
REMARK    2  A    between atoms: C3_3  and  C4_4 
REMARK    3  A    between atoms: C5_5  and  C6_6 
REMARK    4  A    between atoms: C6_6  and  N1_7 
REMARK       I    between atoms: N1_7  and  C7_9 
REMARK    5  A    between atoms: C7_9  and  C8_11 
REMARK    6  A    between atoms: C8_11  and  C9_13 
REMARK    7  A    between atoms: C8_11  and  N4_23 
REMARK       I    between atoms: C9_13  and  N2_15 
REMARK    8  A    between atoms: N2_15  and  C10_17 
REMARK    9  A    between atoms: C10_17  and  C11_18 
REMARK   10  A    between atoms: C11_18  and  N3_19 
ROOT
HETATM    1  C8  UNL     1     -31.824  11.695 -18.302  1.00  0.00     0.249 C 
HETATM    2 BR1  UNL     1     -33.394  11.093 -19.338  1.00  0.00    -0.041 Br
ENDROOT
BRANCH   1   3
HETATM    3  C7  UNL     1     -31.939  13.196 -18.339  1.00  0.00     0.267 C 
HETATM    4  N1  UNL     1     -32.360  13.922 -19.472  1.00  0.00    -0.347 N 
ATOM      5  H1  UNL     1     -32.614  13.447 -20.338  1.00  0.00     0.163 HD
HETATM    6  O1  UNL     1     -31.643  13.864 -17.290  1.00  0.00    -0.269 OA
BRANCH   4   7
HETATM    7  C6  UNL     1     -32.422  15.382 -19.362  1.00  0.00     0.217 C 
BRANCH   7   8
HETATM    8  C5  UNL     1     -33.835  15.799 -19.400  1.00  0.00    -0.087 C 
HETATM    9  C4  UNL     1     -34.991  16.143 -19.454  1.00  0.00    -0.105 C 
BRANCH   9  10
HETATM   10  C3  UNL     1     -36.397  16.542 -19.527  1.00  0.00     0.093 C 
BRANCH  10  11
HETATM   11  C2  UNL     1     -36.610  17.602 -20.601  1.00  0.00     0.007 C 
HETATM   12  C1  UNL     1     -37.877  18.353 -20.284  1.00  0.00     0.006 C 
ENDBRANCH  10  11
ENDBRANCH   9  10
ENDBRANCH   7   8
ENDBRANCH   4   7
ENDBRANCH   1   3
BRANCH   1  13
HETATM   13  C9  UNL     1     -32.067  11.275 -16.908  1.00  0.00     0.267 C 
HETATM   14  O2  UNL     1     -33.181  10.744 -16.675  1.00  0.00    -0.269 OA
HETATM   15  N2  UNL     1     -31.175  11.413 -15.823  1.00  0.00    -0.356 N 
ATOM     16  H2  UNL     1     -30.267  11.841 -16.003  1.00  0.00     0.162 HD
BRANCH  15  17
HETATM   17  C10 UNL     1     -31.464  10.989 -14.483  1.00  0.00     0.150 C 
BRANCH  17  18
HETATM   18  C11 UNL     1     -32.086  12.011 -13.596  1.00  0.00     0.255 C 
BRANCH  18  19
HETATM   19  N3  UNL     1     -31.260  12.530 -12.558  1.00  0.00    -0.077 N 
HETATM   20  C12 UNL     1     -30.233  13.451 -13.070  1.00  0.00     0.271 C 
HETATM   21  C13 UNL     1     -30.583  11.576 -11.741  1.00  0.00     0.271 C 
HETATM   22  C14 UNL     1     -32.089  13.350 -11.666  1.00  0.00     0.271 C 
ENDBRANCH  18  19
ENDBRANCH  17  18
ENDBRANCH  15  17
ENDBRANCH   1  13
BRANCH   1  23
HETATM   23  N4  UNL     1     -30.697  11.177 -18.947  1.00  0.00    -0.388 N 
HETATM   24  C15 UNL     1     -29.496  11.918 -18.995  1.00  0.00     0.145 C 
HETATM   25  C16 UNL     1     -30.554   9.760 -18.983  1.00  0.00     0.145 C 
ENDBRANCH   1  23
TORSDOF 10
ENDMDL
MODEL 4
REMARK VINA RESULT: -6.408057535      1.111      1.213
REMARK  10 active torsions:
REMARK  status: ('A' for Active; 'I' for Inactive)
REMARK    1  A    between atoms: C2_2  and  C3_3 
REMARK    2  A    between atoms: C3_3  and  C4_4 
REMARK    3  A    between atoms: C5_5  and  C6_6 
REMARK    4  A    between atoms: C6_6  and  N1_7 
REMARK       I    between atoms: N1_7  and  C7_9 
REMARK    5  A    between atoms: C7_9  and  C8_11 
REMARK    6  A    between atoms: C8_11  and  C9_13 
REMARK    7  A    between atoms: C8_11  and  N4_23 
REMARK       I    between atoms: C9_13  and  N2_15 
REMARK    8  A    between atoms: N2_15  and  C10_17 
REMARK    9  A    between atoms: C10_17  and  C11_18 
REMARK   10  A    between atoms: C11_18  and  N3_19 
ROOT
HETATM    1  C8  UNL     1     -31.578  11.644 -18.139  1.00  0.00     0.249 C 
HETATM    2 BR1  UNL     1     -29.742  12.258 -17.747  1.00  0.00    -0.041 Br
ENDROOT
BRANCH   1   3
HETATM    3  C7  UNL     1     -32.067  11.141 -16.807  1.00  0.00     0.267 C 
HETATM    4  N1  UNL     1     -31.236  10.973 -15.680  1.00  0.00    -0.347 N 
ATOM      5  H1  UNL     1     -30.241  11.192 -15.721  1.00  0.00     0.163 HD
HETATM    6  O1  UNL     1     -33.304  10.847 -16.674  1.00  0.00    -0.269 OA
BRANCH   4   7
HETATM    7  C6  UNL     1     -31.852  10.471 -14.448  1.00  0.00     0.217 C 
BRANCH   7   8
HETATM    8  C5  UNL     1     -31.528  11.396 -13.348  1.00  0.00    -0.087 C 
HETATM    9  C4  UNL     1     -31.262  12.171 -12.461  1.00  0.00    -0.105 C 
BRANCH   9  10
HETATM   10  C3  UNL     1     -30.958  13.117 -11.387  1.00  0.00     0.093 C 
BRANCH  10  11
HETATM   11  C2  UNL     1     -29.497  13.012 -10.963  1.00  0.00     0.007 C 
HETATM   12  C1  UNL     1     -29.005  14.391 -10.608  1.00  0.00     0.006 C 
ENDBRANCH  10  11
ENDBRANCH   9  10
ENDBRANCH   7   8
ENDBRANCH   4   7
ENDBRANCH   1   3
BRANCH   1  13
HETATM   13  C9  UNL     1     -32.356  12.858 -18.457  1.00  0.00     0.267 C 
HETATM   14  O2  UNL     1     -31.716  13.937 -18.483  1.00  0.00    -0.269 OA
HETATM   15  N2  UNL     1     -33.739  12.918 -18.731  1.00  0.00    -0.356 N 
ATOM     16  H2  UNL     1     -34.269  12.046 -18.714  1.00  0.00     0.162 HD
BRANCH  15  17
HETATM   17  C10 UNL     1     -34.450  14.128 -19.033  1.00  0.00     0.150 C 
BRANCH  17  18
HETATM   18  C11 UNL     1     -34.588  14.459 -20.478  1.00  0.00     0.255 C 
BRANCH  18  19
HETATM   19  N3  UNL     1     -35.284  15.664 -20.784  1.00  0.00    -0.077 N 
HETATM   20  C12 UNL     1     -36.495  15.420 -21.584  1.00  0.00     0.271 C 
HETATM   21  C13 UNL     1     -34.543  16.677 -21.461  1.00  0.00     0.271 C 
HETATM   22  C14 UNL     1     -35.775  16.252 -19.532  1.00  0.00     0.271 C 
ENDBRANCH  18  19
ENDBRANCH  17  18
ENDBRANCH  15  17
ENDBRANCH   1  13
BRANCH   1  23
HETATM   23  N4  UNL     1     -31.469  10.666 -19.132  1.00  0.00    -0.388 N 
HETATM   24  C15 UNL     1     -30.397   9.749 -19.118  1.00  0.00     0.145 C 
HETATM   25  C16 UNL     1     -32.675  10.204 -19.735  1.00  0.00     0.145 C 
ENDBRANCH   1  23
TORSDOF 10
ENDMDL
MODEL 5
REMARK VINA RESULT: -6.381794670      1.848      7.491
REMARK  10 active torsions:
REMARK  status: ('A' for Active; 'I' for Inactive)
REMARK    1  A    between atoms: C2_2  and  C3_3 
REMARK    2  A    between atoms: C3_3  and  C4_4 
REMARK    3  A    between atoms: C5_5  and  C6_6 
REMARK    4  A    between atoms: C6_6  and  N1_7 
REMARK       I    between atoms: N1_7  and  C7_9 
REMARK    5  A    between atoms: C7_9  and  C8_11 
REMARK    6  A    between atoms: C8_11  and  C9_13 
REMARK    7  A    between atoms: C8_11  and  N4_23 
REMARK       I    between atoms: C9_13  and  N2_15 
REMARK    8  A    between atoms: N2_15  and  C10_17 
REMARK    9  A    between atoms: C10_17  and  C11_18 
REMARK   10  A    between atoms: C11_18  and  N3_19 
ROOT
HETATM    1  C8  UNL     1     -31.712  11.565 -18.000  1.00  0.00     0.249 C 
HETATM    2 BR1  UNL     1     -33.220  10.913 -19.096  1.00  0.00    -0.041 Br
ENDROOT
BRANCH   1   3
HETATM    3  C7  UNL     1     -31.808  13.061 -18.133  1.00  0.00     0.267 C 
HETATM    4  N1  UNL     1     -32.476  13.712 -19.191  1.00  0.00    -0.347 N 
ATOM      5  H1  UNL     1     -32.935  13.181 -19.931  1.00  0.00     0.163 HD
HETATM    6  O1  UNL     1     -31.261  13.798 -17.243  1.00  0.00    -0.269 OA
BRANCH   4   7
HETATM    7  C6  UNL     1     -32.487  15.178 -19.191  1.00  0.00     0.217 C 
BRANCH   7   8
HETATM    8  C5  UNL     1     -33.877  15.640 -19.348  1.00  0.00    -0.087 C 
HETATM    9  C4  UNL     1     -35.021  16.012 -19.455  1.00  0.00    -0.105 C 
BRANCH   9  10
HETATM   10  C3  UNL     1     -36.402  16.479 -19.574  1.00  0.00     0.093 C 
BRANCH  10  11
HETATM   11  C2  UNL     1     -36.478  17.758 -20.401  1.00  0.00     0.007 C 
HETATM   12  C1  UNL     1     -37.874  18.313 -20.292  1.00  0.00     0.006 C 
ENDBRANCH  10  11
ENDBRANCH   9  10
ENDBRANCH   7   8
ENDBRANCH   4   7
ENDBRANCH   1   3
BRANCH   1  13
HETATM   13  C9  UNL     1     -32.047  11.231 -16.601  1.00  0.00     0.267 C 
HETATM   14  O2  UNL     1     -33.179  10.725 -16.408  1.00  0.00    -0.269 OA
HETATM   15  N2  UNL     1     -31.223  11.426 -15.473  1.00  0.00    -0.356 N 
ATOM     16  H2  UNL     1     -30.300  11.835 -15.620  1.00  0.00     0.162 HD
BRANCH  15  17
HETATM   17  C10 UNL     1     -31.599  11.085 -14.130  1.00  0.00     0.150 C 
BRANCH  17  18
HETATM   18  C11 UNL     1     -32.152  12.196 -13.307  1.00  0.00     0.255 C 
BRANCH  18  19
HETATM   19  N3  UNL     1     -31.279  12.747 -12.326  1.00  0.00    -0.077 N 
HETATM   20  C12 UNL     1     -32.013  13.372 -11.214  1.00  0.00     0.271 C 
HETATM   21  C13 UNL     1     -30.329  13.709 -12.781  1.00  0.00     0.271 C 
HETATM   22  C14 UNL     1     -30.521  11.652 -11.706  1.00  0.00     0.271 C 
ENDBRANCH  18  19
ENDBRANCH  17  18
ENDBRANCH  15  17
ENDBRANCH   1  13
BRANCH   1  23
HETATM   23  N4  UNL     1     -30.552  11.001 -18.540  1.00  0.00    -0.388 N 
HETATM   24  C15 UNL     1     -30.574   9.697 -19.077  1.00  0.00     0.145 C 
HETATM   25  C16 UNL     1     -29.589  11.889 -19.102  1.00  0.00     0.145 C 
ENDBRANCH   1  23
TORSDOF 10
ENDMDL
