MODEL 1
REMARK VINA RESULT: -5.289422059      0.000      0.000
REMARK  8 active torsions:
REMARK  status: ('A' for Active; 'I' for Inactive)
REMARK    1  A    between atoms: C5_6  and  N1_7 
REMARK       I    between atoms: N1_7  and  C6_9 
REMARK       I    between atoms: C6_9  and  N2_10 
REMARK       I    between atoms: C6_9  and  N3_14 
REMARK    2  A    between atoms: C7_18  and  N4_19 
REMARK       I    between atoms: N4_19  and  C8_21 
REMARK    3  A    between atoms: C8_21  and  C9_23 
REMARK    4  A    between atoms: C9_23  and  N5_25 
REMARK    5  A    between atoms: C13_41  and  C14_42 
REMARK    6  A    between atoms: C14_42  and  O4_43 
REMARK    7  A    between atoms: C14_42  and  N11_45 
REMARK    8  A    between atoms: N11_45  and  O5_46 
ROOT
HETATM    1  C1  UNL     1      79.139  -7.884 -46.543  1.00  0.00     0.079 C 
HETATM    2  C2  UNL     1      78.966  -7.806 -48.034  1.00  0.00     0.078 A 
HETATM    3  O1  UNL     1      78.891  -8.807 -48.882  1.00  0.00    -0.294 OA
HETATM    4  C3  UNL     1      78.743  -8.398 -50.096  1.00  0.00     0.179 A 
HETATM    5  C4  UNL     1      78.623  -9.189 -51.293  1.00  0.00     0.141 C 
HETATM    6  C5  UNL     1      78.695 -10.552 -51.153  1.00  0.00     0.109 C 
HETATM    7  C7  UNL     1      78.129 -11.649 -51.842  1.00  0.00     0.141 C 
HETATM    8  N6  UNL     1      77.568 -11.786 -53.049  1.00  0.00    -0.292 N 
ATOM      9  H6  UNL     1      76.943 -12.589 -53.112  1.00  0.00     0.172 HD
HETATM   10  C11 UNL     1      77.653 -11.083 -54.210  1.00  0.00     0.328 C 
HETATM   11  O3  UNL     1      77.451 -11.798 -55.235  1.00  0.00    -0.247 OA
HETATM   12  N7  UNL     1      77.899  -9.811 -54.554  1.00  0.00    -0.277 N 
ATOM     13  H7  UNL     1      77.901  -9.637 -55.559  1.00  0.00     0.173 HD
HETATM   14  C12 UNL     1      78.145  -8.725 -53.800  1.00  0.00     0.225 A 
HETATM   15  N8  UNL     1      78.351  -7.430 -53.319  1.00  0.00    -0.259 N 
ATOM     16  H8  UNL     1      78.396  -6.427 -53.504  1.00  0.00     0.191 HD
HETATM   17  N9  UNL     1      78.450  -8.448 -52.432  1.00  0.00    -0.214 N 
HETATM   18  N10 UNL     1      78.716  -7.059 -50.060  1.00  0.00    -0.333 N 
ATOM     19  H10 UNL     1      78.609  -6.446 -50.868  1.00  0.00     0.168 HD
HETATM   20  C13 UNL     1      78.854  -6.653 -48.784  1.00  0.00     0.088 A 
ENDROOT
BRANCH   6  21
HETATM   21  N1  UNL     1      79.519 -10.922 -50.079  1.00  0.00    -0.336 N 
HETATM   22  C6  UNL     1      80.893 -11.356 -50.296  1.00  0.00     0.480 C 
HETATM   23  N2  UNL     1      81.569 -11.662 -49.056  1.00  0.00    -0.033 N 
HETATM   24  N3  UNL     1      81.686 -10.437 -51.052  1.00  0.00    -0.033 N 
ATOM     25  H23 UNL     1      81.528 -10.876 -48.408  1.00  0.00     0.278 HD
ATOM     26  H22 UNL     1      81.046 -12.348 -48.510  1.00  0.00     0.278 HD
ATOM     27  H21 UNL     1      82.530 -11.966 -49.208  1.00  0.00     0.278 HD
ATOM     28  H33 UNL     1      81.234 -10.224 -51.942  1.00  0.00     0.278 HD
ATOM     29  H32 UNL     1      81.667  -9.511 -50.623  1.00  0.00     0.278 HD
ATOM     30  H31 UNL     1      82.647 -10.740 -51.204  1.00  0.00     0.278 HD
ATOM     31  H1  UNL     1      79.149 -10.886 -49.129  1.00  0.00     0.163 HD
ENDBRANCH   6  21
BRANCH   7  32
HETATM   32  N4  UNL     1      78.205 -12.678 -51.101  1.00  0.00    -0.309 N 
HETATM   33  C8  UNL     1      77.509 -13.853 -51.359  1.00  0.00     0.253 C 
HETATM   34  O2  UNL     1      77.726 -14.507 -52.433  1.00  0.00    -0.271 OA
ATOM     35  H4  UNL     1      78.807 -12.641 -50.278  1.00  0.00     0.170 HD
BRANCH  33  36
HETATM   36  C9  UNL     1      76.487 -14.432 -50.440  1.00  0.00     0.271 C 
HETATM   37  C10 UNL     1      75.175 -13.714 -50.592  1.00  0.00     0.050 C 
BRANCH  36  38
HETATM   38  N5  UNL     1      76.284 -15.842 -50.659  1.00  0.00    -0.067 N 
ATOM     39  H53 UNL     1      75.320 -16.110 -50.458  1.00  0.00     0.275 HD
ATOM     40  H52 UNL     1      76.311 -16.067 -51.653  1.00  0.00     0.275 HD
ATOM     41  H51 UNL     1      76.941 -16.418 -50.134  1.00  0.00     0.275 HD
ENDBRANCH  36  38
ENDBRANCH  33  36
ENDBRANCH   7  32
BRANCH  20  42
HETATM   42  C14 UNL     1      78.882  -5.284 -48.243  1.00  0.00     0.291 C 
BRANCH  42  43
HETATM   43  O4  UNL     1      77.741  -4.630 -48.667  1.00  0.00    -0.372 OA
ATOM     44  H4  UNL     1      77.786  -3.731 -48.365  1.00  0.00     0.212 HD
ENDBRANCH  42  43
BRANCH  42  45
HETATM   45  N11 UNL     1      80.069  -4.591 -48.673  1.00  0.00    -0.065 NA
BRANCH  45  46
HETATM   46  O5  UNL     1      80.057  -4.331 -49.998  1.00  0.00    -0.293 OA
ATOM     47  H5  UNL     1      80.591  -4.944 -50.489  1.00  0.00     0.238 HD
ENDBRANCH  45  46
ENDBRANCH  42  45
ENDBRANCH  20  42
TORSDOF 8
ENDMDL
MODEL 2
REMARK VINA RESULT: -5.170428524      2.353      2.556
REMARK  8 active torsions:
REMARK  status: ('A' for Active; 'I' for Inactive)
REMARK    1  A    between atoms: C5_6  and  N1_7 
REMARK       I    between atoms: N1_7  and  C6_9 
REMARK       I    between atoms: C6_9  and  N2_10 
REMARK       I    between atoms: C6_9  and  N3_14 
REMARK    2  A    between atoms: C7_18  and  N4_19 
REMARK       I    between atoms: N4_19  and  C8_21 
REMARK    3  A    between atoms: C8_21  and  C9_23 
REMARK    4  A    between atoms: C9_23  and  N5_25 
REMARK    5  A    between atoms: C13_41  and  C14_42 
REMARK    6  A    between atoms: C14_42  and  O4_43 
REMARK    7  A    between atoms: C14_42  and  N11_45 
REMARK    8  A    between atoms: N11_45  and  O5_46 
ROOT
HETATM    1  C1  UNL     1      77.622  -6.623 -49.342  1.00  0.00     0.079 C 
HETATM    2  C2  UNL     1      78.228  -6.885 -50.693  1.00  0.00     0.078 A 
HETATM    3  O1  UNL     1      78.617  -8.041 -51.182  1.00  0.00    -0.294 OA
HETATM    4  C3  UNL     1      79.096  -7.921 -52.374  1.00  0.00     0.179 A 
HETATM    5  C4  UNL     1      79.618  -8.954 -53.230  1.00  0.00     0.141 C 
HETATM    6  C5  UNL     1      79.638 -10.231 -52.731  1.00  0.00     0.109 C 
HETATM    7  C7  UNL     1      79.525 -11.520 -53.301  1.00  0.00     0.141 C 
HETATM    8  N6  UNL     1      79.657 -11.988 -54.548  1.00  0.00    -0.292 N 
ATOM      9  H6  UNL     1      79.169 -12.870 -54.699  1.00  0.00     0.172 HD
HETATM   10  C11 UNL     1      80.304 -11.539 -55.657  1.00  0.00     0.328 C 
HETATM   11  O3  UNL     1      80.666 -12.474 -56.430  1.00  0.00    -0.247 OA
HETATM   12  N7  UNL     1      80.663 -10.344 -56.150  1.00  0.00    -0.277 N 
ATOM     13  H7  UNL     1      81.170 -10.386 -57.033  1.00  0.00     0.173 HD
HETATM   14  C12 UNL     1      80.468  -9.100 -55.677  1.00  0.00     0.225 A 
HETATM   15  N8  UNL     1      80.373  -7.717 -55.505  1.00  0.00    -0.259 N 
ATOM     16  H8  UNL     1      80.483  -6.781 -55.894  1.00  0.00     0.191 HD
HETATM   17  N9  UNL     1      80.030  -8.502 -54.456  1.00  0.00    -0.214 N 
HETATM   18  N10 UNL     1      79.025  -6.623 -52.698  1.00  0.00    -0.333 N 
ATOM     19  H10 UNL     1      79.330  -6.216 -53.582  1.00  0.00     0.168 HD
HETATM   20  C13 UNL     1      78.487  -5.944 -51.669  1.00  0.00     0.088 A 
ENDROOT
BRANCH   6  21
HETATM   21  N1  UNL     1      79.811 -10.243 -51.338  1.00  0.00    -0.336 N 
HETATM   22  C6  UNL     1      81.114 -10.506 -50.741  1.00  0.00     0.480 C 
HETATM   23  N2  UNL     1      81.074 -10.443 -49.298  1.00  0.00    -0.033 N 
HETATM   24  N3  UNL     1      82.162  -9.659 -51.223  1.00  0.00    -0.033 N 
ATOM     25  H23 UNL     1      80.694  -9.553 -48.977  1.00  0.00     0.278 HD
ATOM     26  H22 UNL     1      80.361 -11.068 -48.921  1.00  0.00     0.278 HD
ATOM     27  H21 UNL     1      81.986 -10.627 -48.880  1.00  0.00     0.278 HD
ATOM     28  H33 UNL     1      82.219  -9.707 -52.240  1.00  0.00     0.278 HD
ATOM     29  H32 UNL     1      81.908  -8.678 -51.109  1.00  0.00     0.278 HD
ATOM     30  H31 UNL     1      83.073  -9.843 -50.805  1.00  0.00     0.278 HD
ATOM     31  H1  UNL     1      79.010 -10.063 -50.733  1.00  0.00     0.163 HD
ENDBRANCH   6  21
BRANCH   7  32
HETATM   32  N4  UNL     1      79.237 -12.349 -52.383  1.00  0.00    -0.309 N 
HETATM   33  C8  UNL     1      78.044 -13.060 -52.347  1.00  0.00     0.253 C 
HETATM   34  O2  UNL     1      77.752 -13.872 -53.287  1.00  0.00    -0.271 OA
ATOM     35  H4  UNL     1      79.915 -12.500 -51.635  1.00  0.00     0.170 HD
BRANCH  33  36
HETATM   36  C9  UNL     1      77.039 -12.943 -51.252  1.00  0.00     0.271 C 
HETATM   37  C10 UNL     1      75.712 -12.497 -51.800  1.00  0.00     0.050 C 
BRANCH  36  38
HETATM   38  N5  UNL     1      76.862 -14.179 -50.531  1.00  0.00    -0.067 N 
ATOM     39  H53 UNL     1      76.377 -14.871 -51.102  1.00  0.00     0.275 HD
ATOM     40  H52 UNL     1      77.751 -14.663 -50.408  1.00  0.00     0.275 HD
ATOM     41  H51 UNL     1      76.390 -14.046 -49.637  1.00  0.00     0.275 HD
ENDBRANCH  36  38
ENDBRANCH  33  36
ENDBRANCH   7  32
BRANCH  20  42
HETATM   42  C14 UNL     1      78.208  -4.503 -51.552  1.00  0.00     0.291 C 
BRANCH  42  43
HETATM   43  O4  UNL     1      76.999  -4.248 -52.172  1.00  0.00    -0.372 OA
ATOM     44  H4  UNL     1      76.660  -3.428 -51.833  1.00  0.00     0.212 HD
ENDBRANCH  42  43
BRANCH  42  45
HETATM   45  N11 UNL     1      79.269  -3.728 -52.141  1.00  0.00    -0.065 NA
BRANCH  45  46
HETATM   46  O5  UNL     1      79.321  -3.871 -53.483  1.00  0.00    -0.293 OA
ATOM     47  H5  UNL     1      78.964  -3.117 -53.938  1.00  0.00     0.238 HD
ENDBRANCH  45  46
ENDBRANCH  42  45
ENDBRANCH  20  42
TORSDOF 8
ENDMDL
MODEL 3
REMARK VINA RESULT: -5.127167352      4.192      7.491
REMARK  8 active torsions:
REMARK  status: ('A' for Active; 'I' for Inactive)
REMARK    1  A    between atoms: C5_6  and  N1_7 
REMARK       I    between atoms: N1_7  and  C6_9 
REMARK       I    between atoms: C6_9  and  N2_10 
REMARK       I    between atoms: C6_9  and  N3_14 
REMARK    2  A    between atoms: C7_18  and  N4_19 
REMARK       I    between atoms: N4_19  and  C8_21 
REMARK    3  A    between atoms: C8_21  and  C9_23 
REMARK    4  A    between atoms: C9_23  and  N5_25 
REMARK    5  A    between atoms: C13_41  and  C14_42 
REMARK    6  A    between atoms: C14_42  and  O4_43 
REMARK    7  A    between atoms: C14_42  and  N11_45 
REMARK    8  A    between atoms: N11_45  and  O5_46 
ROOT
HETATM    1  C1  UNL     1      78.626 -10.437 -51.435  1.00  0.00     0.079 C 
HETATM    2  C2  UNL     1      78.138 -11.847 -51.251  1.00  0.00     0.078 A 
HETATM    3  O1  UNL     1      78.336 -12.631 -50.216  1.00  0.00    -0.294 OA
HETATM    4  C3  UNL     1      77.782 -13.784 -50.374  1.00  0.00     0.179 A 
HETATM    5  C4  UNL     1      77.779 -14.902 -49.466  1.00  0.00     0.141 C 
HETATM    6  C5  UNL     1      78.463 -14.752 -48.286  1.00  0.00     0.109 C 
HETATM    7  C7  UNL     1      78.305 -15.264 -46.978  1.00  0.00     0.141 C 
HETATM    8  N6  UNL     1      77.628 -16.302 -46.473  1.00  0.00    -0.292 N 
ATOM      9  H6  UNL     1      77.416 -16.198 -45.481  1.00  0.00     0.172 HD
HETATM   10  C11 UNL     1      77.161 -17.466 -46.999  1.00  0.00     0.328 C 
HETATM   11  O3  UNL     1      77.087 -18.398 -46.146  1.00  0.00    -0.247 OA
HETATM   12  N7  UNL     1      76.754 -17.886 -48.206  1.00  0.00    -0.277 N 
ATOM     13  H7  UNL     1      76.476 -18.867 -48.240  1.00  0.00     0.173 HD
HETATM   14  C12 UNL     1      76.649 -17.235 -49.378  1.00  0.00     0.225 A 
HETATM   15  N8  UNL     1      76.364 -16.846 -50.688  1.00  0.00    -0.259 N 
ATOM     16  H8  UNL     1      75.930 -17.058 -51.586  1.00  0.00     0.191 HD
HETATM   17  N9  UNL     1      77.073 -15.985 -49.921  1.00  0.00    -0.214 N 
HETATM   18  N10 UNL     1      77.183 -13.773 -51.572  1.00  0.00    -0.333 N 
ATOM     19  H10 UNL     1      76.659 -14.547 -51.981  1.00  0.00     0.168 HD
HETATM   20  C13 UNL     1      77.386 -12.575 -52.151  1.00  0.00     0.088 A 
ENDROOT
BRANCH   6  21
HETATM   21  N1  UNL     1      79.564 -13.894 -48.429  1.00  0.00    -0.336 N 
HETATM   22  C6  UNL     1      80.914 -14.419 -48.600  1.00  0.00     0.480 C 
HETATM   23  N2  UNL     1      81.891 -13.366 -48.755  1.00  0.00    -0.033 N 
HETATM   24  N3  UNL     1      81.047 -15.352 -49.675  1.00  0.00    -0.033 N 
ATOM     25  H23 UNL     1      81.639 -12.738 -49.518  1.00  0.00     0.278 HD
ATOM     26  H22 UNL     1      81.847 -12.704 -47.980  1.00  0.00     0.278 HD
ATOM     27  H21 UNL     1      82.835 -13.733 -48.875  1.00  0.00     0.278 HD
ATOM     28  H33 UNL     1      80.378 -16.115 -49.571  1.00  0.00     0.278 HD
ATOM     29  H32 UNL     1      80.711 -14.943 -50.547  1.00  0.00     0.278 HD
ATOM     30  H31 UNL     1      81.991 -15.719 -49.794  1.00  0.00     0.278 HD
ATOM     31  H1  UNL     1      79.418 -12.885 -48.413  1.00  0.00     0.163 HD
ENDBRANCH   6  21
BRANCH   7  32
HETATM   32  N4  UNL     1      78.969 -14.539 -46.174  1.00  0.00    -0.309 N 
HETATM   33  C8  UNL     1      79.078 -14.814 -44.816  1.00  0.00     0.253 C 
HETATM   34  O2  UNL     1      79.623 -15.898 -44.421  1.00  0.00    -0.271 OA
ATOM     35  H4  UNL     1      79.446 -13.716 -46.542  1.00  0.00     0.170 HD
BRANCH  33  36
HETATM   36  C9  UNL     1      78.589 -13.903 -43.741  1.00  0.00     0.271 C 
HETATM   37  C10 UNL     1      78.396 -12.512 -44.278  1.00  0.00     0.050 C 
BRANCH  36  38
HETATM   38  N5  UNL     1      77.355 -14.358 -43.150  1.00  0.00    -0.067 N 
ATOM     39  H53 UNL     1      76.969 -15.147 -43.668  1.00  0.00     0.275 HD
ATOM     40  H52 UNL     1      77.524 -14.818 -42.256  1.00  0.00     0.275 HD
ATOM     41  H51 UNL     1      76.669 -13.610 -43.055  1.00  0.00     0.275 HD
ENDBRANCH  36  38
ENDBRANCH  33  36
ENDBRANCH   7  32
BRANCH  20  42
HETATM   42  C14 UNL     1      76.925 -12.087 -53.461  1.00  0.00     0.291 C 
BRANCH  42  43
HETATM   43  O4  UNL     1      75.620 -12.504 -53.641  1.00  0.00    -0.372 OA
ATOM     44  H4  UNL     1      75.488 -12.672 -54.566  1.00  0.00     0.212 HD
ENDBRANCH  42  43
BRANCH  42  45
HETATM   45  N11 UNL     1      77.777 -12.574 -54.515  1.00  0.00    -0.065 NA
BRANCH  45  46
HETATM   46  O5  UNL     1      77.343 -12.198 -55.737  1.00  0.00    -0.293 OA
ATOM     47  H5  UNL     1      78.011 -12.303 -56.404  1.00  0.00     0.238 HD
ENDBRANCH  45  46
ENDBRANCH  42  45
ENDBRANCH  20  42
TORSDOF 8
ENDMDL
MODEL 4
REMARK VINA RESULT: -5.082090310      4.718      6.415
REMARK  8 active torsions:
REMARK  status: ('A' for Active; 'I' for Inactive)
REMARK    1  A    between atoms: C5_6  and  N1_7 
REMARK       I    between atoms: N1_7  and  C6_9 
REMARK       I    between atoms: C6_9  and  N2_10 
REMARK       I    between atoms: C6_9  and  N3_14 
REMARK    2  A    between atoms: C7_18  and  N4_19 
REMARK       I    between atoms: N4_19  and  C8_21 
REMARK    3  A    between atoms: C8_21  and  C9_23 
REMARK    4  A    between atoms: C9_23  and  N5_25 
REMARK    5  A    between atoms: C13_41  and  C14_42 
REMARK    6  A    between atoms: C14_42  and  O4_43 
REMARK    7  A    between atoms: C14_42  and  N11_45 
REMARK    8  A    between atoms: N11_45  and  O5_46 
ROOT
HETATM    1  C1  UNL     1      82.378 -15.569 -48.657  1.00  0.00     0.079 C 
HETATM    2  C2  UNL     1      81.334 -14.745 -49.359  1.00  0.00     0.078 A 
HETATM    3  O1  UNL     1      80.052 -15.010 -49.473  1.00  0.00    -0.294 OA
HETATM    4  C3  UNL     1      79.431 -14.097 -50.139  1.00  0.00     0.179 A 
HETATM    5  C4  UNL     1      78.030 -14.035 -50.469  1.00  0.00     0.141 C 
HETATM    6  C5  UNL     1      77.241 -15.077 -50.051  1.00  0.00     0.109 C 
HETATM    7  C7  UNL     1      75.887 -15.200 -49.663  1.00  0.00     0.141 C 
HETATM    8  N6  UNL     1      74.806 -14.431 -49.843  1.00  0.00    -0.292 N 
ATOM      9  H6  UNL     1      74.075 -14.600 -49.153  1.00  0.00     0.172 HD
HETATM   10  C11 UNL     1      74.474 -13.473 -50.750  1.00  0.00     0.328 C 
HETATM   11  O3  UNL     1      73.226 -13.388 -50.943  1.00  0.00    -0.247 OA
HETATM   12  N7  UNL     1      75.137 -12.583 -51.503  1.00  0.00    -0.277 N 
ATOM     13  H7  UNL     1      74.543 -12.012 -52.104  1.00  0.00     0.173 HD
HETATM   14  C12 UNL     1      76.451 -12.315 -51.599  1.00  0.00     0.225 A 
HETATM   15  N8  UNL     1      77.702 -11.758 -51.876  1.00  0.00    -0.259 N 
ATOM     16  H8  UNL     1      78.248 -11.010 -52.305  1.00  0.00     0.191 HD
HETATM   17  N9  UNL     1      77.676 -12.914 -51.172  1.00  0.00    -0.214 N 
HETATM   18  N10 UNL     1      80.339 -13.177 -50.489  1.00  0.00    -0.333 N 
ATOM     19  H10 UNL     1      80.149 -12.331 -51.026  1.00  0.00     0.168 HD
HETATM   20  C13 UNL     1      81.543 -13.550 -50.018  1.00  0.00     0.088 A 
ENDROOT
BRANCH   6  21
HETATM   21  N1  UNL     1      77.955 -16.284 -50.002  1.00  0.00    -0.336 N 
HETATM   22  C6  UNL     1      77.828 -17.280 -51.059  1.00  0.00     0.480 C 
HETATM   23  N2  UNL     1      78.669 -18.431 -50.825  1.00  0.00    -0.033 N 
HETATM   24  N3  UNL     1      78.072 -16.774 -52.374  1.00  0.00    -0.033 N 
ATOM     25  H23 UNL     1      79.642 -18.157 -50.691  1.00  0.00     0.278 HD
ATOM     26  H22 UNL     1      78.489 -18.840 -49.908  1.00  0.00     0.278 HD
ATOM     27  H21 UNL     1      78.580 -19.128 -51.564  1.00  0.00     0.278 HD
ATOM     28  H33 UNL     1      77.471 -15.971 -52.565  1.00  0.00     0.278 HD
ATOM     29  H32 UNL     1      78.986 -16.321 -52.419  1.00  0.00     0.278 HD
ATOM     30  H31 UNL     1      77.983 -17.470 -53.113  1.00  0.00     0.278 HD
ATOM     31  H1  UNL     1      78.575 -16.467 -49.213  1.00  0.00     0.163 HD
ENDBRANCH   6  21
BRANCH   7  32
HETATM   32  N4  UNL     1      75.745 -16.284 -49.018  1.00  0.00    -0.309 N 
HETATM   33  C8  UNL     1      74.926 -16.402 -47.902  1.00  0.00     0.253 C 
HETATM   34  O2  UNL     1      73.670 -16.199 -48.001  1.00  0.00    -0.271 OA
ATOM     35  H4  UNL     1      76.256 -17.109 -49.335  1.00  0.00     0.170 HD
BRANCH  33  36
HETATM   36  C9  UNL     1      75.421 -16.764 -46.542  1.00  0.00     0.271 C 
HETATM   37  C10 UNL     1      76.644 -15.960 -46.196  1.00  0.00     0.050 C 
BRANCH  36  38
HETATM   38  N5  UNL     1      74.422 -16.570 -45.521  1.00  0.00    -0.067 N 
ATOM     39  H53 UNL     1      74.839 -16.595 -44.591  1.00  0.00     0.275 HD
ATOM     40  H52 UNL     1      74.080 -15.609 -45.521  1.00  0.00     0.275 HD
ATOM     41  H51 UNL     1      73.652 -17.234 -45.596  1.00  0.00     0.275 HD
ENDBRANCH  36  38
ENDBRANCH  33  36
ENDBRANCH   7  32
BRANCH  20  42
HETATM   42  C14 UNL     1      82.842 -12.868 -50.144  1.00  0.00     0.291 C 
BRANCH  42  43
HETATM   43  O4  UNL     1      82.825 -11.756 -49.323  1.00  0.00    -0.372 OA
ATOM     44  H4  UNL     1      83.701 -11.389 -49.306  1.00  0.00     0.212 HD
ENDBRANCH  42  43
BRANCH  42  45
HETATM   45  N11 UNL     1      83.094 -12.501 -51.514  1.00  0.00    -0.065 NA
BRANCH  45  46
HETATM   46  O5  UNL     1      82.718 -13.467 -52.379  1.00  0.00    -0.293 OA
ATOM     47  H5  UNL     1      83.326 -14.196 -52.389  1.00  0.00     0.238 HD
ENDBRANCH  45  46
ENDBRANCH  42  45
ENDBRANCH  20  42
TORSDOF 8
ENDMDL
MODEL 5
REMARK VINA RESULT: -5.034456283      6.287      8.738
REMARK  8 active torsions:
REMARK  status: ('A' for Active; 'I' for Inactive)
REMARK    1  A    between atoms: C5_6  and  N1_7 
REMARK       I    between atoms: N1_7  and  C6_9 
REMARK       I    between atoms: C6_9  and  N2_10 
REMARK       I    between atoms: C6_9  and  N3_14 
REMARK    2  A    between atoms: C7_18  and  N4_19 
REMARK       I    between atoms: N4_19  and  C8_21 
REMARK    3  A    between atoms: C8_21  and  C9_23 
REMARK    4  A    between atoms: C9_23  and  N5_25 
REMARK    5  A    between atoms: C13_41  and  C14_42 
REMARK    6  A    between atoms: C14_42  and  O4_43 
REMARK    7  A    between atoms: C14_42  and  N11_45 
REMARK    8  A    between atoms: N11_45  and  O5_46 
ROOT
HETATM    1  C1  UNL     1      80.339 -14.211 -47.181  1.00  0.00     0.079 C 
HETATM    2  C2  UNL     1      78.999 -14.785 -46.814  1.00  0.00     0.078 A 
HETATM    3  O1  UNL     1      78.225 -15.544 -47.556  1.00  0.00    -0.294 OA
HETATM    4  C3  UNL     1      77.139 -15.868 -46.942  1.00  0.00     0.179 A 
HETATM    5  C4  UNL     1      76.054 -16.683 -47.425  1.00  0.00     0.141 C 
HETATM    6  C5  UNL     1      76.156 -17.169 -48.703  1.00  0.00     0.109 C 
HETATM    7  C7  UNL     1      75.701 -18.337 -49.358  1.00  0.00     0.141 C 
HETATM    8  N6  UNL     1      74.760 -19.245 -49.070  1.00  0.00    -0.292 N 
ATOM      9  H6  UNL     1      74.914 -20.141 -49.531  1.00  0.00     0.172 HD
HETATM   10  C11 UNL     1      73.644 -19.228 -48.294  1.00  0.00     0.328 C 
HETATM   11  O3  UNL     1      72.749 -20.026 -48.700  1.00  0.00    -0.247 OA
HETATM   12  N7  UNL     1      73.240 -18.575 -47.195  1.00  0.00    -0.277 N 
ATOM     13  H7  UNL     1      72.297 -18.809 -46.885  1.00  0.00     0.173 HD
HETATM   14  C12 UNL     1      73.867 -17.663 -46.430  1.00  0.00     0.225 A 
HETATM   15  N8  UNL     1      74.252 -16.779 -45.420  1.00  0.00    -0.259 N 
ATOM     16  H8  UNL     1      74.066 -16.365 -44.506  1.00  0.00     0.191 HD
HETATM   17  N9  UNL     1      75.047 -16.862 -46.513  1.00  0.00    -0.214 N 
HETATM   18  N10 UNL     1      77.186 -15.300 -45.730  1.00  0.00    -0.333 N 
ATOM     19  H10 UNL     1      76.466 -15.375 -45.011  1.00  0.00     0.168 HD
HETATM   20  C13 UNL     1      78.337 -14.613 -45.615  1.00  0.00     0.088 A 
ENDROOT
BRANCH   6  21
HETATM   21  N1  UNL     1      76.878 -16.300 -49.535  1.00  0.00    -0.336 N 
HETATM   22  C6  UNL     1      76.199 -15.387 -50.446  1.00  0.00     0.480 C 
HETATM   23  N2  UNL     1      77.128 -14.565 -51.186  1.00  0.00    -0.033 N 
HETATM   24  N3  UNL     1      75.222 -14.551 -49.818  1.00  0.00    -0.033 N 
ATOM     25  H23 UNL     1      77.756 -14.062 -50.559  1.00  0.00     0.278 HD
ATOM     26  H22 UNL     1      77.815 -15.136 -51.678  1.00  0.00     0.278 HD
ATOM     27  H21 UNL     1      76.653 -13.926 -51.823  1.00  0.00     0.278 HD
ATOM     28  H33 UNL     1      74.544 -15.116 -49.307  1.00  0.00     0.278 HD
ATOM     29  H32 UNL     1      75.639 -14.036 -49.042  1.00  0.00     0.278 HD
ATOM     30  H31 UNL     1      74.747 -13.913 -50.455  1.00  0.00     0.278 HD
ATOM     31  H1  UNL     1      77.898 -16.306 -49.500  1.00  0.00     0.163 HD
ENDBRANCH   6  21
BRANCH   7  32
HETATM   32  N4  UNL     1      76.366 -18.489 -50.429  1.00  0.00    -0.309 N 
HETATM   33  C8  UNL     1      76.301 -19.638 -51.207  1.00  0.00     0.253 C 
HETATM   34  O2  UNL     1      75.197 -19.990 -51.744  1.00  0.00    -0.271 OA
ATOM     35  H4  UNL     1      76.977 -17.731 -50.734  1.00  0.00     0.170 HD
BRANCH  33  36
HETATM   36  C9  UNL     1      77.467 -20.528 -51.476  1.00  0.00     0.271 C 
HETATM   37  C10 UNL     1      78.705 -19.711 -51.727  1.00  0.00     0.050 C 
BRANCH  36  38
HETATM   38  N5  UNL     1      77.720 -21.449 -50.397  1.00  0.00    -0.067 N 
ATOM     39  H53 UNL     1      76.849 -21.753 -49.962  1.00  0.00     0.275 HD
ATOM     40  H52 UNL     1      78.047 -22.348 -50.751  1.00  0.00     0.275 HD
ATOM     41  H51 UNL     1      78.364 -21.072 -49.703  1.00  0.00     0.275 HD
ENDBRANCH  36  38
ENDBRANCH  33  36
ENDBRANCH   7  32
BRANCH  20  42
HETATM   42  C14 UNL     1      78.840 -13.828 -44.475  1.00  0.00     0.291 C 
BRANCH  42  43
HETATM   43  O4  UNL     1      79.411 -14.702 -43.570  1.00  0.00    -0.372 OA
ATOM     44  H4  UNL     1      79.255 -14.366 -42.695  1.00  0.00     0.212 HD
ENDBRANCH  42  43
BRANCH  42  45
HETATM   45  N11 UNL     1      77.775 -13.072 -43.867  1.00  0.00    -0.065 NA
BRANCH  45  46
HETATM   46  O5  UNL     1      77.784 -11.778 -44.252  1.00  0.00    -0.293 OA
ATOM     47  H5  UNL     1      77.156 -11.255 -43.768  1.00  0.00     0.238 HD
ENDBRANCH  45  46
ENDBRANCH  42  45
ENDBRANCH  20  42
TORSDOF 8
ENDMDL
