MODEL 1
REMARK VINA RESULT: -8.843752713      0.000      0.000
REMARK  9 active torsions:
REMARK  status: ('A' for Active; 'I' for Inactive)
REMARK    1  A    between atoms: C6_6  and  N1_7 
REMARK       I    between atoms: N1_7  and  C7_9 
REMARK    2  A    between atoms: C7_9  and  C8_11 
REMARK    3  A    between atoms: C8_11  and  N2_12 
REMARK       I    between atoms: N2_12  and  C9_14 
REMARK    4  A    between atoms: C9_14  and  C10_16 
REMARK    5  A    between atoms: C10_16  and  N3_17 
REMARK       I    between atoms: N3_17  and  C11_19 
REMARK    6  A    between atoms: C11_19  and  C12_21 
REMARK    7  A    between atoms: C14_24  and  C15_25 
REMARK    8  A    between atoms: C20_30  and  S1_31 
REMARK    9  A    between atoms: S1_31  and  C21_34 
ROOT
HETATM    1  C12 UNL     1       4.425  21.121  19.021  1.00  0.00     0.108 C 
HETATM    2  C13 UNL     1       3.086  20.577  19.233  1.00  0.00     0.104 C 
HETATM    3  N4  UNL     1       2.021  20.163  19.390  1.00  0.00    -0.191 NA
HETATM    4  C14 UNL     1       5.055  21.559  20.093  1.00  0.00     0.006 C 
ENDROOT
BRANCH   1   5
HETATM    5  C11 UNL     1       4.971  21.146  17.671  1.00  0.00     0.262 C 
HETATM    6  N3  UNL     1       4.811  20.044  16.803  1.00  0.00    -0.348 N 
ATOM      7  H3  UNL     1       4.297  19.235  17.152  1.00  0.00     0.163 HD
HETATM    8  O3  UNL     1       5.591  22.172  17.293  1.00  0.00    -0.267 OA
BRANCH   6   9
HETATM    9  C10 UNL     1       5.323  19.987  15.462  1.00  0.00     0.225 C 
BRANCH   9  10
HETATM   10  C9  UNL     1       6.776  20.297  15.360  1.00  0.00     0.235 C 
HETATM   11  N2  UNL     1       7.732  19.427  15.947  1.00  0.00    -0.351 N 
ATOM     12  H2  UNL     1       7.407  18.595  16.440  1.00  0.00     0.163 HD
HETATM   13  O2  UNL     1       7.115  21.334  14.747  1.00  0.00    -0.272 OA
BRANCH  11  14
HETATM   14  C8  UNL     1       9.138  19.681  15.870  1.00  0.00     0.225 C 
BRANCH  14  15
HETATM   15  C7  UNL     1       9.652  20.529  16.996  1.00  0.00     0.235 C 
HETATM   16  N1  UNL     1       8.761  21.320  17.731  1.00  0.00    -0.350 N 
ATOM     17  H1  UNL     1       7.780  21.279  17.452  1.00  0.00     0.163 HD
HETATM   18  O1  UNL     1      10.871  20.526  17.271  1.00  0.00    -0.272 OA
BRANCH  16  19
HETATM   19  C6  UNL     1       9.079  22.192  18.844  1.00  0.00     0.037 C 
HETATM   20  C5  UNL     1       8.250  23.416  18.751  1.00  0.00     0.066 C 
HETATM   21  C4  UNL     1       8.185  24.250  20.002  1.00  0.00     0.163 C 
HETATM   22  C3  UNL     1       8.109  23.405  21.229  1.00  0.00     0.044 C 
HETATM   23  O7  UNL     1       9.171  25.210  20.007  1.00  0.00    -0.235 OA
HETATM   24  C2  UNL     1       9.129  22.286  21.251  1.00  0.00    -0.038 C 
HETATM   25  C1  UNL     1       8.824  21.482  22.524  1.00  0.00     0.015 C 
HETATM   26  C18 UNL     1       8.853  21.378  20.098  1.00  0.00     0.040 C 
HETATM   27  C25 UNL     1      10.538  22.776  21.311  1.00  0.00     0.037 C 
HETATM   28  C20 UNL     1      11.199  23.033  20.004  1.00  0.00     0.091 C 
HETATM   29  C19 UNL     1      10.558  22.458  18.798  1.00  0.00     0.058 C 
HETATM   30  C24 UNL     1      11.290  24.550  19.767  1.00  0.00     0.235 C 
HETATM   31  O6  UNL     1      10.111  24.932  19.113  1.00  0.00    -0.239 OA
BRANCH  28  32
HETATM   32  S1  UNL     1      12.814  22.294  20.065  1.00  0.00     0.159 S 
HETATM   33  O4  UNL     1      12.725  20.853  19.568  1.00  0.00    -0.227 OA
HETATM   34  O5  UNL     1      13.124  22.139  21.552  1.00  0.00    -0.227 OA
BRANCH  32  35
HETATM   35  C21 UNL     1      14.116  23.147  19.341  1.00  0.00     0.109 A 
HETATM   36  C22 UNL     1      14.832  24.247  20.128  1.00  0.00     0.021 A 
HETATM   37  C23 UNL     1      15.541  23.021  19.560  1.00  0.00     0.021 A 
ENDBRANCH  32  35
ENDBRANCH  28  32
ENDBRANCH  16  19
ENDBRANCH  14  15
ENDBRANCH  11  14
ENDBRANCH   9  10
ENDBRANCH   6   9
ENDBRANCH   1   5
BRANCH   4  38
HETATM   38  C15 UNL     1       4.381  21.477  21.422  1.00  0.00     0.010 A 
HETATM   39  C16 UNL     1       4.916  22.322  22.521  1.00  0.00     0.009 A 
HETATM   40  C17 UNL     1       5.139  20.831  22.529  1.00  0.00     0.009 A 
ENDBRANCH   4  38
TORSDOF 9
ENDMDL
MODEL 2
REMARK VINA RESULT: -8.491990175      1.571      1.869
REMARK  9 active torsions:
REMARK  status: ('A' for Active; 'I' for Inactive)
REMARK    1  A    between atoms: C6_6  and  N1_7 
REMARK       I    between atoms: N1_7  and  C7_9 
REMARK    2  A    between atoms: C7_9  and  C8_11 
REMARK    3  A    between atoms: C8_11  and  N2_12 
REMARK       I    between atoms: N2_12  and  C9_14 
REMARK    4  A    between atoms: C9_14  and  C10_16 
REMARK    5  A    between atoms: C10_16  and  N3_17 
REMARK       I    between atoms: N3_17  and  C11_19 
REMARK    6  A    between atoms: C11_19  and  C12_21 
REMARK    7  A    between atoms: C14_24  and  C15_25 
REMARK    8  A    between atoms: C20_30  and  S1_31 
REMARK    9  A    between atoms: S1_31  and  C21_34 
ROOT
HETATM    1  C12 UNL     1       4.061  20.953  19.257  1.00  0.00     0.108 C 
HETATM    2  C13 UNL     1       2.678  20.504  19.394  1.00  0.00     0.104 C 
HETATM    3  N4  UNL     1       1.579  20.166  19.493  1.00  0.00    -0.191 NA
HETATM    4  C14 UNL     1       4.680  21.292  20.370  1.00  0.00     0.006 C 
ENDROOT
BRANCH   1   5
HETATM    5  C11 UNL     1       4.660  20.996  17.930  1.00  0.00     0.262 C 
HETATM    6  N3  UNL     1       4.540  19.904  17.043  1.00  0.00    -0.348 N 
ATOM      7  H3  UNL     1       4.018  19.088  17.361  1.00  0.00     0.163 HD
HETATM    8  O3  UNL     1       5.289  22.029  17.589  1.00  0.00    -0.267 OA
BRANCH   6   9
HETATM    9  C10 UNL     1       5.105  19.866  15.723  1.00  0.00     0.225 C 
BRANCH   9  10
HETATM   10  C9  UNL     1       6.513  20.350  15.658  1.00  0.00     0.235 C 
HETATM   11  N2  UNL     1       6.805  21.614  15.081  1.00  0.00    -0.351 N 
ATOM     12  H2  UNL     1       6.039  22.177  14.711  1.00  0.00     0.163 HD
HETATM   13  O2  UNL     1       7.410  19.612  16.124  1.00  0.00    -0.272 OA
BRANCH  11  14
HETATM   14  C8  UNL     1       8.140  22.122  15.002  1.00  0.00     0.225 C 
BRANCH  14  15
HETATM   15  C7  UNL     1       8.611  22.758  16.277  1.00  0.00     0.235 C 
HETATM   16  N1  UNL     1       8.219  22.216  17.508  1.00  0.00    -0.350 N 
ATOM     17  H1  UNL     1       7.614  21.396  17.471  1.00  0.00     0.163 HD
HETATM   18  O1  UNL     1       9.348  23.765  16.235  1.00  0.00    -0.272 OA
BRANCH  16  19
HETATM   19  C6  UNL     1       8.579  22.695  18.827  1.00  0.00     0.037 C 
HETATM   20  C5  UNL     1       7.805  23.923  19.123  1.00  0.00     0.066 C 
HETATM   21  C4  UNL     1       7.781  24.340  20.569  1.00  0.00     0.163 C 
HETATM   22  C3  UNL     1       7.671  23.167  21.483  1.00  0.00     0.044 C 
HETATM   23  O7  UNL     1       8.809  25.211  20.848  1.00  0.00    -0.235 OA
HETATM   24  C2  UNL     1       8.640  22.053  21.148  1.00  0.00    -0.038 C 
HETATM   25  C1  UNL     1       8.303  20.914  22.123  1.00  0.00     0.015 C 
HETATM   26  C18 UNL     1       8.320  21.549  19.780  1.00  0.00     0.040 C 
HETATM   27  C25 UNL     1      10.069  22.442  21.331  1.00  0.00     0.037 C 
HETATM   28  C20 UNL     1      10.738  23.055  20.153  1.00  0.00     0.091 C 
HETATM   29  C19 UNL     1      10.069  22.900  18.840  1.00  0.00     0.058 C 
HETATM   30  C24 UNL     1      10.896  24.568  20.385  1.00  0.00     0.235 C 
HETATM   31  O6  UNL     1       9.733  25.179  19.897  1.00  0.00    -0.239 OA
BRANCH  28  32
HETATM   32  S1  UNL     1      12.318  22.266  19.961  1.00  0.00     0.159 S 
HETATM   33  O4  UNL     1      12.963  22.092  21.334  1.00  0.00    -0.227 OA
HETATM   34  O5  UNL     1      13.202  23.308  19.281  1.00  0.00    -0.227 OA
BRANCH  32  35
HETATM   35  C21 UNL     1      12.388  20.826  19.028  1.00  0.00     0.109 A 
HETATM   36  C22 UNL     1      11.626  19.583  19.495  1.00  0.00     0.021 A 
HETATM   37  C23 UNL     1      11.400  20.250  18.141  1.00  0.00     0.021 A 
ENDBRANCH  32  35
ENDBRANCH  28  32
ENDBRANCH  16  19
ENDBRANCH  14  15
ENDBRANCH  11  14
ENDBRANCH   9  10
ENDBRANCH   6   9
ENDBRANCH   1   5
BRANCH   4  38
HETATM   38  C15 UNL     1       3.950  21.201  21.669  1.00  0.00     0.010 A 
HETATM   39  C16 UNL     1       4.270  22.209  22.713  1.00  0.00     0.009 A 
HETATM   40  C17 UNL     1       4.736  20.783  22.862  1.00  0.00     0.009 A 
ENDBRANCH   4  38
TORSDOF 9
ENDMDL
MODEL 3
REMARK VINA RESULT: -8.257030213      2.456      5.463
REMARK  9 active torsions:
REMARK  status: ('A' for Active; 'I' for Inactive)
REMARK    1  A    between atoms: C6_6  and  N1_7 
REMARK       I    between atoms: N1_7  and  C7_9 
REMARK    2  A    between atoms: C7_9  and  C8_11 
REMARK    3  A    between atoms: C8_11  and  N2_12 
REMARK       I    between atoms: N2_12  and  C9_14 
REMARK    4  A    between atoms: C9_14  and  C10_16 
REMARK    5  A    between atoms: C10_16  and  N3_17 
REMARK       I    between atoms: N3_17  and  C11_19 
REMARK    6  A    between atoms: C11_19  and  C12_21 
REMARK    7  A    between atoms: C14_24  and  C15_25 
REMARK    8  A    between atoms: C20_30  and  S1_31 
REMARK    9  A    between atoms: S1_31  and  C21_34 
ROOT
HETATM    1  C12 UNL     1       6.800  21.914  22.582  1.00  0.00     0.108 C 
HETATM    2  C13 UNL     1       7.965  21.320  21.933  1.00  0.00     0.104 C 
HETATM    3  N4  UNL     1       8.886  20.835  21.434  1.00  0.00    -0.191 NA
HETATM    4  C14 UNL     1       6.987  23.082  23.164  1.00  0.00     0.006 C 
ENDROOT
BRANCH   1   5
HETATM    5  C11 UNL     1       5.532  21.200  22.547  1.00  0.00     0.262 C 
HETATM    6  N3  UNL     1       4.350  21.839  22.114  1.00  0.00    -0.348 N 
ATOM      7  H3  UNL     1       4.416  22.815  21.824  1.00  0.00     0.163 HD
HETATM    8  O3  UNL     1       5.510  19.997  22.911  1.00  0.00    -0.267 OA
BRANCH   6   9
HETATM    9  C10 UNL     1       3.060  21.208  22.055  1.00  0.00     0.225 C 
BRANCH   9  10
HETATM   10  C9  UNL     1       2.738  20.624  20.723  1.00  0.00     0.235 C 
HETATM   11  N2  UNL     1       3.602  20.850  19.619  1.00  0.00    -0.351 N 
ATOM     12  H2  UNL     1       4.438  21.418  19.753  1.00  0.00     0.163 HD
HETATM   13  O2  UNL     1       1.696  19.938  20.618  1.00  0.00    -0.272 OA
BRANCH  11  14
HETATM   14  C8  UNL     1       3.336  20.305  18.323  1.00  0.00     0.225 C 
BRANCH  14  15
HETATM   15  C7  UNL     1       4.493  20.430  17.376  1.00  0.00     0.235 C 
HETATM   16  N1  UNL     1       5.674  21.049  17.803  1.00  0.00    -0.350 N 
ATOM     17  H1  UNL     1       5.685  21.395  18.763  1.00  0.00     0.163 HD
HETATM   18  O1  UNL     1       4.397  19.983  16.214  1.00  0.00    -0.272 OA
BRANCH  16  19
HETATM   19  C6  UNL     1       6.883  21.252  17.030  1.00  0.00     0.037 C 
HETATM   20  C5  UNL     1       7.192  20.011  16.282  1.00  0.00     0.066 C 
HETATM   21  C4  UNL     1       8.188  20.161  15.164  1.00  0.00     0.163 C 
HETATM   22  C3  UNL     1       7.997  21.439  14.418  1.00  0.00     0.044 C 
HETATM   23  O7  UNL     1       9.468  19.924  15.609  1.00  0.00    -0.235 OA
HETATM   24  C2  UNL     1       7.853  22.645  15.321  1.00  0.00    -0.038 C 
HETATM   25  C1  UNL     1       7.566  23.825  14.380  1.00  0.00     0.015 C 
HETATM   26  C18 UNL     1       6.631  22.461  16.157  1.00  0.00     0.040 C 
HETATM   27  C25 UNL     1       9.087  22.940  16.108  1.00  0.00     0.037 C 
HETATM   28  C20 UNL     1       9.200  22.263  17.427  1.00  0.00     0.091 C 
HETATM   29  C19 UNL     1       7.965  21.666  17.989  1.00  0.00     0.058 C 
HETATM   30  C24 UNL     1      10.229  21.124  17.331  1.00  0.00     0.235 C 
HETATM   31  O6  UNL     1       9.530  19.976  16.933  1.00  0.00    -0.239 OA
BRANCH  28  32
HETATM   32  S1  UNL     1       9.703  23.485  18.616  1.00  0.00     0.159 S 
HETATM   33  O4  UNL     1       8.495  23.897  19.453  1.00  0.00    -0.227 OA
HETATM   34  O5  UNL     1      10.011  24.734  17.795  1.00  0.00    -0.227 OA
BRANCH  32  35
HETATM   35  C21 UNL     1      11.076  23.141  19.589  1.00  0.00     0.109 A 
HETATM   36  C22 UNL     1      11.912  24.293  20.152  1.00  0.00     0.021 A 
HETATM   37  C23 UNL     1      11.240  23.236  21.024  1.00  0.00     0.021 A 
ENDBRANCH  32  35
ENDBRANCH  28  32
ENDBRANCH  16  19
ENDBRANCH  14  15
ENDBRANCH  11  14
ENDBRANCH   9  10
ENDBRANCH   6   9
ENDBRANCH   1   5
BRANCH   4  38
HETATM   38  C15 UNL     1       8.340  23.709  23.128  1.00  0.00     0.010 A 
HETATM   39  C16 UNL     1       9.180  23.611  24.351  1.00  0.00     0.009 A 
HETATM   40  C17 UNL     1       8.549  24.924  23.962  1.00  0.00     0.009 A 
ENDBRANCH   4  38
TORSDOF 9
ENDMDL
MODEL 4
REMARK VINA RESULT: -8.096508531      8.306     12.782
REMARK  9 active torsions:
REMARK  status: ('A' for Active; 'I' for Inactive)
REMARK    1  A    between atoms: C6_6  and  N1_7 
REMARK       I    between atoms: N1_7  and  C7_9 
REMARK    2  A    between atoms: C7_9  and  C8_11 
REMARK    3  A    between atoms: C8_11  and  N2_12 
REMARK       I    between atoms: N2_12  and  C9_14 
REMARK    4  A    between atoms: C9_14  and  C10_16 
REMARK    5  A    between atoms: C10_16  and  N3_17 
REMARK       I    between atoms: N3_17  and  C11_19 
REMARK    6  A    between atoms: C11_19  and  C12_21 
REMARK    7  A    between atoms: C14_24  and  C15_25 
REMARK    8  A    between atoms: C20_30  and  S1_31 
REMARK    9  A    between atoms: S1_31  and  C21_34 
ROOT
HETATM    1  C12 UNL     1       6.019  21.725  17.611  1.00  0.00     0.108 C 
HETATM    2  C13 UNL     1       5.377  20.728  16.758  1.00  0.00     0.104 C 
HETATM    3  N4  UNL     1       4.876  19.927  16.096  1.00  0.00    -0.191 NA
HETATM    4  C14 UNL     1       7.068  22.341  17.104  1.00  0.00     0.006 C 
ENDROOT
BRANCH   1   5
HETATM    5  C11 UNL     1       5.475  21.972  18.939  1.00  0.00     0.262 C 
HETATM    6  N3  UNL     1       4.443  21.163  19.464  1.00  0.00    -0.348 N 
ATOM      7  H3  UNL     1       4.097  20.399  18.884  1.00  0.00     0.163 HD
HETATM    8  O3  UNL     1       5.943  22.926  19.611  1.00  0.00    -0.267 OA
BRANCH   6   9
HETATM    9  C10 UNL     1       3.850  21.345  20.759  1.00  0.00     0.225 C 
BRANCH   9  10
HETATM   10  C9  UNL     1       2.612  20.543  20.970  1.00  0.00     0.235 C 
HETATM   11  N2  UNL     1       2.171  20.246  22.287  1.00  0.00    -0.351 N 
ATOM     12  H2  UNL     1       2.716  20.587  23.079  1.00  0.00     0.163 HD
HETATM   13  O2  UNL     1       1.988  20.149  19.959  1.00  0.00    -0.272 OA
BRANCH  11  14
HETATM   14  C8  UNL     1       0.986  19.485  22.537  1.00  0.00     0.225 C 
BRANCH  14  15
HETATM   15  C7  UNL     1       0.949  18.877  23.909  1.00  0.00     0.235 C 
HETATM   16  N1  UNL     1       0.337  17.632  24.098  1.00  0.00    -0.350 N 
ATOM     17  H1  UNL     1      -0.065  17.192  23.270  1.00  0.00     0.163 HD
HETATM   18  O1  UNL     1       1.461  19.484  24.872  1.00  0.00    -0.272 OA
BRANCH  16  19
HETATM   19  C6  UNL     1       0.212  16.900  25.342  1.00  0.00     0.037 C 
HETATM   20  C5  UNL     1       1.565  16.570  25.847  1.00  0.00     0.066 C 
HETATM   21  C4  UNL     1       1.633  16.142  27.288  1.00  0.00     0.163 C 
HETATM   22  C3  UNL     1       0.704  16.932  28.146  1.00  0.00     0.044 C 
HETATM   23  O7  UNL     1       1.521  14.774  27.401  1.00  0.00    -0.235 OA
HETATM   24  C2  UNL     1      -0.692  17.048  27.571  1.00  0.00    -0.038 C 
HETATM   25  C1  UNL     1      -1.454  17.970  28.535  1.00  0.00     0.015 C 
HETATM   26  C18 UNL     1      -0.603  17.774  26.269  1.00  0.00     0.040 C 
HETATM   27  C25 UNL     1      -1.403  15.738  27.487  1.00  0.00     0.037 C 
HETATM   28  C20 UNL     1      -1.208  14.965  26.232  1.00  0.00     0.091 C 
HETATM   29  C19 UNL     1      -0.643  15.693  25.071  1.00  0.00     0.058 C 
HETATM   30  C24 UNL     1      -0.265  13.781  26.503  1.00  0.00     0.235 C 
HETATM   31  O6  UNL     1       1.041  14.241  26.286  1.00  0.00    -0.239 OA
BRANCH  28  32
HETATM   32  S1  UNL     1      -2.805  14.405  25.692  1.00  0.00     0.159 S 
HETATM   33  O4  UNL     1      -2.759  12.895  25.472  1.00  0.00    -0.227 OA
HETATM   34  O5  UNL     1      -2.966  14.966  24.281  1.00  0.00    -0.227 OA
BRANCH  32  35
HETATM   35  C21 UNL     1      -4.176  14.883  26.608  1.00  0.00     0.109 A 
HETATM   36  C22 UNL     1      -5.478  14.087  26.496  1.00  0.00     0.021 A 
HETATM   37  C23 UNL     1      -4.734  14.301  27.811  1.00  0.00     0.021 A 
ENDBRANCH  32  35
ENDBRANCH  28  32
ENDBRANCH  16  19
ENDBRANCH  14  15
ENDBRANCH  11  14
ENDBRANCH   9  10
ENDBRANCH   6   9
ENDBRANCH   1   5
BRANCH   4  38
HETATM   38  C15 UNL     1       7.526  21.993  15.727  1.00  0.00     0.010 A 
HETATM   39  C16 UNL     1       8.912  22.368  15.344  1.00  0.00     0.009 A 
HETATM   40  C17 UNL     1       7.734  23.119  14.776  1.00  0.00     0.009 A 
ENDBRANCH   4  38
TORSDOF 9
ENDMDL
MODEL 5
REMARK VINA RESULT: -8.058829566      8.152     12.619
REMARK  9 active torsions:
REMARK  status: ('A' for Active; 'I' for Inactive)
REMARK    1  A    between atoms: C6_6  and  N1_7 
REMARK       I    between atoms: N1_7  and  C7_9 
REMARK    2  A    between atoms: C7_9  and  C8_11 
REMARK    3  A    between atoms: C8_11  and  N2_12 
REMARK       I    between atoms: N2_12  and  C9_14 
REMARK    4  A    between atoms: C9_14  and  C10_16 
REMARK    5  A    between atoms: C10_16  and  N3_17 
REMARK       I    between atoms: N3_17  and  C11_19 
REMARK    6  A    between atoms: C11_19  and  C12_21 
REMARK    7  A    between atoms: C14_24  and  C15_25 
REMARK    8  A    between atoms: C20_30  and  S1_31 
REMARK    9  A    between atoms: S1_31  and  C21_34 
ROOT
HETATM    1  C12 UNL     1       6.004  21.712  17.610  1.00  0.00     0.108 C 
HETATM    2  C13 UNL     1       5.371  20.711  16.757  1.00  0.00     0.104 C 
HETATM    3  N4  UNL     1       4.878  19.905  16.095  1.00  0.00    -0.191 NA
HETATM    4  C14 UNL     1       7.032  22.357  17.094  1.00  0.00     0.006 C 
ENDROOT
BRANCH   1   5
HETATM    5  C11 UNL     1       5.474  21.936  18.948  1.00  0.00     0.262 C 
HETATM    6  N3  UNL     1       4.419  21.144  19.453  1.00  0.00    -0.348 N 
ATOM      7  H3  UNL     1       4.046  20.411  18.851  1.00  0.00     0.163 HD
HETATM    8  O3  UNL     1       5.976  22.851  19.648  1.00  0.00    -0.267 OA
BRANCH   6   9
HETATM    9  C10 UNL     1       3.838  21.304  20.757  1.00  0.00     0.225 C 
BRANCH   9  10
HETATM   10  C9  UNL     1       2.594  20.509  20.961  1.00  0.00     0.235 C 
HETATM   11  N2  UNL     1       2.153  20.201  22.275  1.00  0.00    -0.351 N 
ATOM     12  H2  UNL     1       2.703  20.528  23.070  1.00  0.00     0.163 HD
HETATM   13  O2  UNL     1       1.965  20.133  19.947  1.00  0.00    -0.272 OA
BRANCH  11  14
HETATM   14  C8  UNL     1       0.963  19.446  22.519  1.00  0.00     0.225 C 
BRANCH  14  15
HETATM   15  C7  UNL     1       0.902  18.860  23.899  1.00  0.00     0.235 C 
HETATM   16  N1  UNL     1       0.342  17.591  24.089  1.00  0.00    -0.350 N 
ATOM     17  H1  UNL     1      -0.008  17.119  23.255  1.00  0.00     0.163 HD
HETATM   18  O1  UNL     1       1.350  19.506  24.869  1.00  0.00    -0.272 OA
BRANCH  16  19
HETATM   19  C6  UNL     1       0.205  16.875  25.340  1.00  0.00     0.037 C 
HETATM   20  C5  UNL     1       1.554  16.572  25.874  1.00  0.00     0.066 C 
HETATM   21  C4  UNL     1       1.600  16.165  27.322  1.00  0.00     0.163 C 
HETATM   22  C3  UNL     1       0.645  16.954  28.152  1.00  0.00     0.044 C 
HETATM   23  O7  UNL     1       1.507  14.798  27.453  1.00  0.00    -0.235 OA
HETATM   24  C2  UNL     1      -0.742  17.040  27.550  1.00  0.00    -0.038 C 
HETATM   25  C1  UNL     1      -1.535  17.965  28.487  1.00  0.00     0.015 C 
HETATM   26  C18 UNL     1      -0.640  17.749  26.240  1.00  0.00     0.040 C 
HETATM   27  C25 UNL     1      -1.433  15.719  27.471  1.00  0.00     0.037 C 
HETATM   28  C20 UNL     1      -1.203  14.932  26.232  1.00  0.00     0.091 C 
HETATM   29  C19 UNL     1      -0.628  15.651  25.071  1.00  0.00     0.058 C 
HETATM   30  C24 UNL     1      -0.248  13.765  26.537  1.00  0.00     0.235 C 
HETATM   31  O6  UNL     1       1.055  14.242  26.337  1.00  0.00    -0.239 OA
BRANCH  28  32
HETATM   32  S1  UNL     1      -2.782  14.340  25.670  1.00  0.00     0.159 S 
HETATM   33  O4  UNL     1      -3.794  14.455  26.808  1.00  0.00    -0.227 OA
HETATM   34  O5  UNL     1      -2.604  12.833  25.502  1.00  0.00    -0.227 OA
BRANCH  32  35
HETATM   35  C21 UNL     1      -3.395  14.967  24.194  1.00  0.00     0.109 A 
HETATM   36  C22 UNL     1      -4.883  14.819  23.869  1.00  0.00     0.021 A 
HETATM   37  C23 UNL     1      -4.169  16.165  23.949  1.00  0.00     0.021 A 
ENDBRANCH  32  35
ENDBRANCH  28  32
ENDBRANCH  16  19
ENDBRANCH  14  15
ENDBRANCH  11  14
ENDBRANCH   9  10
ENDBRANCH   6   9
ENDBRANCH   1   5
BRANCH   4  38
HETATM   38  C15 UNL     1       7.476  22.032  15.707  1.00  0.00     0.010 A 
HETATM   39  C16 UNL     1       8.887  22.329  15.346  1.00  0.00     0.009 A 
HETATM   40  C17 UNL     1       7.767  23.177  14.801  1.00  0.00     0.009 A 
ENDBRANCH   4  38
TORSDOF 9
ENDMDL
