MODEL 1
REMARK VINA RESULT: -7.027488381      0.000      0.000
REMARK  2 active torsions:
REMARK  status: ('A' for Active; 'I' for Inactive)
REMARK    1  A    between atoms: C7_7  and  C8_8 
REMARK    2  A    between atoms: C10_15  and  C11_16 
ROOT
HETATM    1  C8  UNL     1     -28.865 -10.033  -0.569  1.00  0.00     0.014 C 
HETATM    2  N1  UNL     1     -28.437  -8.790  -0.612  1.00  0.00    -0.337 N 
ATOM      3  H1  UNL     1     -28.747  -8.220  -1.399  1.00  0.00     0.168 HD
HETATM    4  C9  UNL     1     -27.599  -8.180   0.323  1.00  0.00     0.172 C 
HETATM    5  S1  UNL     1     -27.101  -6.626   0.219  1.00  0.00    -0.041 SA
HETATM    6  N2  UNL     1     -27.150  -8.948   1.431  1.00  0.00    -0.356 N 
ATOM      7  H2  UNL     1     -26.816  -8.508   2.288  1.00  0.00     0.162 HD
HETATM    8  C10 UNL     1     -27.191 -10.382   1.279  1.00  0.00     0.147 C 
HETATM    9  C14 UNL     1     -28.425 -10.865   0.537  1.00  0.00     0.089 C 
ENDROOT
BRANCH   1  10
HETATM   10  C7  UNL     1     -29.742 -10.511  -1.635  1.00  0.00     0.028 C 
HETATM   11  C6  UNL     1     -30.606 -11.454  -1.678  1.00  0.00    -0.078 C 
HETATM   12  C5  UNL     1     -31.327 -11.629  -3.019  1.00  0.00     0.035 C 
HETATM   13  C15 UNL     1     -30.984 -12.356  -0.615  1.00  0.00     0.035 C 
HETATM   14  C4  UNL     1     -31.359 -13.131  -3.246  1.00  0.00     0.013 C 
HETATM   15  C2  UNL     1     -32.312 -13.733  -2.267  1.00  0.00    -0.047 C 
HETATM   16  C1  UNL     1     -31.983 -15.227  -2.150  1.00  0.00     0.015 C 
HETATM   17  C3  UNL     1     -33.703 -13.681  -2.903  1.00  0.00     0.015 C 
HETATM   18  C16 UNL     1     -32.289 -13.097  -0.922  1.00  0.00     0.013 C 
ENDBRANCH   1  10
BRANCH   8  19
HETATM   19  C11 UNL     1     -25.941 -10.791   0.557  1.00  0.00     0.074 A 
HETATM   20  N3  UNL     1     -25.804 -11.820  -0.265  1.00  0.00    -0.361 N 
HETATM   21  C12 UNL     1     -24.658 -12.054  -0.820  1.00  0.00     0.096 A 
ATOM     22  H3  UNL     1     -26.600 -12.427  -0.461  1.00  0.00     0.165 HD
HETATM   23  C13 UNL     1     -23.619 -11.207  -0.522  1.00  0.00     0.068 A 
HETATM   24  S2  UNL     1     -24.377 -10.111   0.555  1.00  0.00    -0.085 SA
ENDBRANCH   8  19
TORSDOF 2
ENDMDL
MODEL 2
REMARK VINA RESULT: -6.611254144      1.181      1.546
REMARK  2 active torsions:
REMARK  status: ('A' for Active; 'I' for Inactive)
REMARK    1  A    between atoms: C7_7  and  C8_8 
REMARK    2  A    between atoms: C10_15  and  C11_16 
ROOT
HETATM    1  C8  UNL     1     -28.708 -10.302   0.038  1.00  0.00     0.014 C 
HETATM    2  N1  UNL     1     -28.372  -9.066  -0.266  1.00  0.00    -0.337 N 
ATOM      3  H1  UNL     1     -28.877  -8.624  -1.033  1.00  0.00     0.168 HD
HETATM    4  C9  UNL     1     -27.387  -8.307   0.368  1.00  0.00     0.172 C 
HETATM    5  S1  UNL     1     -27.014  -6.772  -0.052  1.00  0.00    -0.041 SA
HETATM    6  N2  UNL     1     -26.666  -8.895   1.442  1.00  0.00    -0.356 N 
ATOM      7  H2  UNL     1     -26.180  -8.328   2.136  1.00  0.00     0.162 HD
HETATM    8  C10 UNL     1     -26.657 -10.337   1.498  1.00  0.00     0.147 C 
HETATM    9  C14 UNL     1     -27.993 -10.953   1.121  1.00  0.00     0.089 C 
ENDROOT
BRANCH   1  10
HETATM   10  C7  UNL     1     -29.767 -10.951  -0.731  1.00  0.00     0.028 C 
HETATM   11  C6  UNL     1     -30.907 -11.422  -0.394  1.00  0.00    -0.078 C 
HETATM   12  C5  UNL     1     -31.732 -12.034  -1.532  1.00  0.00     0.035 C 
HETATM   13  C15 UNL     1     -31.507 -11.434   0.920  1.00  0.00     0.035 C 
HETATM   14  C4  UNL     1     -32.305 -13.314  -0.948  1.00  0.00     0.013 C 
HETATM   15  C2  UNL     1     -33.340 -12.946   0.062  1.00  0.00    -0.047 C 
HETATM   16  C1  UNL     1     -33.550 -14.157   0.981  1.00  0.00     0.015 C 
HETATM   17  C3  UNL     1     -34.664 -12.783  -0.689  1.00  0.00     0.015 C 
HETATM   18  C16 UNL     1     -33.006 -11.742   0.870  1.00  0.00     0.013 C 
ENDBRANCH   1  10
BRANCH   8  19
HETATM   19  C11 UNL     1     -25.572 -10.813   0.578  1.00  0.00     0.074 A 
HETATM   20  N3  UNL     1     -25.637 -11.838  -0.257  1.00  0.00    -0.361 N 
HETATM   21  C12 UNL     1     -24.615 -12.135  -0.995  1.00  0.00     0.096 A 
ATOM     22  H3  UNL     1     -26.491 -12.393  -0.320  1.00  0.00     0.165 HD
HETATM   23  C13 UNL     1     -23.491 -11.357  -0.872  1.00  0.00     0.068 A 
HETATM   24  S2  UNL     1     -23.990 -10.230   0.317  1.00  0.00    -0.085 SA
ENDBRANCH   8  19
TORSDOF 2
ENDMDL
MODEL 3
REMARK VINA RESULT: -6.444305135      1.720      2.405
REMARK  2 active torsions:
REMARK  status: ('A' for Active; 'I' for Inactive)
REMARK    1  A    between atoms: C7_7  and  C8_8 
REMARK    2  A    between atoms: C10_15  and  C11_16 
ROOT
HETATM    1  C8  UNL     1     -28.869 -10.012  -0.600  1.00  0.00     0.014 C 
HETATM    2  N1  UNL     1     -28.435  -8.771  -0.660  1.00  0.00    -0.337 N 
ATOM      3  H1  UNL     1     -28.739  -8.212  -1.457  1.00  0.00     0.168 HD
HETATM    4  C9  UNL     1     -27.596  -8.152   0.267  1.00  0.00     0.172 C 
HETATM    5  S1  UNL     1     -27.090  -6.602   0.141  1.00  0.00    -0.041 SA
HETATM    6  N2  UNL     1     -27.154  -8.905   1.388  1.00  0.00    -0.356 N 
ATOM      7  H2  UNL     1     -26.820  -8.454   2.240  1.00  0.00     0.162 HD
HETATM    8  C10 UNL     1     -27.203 -10.341   1.258  1.00  0.00     0.147 C 
HETATM    9  C14 UNL     1     -28.437 -10.828   0.521  1.00  0.00     0.089 C 
ENDROOT
BRANCH   1  10
HETATM   10  C7  UNL     1     -29.746 -10.501  -1.660  1.00  0.00     0.028 C 
HETATM   11  C6  UNL     1     -30.883 -10.100  -2.087  1.00  0.00    -0.078 C 
HETATM   12  C5  UNL     1     -31.479 -10.912  -3.244  1.00  0.00     0.035 C 
HETATM   13  C15 UNL     1     -31.658  -8.976  -1.618  1.00  0.00     0.035 C 
HETATM   14  C4  UNL     1     -32.947 -11.071  -2.888  1.00  0.00     0.013 C 
HETATM   15  C2  UNL     1     -33.610  -9.741  -3.028  1.00  0.00    -0.047 C 
HETATM   16  C1  UNL     1     -34.912  -9.779  -2.217  1.00  0.00     0.015 C 
HETATM   17  C3  UNL     1     -34.054  -9.612  -4.488  1.00  0.00     0.015 C 
HETATM   18  C16 UNL     1     -32.772  -8.590  -2.597  1.00  0.00     0.013 C 
ENDBRANCH   1  10
BRANCH   8  19
HETATM   19  C11 UNL     1     -25.952 -10.768   0.546  1.00  0.00     0.074 A 
HETATM   20  N3  UNL     1     -25.819 -11.810  -0.259  1.00  0.00    -0.361 N 
HETATM   21  C12 UNL     1     -24.672 -12.059  -0.807  1.00  0.00     0.096 A 
ATOM     22  H3  UNL     1     -26.617 -12.416  -0.447  1.00  0.00     0.165 HD
HETATM   23  C13 UNL     1     -23.630 -11.212  -0.520  1.00  0.00     0.068 A 
HETATM   24  S2  UNL     1     -24.385 -10.095   0.537  1.00  0.00    -0.085 SA
ENDBRANCH   8  19
TORSDOF 2
ENDMDL
MODEL 4
REMARK VINA RESULT: -6.330664805      4.139      7.032
REMARK  2 active torsions:
REMARK  status: ('A' for Active; 'I' for Inactive)
REMARK    1  A    between atoms: C7_7  and  C8_8 
REMARK    2  A    between atoms: C10_15  and  C11_16 
ROOT
HETATM    1  C8  UNL     1     -30.015 -10.599  -2.104  1.00  0.00     0.014 C 
HETATM    2  N1  UNL     1     -31.029 -10.116  -2.789  1.00  0.00    -0.337 N 
ATOM      3  H1  UNL     1     -31.205  -9.115  -2.714  1.00  0.00     0.168 HD
HETATM    4  C9  UNL     1     -31.886 -10.851  -3.610  1.00  0.00     0.172 C 
HETATM    5  S1  UNL     1     -33.131 -10.195  -4.442  1.00  0.00    -0.041 SA
HETATM    6  N2  UNL     1     -31.667 -12.250  -3.737  1.00  0.00    -0.356 N 
ATOM      7  H2  UNL     1     -32.027 -12.779  -4.530  1.00  0.00     0.162 HD
HETATM    8  C10 UNL     1     -30.910 -12.880  -2.683  1.00  0.00     0.147 C 
HETATM    9  C14 UNL     1     -29.756 -12.025  -2.189  1.00  0.00     0.089 C 
ENDROOT
BRANCH   1  10
HETATM   10  C7  UNL     1     -29.217  -9.684  -1.291  1.00  0.00     0.028 C 
HETATM   11  C6  UNL     1     -29.542  -8.788  -0.438  1.00  0.00    -0.078 C 
HETATM   12  C5  UNL     1     -28.373  -8.033   0.205  1.00  0.00     0.035 C 
HETATM   13  C15 UNL     1     -30.870  -8.417  -0.007  1.00  0.00     0.035 C 
HETATM   14  C4  UNL     1     -28.812  -6.578   0.214  1.00  0.00     0.013 C 
HETATM   15  C2  UNL     1     -29.908  -6.425   1.215  1.00  0.00    -0.047 C 
HETATM   16  C1  UNL     1     -30.671  -5.136   0.882  1.00  0.00     0.015 C 
HETATM   17  C3  UNL     1     -29.246  -6.157   2.569  1.00  0.00     0.015 C 
HETATM   18  C16 UNL     1     -30.849  -7.576   1.273  1.00  0.00     0.013 C 
ENDBRANCH   1  10
BRANCH   8  19
HETATM   19  C11 UNL     1     -31.865 -13.184  -1.566  1.00  0.00     0.074 A 
HETATM   20  N3  UNL     1     -31.601 -13.149  -0.269  1.00  0.00    -0.361 N 
HETATM   21  C12 UNL     1     -32.529 -13.438   0.586  1.00  0.00     0.096 A 
ATOM     22  H3  UNL     1     -30.668 -12.895   0.056  1.00  0.00     0.165 HD
HETATM   23  C13 UNL     1     -33.767 -13.773   0.096  1.00  0.00     0.068 A 
HETATM   24  S2  UNL     1     -33.506 -13.647  -1.593  1.00  0.00    -0.085 SA
ENDBRANCH   8  19
TORSDOF 2
ENDMDL
MODEL 5
REMARK VINA RESULT: -6.300043218      3.889      7.341
REMARK  2 active torsions:
REMARK  status: ('A' for Active; 'I' for Inactive)
REMARK    1  A    between atoms: C7_7  and  C8_8 
REMARK    2  A    between atoms: C10_15  and  C11_16 
ROOT
HETATM    1  C8  UNL     1     -30.388 -11.387  -1.993  1.00  0.00     0.014 C 
HETATM    2  N1  UNL     1     -31.285 -10.562  -2.489  1.00  0.00    -0.337 N 
ATOM      3  H1  UNL     1     -31.353  -9.639  -2.061  1.00  0.00     0.168 HD
HETATM    4  C9  UNL     1     -32.153 -10.836  -3.547  1.00  0.00     0.172 C 
HETATM    5  S1  UNL     1     -33.249  -9.768  -4.123  1.00  0.00    -0.041 SA
HETATM    6  N2  UNL     1     -32.084 -12.114  -4.165  1.00  0.00    -0.356 N 
ATOM      7  H2  UNL     1     -32.439 -12.275  -5.107  1.00  0.00     0.162 HD
HETATM    8  C10 UNL     1     -31.486 -13.172  -3.388  1.00  0.00     0.147 C 
HETATM    9  C14 UNL     1     -30.285 -12.710  -2.581  1.00  0.00     0.089 C 
ENDROOT
BRANCH   1  10
HETATM   10  C7  UNL     1     -29.558 -10.935  -0.880  1.00  0.00     0.028 C 
HETATM   11  C6  UNL     1     -29.230  -9.767  -0.471  1.00  0.00    -0.078 C 
HETATM   12  C5  UNL     1     -28.321  -9.729   0.762  1.00  0.00     0.035 C 
HETATM   13  C15 UNL     1     -29.625  -8.493  -1.026  1.00  0.00     0.035 C 
HETATM   14  C4  UNL     1     -27.285  -8.664   0.445  1.00  0.00     0.013 C 
HETATM   15  C2  UNL     1     -27.959  -7.332   0.478  1.00  0.00    -0.047 C 
HETATM   16  C1  UNL     1     -27.083  -6.344  -0.305  1.00  0.00     0.015 C 
HETATM   17  C3  UNL     1     -27.913  -6.841   1.927  1.00  0.00     0.015 C 
HETATM   18  C16 UNL     1     -29.343  -7.332  -0.067  1.00  0.00     0.013 C 
ENDBRANCH   1  10
BRANCH   8  19
HETATM   19  C11 UNL     1     -32.552 -13.724  -2.488  1.00  0.00     0.074 A 
HETATM   20  N3  UNL     1     -32.379 -14.238  -1.280  1.00  0.00    -0.361 N 
HETATM   21  C12 UNL     1     -33.398 -14.678  -0.614  1.00  0.00     0.096 A 
ATOM     22  H3  UNL     1     -31.444 -14.285  -0.874  1.00  0.00     0.165 HD
HETATM   23  C13 UNL     1     -34.634 -14.591  -1.206  1.00  0.00     0.068 A 
HETATM   24  S2  UNL     1     -34.238 -13.866  -2.707  1.00  0.00    -0.085 SA
ENDBRANCH   8  19
TORSDOF 2
ENDMDL
