MODEL 1
REMARK VINA RESULT: -8.806828180      0.000      0.000
REMARK  8 active torsions:
REMARK  status: ('A' for Active; 'I' for Inactive)
REMARK    1  A    between atoms: C2_4  and  C3_5 
REMARK       I    between atoms: C3_5  and  N2_7 
REMARK    2  A    between atoms: N2_7  and  C4_9 
REMARK    3  A    between atoms: C4_9  and  C5_10 
REMARK    4  A    between atoms: C5_10  and  C6_11 
REMARK    5  A    between atoms: C6_11  and  O3_12 
REMARK    6  A    between atoms: O3_12  and  C7_13 
REMARK    7  A    between atoms: C7_13  and  C8_15 
REMARK    8  A    between atoms: C20_38  and  O6_39 
ROOT
HETATM    1  C8  UNL     1      25.435  31.856  27.691  1.00  0.00     0.181 C 
HETATM    2  C9  UNL     1      25.015  32.461  26.343  1.00  0.00     0.037 C 
HETATM    3  C10 UNL     1      24.039  33.614  26.547  1.00  0.00     0.030 C 
HETATM    4  C11 UNL     1      22.627  33.194  26.200  1.00  0.00     0.232 C 
HETATM    5  N3  UNL     1      22.509  32.799  24.831  1.00  0.00    -0.074 N 
ATOM      6  H31 UNL     1      23.371  32.361  24.510  1.00  0.00     0.277 HD
ATOM      7  H32 UNL     1      22.493  33.617  24.223  1.00  0.00     0.277 HD
HETATM    8  C12 UNL     1      21.372  31.944  24.560  1.00  0.00     0.259 C 
HETATM    9  C13 UNL     1      21.443  30.615  25.279  1.00  0.00     0.259 C 
HETATM   10  N4  UNL     1      21.272  29.529  24.359  1.00  0.00    -0.072 N 
ATOM     11  H41 UNL     1      21.445  29.840  23.403  1.00  0.00     0.277 HD
ATOM     12  H42 UNL     1      20.286  29.277  24.283  1.00  0.00     0.277 HD
HETATM   13  C14 UNL     1      22.072  28.366  24.667  1.00  0.00     0.251 C 
HETATM   14  C15 UNL     1      23.524  28.652  24.861  1.00  0.00     0.141 C 
HETATM   15  N5  UNL     1      23.972  28.183  26.133  1.00  0.00    -0.415 N 
ATOM     16  H5  UNL     1      23.539  27.392  26.610  1.00  0.00     0.153 HD
HETATM   17  C16 UNL     1      25.087  28.914  26.693  1.00  0.00     0.158 C 
HETATM   18  C17 UNL     1      24.793  29.505  28.030  1.00  0.00     0.075 C 
HETATM   19  N6  UNL     1      24.545  30.878  28.108  1.00  0.00    -0.387 N 
ATOM     20  H6  UNL     1      23.652  31.181  28.497  1.00  0.00     0.159 HD
ENDROOT
BRANCH   1  21
HETATM   21  C7  UNL     1      26.869  31.593  27.689  1.00  0.00     0.281 C 
HETATM   22  O4  UNL     1      27.578  31.911  26.715  1.00  0.00    -0.263 OA
BRANCH  21  23
HETATM   23  O3  UNL     1      27.499  30.985  28.758  1.00  0.00    -0.320 OA
BRANCH  23  24
HETATM   24  C6  UNL     1      27.684  31.498  30.034  1.00  0.00     0.180 C 
BRANCH  24  25
HETATM   25  C5  UNL     1      26.955  30.695  31.079  1.00  0.00     0.046 C 
BRANCH  25  26
HETATM   26  C4  UNL     1      27.167  29.206  30.890  1.00  0.00     0.125 C 
BRANCH  26  27
HETATM   27  N2  UNL     1      28.429  28.856  30.324  1.00  0.00    -0.355 N 
HETATM   28  C3  UNL     1      28.653  27.732  29.484  1.00  0.00     0.275 C 
HETATM   29  O2  UNL     1      27.677  26.993  29.214  1.00  0.00    -0.265 OA
ATOM     30  H2  UNL     1      29.227  29.454  30.537  1.00  0.00     0.162 HD
BRANCH  28  31
HETATM   31  C2  UNL     1      29.976  27.446  28.949  1.00  0.00     0.148 A 
HETATM   32  O1  UNL     1      30.090  27.086  27.677  1.00  0.00    -0.287 OA
HETATM   33  C1  UNL     1      31.255  26.819  27.149  1.00  0.00     0.195 A 
HETATM   34  N1  UNL     1      31.357  26.440  25.796  1.00  0.00    -0.071 NA
HETATM   35  C20 UNL     1      32.372  26.917  27.946  1.00  0.00     0.165 A 
HETATM   36  C19 UNL     1      32.297  27.288  29.275  1.00  0.00     0.211 A 
HETATM   37  C18 UNL     1      31.060  27.559  29.790  1.00  0.00     0.101 A 
HETATM   38  O5  UNL     1      33.330  27.370  29.978  1.00  0.00    -0.285 OA
BRANCH  35  39
HETATM   39  O6  UNL     1      33.655  26.648  27.459  1.00  0.00    -0.354 OA
ATOM     40  H6  UNL     1      33.986  25.762  27.376  1.00  0.00     0.218 HD
ENDBRANCH  35  39
ENDBRANCH  28  31
ENDBRANCH  26  27
ENDBRANCH  25  26
ENDBRANCH  24  25
ENDBRANCH  23  24
ENDBRANCH  21  23
ENDBRANCH   1  21
TORSDOF 8
ENDMDL
MODEL 2
REMARK VINA RESULT: -8.673056887      1.062      1.461
REMARK  8 active torsions:
REMARK  status: ('A' for Active; 'I' for Inactive)
REMARK    1  A    between atoms: C2_4  and  C3_5 
REMARK       I    between atoms: C3_5  and  N2_7 
REMARK    2  A    between atoms: N2_7  and  C4_9 
REMARK    3  A    between atoms: C4_9  and  C5_10 
REMARK    4  A    between atoms: C5_10  and  C6_11 
REMARK    5  A    between atoms: C6_11  and  O3_12 
REMARK    6  A    between atoms: O3_12  and  C7_13 
REMARK    7  A    between atoms: C7_13  and  C8_15 
REMARK    8  A    between atoms: C20_38  and  O6_39 
ROOT
HETATM    1  C8  UNL     1      25.445  31.805  27.696  1.00  0.00     0.181 C 
HETATM    2  C9  UNL     1      25.035  32.439  26.357  1.00  0.00     0.037 C 
HETATM    3  C10 UNL     1      24.070  33.597  26.578  1.00  0.00     0.030 C 
HETATM    4  C11 UNL     1      22.655  33.197  26.219  1.00  0.00     0.232 C 
HETATM    5  N3  UNL     1      22.538  32.828  24.843  1.00  0.00    -0.074 N 
ATOM      6  H31 UNL     1      23.398  32.387  24.516  1.00  0.00     0.277 HD
ATOM      7  H32 UNL     1      22.533  33.657  24.249  1.00  0.00     0.277 HD
HETATM    8  C12 UNL     1      21.395  31.988  24.552  1.00  0.00     0.259 C 
HETATM    9  C13 UNL     1      21.451  30.646  25.247  1.00  0.00     0.259 C 
HETATM   10  N4  UNL     1      21.273  29.579  24.307  1.00  0.00    -0.072 N 
ATOM     11  H41 UNL     1      21.452  29.905  23.357  1.00  0.00     0.277 HD
ATOM     12  H42 UNL     1      20.285  29.337  24.222  1.00  0.00     0.277 HD
HETATM   13  C14 UNL     1      22.060  28.402  24.597  1.00  0.00     0.251 C 
HETATM   14  C15 UNL     1      23.514  28.671  24.800  1.00  0.00     0.141 C 
HETATM   15  N5  UNL     1      23.954  28.175  26.065  1.00  0.00    -0.415 N 
ATOM     16  H5  UNL     1      23.512  27.380  26.527  1.00  0.00     0.153 HD
HETATM   17  C16 UNL     1      25.073  28.886  26.643  1.00  0.00     0.158 C 
HETATM   18  C17 UNL     1      24.780  29.455  27.989  1.00  0.00     0.075 C 
HETATM   19  N6  UNL     1      24.544  30.828  28.092  1.00  0.00    -0.387 N 
ATOM     20  H6  UNL     1      23.652  31.132  28.483  1.00  0.00     0.159 HD
ENDROOT
BRANCH   1  21
HETATM   21  C7  UNL     1      26.876  31.529  27.694  1.00  0.00     0.281 C 
HETATM   22  O4  UNL     1      27.588  31.843  26.721  1.00  0.00    -0.263 OA
BRANCH  21  23
HETATM   23  O3  UNL     1      27.500  30.913  28.762  1.00  0.00    -0.320 OA
BRANCH  23  24
HETATM   24  C6  UNL     1      27.723  31.436  30.027  1.00  0.00     0.180 C 
BRANCH  24  25
HETATM   25  C5  UNL     1      26.897  30.746  31.080  1.00  0.00     0.046 C 
BRANCH  25  26
HETATM   26  C4  UNL     1      27.288  29.289  31.232  1.00  0.00     0.125 C 
BRANCH  26  27
HETATM   27  N2  UNL     1      28.508  28.933  30.582  1.00  0.00    -0.355 N 
HETATM   28  C3  UNL     1      28.697  27.757  29.808  1.00  0.00     0.275 C 
HETATM   29  O2  UNL     1      27.727  26.972  29.680  1.00  0.00    -0.265 OA
ATOM     30  H2  UNL     1      29.300  29.569  30.679  1.00  0.00     0.162 HD
BRANCH  28  31
HETATM   31  C2  UNL     1      29.977  27.470  29.179  1.00  0.00     0.148 A 
HETATM   32  O1  UNL     1      31.084  27.563  29.904  1.00  0.00    -0.287 OA
HETATM   33  C1  UNL     1      32.258  27.315  29.387  1.00  0.00     0.195 A 
HETATM   34  N1  UNL     1      33.422  27.419  30.173  1.00  0.00    -0.071 NA
HETATM   35  C20 UNL     1      32.325  26.954  28.062  1.00  0.00     0.165 A 
HETATM   36  C19 UNL     1      31.197  26.845  27.270  1.00  0.00     0.211 A 
HETATM   37  C18 UNL     1      29.987  27.113  27.849  1.00  0.00     0.101 A 
HETATM   38  O5  UNL     1      31.286  26.513  26.066  1.00  0.00    -0.285 OA
BRANCH  35  39
HETATM   39  O6  UNL     1      33.540  26.672  27.431  1.00  0.00    -0.354 OA
ATOM     40  H6  UNL     1      34.250  27.303  27.402  1.00  0.00     0.218 HD
ENDBRANCH  35  39
ENDBRANCH  28  31
ENDBRANCH  26  27
ENDBRANCH  25  26
ENDBRANCH  24  25
ENDBRANCH  23  24
ENDBRANCH  21  23
ENDBRANCH   1  21
TORSDOF 8
ENDMDL
MODEL 3
REMARK VINA RESULT: -8.028625292      1.167      2.712
REMARK  8 active torsions:
REMARK  status: ('A' for Active; 'I' for Inactive)
REMARK    1  A    between atoms: C2_4  and  C3_5 
REMARK       I    between atoms: C3_5  and  N2_7 
REMARK    2  A    between atoms: N2_7  and  C4_9 
REMARK    3  A    between atoms: C4_9  and  C5_10 
REMARK    4  A    between atoms: C5_10  and  C6_11 
REMARK    5  A    between atoms: C6_11  and  O3_12 
REMARK    6  A    between atoms: O3_12  and  C7_13 
REMARK    7  A    between atoms: C7_13  and  C8_15 
REMARK    8  A    between atoms: C20_38  and  O6_39 
ROOT
HETATM    1  C8  UNL     1      26.562  30.189  27.205  1.00  0.00     0.181 C 
HETATM    2  C9  UNL     1      25.272  29.362  27.319  1.00  0.00     0.037 C 
HETATM    3  C10 UNL     1      25.135  28.406  26.141  1.00  0.00     0.030 C 
HETATM    4  C11 UNL     1      24.101  28.906  25.157  1.00  0.00     0.232 C 
HETATM    5  N3  UNL     1      22.804  29.008  25.749  1.00  0.00    -0.074 N 
ATOM      6  H31 UNL     1      22.880  29.261  26.735  1.00  0.00     0.277 HD
ATOM      7  H32 UNL     1      22.378  28.086  25.840  1.00  0.00     0.277 HD
HETATM    8  C12 UNL     1      21.909  29.915  25.060  1.00  0.00     0.259 C 
HETATM    9  C13 UNL     1      22.389  31.349  25.075  1.00  0.00     0.259 C 
HETATM   10  N4  UNL     1      21.363  32.223  25.564  1.00  0.00    -0.072 N 
ATOM     11  H41 UNL     1      20.659  31.695  26.079  1.00  0.00     0.277 HD
ATOM     12  H42 UNL     1      20.791  32.569  24.794  1.00  0.00     0.277 HD
HETATM   13  C14 UNL     1      21.859  33.322  26.362  1.00  0.00     0.251 C 
HETATM   14  C15 UNL     1      22.761  32.912  27.478  1.00  0.00     0.141 C 
HETATM   15  N5  UNL     1      24.017  33.588  27.394  1.00  0.00    -0.415 N 
ATOM     16  H5  UNL     1      24.117  34.509  26.968  1.00  0.00     0.153 HD
HETATM   17  C16 UNL     1      25.135  32.866  27.960  1.00  0.00     0.158 C 
HETATM   18  C17 UNL     1      26.233  32.617  26.983  1.00  0.00     0.075 C 
HETATM   19  N6  UNL     1      26.365  31.333  26.447  1.00  0.00    -0.387 N 
ATOM     20  H6  UNL     1      26.314  31.231  25.433  1.00  0.00     0.159 HD
ENDROOT
BRANCH   1  21
HETATM   21  C7  UNL     1      27.212  30.272  28.507  1.00  0.00     0.281 C 
HETATM   22  O4  UNL     1      28.416  30.578  28.604  1.00  0.00    -0.263 OA
BRANCH  21  23
HETATM   23  O3  UNL     1      26.528  30.018  29.680  1.00  0.00    -0.320 OA
BRANCH  23  24
HETATM   24  C6  UNL     1      26.827  30.484  30.952  1.00  0.00     0.180 C 
BRANCH  24  25
HETATM   25  C5  UNL     1      26.891  29.371  31.964  1.00  0.00     0.046 C 
BRANCH  25  26
HETATM   26  C4  UNL     1      27.108  28.025  31.302  1.00  0.00     0.125 C 
BRANCH  26  27
HETATM   27  N2  UNL     1      28.395  27.857  30.709  1.00  0.00    -0.355 N 
HETATM   28  C3  UNL     1      28.628  27.267  29.437  1.00  0.00     0.275 C 
HETATM   29  O2  UNL     1      27.638  26.866  28.783  1.00  0.00    -0.265 OA
ATOM     30  H2  UNL     1      29.206  28.184  31.235  1.00  0.00     0.162 HD
BRANCH  28  31
HETATM   31  C2  UNL     1      29.977  27.134  28.908  1.00  0.00     0.148 A 
HETATM   32  O1  UNL     1      30.136  26.860  27.619  1.00  0.00    -0.287 OA
HETATM   33  C1  UNL     1      31.326  26.731  27.094  1.00  0.00     0.195 A 
HETATM   34  N1  UNL     1      31.475  26.441  25.723  1.00  0.00    -0.071 NA
HETATM   35  C20 UNL     1      32.421  26.883  27.912  1.00  0.00     0.165 A 
HETATM   36  C19 UNL     1      32.300  27.168  29.259  1.00  0.00     0.211 A 
HETATM   37  C18 UNL     1      31.038  27.296  29.770  1.00  0.00     0.101 A 
HETATM   38  O5  UNL     1      33.314  27.302  29.981  1.00  0.00    -0.285 OA
BRANCH  35  39
HETATM   39  O6  UNL     1      33.727  26.760  27.430  1.00  0.00    -0.354 OA
ATOM     40  H6  UNL     1      34.239  25.971  27.560  1.00  0.00     0.218 HD
ENDBRANCH  35  39
ENDBRANCH  28  31
ENDBRANCH  26  27
ENDBRANCH  25  26
ENDBRANCH  24  25
ENDBRANCH  23  24
ENDBRANCH  21  23
ENDBRANCH   1  21
TORSDOF 8
ENDMDL
MODEL 4
REMARK VINA RESULT: -7.989426900      1.907      3.533
REMARK  8 active torsions:
REMARK  status: ('A' for Active; 'I' for Inactive)
REMARK    1  A    between atoms: C2_4  and  C3_5 
REMARK       I    between atoms: C3_5  and  N2_7 
REMARK    2  A    between atoms: N2_7  and  C4_9 
REMARK    3  A    between atoms: C4_9  and  C5_10 
REMARK    4  A    between atoms: C5_10  and  C6_11 
REMARK    5  A    between atoms: C6_11  and  O3_12 
REMARK    6  A    between atoms: O3_12  and  C7_13 
REMARK    7  A    between atoms: C7_13  and  C8_15 
REMARK    8  A    between atoms: C20_38  and  O6_39 
ROOT
HETATM    1  C8  UNL     1      27.799  30.515  27.897  1.00  0.00     0.181 C 
HETATM    2  C9  UNL     1      26.359  30.029  28.125  1.00  0.00     0.037 C 
HETATM    3  C10 UNL     1      25.994  28.931  27.132  1.00  0.00     0.030 C 
HETATM    4  C11 UNL     1      25.082  29.464  26.050  1.00  0.00     0.232 C 
HETATM    5  N3  UNL     1      23.850  29.956  26.583  1.00  0.00    -0.074 N 
ATOM      6  H31 UNL     1      23.996  30.357  27.509  1.00  0.00     0.277 HD
ATOM      7  H32 UNL     1      23.231  29.182  26.825  1.00  0.00     0.277 HD
HETATM    8  C12 UNL     1      23.168  30.900  25.722  1.00  0.00     0.259 C 
HETATM    9  C13 UNL     1      23.955  32.171  25.493  1.00  0.00     0.259 C 
HETATM   10  N4  UNL     1      23.158  33.323  25.793  1.00  0.00    -0.072 N 
ATOM     11  H41 UNL     1      22.362  33.065  26.376  1.00  0.00     0.277 HD
ATOM     12  H42 UNL     1      22.664  33.644  24.960  1.00  0.00     0.277 HD
HETATM   13  C14 UNL     1      23.898  34.410  26.395  1.00  0.00     0.251 C 
HETATM   14  C15 UNL     1      24.704  34.016  27.588  1.00  0.00     0.141 C 
HETATM   15  N5  UNL     1      26.077  34.371  27.416  1.00  0.00    -0.415 N 
ATOM     16  H5  UNL     1      26.373  35.155  26.835  1.00  0.00     0.153 HD
HETATM   17  C16 UNL     1      27.016  33.532  28.129  1.00  0.00     0.158 C 
HETATM   18  C17 UNL     1      28.015  32.876  27.238  1.00  0.00     0.075 C 
HETATM   19  N6  UNL     1      27.850  31.520  26.943  1.00  0.00    -0.387 N 
ATOM     20  H6  UNL     1      27.761  31.252  25.962  1.00  0.00     0.159 HD
ENDROOT
BRANCH   1  21
HETATM   21  C7  UNL     1      28.472  30.683  29.179  1.00  0.00     0.281 C 
HETATM   22  O4  UNL     1      29.716  30.665  29.257  1.00  0.00    -0.263 OA
BRANCH  21  23
HETATM   23  O3  UNL     1      27.767  30.870  30.352  1.00  0.00    -0.320 OA
BRANCH  23  24
HETATM   24  C6  UNL     1      28.106  30.426  31.622  1.00  0.00     0.180 C 
BRANCH  24  25
HETATM   25  C5  UNL     1      27.087  29.467  32.179  1.00  0.00     0.046 C 
BRANCH  25  26
HETATM   26  C4  UNL     1      27.536  28.027  32.032  1.00  0.00     0.125 C 
BRANCH  26  27
HETATM   27  N2  UNL     1      28.739  27.855  31.284  1.00  0.00    -0.355 N 
HETATM   28  C3  UNL     1      28.803  27.319  29.969  1.00  0.00     0.275 C 
HETATM   29  O2  UNL     1      27.731  26.971  29.421  1.00  0.00    -0.265 OA
ATOM     30  H2  UNL     1      29.615  28.139  31.723  1.00  0.00     0.162 HD
BRANCH  28  31
HETATM   31  C2  UNL     1      30.075  27.177  29.278  1.00  0.00     0.148 A 
HETATM   32  O1  UNL     1      31.200  27.299  29.971  1.00  0.00    -0.287 OA
HETATM   33  C1  UNL     1      32.368  27.179  29.397  1.00  0.00     0.195 A 
HETATM   34  N1  UNL     1      33.552  27.311  30.150  1.00  0.00    -0.071 NA
HETATM   35  C20 UNL     1      32.409  26.925  28.046  1.00  0.00     0.165 A 
HETATM   36  C19 UNL     1      31.262  26.791  27.287  1.00  0.00     0.211 A 
HETATM   37  C18 UNL     1      30.059  26.923  27.925  1.00  0.00     0.101 A 
HETATM   38  O5  UNL     1      31.328  26.560  26.058  1.00  0.00    -0.285 OA
BRANCH  35  39
HETATM   39  O6  UNL     1      33.617  26.784  27.355  1.00  0.00    -0.354 OA
ATOM     40  H6  UNL     1      33.941  25.936  27.078  1.00  0.00     0.218 HD
ENDBRANCH  35  39
ENDBRANCH  28  31
ENDBRANCH  26  27
ENDBRANCH  25  26
ENDBRANCH  24  25
ENDBRANCH  23  24
ENDBRANCH  21  23
ENDBRANCH   1  21
TORSDOF 8
ENDMDL
MODEL 5
REMARK VINA RESULT: -7.984179646      1.636      2.320
REMARK  8 active torsions:
REMARK  status: ('A' for Active; 'I' for Inactive)
REMARK    1  A    between atoms: C2_4  and  C3_5 
REMARK       I    between atoms: C3_5  and  N2_7 
REMARK    2  A    between atoms: N2_7  and  C4_9 
REMARK    3  A    between atoms: C4_9  and  C5_10 
REMARK    4  A    between atoms: C5_10  and  C6_11 
REMARK    5  A    between atoms: C6_11  and  O3_12 
REMARK    6  A    between atoms: O3_12  and  C7_13 
REMARK    7  A    between atoms: C7_13  and  C8_15 
REMARK    8  A    between atoms: C20_38  and  O6_39 
ROOT
HETATM    1  C8  UNL     1      25.347  31.935  27.720  1.00  0.00     0.181 C 
HETATM    2  C9  UNL     1      24.936  32.525  26.362  1.00  0.00     0.037 C 
HETATM    3  C10 UNL     1      23.930  33.655  26.545  1.00  0.00     0.030 C 
HETATM    4  C11 UNL     1      22.535  33.201  26.175  1.00  0.00     0.232 C 
HETATM    5  N3  UNL     1      22.449  32.798  24.806  1.00  0.00    -0.074 N 
ATOM      6  H31 UNL     1      23.328  32.380  24.501  1.00  0.00     0.277 HD
ATOM      7  H32 UNL     1      22.425  33.614  24.194  1.00  0.00     0.277 HD
HETATM    8  C12 UNL     1      21.338  31.915  24.518  1.00  0.00     0.259 C 
HETATM    9  C13 UNL     1      21.429  30.590  25.243  1.00  0.00     0.259 C 
HETATM   10  N4  UNL     1      21.300  29.498  24.324  1.00  0.00    -0.072 N 
ATOM     11  H41 UNL     1      21.482  29.810  23.370  1.00  0.00     0.277 HD
ATOM     12  H42 UNL     1      20.322  29.222  24.232  1.00  0.00     0.277 HD
HETATM   13  C14 UNL     1      22.121  28.355  24.651  1.00  0.00     0.251 C 
HETATM   14  C15 UNL     1      23.562  28.677  24.869  1.00  0.00     0.141 C 
HETATM   15  N5  UNL     1      24.000  28.223  26.150  1.00  0.00    -0.415 N 
ATOM     16  H5  UNL     1      23.578  27.423  26.623  1.00  0.00     0.153 HD
HETATM   17  C16 UNL     1      25.087  28.983  26.727  1.00  0.00     0.158 C 
HETATM   18  C17 UNL     1      24.756  29.571  28.056  1.00  0.00     0.075 C 
HETATM   19  N6  UNL     1      24.473  30.937  28.125  1.00  0.00    -0.387 N 
ATOM     20  H6  UNL     1      23.566  31.220  28.497  1.00  0.00     0.159 HD
ENDROOT
BRANCH   1  21
HETATM   21  C7  UNL     1      26.786  31.706  27.744  1.00  0.00     0.281 C 
HETATM   22  O4  UNL     1      27.443  31.641  26.686  1.00  0.00    -0.263 OA
BRANCH  21  23
HETATM   23  O3  UNL     1      27.480  31.554  28.929  1.00  0.00    -0.320 OA
BRANCH  23  24
HETATM   24  C6  UNL     1      27.923  32.553  29.784  1.00  0.00     0.180 C 
BRANCH  24  25
HETATM   25  C5  UNL     1      28.786  33.564  29.075  1.00  0.00     0.046 C 
BRANCH  25  26
HETATM   26  C4  UNL     1      30.190  33.039  28.846  1.00  0.00     0.125 C 
BRANCH  26  27
HETATM   27  N2  UNL     1      30.255  31.653  28.510  1.00  0.00    -0.355 N 
HETATM   28  C3  UNL     1      30.869  30.656  29.315  1.00  0.00     0.275 C 
HETATM   29  O2  UNL     1      31.390  31.010  30.399  1.00  0.00    -0.265 OA
ATOM     30  H2  UNL     1      29.831  31.358  27.631  1.00  0.00     0.162 HD
BRANCH  28  31
HETATM   31  C2  UNL     1      30.893  29.263  28.896  1.00  0.00     0.148 A 
HETATM   32  O1  UNL     1      32.048  28.723  28.527  1.00  0.00    -0.287 OA
HETATM   33  C1  UNL     1      32.122  27.476  28.143  1.00  0.00     0.195 A 
HETATM   34  N1  UNL     1      33.357  26.920  27.755  1.00  0.00    -0.071 NA
HETATM   35  C20 UNL     1      30.969  26.727  28.126  1.00  0.00     0.165 A 
HETATM   36  C19 UNL     1      29.746  27.250  28.503  1.00  0.00     0.211 A 
HETATM   37  C18 UNL     1      29.710  28.559  28.898  1.00  0.00     0.101 A 
HETATM   38  O5  UNL     1      28.711  26.546  28.479  1.00  0.00    -0.285 OA
BRANCH  35  39
HETATM   39  O6  UNL     1      30.962  25.387  27.729  1.00  0.00    -0.354 OA
ATOM     40  H6  UNL     1      31.056  24.677  28.353  1.00  0.00     0.218 HD
ENDBRANCH  35  39
ENDBRANCH  28  31
ENDBRANCH  26  27
ENDBRANCH  25  26
ENDBRANCH  24  25
ENDBRANCH  23  24
ENDBRANCH  21  23
ENDBRANCH   1  21
TORSDOF 8
ENDMDL
