MODEL 1
REMARK VINA RESULT: -7.702094016      0.000      0.000
REMARK  3 active torsions:
REMARK  status: ('A' for Active; 'I' for Inactive)
REMARK    1  A    between atoms: C2_2  and  N1_4 
REMARK    2  A    between atoms: N1_4  and  N2_6 
REMARK    3  A    between atoms: C4_8  and  C5_9 
ROOT
HETATM    1  C5  UNL     1       6.148   8.863  20.988  1.00  0.00     0.030 C 
HETATM    2  C6  UNL     1       7.061   9.922  20.439  1.00  0.00     0.011 C 
HETATM    3  C7  UNL     1       6.498  10.236  19.052  1.00  0.00     0.006 C 
HETATM    4  C8  UNL     1       5.531   9.129  18.738  1.00  0.00    -0.003 C 
HETATM    5  C9  UNL     1       5.816   8.045  19.733  1.00  0.00    -0.001 C 
HETATM    6  C10 UNL     1       7.000   7.203  19.398  1.00  0.00     0.009 C 
HETATM    7  C11 UNL     1       7.062   6.761  17.969  1.00  0.00     0.045 C 
HETATM    8  C12 UNL     1       6.766   7.832  16.977  1.00  0.00     0.114 C 
HETATM    9  F1  UNL     1       7.860   8.602  16.647  1.00  0.00    -0.242 F 
HETATM   10  C13 UNL     1       5.567   8.671  17.321  1.00  0.00     0.030 C 
HETATM   11  C14 UNL     1       4.428   7.696  17.108  1.00  0.00     0.009 C 
HETATM   12  C15 UNL     1       4.913   6.693  16.095  1.00  0.00     0.012 C 
HETATM   13  C16 UNL     1       6.298   7.152  15.691  1.00  0.00    -0.011 C 
HETATM   14  C17 UNL     1       6.162   8.140  14.579  1.00  0.00     0.018 C 
HETATM   15  C18 UNL     1       7.184   6.005  15.312  1.00  0.00     0.018 C 
ENDROOT
BRANCH   1  16
HETATM   16  C4  UNL     1       6.767   8.027  22.026  1.00  0.00     0.085 C 
HETATM   17  N2  UNL     1       6.118   7.603  23.057  1.00  0.00    -0.315 N 
ATOM     18  H2  UNL     1       6.591   7.025  23.751  1.00  0.00     0.185 HD
BRANCH  17  19
HETATM   19  N1  UNL     1       4.771   7.929  23.229  1.00  0.00    -0.307 N 
ATOM     20  H1  UNL     1       4.480   8.898  23.354  1.00  0.00     0.186 HD
BRANCH  19  21
HETATM   21  C2  UNL     1       3.802   6.861  23.224  1.00  0.00     0.012 C 
HETATM   22  C1  UNL     1       3.291   6.477  24.378  1.00  0.00     0.039 C 
HETATM   23  C3  UNL     1       3.405   6.228  21.953  1.00  0.00     0.069 C 
ENDBRANCH  19  21
ENDBRANCH  17  19
ENDBRANCH   1  16
TORSDOF 3
ENDMDL
MODEL 2
REMARK VINA RESULT: -7.551485680      1.526      1.975
REMARK  3 active torsions:
REMARK  status: ('A' for Active; 'I' for Inactive)
REMARK    1  A    between atoms: C2_2  and  N1_4 
REMARK    2  A    between atoms: N1_4  and  N2_6 
REMARK    3  A    between atoms: C4_8  and  C5_9 
ROOT
HETATM    1  C5  UNL     1       6.292   8.905  21.497  1.00  0.00     0.030 C 
HETATM    2  C6  UNL     1       7.355   9.688  20.782  1.00  0.00     0.011 C 
HETATM    3  C7  UNL     1       6.584  10.622  19.846  1.00  0.00     0.006 C 
HETATM    4  C8  UNL     1       5.175  10.101  19.814  1.00  0.00    -0.003 C 
HETATM    5  C9  UNL     1       5.235   8.723  20.400  1.00  0.00    -0.001 C 
HETATM    6  C10 UNL     1       5.720   7.677  19.454  1.00  0.00     0.009 C 
HETATM    7  C11 UNL     1       5.106   7.742  18.090  1.00  0.00     0.045 C 
HETATM    8  C12 UNL     1       5.031   9.111  17.509  1.00  0.00     0.114 C 
HETATM    9  F1  UNL     1       6.182   9.505  16.864  1.00  0.00    -0.242 F 
HETATM   10  C13 UNL     1       4.535  10.156  18.469  1.00  0.00     0.030 C 
HETATM   11  C14 UNL     1       3.076   9.779  18.621  1.00  0.00     0.009 C 
HETATM   12  C15 UNL     1       2.689   9.064  17.353  1.00  0.00     0.012 C 
HETATM   13  C16 UNL     1       3.915   9.108  16.465  1.00  0.00    -0.011 C 
HETATM   14  C17 UNL     1       3.895  10.388  15.696  1.00  0.00     0.018 C 
HETATM   15  C18 UNL     1       4.000   7.916  15.562  1.00  0.00     0.018 C 
ENDROOT
BRANCH   1  16
HETATM   16  C4  UNL     1       6.757   7.611  22.015  1.00  0.00     0.085 C 
HETATM   17  N2  UNL     1       6.157   6.989  22.972  1.00  0.00    -0.315 N 
ATOM     18  H2  UNL     1       6.519   6.092  23.298  1.00  0.00     0.185 HD
BRANCH  17  19
HETATM   19  N1  UNL     1       5.017   7.533  23.566  1.00  0.00    -0.307 N 
ATOM     20  H1  UNL     1       5.046   8.451  24.009  1.00  0.00     0.186 HD
BRANCH  19  21
HETATM   21  C2  UNL     1       3.797   6.765  23.538  1.00  0.00     0.012 C 
HETATM   22  C1  UNL     1       3.219   6.469  24.686  1.00  0.00     0.039 C 
HETATM   23  C3  UNL     1       3.226   6.331  22.249  1.00  0.00     0.069 C 
ENDBRANCH  19  21
ENDBRANCH  17  19
ENDBRANCH   1  16
TORSDOF 3
ENDMDL
MODEL 3
REMARK VINA RESULT: -7.472866184      1.444      1.728
REMARK  3 active torsions:
REMARK  status: ('A' for Active; 'I' for Inactive)
REMARK    1  A    between atoms: C2_2  and  N1_4 
REMARK    2  A    between atoms: N1_4  and  N2_6 
REMARK    3  A    between atoms: C4_8  and  C5_9 
ROOT
HETATM    1  C5  UNL     1       4.635   9.542  20.733  1.00  0.00     0.030 C 
HETATM    2  C6  UNL     1       4.918  10.900  20.157  1.00  0.00     0.011 C 
HETATM    3  C7  UNL     1       4.085  10.957  18.874  1.00  0.00     0.006 C 
HETATM    4  C8  UNL     1       3.654   9.544  18.600  1.00  0.00    -0.003 C 
HETATM    5  C9  UNL     1       4.513   8.678  19.471  1.00  0.00    -0.001 C 
HETATM    6  C10 UNL     1       5.884   8.440  18.934  1.00  0.00     0.009 C 
HETATM    7  C11 UNL     1       5.927   8.089  17.479  1.00  0.00     0.045 C 
HETATM    8  C12 UNL     1       5.063   8.937  16.612  1.00  0.00     0.114 C 
HETATM    9  F1  UNL     1       5.662  10.111  16.209  1.00  0.00    -0.242 F 
HETATM   10  C13 UNL     1       3.682   9.166  17.159  1.00  0.00     0.030 C 
HETATM   11  C14 UNL     1       3.053   7.796  17.015  1.00  0.00     0.009 C 
HETATM   12  C15 UNL     1       3.774   7.117  15.880  1.00  0.00     0.012 C 
HETATM   13  C16 UNL     1       4.756   8.138  15.345  1.00  0.00    -0.011 C 
HETATM   14  C17 UNL     1       4.054   8.984  14.334  1.00  0.00     0.018 C 
HETATM   15  C18 UNL     1       5.985   7.497  14.779  1.00  0.00     0.018 C 
ENDROOT
BRANCH   1  16
HETATM   16  C4  UNL     1       5.693   9.045  21.624  1.00  0.00     0.085 C 
HETATM   17  N2  UNL     1       5.439   8.448  22.739  1.00  0.00    -0.315 N 
ATOM     18  H2  UNL     1       6.208   8.121  23.324  1.00  0.00     0.185 HD
BRANCH  17  19
HETATM   19  N1  UNL     1       4.121   8.246  23.150  1.00  0.00    -0.307 N 
ATOM     20  H1  UNL     1       3.522   9.035  23.392  1.00  0.00     0.186 HD
BRANCH  19  21
HETATM   21  C2  UNL     1       3.626   6.894  23.226  1.00  0.00     0.012 C 
HETATM   22  C1  UNL     1       3.251   6.431  24.403  1.00  0.00     0.039 C 
HETATM   23  C3  UNL     1       3.549   6.066  22.008  1.00  0.00     0.069 C 
ENDBRANCH  19  21
ENDBRANCH  17  19
ENDBRANCH   1  16
TORSDOF 3
ENDMDL
MODEL 4
REMARK VINA RESULT: -7.440289594      3.079      4.867
REMARK  3 active torsions:
REMARK  status: ('A' for Active; 'I' for Inactive)
REMARK    1  A    between atoms: C2_2  and  N1_4 
REMARK    2  A    between atoms: N1_4  and  N2_6 
REMARK    3  A    between atoms: C4_8  and  C5_9 
ROOT
HETATM    1  C5  UNL     1       2.835   6.157  21.384  1.00  0.00     0.030 C 
HETATM    2  C6  UNL     1       3.753   5.722  22.490  1.00  0.00     0.011 C 
HETATM    3  C7  UNL     1       4.548   6.979  22.850  1.00  0.00     0.006 C 
HETATM    4  C8  UNL     1       4.306   7.954  21.732  1.00  0.00    -0.003 C 
HETATM    5  C9  UNL     1       3.712   7.153  20.613  1.00  0.00    -0.001 C 
HETATM    6  C10 UNL     1       4.709   6.378  19.819  1.00  0.00     0.009 C 
HETATM    7  C11 UNL     1       5.936   7.150  19.442  1.00  0.00     0.045 C 
HETATM    8  C12 UNL     1       6.522   7.959  20.547  1.00  0.00     0.114 C 
HETATM    9  F1  UNL     1       7.379   7.251  21.360  1.00  0.00    -0.242 F 
HETATM   10  C13 UNL     1       5.509   8.740  21.337  1.00  0.00     0.030 C 
HETATM   11  C14 UNL     1       5.079   9.798  20.342  1.00  0.00     0.009 C 
HETATM   12  C15 UNL     1       6.237   9.986  19.397  1.00  0.00     0.012 C 
HETATM   13  C16 UNL     1       7.339   9.083  19.911  1.00  0.00    -0.011 C 
HETATM   14  C17 UNL     1       8.119   9.830  20.943  1.00  0.00     0.018 C 
HETATM   15  C18 UNL     1       8.216   8.579  18.807  1.00  0.00     0.018 C 
ENDROOT
BRANCH   1  16
HETATM   16  C4  UNL     1       2.386   5.057  20.521  1.00  0.00     0.085 C 
HETATM   17  N2  UNL     1       1.397   5.175  19.701  1.00  0.00    -0.315 N 
ATOM     18  H2  UNL     1       1.121   4.382  19.122  1.00  0.00     0.185 HD
BRANCH  17  19
HETATM   19  N1  UNL     1       0.701   6.382  19.600  1.00  0.00    -0.307 N 
ATOM     20  H1  UNL     1       0.090   6.697  20.353  1.00  0.00     0.186 HD
BRANCH  19  21
HETATM   21  C2  UNL     1       0.867   7.171  18.405  1.00  0.00     0.012 C 
HETATM   22  C1  UNL     1       0.077   8.212  18.229  1.00  0.00     0.039 C 
HETATM   23  C3  UNL     1       1.900   6.807  17.417  1.00  0.00     0.069 C 
ENDBRANCH  19  21
ENDBRANCH  17  19
ENDBRANCH   1  16
TORSDOF 3
ENDMDL
MODEL 5
REMARK VINA RESULT: -7.436830872      3.782      6.272
REMARK  3 active torsions:
REMARK  status: ('A' for Active; 'I' for Inactive)
REMARK    1  A    between atoms: C2_2  and  N1_4 
REMARK    2  A    between atoms: N1_4  and  N2_6 
REMARK    3  A    between atoms: C4_8  and  C5_9 
ROOT
HETATM    1  C5  UNL     1       4.570   9.706  16.692  1.00  0.00     0.030 C 
HETATM    2  C6  UNL     1       5.526   8.603  16.336  1.00  0.00     0.011 C 
HETATM    3  C7  UNL     1       4.660   7.343  16.285  1.00  0.00     0.006 C 
HETATM    4  C8  UNL     1       3.357   7.711  16.938  1.00  0.00    -0.003 C 
HETATM    5  C9  UNL     1       3.612   9.000  17.660  1.00  0.00    -0.001 C 
HETATM    6  C10 UNL     1       4.307   8.839  18.970  1.00  0.00     0.009 C 
HETATM    7  C11 UNL     1       3.758   7.746  19.833  1.00  0.00     0.045 C 
HETATM    8  C12 UNL     1       3.489   6.468  19.117  1.00  0.00     0.114 C 
HETATM    9  F1  UNL     1       4.592   5.649  19.011  1.00  0.00    -0.242 F 
HETATM   10  C13 UNL     1       2.783   6.640  17.801  1.00  0.00     0.030 C 
HETATM   11  C14 UNL     1       1.400   7.073  18.238  1.00  0.00     0.009 C 
HETATM   12  C15 UNL     1       1.197   6.509  19.620  1.00  0.00     0.012 C 
HETATM   13  C16 UNL     1       2.441   5.701  19.922  1.00  0.00    -0.011 C 
HETATM   14  C17 UNL     1       2.251   4.322  19.380  1.00  0.00     0.018 C 
HETATM   15  C18 UNL     1       2.762   5.686  21.385  1.00  0.00     0.018 C 
ENDROOT
BRANCH   1  16
HETATM   16  C4  UNL     1       5.214  10.866  17.324  1.00  0.00     0.085 C 
HETATM   17  N2  UNL     1       4.672  12.036  17.346  1.00  0.00    -0.315 N 
ATOM     18  H2  UNL     1       5.158  12.811  17.797  1.00  0.00     0.185 HD
BRANCH  17  19
HETATM   19  N1  UNL     1       3.424  12.250  16.757  1.00  0.00    -0.307 N 
ATOM     20  H1  UNL     1       2.575  11.875  17.180  1.00  0.00     0.186 HD
BRANCH  19  21
HETATM   21  C2  UNL     1       3.365  13.013  15.535  1.00  0.00     0.012 C 
HETATM   22  C1  UNL     1       2.384  13.882  15.388  1.00  0.00     0.039 C 
HETATM   23  C3  UNL     1       4.384  12.812  14.488  1.00  0.00     0.069 C 
ENDBRANCH  19  21
ENDBRANCH  17  19
ENDBRANCH   1  16
TORSDOF 3
ENDMDL
