MODEL 1
REMARK VINA RESULT: -7.324926276      0.000      0.000
REMARK  15 active torsions:
REMARK  status: ('A' for Active; 'I' for Inactive)
REMARK       I    between atoms: C2_2  and  N1_4 
REMARK    1  A    between atoms: N1_4  and  C3_6 
REMARK    2  A    between atoms: C3_6  and  C4_7 
REMARK    3  A    between atoms: C4_7  and  O2_8 
REMARK    4  A    between atoms: C4_7  and  N2_10 
REMARK    5  A    between atoms: N2_10  and  C5_12 
REMARK    6  A    between atoms: N7_26  and  C10_27 
REMARK    7  A    between atoms: C10_27  and  C11_28 
REMARK    8  A    between atoms: C11_28  and  C12_29 
REMARK    9  A    between atoms: C11_28  and  C15_43 
REMARK   10  A    between atoms: C12_29  and  S1_30 
REMARK   11  A    between atoms: S1_30  and  C13_31 
REMARK   12  A    between atoms: C14_35  and  N9_36 
REMARK   13  A    between atoms: N10_39  and  N11_40 
REMARK   14  A    between atoms: C15_43  and  N12_44 
REMARK   15  A    between atoms: C15_43  and  N13_48 
ROOT
HETATM    1  C5  UNL     1      17.876  -5.165   0.934  1.00  0.00     0.149 A 
HETATM    2  N3  UNL     1      19.032  -5.810   0.757  1.00  0.00    -0.175 N 
ATOM      3  H3  UNL     1      19.843  -5.521   1.304  1.00  0.00     0.186 HD
HETATM    4  C6  UNL     1      19.172  -6.829  -0.118  1.00  0.00     0.679 A 
HETATM    5  N4  UNL     1      20.319  -7.404  -0.239  1.00  0.00    -0.234 N 
ATOM      6  H41 UNL     1      20.425  -8.173  -0.901  1.00  0.00     0.174 HD
ATOM      7  H42 UNL     1      21.136  -7.121   0.302  1.00  0.00     0.174 HD
HETATM    8  N5  UNL     1      18.100  -7.200  -0.829  1.00  0.00    -0.174 N 
ATOM      9  H5  UNL     1      18.207  -7.969  -1.489  1.00  0.00     0.186 HD
HETATM   10  C7  UNL     1      16.883  -6.615  -0.725  1.00  0.00     0.155 A 
HETATM   11  C8  UNL     1      16.777  -5.560   0.191  1.00  0.00     0.123 A 
HETATM   12  N6  UNL     1      15.518  -5.135   0.095  1.00  0.00    -0.346 N 
ATOM     13  H6  UNL     1      15.116  -4.369   0.635  1.00  0.00     0.167 HD
HETATM   14  C9  UNL     1      14.855  -5.865  -0.818  1.00  0.00     0.185 A 
HETATM   15  N7  UNL     1      15.718  -6.795  -1.330  1.00  0.00    -0.326 N 
ENDROOT
BRANCH  15  16
HETATM   16  C10 UNL     1      15.319  -7.815  -2.305  1.00  0.00     0.140 C 
BRANCH  16  17
HETATM   17  C11 UNL     1      14.559  -8.946  -1.731  1.00  0.00     0.071 C 
BRANCH  17  18
HETATM   18  C12 UNL     1      13.281  -9.232  -2.491  1.00  0.00     0.092 C 
BRANCH  18  19
HETATM   19  S1  UNL     1      12.072  -7.989  -2.623  1.00  0.00    -0.091 SA
BRANCH  19  20
HETATM   20  C13 UNL     1      12.001  -7.145  -4.231  1.00  0.00     0.173 A 
HETATM   21  N8  UNL     1      12.311  -7.778  -5.361  1.00  0.00    -0.302 N 
HETATM   22  S2  UNL     1      12.105  -6.617  -6.546  1.00  0.00     0.026 SA
ATOM     23  H8  UNL     1      12.607  -8.747  -5.476  1.00  0.00     0.176 HD
HETATM   24  C14 UNL     1      11.620  -5.339  -5.538  1.00  0.00     0.182 A 
HETATM   25  N10 UNL     1      11.640  -5.875  -4.317  1.00  0.00    -0.216 N 
BRANCH  24  26
HETATM   26  N9  UNL     1      11.293  -4.098  -5.851  1.00  0.00    -0.377 N 
ATOM     27  H92 UNL     1      11.320  -3.675  -6.779  1.00  0.00     0.158 HD
ATOM     28  H91 UNL     1      10.961  -3.342  -5.252  1.00  0.00     0.158 HD
ENDBRANCH  24  26
BRANCH  25  29
HETATM   29  N11 UNL     1      11.285  -5.093  -3.160  1.00  0.00    -0.334 N 
ATOM     30 2H11 UNL     1      11.137  -5.536  -2.254  1.00  0.00     0.177 HD
ATOM     31 1H11 UNL     1      11.168  -4.080  -3.199  1.00  0.00     0.177 HD
ENDBRANCH  25  29
ENDBRANCH  19  20
ENDBRANCH  18  19
ENDBRANCH  17  18
BRANCH  17  32
HETATM   32  C15 UNL     1      15.385 -10.205  -1.648  1.00  0.00     0.384 C 
BRANCH  32  33
HETATM   33  N12 UNL     1      16.301 -10.254  -0.539  1.00  0.00    -0.050 N 
ATOM     34 3H12 UNL     1      17.263 -10.201  -0.873  1.00  0.00     0.276 HD
ATOM     35 2H12 UNL     1      16.252  -9.388  -0.002  1.00  0.00     0.276 HD
ATOM     36 1H12 UNL     1      16.184 -11.059   0.078  1.00  0.00     0.276 HD
ENDBRANCH  32  33
BRANCH  32  37
HETATM   37  N13 UNL     1      16.050 -10.486  -2.915  1.00  0.00    -0.050 N 
ATOM     38 3H13 UNL     1      16.416 -11.437  -2.944  1.00  0.00     0.276 HD
ATOM     39 2H13 UNL     1      15.381 -10.553  -3.683  1.00  0.00     0.276 HD
ATOM     40 1H13 UNL     1      16.778  -9.798  -3.112  1.00  0.00     0.276 HD
ENDBRANCH  32  37
ENDBRANCH  17  32
ENDBRANCH  16  17
ENDBRANCH  15  16
BRANCH   1  41
HETATM   41  N2  UNL     1      17.701  -4.209   1.742  1.00  0.00    -0.346 N 
ATOM     42  H2  UNL     1      18.069  -3.311   1.428  1.00  0.00     0.163 HD
BRANCH  41  43
HETATM   43  C4  UNL     1      17.076  -4.180   3.018  1.00  0.00     0.237 C 
BRANCH  43  44
HETATM   44  C3  UNL     1      17.064  -5.532   3.646  1.00  0.00     0.176 C 
BRANCH  44  45
HETATM   45  N1  UNL     1      16.250  -5.582   4.810  1.00  0.00    -0.357 N 
HETATM   46  C2  UNL     1      15.029  -6.280   4.881  1.00  0.00     0.213 C 
HETATM   47  C1  UNL     1      14.264  -6.257   6.181  1.00  0.00     0.117 C 
HETATM   48  O1  UNL     1      14.548  -6.919   3.917  1.00  0.00    -0.274 OA
ATOM     49  H1  UNL     1      16.568  -5.082   5.642  1.00  0.00     0.162 HD
ENDBRANCH  44  45
ENDBRANCH  43  44
BRANCH  43  50
HETATM   50  O2  UNL     1      15.804  -3.595   2.992  1.00  0.00    -0.375 OA
ATOM     51  H2  UNL     1      15.844  -2.645   2.972  1.00  0.00     0.212 HD
ENDBRANCH  43  50
ENDBRANCH  41  43
ENDBRANCH   1  41
TORSDOF 15
ENDMDL
MODEL 2
REMARK VINA RESULT: -7.256358766      3.040      5.014
REMARK  15 active torsions:
REMARK  status: ('A' for Active; 'I' for Inactive)
REMARK       I    between atoms: C2_2  and  N1_4 
REMARK    1  A    between atoms: N1_4  and  C3_6 
REMARK    2  A    between atoms: C3_6  and  C4_7 
REMARK    3  A    between atoms: C4_7  and  O2_8 
REMARK    4  A    between atoms: C4_7  and  N2_10 
REMARK    5  A    between atoms: N2_10  and  C5_12 
REMARK    6  A    between atoms: N7_26  and  C10_27 
REMARK    7  A    between atoms: C10_27  and  C11_28 
REMARK    8  A    between atoms: C11_28  and  C12_29 
REMARK    9  A    between atoms: C11_28  and  C15_43 
REMARK   10  A    between atoms: C12_29  and  S1_30 
REMARK   11  A    between atoms: S1_30  and  C13_31 
REMARK   12  A    between atoms: C14_35  and  N9_36 
REMARK   13  A    between atoms: N10_39  and  N11_40 
REMARK   14  A    between atoms: C15_43  and  N12_44 
REMARK   15  A    between atoms: C15_43  and  N13_48 
ROOT
HETATM    1  C5  UNL     1      15.263  -5.653   4.582  1.00  0.00     0.149 A 
HETATM    2  N3  UNL     1      16.317  -6.294   5.094  1.00  0.00    -0.175 N 
ATOM      3  H3  UNL     1      16.244  -6.683   6.034  1.00  0.00     0.186 HD
HETATM    4  C6  UNL     1      17.476  -6.448   4.418  1.00  0.00     0.679 A 
HETATM    5  N4  UNL     1      18.454  -7.075   4.976  1.00  0.00    -0.234 N 
ATOM      6  H41 UNL     1      19.329  -7.190   4.465  1.00  0.00     0.174 HD
ATOM      7  H42 UNL     1      18.391  -7.466   5.915  1.00  0.00     0.174 HD
HETATM    8  N5  UNL     1      17.558  -5.934   3.184  1.00  0.00    -0.174 N 
ATOM      9  H5  UNL     1      18.434  -6.051   2.675  1.00  0.00     0.186 HD
HETATM   10  C7  UNL     1      16.550  -5.270   2.571  1.00  0.00     0.155 A 
HETATM   11  C8  UNL     1      15.364  -5.127   3.304  1.00  0.00     0.123 A 
HETATM   12  N6  UNL     1      14.546  -4.427   2.520  1.00  0.00    -0.346 N 
ATOM     13  H6  UNL     1      13.595  -4.152   2.764  1.00  0.00     0.167 HD
HETATM   14  C9  UNL     1      15.159  -4.137   1.360  1.00  0.00     0.185 A 
HETATM   15  N7  UNL     1      16.419  -4.671   1.397  1.00  0.00    -0.326 N 
ENDROOT
BRANCH  15  16
HETATM   16  C10 UNL     1      17.353  -4.611   0.269  1.00  0.00     0.140 C 
BRANCH  16  17
HETATM   17  C11 UNL     1      17.412  -5.847  -0.542  1.00  0.00     0.071 C 
BRANCH  17  18
HETATM   18  C12 UNL     1      16.990  -5.618  -1.979  1.00  0.00     0.092 C 
BRANCH  18  19
HETATM   19  S1  UNL     1      15.574  -6.422  -2.589  1.00  0.00    -0.091 SA
BRANCH  19  20
HETATM   20  C13 UNL     1      15.373  -8.147  -2.055  1.00  0.00     0.173 A 
HETATM   21  N8  UNL     1      15.856  -9.157  -2.776  1.00  0.00    -0.302 N 
HETATM   22  S2  UNL     1      15.431 -10.519  -1.904  1.00  0.00     0.026 SA
ATOM     23  H8  UNL     1      16.367  -9.111  -3.657  1.00  0.00     0.176 HD
HETATM   24  C14 UNL     1      14.636  -9.736  -0.623  1.00  0.00     0.182 A 
HETATM   25  N10 UNL     1      14.737  -8.442  -0.933  1.00  0.00    -0.216 N 
BRANCH  24  26
HETATM   26  N9  UNL     1      14.047 -10.250   0.441  1.00  0.00    -0.377 N 
ATOM     27  H92 UNL     1      14.467 -10.403   1.358  1.00  0.00     0.158 HD
ATOM     28  H91 UNL     1      13.090 -10.585   0.556  1.00  0.00     0.158 HD
ENDBRANCH  24  26
BRANCH  25  29
HETATM   29  N11 UNL     1      14.173  -7.431  -0.076  1.00  0.00    -0.334 N 
ATOM     30 2H11 UNL     1      14.767  -6.730   0.368  1.00  0.00     0.177 HD
ATOM     31 1H11 UNL     1      13.173  -7.375   0.120  1.00  0.00     0.177 HD
ENDBRANCH  25  29
ENDBRANCH  19  20
ENDBRANCH  18  19
ENDBRANCH  17  18
BRANCH  17  32
HETATM   32  C15 UNL     1      18.779  -6.481  -0.516  1.00  0.00     0.384 C 
BRANCH  32  33
HETATM   33  N12 UNL     1      18.778  -7.910  -0.346  1.00  0.00    -0.050 N 
ATOM     34 3H12 UNL     1      18.371  -8.158   0.556  1.00  0.00     0.276 HD
ATOM     35 2H12 UNL     1      18.097  -8.340  -0.972  1.00  0.00     0.276 HD
ATOM     36 1H12 UNL     1      19.690  -8.355  -0.457  1.00  0.00     0.276 HD
ENDBRANCH  32  33
BRANCH  32  37
HETATM   37  N13 UNL     1      19.652  -5.819   0.447  1.00  0.00    -0.050 N 
ATOM     38 3H13 UNL     1      19.978  -4.917   0.099  1.00  0.00     0.276 HD
ATOM     39 2H13 UNL     1      19.132  -5.493   1.262  1.00  0.00     0.276 HD
ATOM     40 1H13 UNL     1      20.431  -6.421   0.715  1.00  0.00     0.276 HD
ENDBRANCH  32  37
ENDBRANCH  17  32
ENDBRANCH  16  17
ENDBRANCH  15  16
BRANCH   1  41
HETATM   41  N2  UNL     1      14.161  -5.488   5.178  1.00  0.00    -0.346 N 
ATOM     42  H2  UNL     1      14.044  -4.573   5.614  1.00  0.00     0.163 HD
BRANCH  41  43
HETATM   43  C4  UNL     1      13.057  -6.368   5.341  1.00  0.00     0.237 C 
BRANCH  43  44
HETATM   44  C3  UNL     1      12.013  -6.124   4.305  1.00  0.00     0.176 C 
BRANCH  44  45
HETATM   45  N1  UNL     1      11.394  -7.326   3.865  1.00  0.00    -0.357 N 
HETATM   46  C2  UNL     1      12.006  -8.245   2.991  1.00  0.00     0.213 C 
HETATM   47  C1  UNL     1      11.241  -9.487   2.606  1.00  0.00     0.117 C 
HETATM   48  O1  UNL     1      13.154  -8.080   2.516  1.00  0.00    -0.274 OA
ATOM     49  H1  UNL     1      10.454  -7.535   4.202  1.00  0.00     0.162 HD
ENDBRANCH  44  45
ENDBRANCH  43  44
BRANCH  43  50
HETATM   50  O2  UNL     1      12.533  -6.356   6.639  1.00  0.00    -0.375 OA
ATOM     51  H2  UNL     1      12.592  -7.206   7.060  1.00  0.00     0.212 HD
ENDBRANCH  43  50
ENDBRANCH  41  43
ENDBRANCH   1  41
TORSDOF 15
ENDMDL
MODEL 3
REMARK VINA RESULT: -7.202260166      2.395      5.124
REMARK  15 active torsions:
REMARK  status: ('A' for Active; 'I' for Inactive)
REMARK       I    between atoms: C2_2  and  N1_4 
REMARK    1  A    between atoms: N1_4  and  C3_6 
REMARK    2  A    between atoms: C3_6  and  C4_7 
REMARK    3  A    between atoms: C4_7  and  O2_8 
REMARK    4  A    between atoms: C4_7  and  N2_10 
REMARK    5  A    between atoms: N2_10  and  C5_12 
REMARK    6  A    between atoms: N7_26  and  C10_27 
REMARK    7  A    between atoms: C10_27  and  C11_28 
REMARK    8  A    between atoms: C11_28  and  C12_29 
REMARK    9  A    between atoms: C11_28  and  C15_43 
REMARK   10  A    between atoms: C12_29  and  S1_30 
REMARK   11  A    between atoms: S1_30  and  C13_31 
REMARK   12  A    between atoms: C14_35  and  N9_36 
REMARK   13  A    between atoms: N10_39  and  N11_40 
REMARK   14  A    between atoms: C15_43  and  N12_44 
REMARK   15  A    between atoms: C15_43  and  N13_48 
ROOT
HETATM    1  C5  UNL     1      16.632  -6.627  -0.836  1.00  0.00     0.149 A 
HETATM    2  N3  UNL     1      15.926  -6.455   0.285  1.00  0.00    -0.175 N 
ATOM      3  H3  UNL     1      16.418  -6.460   1.178  1.00  0.00     0.186 HD
HETATM    4  C6  UNL     1      14.589  -6.274   0.283  1.00  0.00     0.679 A 
HETATM    5  N4  UNL     1      13.972  -6.116   1.403  1.00  0.00    -0.234 N 
ATOM      6  H41 UNL     1      12.961  -5.980   1.402  1.00  0.00     0.174 HD
ATOM      7  H42 UNL     1      14.454  -6.122   2.302  1.00  0.00     0.174 HD
HETATM    8  N5  UNL     1      13.956  -6.267  -0.896  1.00  0.00    -0.174 N 
ATOM      9  H5  UNL     1      12.945  -6.130  -0.896  1.00  0.00     0.186 HD
HETATM   10  C7  UNL     1      14.575  -6.430  -2.090  1.00  0.00     0.155 A 
HETATM   11  C8  UNL     1      15.963  -6.619  -2.048  1.00  0.00     0.123 A 
HETATM   12  N6  UNL     1      16.335  -6.783  -3.317  1.00  0.00    -0.346 N 
ATOM     13  H6  UNL     1      17.292  -6.943  -3.630  1.00  0.00     0.167 HD
HETATM   14  C9  UNL     1      15.263  -6.706  -4.123  1.00  0.00     0.185 A 
HETATM   15  N7  UNL     1      14.159  -6.483  -3.346  1.00  0.00    -0.326 N 
ENDROOT
BRANCH  15  16
HETATM   16  C10 UNL     1      12.815  -6.273  -3.895  1.00  0.00     0.140 C 
BRANCH  16  17
HETATM   17  C11 UNL     1      12.514  -7.079  -5.099  1.00  0.00     0.071 C 
BRANCH  17  18
HETATM   18  C12 UNL     1      11.881  -8.413  -4.759  1.00  0.00     0.092 C 
BRANCH  18  19
HETATM   19  S1  UNL     1      11.425  -8.746  -3.115  1.00  0.00    -0.091 SA
BRANCH  19  20
HETATM   20  C13 UNL     1      12.757  -9.385  -2.056  1.00  0.00     0.173 A 
HETATM   21  N8  UNL     1      13.907  -9.815  -2.572  1.00  0.00    -0.302 N 
HETATM   22  S2  UNL     1      14.794 -10.298  -1.240  1.00  0.00     0.026 SA
ATOM     23  H8  UNL     1      14.183  -9.843  -3.553  1.00  0.00     0.176 HD
HETATM   24  C14 UNL     1      13.643  -9.927  -0.047  1.00  0.00     0.182 A 
HETATM   25  N10 UNL     1      12.614  -9.441  -0.742  1.00  0.00    -0.216 N 
BRANCH  24  26
HETATM   26  N9  UNL     1      13.715 -10.072   1.264  1.00  0.00    -0.377 N 
ATOM     27  H92 UNL     1      14.236  -9.485   1.915  1.00  0.00     0.158 HD
ATOM     28  H91 UNL     1      13.279 -10.771   1.865  1.00  0.00     0.158 HD
ENDBRANCH  24  26
BRANCH  25  29
HETATM   29  N11 UNL     1      11.413  -9.004  -0.076  1.00  0.00    -0.334 N 
ATOM     30 2H11 UNL     1      10.511  -9.430  -0.291  1.00  0.00     0.177 HD
ATOM     31 1H11 UNL     1      11.415  -8.264   0.626  1.00  0.00     0.177 HD
ENDBRANCH  25  29
ENDBRANCH  19  20
ENDBRANCH  18  19
ENDBRANCH  17  18
BRANCH  17  32
HETATM   32  C15 UNL     1      11.634  -6.341  -6.074  1.00  0.00     0.384 C 
BRANCH  32  33
HETATM   33  N12 UNL     1      11.880  -6.646  -7.459  1.00  0.00    -0.050 N 
ATOM     34 3H12 UNL     1      11.722  -5.819  -8.036  1.00  0.00     0.276 HD
ATOM     35 2H12 UNL     1      12.877  -6.785  -7.619  1.00  0.00     0.276 HD
ATOM     36 1H12 UNL     1      11.350  -7.438  -7.824  1.00  0.00     0.276 HD
ENDBRANCH  32  33
BRANCH  32  37
HETATM   37  N13 UNL     1      11.653  -4.904  -5.822  1.00  0.00    -0.050 N 
ATOM     38 3H13 UNL     1      12.513  -4.475  -6.162  1.00  0.00     0.276 HD
ATOM     39 2H13 UNL     1      10.986  -4.411  -6.416  1.00  0.00     0.276 HD
ATOM     40 1H13 UNL     1      11.497  -4.700  -4.834  1.00  0.00     0.276 HD
ENDBRANCH  32  37
ENDBRANCH  17  32
ENDBRANCH  16  17
ENDBRANCH  15  16
BRANCH   1  41
HETATM   41  N2  UNL     1      17.885  -6.798  -0.880  1.00  0.00    -0.346 N 
ATOM     42  H2  UNL     1      18.327  -6.494  -1.747  1.00  0.00     0.163 HD
BRANCH  41  43
HETATM   43  C4  UNL     1      18.777  -7.345   0.081  1.00  0.00     0.237 C 
BRANCH  43  44
HETATM   44  C3  UNL     1      19.541  -6.274   0.781  1.00  0.00     0.176 C 
BRANCH  44  45
HETATM   45  N1  UNL     1      18.819  -5.718   1.872  1.00  0.00    -0.357 N 
HETATM   46  C2  UNL     1      18.078  -4.523   1.791  1.00  0.00     0.213 C 
HETATM   47  C1  UNL     1      17.351  -4.045   3.023  1.00  0.00     0.117 C 
HETATM   48  O1  UNL     1      17.992  -3.839   0.745  1.00  0.00    -0.274 OA
ATOM     49  H1  UNL     1      18.840  -6.211   2.765  1.00  0.00     0.162 HD
ENDBRANCH  44  45
ENDBRANCH  43  44
BRANCH  43  50
HETATM   50  O2  UNL     1      19.612  -8.337  -0.448  1.00  0.00    -0.375 OA
ATOM     51  H2  UNL     1      19.936  -8.112  -1.313  1.00  0.00     0.212 HD
ENDBRANCH  43  50
ENDBRANCH  41  43
ENDBRANCH   1  41
TORSDOF 15
ENDMDL
MODEL 4
REMARK VINA RESULT: -7.168154425      2.305      2.986
REMARK  15 active torsions:
REMARK  status: ('A' for Active; 'I' for Inactive)
REMARK       I    between atoms: C2_2  and  N1_4 
REMARK    1  A    between atoms: N1_4  and  C3_6 
REMARK    2  A    between atoms: C3_6  and  C4_7 
REMARK    3  A    between atoms: C4_7  and  O2_8 
REMARK    4  A    between atoms: C4_7  and  N2_10 
REMARK    5  A    between atoms: N2_10  and  C5_12 
REMARK    6  A    between atoms: N7_26  and  C10_27 
REMARK    7  A    between atoms: C10_27  and  C11_28 
REMARK    8  A    between atoms: C11_28  and  C12_29 
REMARK    9  A    between atoms: C11_28  and  C15_43 
REMARK   10  A    between atoms: C12_29  and  S1_30 
REMARK   11  A    between atoms: S1_30  and  C13_31 
REMARK   12  A    between atoms: C14_35  and  N9_36 
REMARK   13  A    between atoms: N10_39  and  N11_40 
REMARK   14  A    between atoms: C15_43  and  N12_44 
REMARK   15  A    between atoms: C15_43  and  N13_48 
ROOT
HETATM    1  C5  UNL     1      18.034  -5.140   1.078  1.00  0.00     0.149 A 
HETATM    2  N3  UNL     1      19.234  -5.695   0.891  1.00  0.00    -0.175 N 
ATOM      3  H3  UNL     1      20.026  -5.338   1.425  1.00  0.00     0.186 HD
HETATM    4  C6  UNL     1      19.441  -6.709   0.025  1.00  0.00     0.679 A 
HETATM    5  N4  UNL     1      20.628  -7.194  -0.107  1.00  0.00    -0.234 N 
ATOM      6  H41 UNL     1      20.784  -7.960  -0.762  1.00  0.00     0.174 HD
ATOM      7  H42 UNL     1      21.427  -6.844   0.421  1.00  0.00     0.174 HD
HETATM    8  N5  UNL     1      18.393  -7.169  -0.669  1.00  0.00    -0.174 N 
ATOM      9  H5  UNL     1      18.551  -7.935  -1.323  1.00  0.00     0.186 HD
HETATM   10  C7  UNL     1      17.135  -6.680  -0.554  1.00  0.00     0.155 A 
HETATM   11  C8  UNL     1      16.959  -5.626   0.353  1.00  0.00     0.123 A 
HETATM   12  N6  UNL     1      15.670  -5.301   0.270  1.00  0.00    -0.346 N 
ATOM     13  H6  UNL     1      15.217  -4.563   0.809  1.00  0.00     0.167 HD
HETATM   14  C9  UNL     1      15.054  -6.090  -0.627  1.00  0.00     0.185 A 
HETATM   15  N7  UNL     1      15.980  -6.956  -1.142  1.00  0.00    -0.326 N 
ENDROOT
BRANCH  15  16
HETATM   16  C10 UNL     1      15.649  -8.013  -2.102  1.00  0.00     0.140 C 
BRANCH  16  17
HETATM   17  C11 UNL     1      14.997  -9.198  -1.505  1.00  0.00     0.071 C 
BRANCH  17  18
HETATM   18  C12 UNL     1      13.617  -9.452  -2.078  1.00  0.00     0.092 C 
BRANCH  18  19
HETATM   19  S1  UNL     1      12.245  -9.489  -1.010  1.00  0.00    -0.091 SA
BRANCH  19  20
HETATM   20  C13 UNL     1      11.798  -7.891  -0.269  1.00  0.00     0.173 A 
HETATM   21  N8  UNL     1      11.006  -7.029  -0.903  1.00  0.00    -0.302 N 
HETATM   22  S2  UNL     1      10.889  -5.735   0.148  1.00  0.00     0.026 SA
ATOM     23  H8  UNL     1      10.572  -7.134  -1.820  1.00  0.00     0.176 HD
HETATM   24  C14 UNL     1      11.874  -6.351   1.387  1.00  0.00     0.182 A 
HETATM   25  N10 UNL     1      12.253  -7.543   0.925  1.00  0.00    -0.216 N 
BRANCH  24  26
HETATM   26  N9  UNL     1      12.208  -5.809   2.544  1.00  0.00    -0.377 N 
ATOM     27  H92 UNL     1      12.404  -4.825   2.724  1.00  0.00     0.158 HD
ATOM     28  H91 UNL     1      12.332  -6.250   3.456  1.00  0.00     0.158 HD
ENDBRANCH  24  26
BRANCH  25  29
HETATM   29  N11 UNL     1      13.117  -8.397   1.700  1.00  0.00    -0.334 N 
ATOM     30 2H11 UNL     1      13.786  -8.002   2.362  1.00  0.00     0.177 HD
ATOM     31 1H11 UNL     1      13.097  -9.414   1.620  1.00  0.00     0.177 HD
ENDBRANCH  25  29
ENDBRANCH  19  20
ENDBRANCH  18  19
ENDBRANCH  17  18
BRANCH  17  32
HETATM   32  C15 UNL     1      15.835 -10.443  -1.648  1.00  0.00     0.384 C 
BRANCH  32  33
HETATM   33  N12 UNL     1      17.108 -10.394  -0.979  1.00  0.00    -0.050 N 
ATOM     34 3H12 UNL     1      17.063  -9.763  -0.179  1.00  0.00     0.276 HD
ATOM     35 2H12 UNL     1      17.289 -11.275  -0.499  1.00  0.00     0.276 HD
ATOM     36 1H12 UNL     1      17.897 -10.149  -1.578  1.00  0.00     0.276 HD
ENDBRANCH  32  33
BRANCH  32  37
HETATM   37  N13 UNL     1      15.969 -10.833  -3.047  1.00  0.00    -0.050 N 
ATOM     38 3H13 UNL     1      16.808 -10.434  -3.468  1.00  0.00     0.276 HD
ATOM     39 2H13 UNL     1      16.204 -11.822  -3.139  1.00  0.00     0.276 HD
ATOM     40 1H13 UNL     1      15.132 -10.594  -3.579  1.00  0.00     0.276 HD
ENDBRANCH  32  37
ENDBRANCH  17  32
ENDBRANCH  16  17
ENDBRANCH  15  16
BRANCH   1  41
HETATM   41  N2  UNL     1      17.795  -4.191   1.879  1.00  0.00    -0.346 N 
ATOM     42  H2  UNL     1      18.166  -3.285   1.592  1.00  0.00     0.163 HD
BRANCH  41  43
HETATM   43  C4  UNL     1      17.094  -4.180   3.115  1.00  0.00     0.237 C 
BRANCH  43  44
HETATM   44  C3  UNL     1      17.081  -5.533   3.742  1.00  0.00     0.176 C 
BRANCH  44  45
HETATM   45  N1  UNL     1      16.233  -5.594   4.881  1.00  0.00    -0.357 N 
HETATM   46  C2  UNL     1      15.009  -6.290   4.908  1.00  0.00     0.213 C 
HETATM   47  C1  UNL     1      14.206  -6.281   6.185  1.00  0.00     0.117 C 
HETATM   48  O1  UNL     1      14.555  -6.917   3.922  1.00  0.00    -0.274 OA
ATOM     49  H1  UNL     1      16.527  -5.106   5.727  1.00  0.00     0.162 HD
ENDBRANCH  44  45
ENDBRANCH  43  44
BRANCH  43  50
HETATM   50  O2  UNL     1      15.811  -3.629   3.013  1.00  0.00    -0.375 OA
ATOM     51  H2  UNL     1      15.299  -3.757   3.803  1.00  0.00     0.212 HD
ENDBRANCH  43  50
ENDBRANCH  41  43
ENDBRANCH   1  41
TORSDOF 15
ENDMDL
MODEL 5
REMARK VINA RESULT: -7.132559387      1.335      1.462
REMARK  15 active torsions:
REMARK  status: ('A' for Active; 'I' for Inactive)
REMARK       I    between atoms: C2_2  and  N1_4 
REMARK    1  A    between atoms: N1_4  and  C3_6 
REMARK    2  A    between atoms: C3_6  and  C4_7 
REMARK    3  A    between atoms: C4_7  and  O2_8 
REMARK    4  A    between atoms: C4_7  and  N2_10 
REMARK    5  A    between atoms: N2_10  and  C5_12 
REMARK    6  A    between atoms: N7_26  and  C10_27 
REMARK    7  A    between atoms: C10_27  and  C11_28 
REMARK    8  A    between atoms: C11_28  and  C12_29 
REMARK    9  A    between atoms: C11_28  and  C15_43 
REMARK   10  A    between atoms: C12_29  and  S1_30 
REMARK   11  A    between atoms: S1_30  and  C13_31 
REMARK   12  A    between atoms: C14_35  and  N9_36 
REMARK   13  A    between atoms: N10_39  and  N11_40 
REMARK   14  A    between atoms: C15_43  and  N12_44 
REMARK   15  A    between atoms: C15_43  and  N13_48 
ROOT
HETATM    1  C5  UNL     1      17.197  -5.500   0.949  1.00  0.00     0.149 A 
HETATM    2  N3  UNL     1      18.366  -6.093   0.693  1.00  0.00    -0.175 N 
ATOM      3  H3  UNL     1      19.182  -5.821   1.240  1.00  0.00     0.186 HD
HETATM    4  C6  UNL     1      18.510  -7.039  -0.259  1.00  0.00     0.679 A 
HETATM    5  N4  UNL     1      19.669  -7.567  -0.453  1.00  0.00    -0.234 N 
ATOM      6  H41 UNL     1      19.779  -8.282  -1.173  1.00  0.00     0.174 HD
ATOM      7  H42 UNL     1      20.492  -7.300   0.087  1.00  0.00     0.174 HD
HETATM    8  N5  UNL     1      17.430  -7.389  -0.967  1.00  0.00    -0.174 N 
ATOM      9  H5  UNL     1      17.540  -8.104  -1.687  1.00  0.00     0.186 HD
HETATM   10  C7  UNL     1      16.199  -6.853  -0.788  1.00  0.00     0.155 A 
HETATM   11  C8  UNL     1      16.088  -5.872   0.207  1.00  0.00     0.123 A 
HETATM   12  N6  UNL     1      14.815  -5.481   0.176  1.00  0.00    -0.346 N 
ATOM     13  H6  UNL     1      14.407  -4.771   0.783  1.00  0.00     0.167 HD
HETATM   14  C9  UNL     1      14.148  -6.162  -0.772  1.00  0.00     0.185 A 
HETATM   15  N7  UNL     1      15.023  -7.024  -1.374  1.00  0.00    -0.326 N 
ENDROOT
BRANCH  15  16
HETATM   16  C10 UNL     1      14.627  -7.980  -2.413  1.00  0.00     0.140 C 
BRANCH  16  17
HETATM   17  C11 UNL     1      13.961  -9.198  -1.900  1.00  0.00     0.071 C 
BRANCH  17  18
HETATM   18  C12 UNL     1      12.812  -9.644  -2.781  1.00  0.00     0.092 C 
BRANCH  18  19
HETATM   19  S1  UNL     1      11.486  -8.557  -3.068  1.00  0.00    -0.091 SA
BRANCH  19  20
HETATM   20  C13 UNL     1      11.687  -7.452  -4.497  1.00  0.00     0.173 A 
HETATM   21  N8  UNL     1      12.171  -7.897  -5.655  1.00  0.00    -0.302 N 
HETATM   22  S2  UNL     1      12.171  -6.547  -6.641  1.00  0.00     0.026 SA
ATOM     23  H8  UNL     1      12.472  -8.843  -5.887  1.00  0.00     0.176 HD
HETATM   24  C14 UNL     1      11.541  -5.439  -5.518  1.00  0.00     0.182 A 
HETATM   25  N10 UNL     1      11.357  -6.173  -4.420  1.00  0.00    -0.216 N 
BRANCH  24  26
HETATM   26  N9  UNL     1      11.281  -4.152  -5.662  1.00  0.00    -0.377 N 
ATOM     27  H92 UNL     1      11.655  -3.530  -6.378  1.00  0.00     0.158 HD
ATOM     28  H91 UNL     1      10.678  -3.545  -5.106  1.00  0.00     0.158 HD
ENDBRANCH  24  26
BRANCH  25  29
HETATM   29  N11 UNL     1      10.825  -5.583  -3.217  1.00  0.00    -0.334 N 
ATOM     30 2H11 UNL     1       9.919  -5.873  -2.849  1.00  0.00     0.177 HD
ATOM     31 1H11 UNL     1      11.324  -4.864  -2.694  1.00  0.00     0.177 HD
ENDBRANCH  25  29
ENDBRANCH  19  20
ENDBRANCH  18  19
ENDBRANCH  17  18
BRANCH  17  32
HETATM   32  C15 UNL     1      14.926 -10.341  -1.717  1.00  0.00     0.384 C 
BRANCH  32  33
HETATM   33  N12 UNL     1      15.506 -10.438  -0.403  1.00  0.00    -0.050 N 
ATOM     34 3H12 UNL     1      14.772 -10.466   0.305  1.00  0.00     0.276 HD
ATOM     35 2H12 UNL     1      15.920 -11.360  -0.267  1.00  0.00     0.276 HD
ATOM     36 1H12 UNL     1      16.185  -9.709  -0.180  1.00  0.00     0.276 HD
ENDBRANCH  32  33
BRANCH  32  37
HETATM   37  N13 UNL     1      15.943 -10.348  -2.763  1.00  0.00    -0.050 N 
ATOM     38 3H13 UNL     1      15.528 -10.437  -3.690  1.00  0.00     0.276 HD
ATOM     39 2H13 UNL     1      16.374  -9.430  -2.872  1.00  0.00     0.276 HD
ATOM     40 1H13 UNL     1      16.642 -11.072  -2.594  1.00  0.00     0.276 HD
ENDBRANCH  32  37
ENDBRANCH  17  32
ENDBRANCH  16  17
ENDBRANCH  15  16
BRANCH   1  41
HETATM   41  N2  UNL     1      17.017  -4.612   1.831  1.00  0.00    -0.346 N 
ATOM     42  H2  UNL     1      16.754  -4.969   2.749  1.00  0.00     0.163 HD
BRANCH  41  43
HETATM   43  C4  UNL     1      17.120  -3.197   1.752  1.00  0.00     0.237 C 
BRANCH  43  44
HETATM   44  C3  UNL     1      15.811  -2.542   2.034  1.00  0.00     0.176 C 
BRANCH  44  45
HETATM   45  N1  UNL     1      15.328  -2.836   3.339  1.00  0.00    -0.357 N 
HETATM   46  C2  UNL     1      14.387  -3.846   3.615  1.00  0.00     0.213 C 
HETATM   47  C1  UNL     1      13.963  -4.060   5.047  1.00  0.00     0.117 C 
HETATM   48  O1  UNL     1      13.886  -4.577   2.729  1.00  0.00    -0.274 OA
ATOM     49  H1  UNL     1      15.683  -2.283   4.120  1.00  0.00     0.162 HD
ENDBRANCH  44  45
ENDBRANCH  43  44
BRANCH  43  50
HETATM   50  O2  UNL     1      17.689  -2.755   0.551  1.00  0.00    -0.375 OA
ATOM     51  H2  UNL     1      18.528  -3.165   0.377  1.00  0.00     0.212 HD
ENDBRANCH  43  50
ENDBRANCH  41  43
ENDBRANCH   1  41
TORSDOF 15
ENDMDL
