MODEL 1
REMARK VINA RESULT: -8.814886236      0.000      0.000
REMARK  10 active torsions:
REMARK  status: ('A' for Active; 'I' for Inactive)
REMARK    1  A    between atoms: C1_2  and  C2_3 
REMARK       I    between atoms: C1_2  and  N6_30 
REMARK    2  A    between atoms: C2_3  and  O2_4 
REMARK    3  A    between atoms: O2_4  and  C3_5 
REMARK    4  A    between atoms: C6_8  and  C7_9 
REMARK    5  A    between atoms: N1_10  and  N2_12 
REMARK    6  A    between atoms: C8_14  and  C9_15 
REMARK    7  A    between atoms: C14_22  and  N4_23 
REMARK    8  A    between atoms: C15_26  and  N5_27 
REMARK    9  A    between atoms: N6_30  and  C16_32 
REMARK   10  A    between atoms: C21_37  and  N7_38 
ROOT
HETATM    1  C3  UNL     1      10.570  31.249  65.075  1.00  0.00     0.104 A 
HETATM    2  C4  UNL     1      10.298  31.666  63.772  1.00  0.00     0.040 A 
HETATM    3  C5  UNL     1      10.582  32.956  63.421  1.00  0.00     0.018 A 
HETATM    4  C6  UNL     1      11.140  33.868  64.343  1.00  0.00     0.017 A 
HETATM    5  C14 UNL     1      11.385  33.409  65.601  1.00  0.00     0.150 A 
HETATM    6  C15 UNL     1      11.108  32.086  66.008  1.00  0.00     0.170 A 
ENDROOT
BRANCH   1   7
HETATM    7  O2  UNL     1      10.269  29.923  65.391  1.00  0.00    -0.339 OA
BRANCH   7   8
HETATM    8  C2  UNL     1       8.957  29.444  65.306  1.00  0.00     0.278 C 
BRANCH   8   9
HETATM    9  C1  UNL     1       8.896  28.317  64.308  1.00  0.00     0.246 C 
HETATM   10  O1  UNL     1       7.843  27.638  64.304  1.00  0.00    -0.271 OA
HETATM   11  N6  UNL     1       9.974  28.089  63.461  1.00  0.00    -0.323 N 
ATOM     12  H6  UNL     1      10.784  28.700  63.562  1.00  0.00     0.169 HD
BRANCH  11  13
HETATM   13  C16 UNL     1      10.042  27.089  62.481  1.00  0.00     0.068 A 
HETATM   14  C17 UNL     1       9.701  25.767  62.742  1.00  0.00     0.032 A 
HETATM   15  C18 UNL     1       9.715  24.840  61.710  1.00  0.00     0.002 A 
HETATM   16  C19 UNL     1      10.053  25.166  60.421  1.00  0.00     0.003 A 
HETATM   17  C20 UNL     1      10.394  26.458  60.136  1.00  0.00     0.038 A 
HETATM   18  C21 UNL     1      10.386  27.408  61.170  1.00  0.00     0.129 A 
BRANCH  18  19
HETATM   19  N7  UNL     1      10.762  28.714  60.775  1.00  0.00    -0.113 N 
HETATM   20  O7  UNL     1      11.385  29.494  61.490  1.00  0.00    -0.532 OA
HETATM   21  O8  UNL     1      10.458  29.129  59.470  1.00  0.00    -0.532 OA
ENDBRANCH  18  19
ENDBRANCH  11  13
ENDBRANCH   8   9
ENDBRANCH   7   8
ENDBRANCH   1   7
BRANCH   6  22
HETATM   22  N5  UNL     1      11.397  31.685  67.350  1.00  0.00    -0.110 N 
HETATM   23  O5  UNL     1      10.511  31.736  68.236  1.00  0.00    -0.532 OA
HETATM   24  O6  UNL     1      12.636  31.244  67.738  1.00  0.00    -0.532 OA
ENDBRANCH   6  22
BRANCH   5  25
HETATM   25  N4  UNL     1      11.925  34.232  66.626  1.00  0.00    -0.112 N 
HETATM   26  O3  UNL     1      11.250  34.918  67.412  1.00  0.00    -0.532 OA
HETATM   27  O4  UNL     1      13.305  34.348  66.787  1.00  0.00    -0.532 OA
ENDBRANCH   5  25
BRANCH   4  28
HETATM   28  C7  UNL     1      11.410  35.221  63.918  1.00  0.00     0.121 C 
HETATM   29  N1  UNL     1      11.963  35.511  62.812  1.00  0.00    -0.311 N 
ATOM     30  H1  UNL     1      12.217  34.724  62.215  1.00  0.00     0.186 HD
BRANCH  29  31
HETATM   31  N2  UNL     1      12.252  36.736  62.338  1.00  0.00    -0.311 N 
HETATM   32  C8  UNL     1      11.702  37.631  61.673  1.00  0.00     0.118 C 
ATOM     33  H2  UNL     1      13.199  37.011  62.601  1.00  0.00     0.186 HD
BRANCH  32  34
HETATM   34  C9  UNL     1      10.390  37.708  61.088  1.00  0.00    -0.017 A 
HETATM   35  C10 UNL     1       9.273  37.801  61.915  1.00  0.00     0.030 A 
HETATM   36  C11 UNL     1       8.014  37.862  61.328  1.00  0.00     0.088 A 
HETATM   37  N3  UNL     1       7.834  37.836  60.000  1.00  0.00    -0.375 N 
HETATM   38  C12 UNL     1       8.905  37.746  59.171  1.00  0.00     0.088 A 
ATOM     39  H3  UNL     1       6.893  37.884  59.613  1.00  0.00     0.164 HD
HETATM   40  C13 UNL     1      10.168  37.683  59.717  1.00  0.00     0.030 A 
ENDBRANCH  32  34
ENDBRANCH  29  31
ENDBRANCH   4  28
TORSDOF 10
ENDMDL
MODEL 2
REMARK VINA RESULT: -8.426448798      4.021      6.400
REMARK  10 active torsions:
REMARK  status: ('A' for Active; 'I' for Inactive)
REMARK    1  A    between atoms: C1_2  and  C2_3 
REMARK       I    between atoms: C1_2  and  N6_30 
REMARK    2  A    between atoms: C2_3  and  O2_4 
REMARK    3  A    between atoms: O2_4  and  C3_5 
REMARK    4  A    between atoms: C6_8  and  C7_9 
REMARK    5  A    between atoms: N1_10  and  N2_12 
REMARK    6  A    between atoms: C8_14  and  C9_15 
REMARK    7  A    between atoms: C14_22  and  N4_23 
REMARK    8  A    between atoms: C15_26  and  N5_27 
REMARK    9  A    between atoms: N6_30  and  C16_32 
REMARK   10  A    between atoms: C21_37  and  N7_38 
ROOT
HETATM    1  C3  UNL     1       8.973  28.917  65.298  1.00  0.00     0.104 A 
HETATM    2  C4  UNL     1       9.179  29.838  66.324  1.00  0.00     0.040 A 
HETATM    3  C5  UNL     1       9.835  31.003  66.042  1.00  0.00     0.018 A 
HETATM    4  C6  UNL     1      10.304  31.291  64.742  1.00  0.00     0.017 A 
HETATM    5  C14 UNL     1      10.077  30.357  63.777  1.00  0.00     0.150 A 
HETATM    6  C15 UNL     1       9.405  29.141  64.024  1.00  0.00     0.170 A 
ENDROOT
BRANCH   1   7
HETATM    7  O2  UNL     1       8.295  27.741  65.628  1.00  0.00    -0.339 OA
BRANCH   7   8
HETATM    8  C2  UNL     1       7.070  27.426  65.029  1.00  0.00     0.278 C 
BRANCH   8   9
HETATM    9  C1  UNL     1       6.009  27.295  66.090  1.00  0.00     0.246 C 
HETATM   10  O1  UNL     1       5.003  28.029  65.959  1.00  0.00    -0.271 OA
HETATM   11  N6  UNL     1       6.186  26.393  67.132  1.00  0.00    -0.323 N 
ATOM     12  H6  UNL     1       7.051  25.854  67.141  1.00  0.00     0.169 HD
BRANCH  11  13
HETATM   13  C16 UNL     1       5.275  26.161  68.172  1.00  0.00     0.068 A 
HETATM   14  C17 UNL     1       3.933  25.884  67.938  1.00  0.00     0.032 A 
HETATM   15  C18 UNL     1       3.099  25.586  69.005  1.00  0.00     0.002 A 
HETATM   16  C19 UNL     1       3.537  25.550  70.305  1.00  0.00     0.003 A 
HETATM   17  C20 UNL     1       4.852  25.819  70.564  1.00  0.00     0.038 A 
HETATM   18  C21 UNL     1       5.708  26.124  69.495  1.00  0.00     0.129 A 
BRANCH  18  19
HETATM   19  N7  UNL     1       7.045  26.396  69.869  1.00  0.00    -0.113 N 
HETATM   20  O7  UNL     1       8.019  26.139  69.165  1.00  0.00    -0.532 OA
HETATM   21  O8  UNL     1       7.277  27.048  71.088  1.00  0.00    -0.532 OA
ENDBRANCH  18  19
ENDBRANCH  11  13
ENDBRANCH   8   9
ENDBRANCH   7   8
ENDBRANCH   1   7
BRANCH   6  22
HETATM   22  N5  UNL     1       9.208  28.214  62.952  1.00  0.00    -0.110 N 
HETATM   23  O5  UNL     1       8.365  28.446  62.054  1.00  0.00    -0.532 OA
HETATM   24  O6  UNL     1       9.906  27.037  62.857  1.00  0.00    -0.532 OA
ENDBRANCH   6  22
BRANCH   5  25
HETATM   25  N4  UNL     1      10.517  30.518  62.436  1.00  0.00    -0.112 N 
HETATM   26  O3  UNL     1      11.558  30.024  61.969  1.00  0.00    -0.532 OA
HETATM   27  O4  UNL     1       9.792  31.305  61.543  1.00  0.00    -0.532 OA
ENDBRANCH   5  25
BRANCH   4  28
HETATM   28  C7  UNL     1      11.000  32.533  64.504  1.00  0.00     0.121 C 
HETATM   29  N1  UNL     1      10.706  33.331  63.559  1.00  0.00    -0.311 N 
ATOM     30  H1  UNL     1       9.934  33.050  62.956  1.00  0.00     0.186 HD
BRANCH  29  31
HETATM   31  N2  UNL     1      11.297  34.503  63.264  1.00  0.00    -0.311 N 
HETATM   32  C8  UNL     1      11.047  35.718  63.347  1.00  0.00     0.118 C 
ATOM     33  H2  UNL     1      12.218  34.349  62.853  1.00  0.00     0.186 HD
BRANCH  32  34
HETATM   34  C9  UNL     1       9.896  36.418  63.849  1.00  0.00    -0.017 A 
HETATM   35  C10 UNL     1       9.072  37.111  62.965  1.00  0.00     0.030 A 
HETATM   36  C11 UNL     1       7.972  37.790  63.475  1.00  0.00     0.088 A 
HETATM   37  N3  UNL     1       7.673  37.803  64.781  1.00  0.00    -0.375 N 
HETATM   38  C12 UNL     1       8.457  37.136  65.665  1.00  0.00     0.088 A 
ATOM     39  H3  UNL     1       6.855  38.314  65.112  1.00  0.00     0.164 HD
HETATM   40  C13 UNL     1       9.557  36.452  65.196  1.00  0.00     0.030 A 
ENDBRANCH  32  34
ENDBRANCH  29  31
ENDBRANCH   4  28
TORSDOF 10
ENDMDL
MODEL 3
REMARK VINA RESULT: -8.291028512      3.998      6.975
REMARK  10 active torsions:
REMARK  status: ('A' for Active; 'I' for Inactive)
REMARK    1  A    between atoms: C1_2  and  C2_3 
REMARK       I    between atoms: C1_2  and  N6_30 
REMARK    2  A    between atoms: C2_3  and  O2_4 
REMARK    3  A    between atoms: O2_4  and  C3_5 
REMARK    4  A    between atoms: C6_8  and  C7_9 
REMARK    5  A    between atoms: N1_10  and  N2_12 
REMARK    6  A    between atoms: C8_14  and  C9_15 
REMARK    7  A    between atoms: C14_22  and  N4_23 
REMARK    8  A    between atoms: C15_26  and  N5_27 
REMARK    9  A    between atoms: N6_30  and  C16_32 
REMARK   10  A    between atoms: C21_37  and  N7_38 
ROOT
HETATM    1  C3  UNL     1       8.957  28.910  65.246  1.00  0.00     0.104 A 
HETATM    2  C4  UNL     1       9.172  29.859  66.244  1.00  0.00     0.040 A 
HETATM    3  C5  UNL     1       9.850  31.003  65.930  1.00  0.00     0.018 A 
HETATM    4  C6  UNL     1      10.334  31.241  64.626  1.00  0.00     0.017 A 
HETATM    5  C14 UNL     1      10.098  30.281  63.689  1.00  0.00     0.150 A 
HETATM    6  C15 UNL     1       9.402  29.086  63.968  1.00  0.00     0.170 A 
ENDROOT
BRANCH   1   7
HETATM    7  O2  UNL     1       8.256  27.757  65.607  1.00  0.00    -0.339 OA
BRANCH   7   8
HETATM    8  C2  UNL     1       7.021  27.455  65.023  1.00  0.00     0.278 C 
BRANCH   8   9
HETATM    9  C1  UNL     1       5.975  27.317  66.098  1.00  0.00     0.246 C 
HETATM   10  O1  UNL     1       4.979  28.071  66.001  1.00  0.00    -0.271 OA
HETATM   11  N6  UNL     1       6.154  26.388  67.116  1.00  0.00    -0.323 N 
ATOM     12  H6  UNL     1       7.010  25.834  67.098  1.00  0.00     0.169 HD
BRANCH  11  13
HETATM   13  C16 UNL     1       5.256  26.147  68.166  1.00  0.00     0.068 A 
HETATM   14  C17 UNL     1       3.916  25.852  67.946  1.00  0.00     0.032 A 
HETATM   15  C18 UNL     1       3.096  25.546  69.022  1.00  0.00     0.002 A 
HETATM   16  C19 UNL     1       3.547  25.518  70.317  1.00  0.00     0.003 A 
HETATM   17  C20 UNL     1       4.861  25.805  70.563  1.00  0.00     0.038 A 
HETATM   18  C21 UNL     1       5.703  26.118  69.485  1.00  0.00     0.129 A 
BRANCH  18  19
HETATM   19  N7  UNL     1       7.040  26.408  69.845  1.00  0.00    -0.113 N 
HETATM   20  O7  UNL     1       8.014  26.117  69.155  1.00  0.00    -0.532 OA
HETATM   21  O8  UNL     1       7.272  27.119  71.031  1.00  0.00    -0.532 OA
ENDBRANCH  18  19
ENDBRANCH  11  13
ENDBRANCH   8   9
ENDBRANCH   7   8
ENDBRANCH   1   7
BRANCH   6  22
HETATM   22  N5  UNL     1       9.196  28.129  62.925  1.00  0.00    -0.110 N 
HETATM   23  O5  UNL     1       8.352  28.341  62.023  1.00  0.00    -0.532 OA
HETATM   24  O6  UNL     1       9.886  26.945  62.863  1.00  0.00    -0.532 OA
ENDBRANCH   6  22
BRANCH   5  25
HETATM   25  N4  UNL     1      10.550  30.392  62.347  1.00  0.00    -0.112 N 
HETATM   26  O3  UNL     1      11.570  29.844  61.897  1.00  0.00    -0.532 OA
HETATM   27  O4  UNL     1       9.863  31.189  61.432  1.00  0.00    -0.532 OA
ENDBRANCH   5  25
BRANCH   4  28
HETATM   28  C7  UNL     1      11.053  32.464  64.354  1.00  0.00     0.121 C 
HETATM   29  N1  UNL     1      10.577  33.418  63.663  1.00  0.00    -0.311 N 
ATOM     30  H1  UNL     1       9.635  33.283  63.297  1.00  0.00     0.186 HD
BRANCH  29  31
HETATM   31  N2  UNL     1      11.172  34.586  63.361  1.00  0.00    -0.311 N 
HETATM   32  C8  UNL     1      12.037  35.341  63.838  1.00  0.00     0.118 C 
ATOM     33  H2  UNL     1      10.809  34.960  62.484  1.00  0.00     0.186 HD
BRANCH  32  34
HETATM   34  C9  UNL     1      12.824  35.244  65.038  1.00  0.00    -0.017 A 
HETATM   35  C10 UNL     1      12.194  35.290  66.280  1.00  0.00     0.030 A 
HETATM   36  C11 UNL     1      12.975  35.206  67.426  1.00  0.00     0.088 A 
HETATM   37  N3  UNL     1      14.309  35.081  67.383  1.00  0.00    -0.375 N 
HETATM   38  C12 UNL     1      14.949  35.032  66.187  1.00  0.00     0.088 A 
ATOM     39  H3  UNL     1      14.844  35.022  68.249  1.00  0.00     0.164 HD
HETATM   40  C13 UNL     1      14.206  35.114  65.030  1.00  0.00     0.030 A 
ENDBRANCH  32  34
ENDBRANCH  29  31
ENDBRANCH   4  28
TORSDOF 10
ENDMDL
MODEL 4
REMARK VINA RESULT: -7.994178815      2.505      3.983
REMARK  10 active torsions:
REMARK  status: ('A' for Active; 'I' for Inactive)
REMARK    1  A    between atoms: C1_2  and  C2_3 
REMARK       I    between atoms: C1_2  and  N6_30 
REMARK    2  A    between atoms: C2_3  and  O2_4 
REMARK    3  A    between atoms: O2_4  and  C3_5 
REMARK    4  A    between atoms: C6_8  and  C7_9 
REMARK    5  A    between atoms: N1_10  and  N2_12 
REMARK    6  A    between atoms: C8_14  and  C9_15 
REMARK    7  A    between atoms: C14_22  and  N4_23 
REMARK    8  A    between atoms: C15_26  and  N5_27 
REMARK    9  A    between atoms: N6_30  and  C16_32 
REMARK   10  A    between atoms: C21_37  and  N7_38 
ROOT
HETATM    1  C3  UNL     1      10.618  31.297  65.146  1.00  0.00     0.104 A 
HETATM    2  C4  UNL     1      10.401  31.804  63.865  1.00  0.00     0.040 A 
HETATM    3  C5  UNL     1      10.758  33.096  63.600  1.00  0.00     0.018 A 
HETATM    4  C6  UNL     1      11.338  33.921  64.588  1.00  0.00     0.017 A 
HETATM    5  C14 UNL     1      11.527  33.376  65.821  1.00  0.00     0.150 A 
HETATM    6  C15 UNL     1      11.173  32.048  66.140  1.00  0.00     0.170 A 
ENDROOT
BRANCH   1   7
HETATM    7  O2  UNL     1      10.242  29.971  65.374  1.00  0.00    -0.339 OA
BRANCH   7   8
HETATM    8  C2  UNL     1       8.916  29.561  65.201  1.00  0.00     0.278 C 
BRANCH   8   9
HETATM    9  C1  UNL     1       8.868  28.404  64.238  1.00  0.00     0.246 C 
HETATM   10  O1  UNL     1       7.826  27.709  64.259  1.00  0.00    -0.271 OA
HETATM   11  N6  UNL     1       9.945  28.167  63.393  1.00  0.00    -0.323 N 
ATOM     12  H6  UNL     1      10.746  28.794  63.471  1.00  0.00     0.169 HD
BRANCH  11  13
HETATM   13  C16 UNL     1      10.026  27.139  62.443  1.00  0.00     0.068 A 
HETATM   14  C17 UNL     1       9.683  25.825  62.738  1.00  0.00     0.032 A 
HETATM   15  C18 UNL     1       9.709  24.869  61.734  1.00  0.00     0.002 A 
HETATM   16  C19 UNL     1      10.061  25.157  60.440  1.00  0.00     0.003 A 
HETATM   17  C20 UNL     1      10.403  26.442  60.122  1.00  0.00     0.038 A 
HETATM   18  C21 UNL     1      10.384  27.421  61.127  1.00  0.00     0.129 A 
BRANCH  18  19
HETATM   19  N7  UNL     1      10.763  28.715  60.698  1.00  0.00    -0.113 N 
HETATM   20  O7  UNL     1      11.363  29.522  61.404  1.00  0.00    -0.532 OA
HETATM   21  O8  UNL     1      10.491  29.084  59.373  1.00  0.00    -0.532 OA
ENDBRANCH  18  19
ENDBRANCH  11  13
ENDBRANCH   8   9
ENDBRANCH   7   8
ENDBRANCH   1   7
BRANCH   6  22
HETATM   22  N5  UNL     1      11.407  31.553  67.462  1.00  0.00    -0.110 N 
HETATM   23  O5  UNL     1      10.486  31.547  68.313  1.00  0.00    -0.532 OA
HETATM   24  O6  UNL     1      12.628  31.080  67.867  1.00  0.00    -0.532 OA
ENDBRANCH   6  22
BRANCH   5  25
HETATM   25  N4  UNL     1      12.082  34.107  66.905  1.00  0.00    -0.112 N 
HETATM   26  O3  UNL     1      11.418  34.733  67.750  1.00  0.00    -0.532 OA
HETATM   27  O4  UNL     1      13.464  34.198  67.065  1.00  0.00    -0.532 OA
ENDBRANCH   5  25
BRANCH   4  28
HETATM   28  C7  UNL     1      11.687  35.282  64.252  1.00  0.00     0.121 C 
HETATM   29  N1  UNL     1      12.843  35.774  64.438  1.00  0.00    -0.311 N 
ATOM     30  H1  UNL     1      13.540  35.151  64.845  1.00  0.00     0.186 HD
BRANCH  29  31
HETATM   31  N2  UNL     1      13.254  37.025  64.158  1.00  0.00    -0.311 N 
HETATM   32  C8  UNL     1      14.011  37.885  64.640  1.00  0.00     0.118 C 
ATOM     33  H2  UNL     1      12.818  37.365  63.301  1.00  0.00     0.186 HD
BRANCH  32  34
HETATM   34  C9  UNL     1      14.835  37.871  65.819  1.00  0.00    -0.017 A 
HETATM   35  C10 UNL     1      16.212  38.046  65.698  1.00  0.00     0.030 A 
HETATM   36  C11 UNL     1      16.989  38.017  66.850  1.00  0.00     0.088 A 
HETATM   37  N3  UNL     1      16.467  37.830  68.070  1.00  0.00    -0.375 N 
HETATM   38  C12 UNL     1      15.129  37.658  68.217  1.00  0.00     0.088 A 
ATOM     39  H3  UNL     1      17.075  37.817  68.888  1.00  0.00     0.164 HD
HETATM   40  C13 UNL     1      14.327  37.680  67.097  1.00  0.00     0.030 A 
ENDBRANCH  32  34
ENDBRANCH  29  31
ENDBRANCH   4  28
TORSDOF 10
ENDMDL
MODEL 5
REMARK VINA RESULT: -7.983298865      1.104      1.533
REMARK  10 active torsions:
REMARK  status: ('A' for Active; 'I' for Inactive)
REMARK    1  A    between atoms: C1_2  and  C2_3 
REMARK       I    between atoms: C1_2  and  N6_30 
REMARK    2  A    between atoms: C2_3  and  O2_4 
REMARK    3  A    between atoms: O2_4  and  C3_5 
REMARK    4  A    between atoms: C6_8  and  C7_9 
REMARK    5  A    between atoms: N1_10  and  N2_12 
REMARK    6  A    between atoms: C8_14  and  C9_15 
REMARK    7  A    between atoms: C14_22  and  N4_23 
REMARK    8  A    between atoms: C15_26  and  N5_27 
REMARK    9  A    between atoms: N6_30  and  C16_32 
REMARK   10  A    between atoms: C21_37  and  N7_38 
ROOT
HETATM    1  C3  UNL     1      11.077  31.906  65.825  1.00  0.00     0.104 A 
HETATM    2  C4  UNL     1      10.376  32.360  64.709  1.00  0.00     0.040 A 
HETATM    3  C5  UNL     1      10.723  33.562  64.157  1.00  0.00     0.018 A 
HETATM    4  C6  UNL     1      11.769  34.346  64.691  1.00  0.00     0.017 A 
HETATM    5  C14 UNL     1      12.420  33.856  65.782  1.00  0.00     0.150 A 
HETATM    6  C15 UNL     1      12.096  32.621  66.384  1.00  0.00     0.170 A 
ENDROOT
BRANCH   1   7
HETATM    7  O2  UNL     1      10.694  30.672  66.355  1.00  0.00    -0.339 OA
BRANCH   7   8
HETATM    8  C2  UNL     1       9.361  30.250  66.302  1.00  0.00     0.278 C 
BRANCH   8   9
HETATM    9  C1  UNL     1       9.188  29.267  65.174  1.00  0.00     0.246 C 
HETATM   10  O1  UNL     1       8.052  28.753  65.058  1.00  0.00    -0.271 OA
HETATM   11  N6  UNL     1      10.261  28.986  64.337  1.00  0.00    -0.323 N 
ATOM     12  H6  UNL     1      11.143  29.458  64.534  1.00  0.00     0.169 HD
BRANCH  11  13
HETATM   13  C16 UNL     1      10.234  28.106  63.245  1.00  0.00     0.068 A 
HETATM   14  C17 UNL     1      10.028  26.740  63.396  1.00  0.00     0.032 A 
HETATM   15  C18 UNL     1       9.933  25.933  62.271  1.00  0.00     0.002 A 
HETATM   16  C19 UNL     1      10.034  26.423  60.993  1.00  0.00     0.003 A 
HETATM   17  C20 UNL     1      10.237  27.763  60.816  1.00  0.00     0.038 A 
HETATM   18  C21 UNL     1      10.337  28.592  61.944  1.00  0.00     0.129 A 
BRANCH  18  19
HETATM   19  N7  UNL     1      10.556  29.960  61.655  1.00  0.00    -0.113 N 
HETATM   20  O7  UNL     1      11.311  30.684  62.299  1.00  0.00    -0.532 OA
HETATM   21  O8  UNL     1       9.921  30.514  60.534  1.00  0.00    -0.532 OA
ENDBRANCH  18  19
ENDBRANCH  11  13
ENDBRANCH   8   9
ENDBRANCH   7   8
ENDBRANCH   1   7
BRANCH   6  22
HETATM   22  N5  UNL     1      12.831  32.180  67.529  1.00  0.00    -0.110 N 
HETATM   23  O5  UNL     1      13.920  31.574  67.393  1.00  0.00    -0.532 OA
HETATM   24  O6  UNL     1      12.388  32.378  68.812  1.00  0.00    -0.532 OA
ENDBRANCH   6  22
BRANCH   5  25
HETATM   25  N4  UNL     1      13.475  34.558  66.424  1.00  0.00    -0.112 N 
HETATM   26  O3  UNL     1      13.319  35.411  67.314  1.00  0.00    -0.532 OA
HETATM   27  O4  UNL     1      14.800  34.344  66.046  1.00  0.00    -0.532 OA
ENDBRANCH   5  25
BRANCH   4  28
HETATM   28  C7  UNL     1      12.085  35.611  64.072  1.00  0.00     0.121 C 
HETATM   29  N1  UNL     1      12.040  35.809  62.818  1.00  0.00    -0.311 N 
ATOM     30  H1  UNL     1      11.761  35.012  62.245  1.00  0.00     0.186 HD
BRANCH  29  31
HETATM   31  N2  UNL     1      12.317  36.948  62.158  1.00  0.00    -0.311 N 
HETATM   32  C8  UNL     1      11.733  37.765  61.425  1.00  0.00     0.118 C 
ATOM     33  H2  UNL     1      13.290  37.221  62.301  1.00  0.00     0.186 HD
BRANCH  32  34
HETATM   34  C9  UNL     1      10.377  37.811  60.946  1.00  0.00    -0.017 A 
HETATM   35  C10 UNL     1      10.128  37.740  59.578  1.00  0.00     0.030 A 
HETATM   36  C11 UNL     1       8.811  37.798  59.138  1.00  0.00     0.088 A 
HETATM   37  N3  UNL     1       7.774  37.917  59.977  1.00  0.00    -0.375 N 
HETATM   38  C12 UNL     1       7.987  37.987  61.316  1.00  0.00     0.088 A 
ATOM     39  H3  UNL     1       6.823  37.955  59.610  1.00  0.00     0.164 HD
HETATM   40  C13 UNL     1       9.280  37.934  61.788  1.00  0.00     0.030 A 
ENDBRANCH  32  34
ENDBRANCH  29  31
ENDBRANCH   4  28
TORSDOF 10
ENDMDL
