MODEL 1
REMARK VINA RESULT: -6.465419197      0.000      0.000
REMARK  4 active torsions:
REMARK  status: ('A' for Active; 'I' for Inactive)
REMARK    1  A    between atoms: N1_1  and  C1_5 
REMARK    2  A    between atoms: C1_5  and  C2_6 
REMARK    3  A    between atoms: C1_5  and  C7_12 
REMARK    4  A    between atoms: C2_6  and  C3_7 
ROOT
HETATM    1  C1  UNL     1      15.426   3.817  14.687  1.00  0.00     0.188 C 
ENDROOT
BRANCH   1   2
HETATM    2  N1  UNL     1      15.086   5.268  14.600  1.00  0.00    -0.075 N 
ATOM      3  H13 UNL     1      15.879   5.890  14.761  1.00  0.00     0.274 HD
ATOM      4  H12 UNL     1      14.878   5.589  13.655  1.00  0.00     0.274 HD
ATOM      5  H11 UNL     1      14.319   5.394  15.260  1.00  0.00     0.274 HD
ENDBRANCH   1   2
BRANCH   1   6
HETATM    6  C2  UNL     1      16.529   3.637  13.740  1.00  0.00     0.040 C 
BRANCH   6   7
HETATM    7  C3  UNL     1      16.443   2.890  12.525  1.00  0.00     0.013 C 
HETATM    8  C4  UNL     1      16.902   1.426  12.575  1.00  0.00     0.033 C 
HETATM    9  C5  UNL     1      16.527   1.099  11.141  1.00  0.00     0.168 C 
HETATM   10  O1  UNL     1      16.689   2.225  10.386  1.00  0.00    -0.391 OA
HETATM   11  C6  UNL     1      17.067   3.277  11.255  1.00  0.00     0.172 C 
ENDBRANCH   6   7
ENDBRANCH   1   6
BRANCH   1  12
HETATM   12  C7  UNL     1      15.737   3.626  16.153  1.00  0.00     0.016 C 
HETATM   13  C8  UNL     1      16.753   2.514  16.290  1.00  0.00     0.007 C 
HETATM   14  C9  UNL     1      16.217   1.141  16.406  1.00  0.00     0.000 C 
HETATM   15  C10 UNL     1      14.971   1.018  17.221  1.00  0.00     0.000 C 
HETATM   16  C11 UNL     1      14.810   2.316  18.022  1.00  0.00     0.000 C 
HETATM   17  C12 UNL     1      14.541   3.445  17.020  1.00  0.00     0.007 C 
ENDBRANCH   1  12
TORSDOF 4
ENDMDL
MODEL 2
REMARK VINA RESULT: -6.235639152      1.398      1.958
REMARK  4 active torsions:
REMARK  status: ('A' for Active; 'I' for Inactive)
REMARK    1  A    between atoms: N1_1  and  C1_5 
REMARK    2  A    between atoms: C1_5  and  C2_6 
REMARK    3  A    between atoms: C1_5  and  C7_12 
REMARK    4  A    between atoms: C2_6  and  C3_7 
ROOT
HETATM    1  C1  UNL     1      16.964   3.648  15.543  1.00  0.00     0.188 C 
ENDROOT
BRANCH   1   2
HETATM    2  N1  UNL     1      18.079   2.865  16.152  1.00  0.00    -0.075 N 
ATOM      3  H13 UNL     1      17.886   1.867  16.240  1.00  0.00     0.274 HD
ATOM      4  H12 UNL     1      18.897   2.771  15.550  1.00  0.00     0.274 HD
ATOM      5  H11 UNL     1      18.267   3.331  17.040  1.00  0.00     0.274 HD
ENDBRANCH   1   2
BRANCH   1   6
HETATM    6  C2  UNL     1      17.432   3.971  14.194  1.00  0.00     0.040 C 
BRANCH   6   7
HETATM    7  C3  UNL     1      16.859   3.457  12.990  1.00  0.00     0.013 C 
HETATM    8  C4  UNL     1      17.167   1.994  12.644  1.00  0.00     0.033 C 
HETATM    9  C5  UNL     1      16.289   1.940  11.407  1.00  0.00     0.168 C 
HETATM   10  O1  UNL     1      16.282   3.177  10.829  1.00  0.00    -0.391 OA
HETATM   11  C6  UNL     1      17.035   4.045  11.657  1.00  0.00     0.172 C 
ENDBRANCH   6   7
ENDBRANCH   1   6
BRANCH   1  12
HETATM   12  C7  UNL     1      15.784   2.710  15.659  1.00  0.00     0.016 C 
HETATM   13  C8  UNL     1      14.617   3.473  16.242  1.00  0.00     0.007 C 
HETATM   14  C9  UNL     1      14.515   3.500  17.716  1.00  0.00     0.000 C 
HETATM   15  C10 UNL     1      14.892   2.224  18.397  1.00  0.00     0.000 C 
HETATM   16  C11 UNL     1      14.921   1.121  17.332  1.00  0.00     0.000 C 
HETATM   17  C12 UNL     1      16.076   1.437  16.373  1.00  0.00     0.007 C 
ENDBRANCH   1  12
TORSDOF 4
ENDMDL
MODEL 3
REMARK VINA RESULT: -6.108319517      0.955      1.261
REMARK  4 active torsions:
REMARK  status: ('A' for Active; 'I' for Inactive)
REMARK    1  A    between atoms: N1_1  and  C1_5 
REMARK    2  A    between atoms: C1_5  and  C2_6 
REMARK    3  A    between atoms: C1_5  and  C7_12 
REMARK    4  A    between atoms: C2_6  and  C3_7 
ROOT
HETATM    1  C1  UNL     1      15.864   3.558  14.409  1.00  0.00     0.188 C 
ENDROOT
BRANCH   1   2
HETATM    2  N1  UNL     1      15.649   5.003  14.100  1.00  0.00    -0.075 N 
ATOM      3  H13 UNL     1      15.453   5.578  14.920  1.00  0.00     0.274 HD
ATOM      4  H12 UNL     1      16.494   5.496  13.813  1.00  0.00     0.274 HD
ATOM      5  H11 UNL     1      14.906   5.009  13.401  1.00  0.00     0.274 HD
ENDBRANCH   1   2
BRANCH   1   6
HETATM    6  C2  UNL     1      17.060   3.191  13.648  1.00  0.00     0.040 C 
BRANCH   6   7
HETATM    7  C3  UNL     1      17.121   2.130  12.693  1.00  0.00     0.013 C 
HETATM    8  C4  UNL     1      16.175   2.224  11.488  1.00  0.00     0.033 C 
HETATM    9  C5  UNL     1      16.692   0.980  10.789  1.00  0.00     0.168 C 
HETATM   10  O1  UNL     1      17.095   0.087  11.740  1.00  0.00    -0.391 OA
HETATM   11  C6  UNL     1      16.945   0.707  13.005  1.00  0.00     0.172 C 
ENDBRANCH   6   7
ENDBRANCH   1   6
BRANCH   1  12
HETATM   12  C7  UNL     1      15.973   3.544  15.916  1.00  0.00     0.016 C 
HETATM   13  C8  UNL     1      16.733   2.305  16.333  1.00  0.00     0.007 C 
HETATM   14  C9  UNL     1      15.933   1.083  16.555  1.00  0.00     0.000 C 
HETATM   15  C10 UNL     1      14.606   1.308  17.205  1.00  0.00     0.000 C 
HETATM   16  C11 UNL     1      14.615   2.722  17.800  1.00  0.00     0.000 C 
HETATM   17  C12 UNL     1      14.679   3.712  16.631  1.00  0.00     0.007 C 
ENDBRANCH   1  12
TORSDOF 4
ENDMDL
MODEL 4
REMARK VINA RESULT: -5.977568574      1.471      1.879
REMARK  4 active torsions:
REMARK  status: ('A' for Active; 'I' for Inactive)
REMARK    1  A    between atoms: N1_1  and  C1_5 
REMARK    2  A    between atoms: C1_5  and  C2_6 
REMARK    3  A    between atoms: C1_5  and  C7_12 
REMARK    4  A    between atoms: C2_6  and  C3_7 
ROOT
HETATM    1  C1  UNL     1      16.562   3.027  14.205  1.00  0.00     0.188 C 
ENDROOT
BRANCH   1   2
HETATM    2  N1  UNL     1      17.839   3.726  13.873  1.00  0.00    -0.075 N 
ATOM      3  H13 UNL     1      18.598   3.099  13.606  1.00  0.00     0.274 HD
ATOM      4  H12 UNL     1      17.810   4.250  12.998  1.00  0.00     0.274 HD
ATOM      5  H11 UNL     1      18.041   4.298  14.693  1.00  0.00     0.274 HD
ENDBRANCH   1   2
BRANCH   1   6
HETATM    6  C2  UNL     1      16.818   1.620  13.893  1.00  0.00     0.040 C 
BRANCH   6   7
HETATM    7  C3  UNL     1      17.106   1.116  12.588  1.00  0.00     0.013 C 
HETATM    8  C4  UNL     1      16.247   1.648  11.433  1.00  0.00     0.033 C 
HETATM    9  C5  UNL     1      16.992   0.912  10.335  1.00  0.00     0.168 C 
HETATM   10  O1  UNL     1      17.454  -0.269  10.844  1.00  0.00    -0.391 OA
HETATM   11  C6  UNL     1      17.122  -0.305  12.220  1.00  0.00     0.172 C 
ENDBRANCH   6   7
ENDBRANCH   1   6
BRANCH   1  12
HETATM   12  C7  UNL     1      16.345   3.385  15.657  1.00  0.00     0.016 C 
HETATM   13  C8  UNL     1      16.725   2.195  16.509  1.00  0.00     0.007 C 
HETATM   14  C9  UNL     1      15.659   1.207  16.776  1.00  0.00     0.000 C 
HETATM   15  C10 UNL     1      14.301   1.789  17.001  1.00  0.00     0.000 C 
HETATM   16  C11 UNL     1      14.478   3.290  17.262  1.00  0.00     0.000 C 
HETATM   17  C12 UNL     1      14.992   3.925  15.964  1.00  0.00     0.007 C 
ENDBRANCH   1  12
TORSDOF 4
ENDMDL
MODEL 5
REMARK VINA RESULT: -5.961262986      2.328      5.206
REMARK  4 active torsions:
REMARK  status: ('A' for Active; 'I' for Inactive)
REMARK    1  A    between atoms: N1_1  and  C1_5 
REMARK    2  A    between atoms: C1_5  and  C2_6 
REMARK    3  A    between atoms: C1_5  and  C7_12 
REMARK    4  A    between atoms: C2_6  and  C3_7 
ROOT
HETATM    1  C1  UNL     1      17.324   3.364  14.558  1.00  0.00     0.188 C 
ENDROOT
BRANCH   1   2
HETATM    2  N1  UNL     1      18.275   4.461  14.907  1.00  0.00    -0.075 N 
ATOM      3  H13 UNL     1      18.188   5.289  14.318  1.00  0.00     0.274 HD
ATOM      4  H12 UNL     1      18.064   4.926  15.790  1.00  0.00     0.274 HD
ATOM      5  H11 UNL     1      19.196   4.024  14.877  1.00  0.00     0.274 HD
ENDBRANCH   1   2
BRANCH   1   6
HETATM    6  C2  UNL     1      16.169   3.582  15.431  1.00  0.00     0.040 C 
BRANCH   6   7
HETATM    7  C3  UNL     1      15.373   2.542  16.001  1.00  0.00     0.013 C 
HETATM    8  C4  UNL     1      14.552   2.899  17.247  1.00  0.00     0.033 C 
HETATM    9  C5  UNL     1      13.864   1.551  17.369  1.00  0.00     0.168 C 
HETATM   10  O1  UNL     1      14.719   0.588  16.915  1.00  0.00    -0.391 OA
HETATM   11  C6  UNL     1      15.883   1.236  16.435  1.00  0.00     0.172 C 
ENDBRANCH   6   7
ENDBRANCH   1   6
BRANCH   1  12
HETATM   12  C7  UNL     1      17.114   3.553  13.073  1.00  0.00     0.016 C 
HETATM   13  C8  UNL     1      16.384   2.346  12.531  1.00  0.00     0.007 C 
HETATM   14  C9  UNL     1      17.221   1.211  12.089  1.00  0.00     0.000 C 
HETATM   15  C10 UNL     1      18.490   1.596  11.399  1.00  0.00     0.000 C 
HETATM   16  C11 UNL     1      18.378   3.076  11.013  1.00  0.00     0.000 C 
HETATM   17  C12 UNL     1      18.349   3.889  12.313  1.00  0.00     0.007 C 
ENDBRANCH   1  12
TORSDOF 4
ENDMDL
