MODEL 1
REMARK VINA RESULT: -7.075574223      0.000      0.000
REMARK  8 active torsions:
REMARK  status: ('A' for Active; 'I' for Inactive)
REMARK    1  A    between atoms: C3_3  and  N1_4 
REMARK    2  A    between atoms: N1_4  and  C4_6 
REMARK    3  A    between atoms: C4_6  and  C5_7 
REMARK    4  A    between atoms: C5_7  and  N2_8 
REMARK    5  A    between atoms: N2_8  and  C6_10 
REMARK    6  A    between atoms: C6_10  and  C7_11 
REMARK    7  A    between atoms: C7_11  and  N3_12 
REMARK    8  A    between atoms: N3_12  and  C8_15 
ROOT
HETATM    1  C7  UNL     1      20.046   3.738  11.334  1.00  0.00     0.277 C 
ENDROOT
BRANCH   1   2
HETATM    2  C6  UNL     1      19.528   2.370  11.127  1.00  0.00     0.082 C 
BRANCH   2   3
HETATM    3  N2  UNL     1      18.661   1.806  12.078  1.00  0.00    -0.399 N 
ATOM      4  H2  UNL     1      19.014   1.514  12.990  1.00  0.00     0.158 HD
BRANCH   3   5
HETATM    5  C5  UNL     1      17.288   1.647  11.756  1.00  0.00     0.138 C 
BRANCH   5   6
HETATM    6  C4  UNL     1      16.514   2.503  12.782  1.00  0.00     0.139 C 
BRANCH   6   7
HETATM    7  N1  UNL     1      17.010   1.997  14.070  1.00  0.00    -0.392 N 
ATOM      8  H1  UNL     1      17.886   1.478  14.126  1.00  0.00     0.159 HD
BRANCH   7   9
HETATM    9  C3  UNL     1      16.311   2.224  15.122  1.00  0.00     0.004 C 
HETATM   10  C2  UNL     1      15.549   3.442  15.259  1.00  0.00     0.020 C 
HETATM   11  C1  UNL     1      14.633   3.526  16.192  1.00  0.00    -0.025 C 
HETATM   12  C20 UNL     1      14.302   2.456  17.139  1.00  0.00     0.027 C 
HETATM   13  C19 UNL     1      15.348   1.413  17.299  1.00  0.00     0.010 C 
HETATM   14  C18 UNL     1      16.294   1.212  16.183  1.00  0.00     0.057 C 
ENDBRANCH   7   9
ENDBRANCH   6   7
ENDBRANCH   5   6
ENDBRANCH   3   5
ENDBRANCH   2   3
ENDBRANCH   1   2
BRANCH   1  15
HETATM   15  N3  UNL     1      20.052   4.227  12.670  1.00  0.00    -0.062 N 
ATOM     16  H32 UNL     1      19.778   3.497  13.329  1.00  0.00     0.278 HD
ATOM     17  H31 UNL     1      21.004   4.392  12.996  1.00  0.00     0.278 HD
BRANCH  15  18
HETATM   18  C8  UNL     1      19.227   5.417  12.833  1.00  0.00     0.127 C 
HETATM   19  C9  UNL     1      18.154   5.573  11.810  1.00  0.00     0.043 C 
HETATM   20  C10 UNL     1      17.340   6.802  12.157  1.00  0.00    -0.012 C 
HETATM   21  C11 UNL     1      16.626   6.535  13.457  1.00  0.00     0.009 C 
HETATM   22  C15 UNL     1      18.162   8.055  12.222  1.00  0.00     0.009 C 
HETATM   23  C12 UNL     1      17.668   6.425  14.535  1.00  0.00    -0.012 C 
HETATM   24  C13 UNL     1      18.544   7.656  14.601  1.00  0.00     0.009 C 
HETATM   25  C17 UNL     1      18.557   5.252  14.211  1.00  0.00     0.043 C 
HETATM   26  C14 UNL     1      19.233   7.841  13.287  1.00  0.00    -0.012 C 
HETATM   27  C16 UNL     1      20.090   6.634  12.914  1.00  0.00     0.043 C 
ENDBRANCH  15  18
ENDBRANCH   1  15
TORSDOF 8
ENDMDL
MODEL 2
REMARK VINA RESULT: -7.027208576      0.373      1.529
REMARK  8 active torsions:
REMARK  status: ('A' for Active; 'I' for Inactive)
REMARK    1  A    between atoms: C3_3  and  N1_4 
REMARK    2  A    between atoms: N1_4  and  C4_6 
REMARK    3  A    between atoms: C4_6  and  C5_7 
REMARK    4  A    between atoms: C5_7  and  N2_8 
REMARK    5  A    between atoms: N2_8  and  C6_10 
REMARK    6  A    between atoms: C6_10  and  C7_11 
REMARK    7  A    between atoms: C7_11  and  N3_12 
REMARK    8  A    between atoms: N3_12  and  C8_15 
ROOT
HETATM    1  C7  UNL     1      19.819   3.782  11.247  1.00  0.00     0.277 C 
ENDROOT
BRANCH   1   2
HETATM    2  C6  UNL     1      19.795   2.322  11.023  1.00  0.00     0.082 C 
BRANCH   2   3
HETATM    3  N2  UNL     1      18.918   1.519  11.773  1.00  0.00    -0.399 N 
ATOM      4  H2  UNL     1      19.278   0.753  12.341  1.00  0.00     0.158 HD
BRANCH   3   5
HETATM    5  C5  UNL     1      17.525   1.789  11.730  1.00  0.00     0.138 C 
BRANCH   5   6
HETATM    6  C4  UNL     1      16.943   1.204  13.035  1.00  0.00     0.139 C 
BRANCH   6   7
HETATM    7  N1  UNL     1      17.178   2.280  14.009  1.00  0.00    -0.392 N 
ATOM      8  H1  UNL     1      17.931   2.954  13.872  1.00  0.00     0.159 HD
BRANCH   7   9
HETATM    9  C3  UNL     1      16.412   2.349  15.036  1.00  0.00     0.004 C 
HETATM   10  C2  UNL     1      15.623   3.530  15.296  1.00  0.00     0.020 C 
HETATM   11  C1  UNL     1      14.649   3.472  16.171  1.00  0.00    -0.025 C 
HETATM   12  C20 UNL     1      14.278   2.275  16.932  1.00  0.00     0.027 C 
HETATM   13  C19 UNL     1      15.328   1.228  17.008  1.00  0.00     0.010 C 
HETATM   14  C18 UNL     1      16.345   1.196  15.938  1.00  0.00     0.057 C 
ENDBRANCH   7   9
ENDBRANCH   6   7
ENDBRANCH   5   6
ENDBRANCH   3   5
ENDBRANCH   2   3
ENDBRANCH   1   2
BRANCH   1  15
HETATM   15  N3  UNL     1      20.123   4.223  12.566  1.00  0.00    -0.062 N 
ATOM     16  H32 UNL     1      19.976   3.477  13.246  1.00  0.00     0.278 HD
ATOM     17  H31 UNL     1      21.127   4.358  12.685  1.00  0.00     0.278 HD
BRANCH  15  18
HETATM   18  C8  UNL     1      19.385   5.424  12.937  1.00  0.00     0.127 C 
HETATM   19  C9  UNL     1      20.156   6.692  12.803  1.00  0.00     0.043 C 
HETATM   20  C10 UNL     1      19.237   7.846  13.146  1.00  0.00    -0.012 C 
HETATM   21  C11 UNL     1      18.161   7.913  12.092  1.00  0.00     0.009 C 
HETATM   22  C15 UNL     1      18.658   7.751  14.526  1.00  0.00     0.009 C 
HETATM   23  C12 UNL     1      17.319   6.675  12.223  1.00  0.00    -0.012 C 
HETATM   24  C13 UNL     1      16.752   6.523  13.617  1.00  0.00     0.009 C 
HETATM   25  C17 UNL     1      18.196   5.479  11.958  1.00  0.00     0.043 C 
HETATM   26  C14 UNL     1      17.876   6.443  14.600  1.00  0.00    -0.012 C 
HETATM   27  C16 UNL     1      18.811   5.272  14.307  1.00  0.00     0.043 C 
ENDBRANCH  15  18
ENDBRANCH   1  15
TORSDOF 8
ENDMDL
MODEL 3
REMARK VINA RESULT: -6.942114525      0.539      1.719
REMARK  8 active torsions:
REMARK  status: ('A' for Active; 'I' for Inactive)
REMARK    1  A    between atoms: C3_3  and  N1_4 
REMARK    2  A    between atoms: N1_4  and  C4_6 
REMARK    3  A    between atoms: C4_6  and  C5_7 
REMARK    4  A    between atoms: C5_7  and  N2_8 
REMARK    5  A    between atoms: N2_8  and  C6_10 
REMARK    6  A    between atoms: C6_10  and  C7_11 
REMARK    7  A    between atoms: C7_11  and  N3_12 
REMARK    8  A    between atoms: N3_12  and  C8_15 
ROOT
HETATM    1  C7  UNL     1      19.561   3.573  11.221  1.00  0.00     0.277 C 
ENDROOT
BRANCH   1   2
HETATM    2  C6  UNL     1      19.687   2.119  10.993  1.00  0.00     0.082 C 
BRANCH   2   3
HETATM    3  N2  UNL     1      18.869   1.231  11.712  1.00  0.00    -0.399 N 
ATOM      4  H2  UNL     1      19.277   0.433  12.200  1.00  0.00     0.158 HD
BRANCH   3   5
HETATM    5  C5  UNL     1      17.468   1.457  11.751  1.00  0.00     0.138 C 
BRANCH   5   6
HETATM    6  C4  UNL     1      16.989   0.890  13.105  1.00  0.00     0.139 C 
BRANCH   6   7
HETATM    7  N1  UNL     1      17.304   1.977  14.045  1.00  0.00    -0.392 N 
ATOM      8  H1  UNL     1      18.140   2.546  13.923  1.00  0.00     0.159 HD
BRANCH   7   9
HETATM    9  C3  UNL     1      16.499   2.189  15.021  1.00  0.00     0.004 C 
HETATM   10  C2  UNL     1      15.769   3.430  15.125  1.00  0.00     0.020 C 
HETATM   11  C1  UNL     1      14.756   3.513  15.952  1.00  0.00    -0.025 C 
HETATM   12  C20 UNL     1      14.283   2.420  16.807  1.00  0.00     0.027 C 
HETATM   13  C19 UNL     1      15.266   1.331  17.037  1.00  0.00     0.010 C 
HETATM   14  C18 UNL     1      16.326   1.137  16.026  1.00  0.00     0.057 C 
ENDBRANCH   7   9
ENDBRANCH   6   7
ENDBRANCH   5   6
ENDBRANCH   3   5
ENDBRANCH   2   3
ENDBRANCH   1   2
BRANCH   1  15
HETATM   15  N3  UNL     1      19.919   4.052  12.513  1.00  0.00    -0.062 N 
ATOM     16  H32 UNL     1      19.902   3.299  13.201  1.00  0.00     0.278 HD
ATOM     17  H31 UNL     1      20.909   4.290  12.555  1.00  0.00     0.278 HD
BRANCH  15  18
HETATM   18  C8  UNL     1      19.091   5.173  12.941  1.00  0.00     0.127 C 
HETATM   19  C9  UNL     1      18.850   5.240  14.410  1.00  0.00     0.043 C 
HETATM   20  C10 UNL     1      18.049   6.491  14.704  1.00  0.00    -0.012 C 
HETATM   21  C11 UNL     1      18.911   7.683  14.379  1.00  0.00     0.009 C 
HETATM   22  C15 UNL     1      16.738   6.537  13.976  1.00  0.00     0.009 C 
HETATM   23  C12 UNL     1      19.136   7.690  12.893  1.00  0.00    -0.012 C 
HETATM   24  C13 UNL     1      17.834   7.694  12.125  1.00  0.00     0.009 C 
HETATM   25  C17 UNL     1      19.877   6.431  12.525  1.00  0.00     0.043 C 
HETATM   26  C14 UNL     1      17.046   6.474  12.484  1.00  0.00    -0.012 C 
HETATM   27  C16 UNL     1      17.809   5.188  12.173  1.00  0.00     0.043 C 
ENDBRANCH  15  18
ENDBRANCH   1  15
TORSDOF 8
ENDMDL
MODEL 4
REMARK VINA RESULT: -6.907852778      0.472      1.146
REMARK  8 active torsions:
REMARK  status: ('A' for Active; 'I' for Inactive)
REMARK    1  A    between atoms: C3_3  and  N1_4 
REMARK    2  A    between atoms: N1_4  and  C4_6 
REMARK    3  A    between atoms: C4_6  and  C5_7 
REMARK    4  A    between atoms: C5_7  and  N2_8 
REMARK    5  A    between atoms: N2_8  and  C6_10 
REMARK    6  A    between atoms: C6_10  and  C7_11 
REMARK    7  A    between atoms: C7_11  and  N3_12 
REMARK    8  A    between atoms: N3_12  and  C8_15 
ROOT
HETATM    1  C7  UNL     1      20.237   3.878  11.408  1.00  0.00     0.277 C 
ENDROOT
BRANCH   1   2
HETATM    2  C6  UNL     1      19.908   2.505  10.974  1.00  0.00     0.082 C 
BRANCH   2   3
HETATM    3  N2  UNL     1      19.014   1.733  11.735  1.00  0.00    -0.399 N 
ATOM      4  H2  UNL     1      19.358   1.138  12.489  1.00  0.00     0.158 HD
BRANCH   3   5
HETATM    5  C5  UNL     1      17.626   1.792  11.442  1.00  0.00     0.138 C 
BRANCH   5   6
HETATM    6  C4  UNL     1      16.918   1.091  12.622  1.00  0.00     0.139 C 
BRANCH   6   7
HETATM    7  N1  UNL     1      17.329   1.901  13.779  1.00  0.00    -0.392 N 
ATOM      8  H1  UNL     1      18.262   2.310  13.825  1.00  0.00     0.159 HD
BRANCH   7   9
HETATM    9  C3  UNL     1      16.484   2.079  14.727  1.00  0.00     0.004 C 
HETATM   10  C2  UNL     1      16.378   1.135  15.814  1.00  0.00     0.020 C 
HETATM   11  C1  UNL     1      15.728   1.475  16.899  1.00  0.00    -0.025 C 
HETATM   12  C20 UNL     1      15.078   2.771  17.115  1.00  0.00     0.027 C 
HETATM   13  C19 UNL     1      14.798   3.547  15.879  1.00  0.00     0.010 C 
HETATM   14  C18 UNL     1      15.633   3.272  14.692  1.00  0.00     0.057 C 
ENDBRANCH   7   9
ENDBRANCH   6   7
ENDBRANCH   5   6
ENDBRANCH   3   5
ENDBRANCH   2   3
ENDBRANCH   1   2
BRANCH   1  15
HETATM   15  N3  UNL     1      19.979   4.200  12.770  1.00  0.00    -0.062 N 
ATOM     16  H32 UNL     1      19.558   3.410  13.260  1.00  0.00     0.278 HD
ATOM     17  H31 UNL     1      20.847   4.277  13.300  1.00  0.00     0.278 HD
BRANCH  15  18
HETATM   18  C8  UNL     1      19.167   5.401  12.916  1.00  0.00     0.127 C 
HETATM   19  C9  UNL     1      18.040   5.509  11.946  1.00  0.00     0.043 C 
HETATM   20  C10 UNL     1      17.249   6.758  12.273  1.00  0.00    -0.012 C 
HETATM   21  C11 UNL     1      16.606   6.562  13.622  1.00  0.00     0.009 C 
HETATM   22  C15 UNL     1      18.075   8.009  12.228  1.00  0.00     0.009 C 
HETATM   23  C12 UNL     1      17.705   6.502  14.646  1.00  0.00    -0.012 C 
HETATM   24  C13 UNL     1      18.585   7.731  14.601  1.00  0.00     0.009 C 
HETATM   25  C17 UNL     1      18.572   5.310  14.335  1.00  0.00     0.043 C 
HETATM   26  C14 UNL     1      19.202   7.845  13.243  1.00  0.00    -0.012 C 
HETATM   27  C16 UNL     1      20.035   6.616  12.887  1.00  0.00     0.043 C 
ENDBRANCH  15  18
ENDBRANCH   1  15
TORSDOF 8
ENDMDL
MODEL 5
REMARK VINA RESULT: -6.451370493      1.706      5.453
REMARK  8 active torsions:
REMARK  status: ('A' for Active; 'I' for Inactive)
REMARK    1  A    between atoms: C3_3  and  N1_4 
REMARK    2  A    between atoms: N1_4  and  C4_6 
REMARK    3  A    between atoms: C4_6  and  C5_7 
REMARK    4  A    between atoms: C5_7  and  N2_8 
REMARK    5  A    between atoms: N2_8  and  C6_10 
REMARK    6  A    between atoms: C6_10  and  C7_11 
REMARK    7  A    between atoms: C7_11  and  N3_12 
REMARK    8  A    between atoms: N3_12  and  C8_15 
ROOT
HETATM    1  C7  UNL     1      16.755   1.215  15.323  1.00  0.00     0.277 C 
ENDROOT
BRANCH   1   2
HETATM    2  C6  UNL     1      16.091   1.483  16.616  1.00  0.00     0.082 C 
BRANCH   2   3
HETATM    3  N2  UNL     1      14.725   1.811  16.639  1.00  0.00    -0.399 N 
ATOM      4  H2  UNL     1      14.020   1.094  16.466  1.00  0.00     0.158 HD
BRANCH   3   5
HETATM    5  C5  UNL     1      14.339   3.150  16.905  1.00  0.00     0.138 C 
BRANCH   5   6
HETATM    6  C4  UNL     1      14.297   3.856  15.533  1.00  0.00     0.139 C 
BRANCH   6   7
HETATM    7  N1  UNL     1      14.990   5.126  15.797  1.00  0.00    -0.392 N 
ATOM      8  H1  UNL     1      15.009   5.526  16.735  1.00  0.00     0.159 HD
BRANCH   7   9
HETATM    9  C3  UNL     1      15.569   5.718  14.817  1.00  0.00     0.004 C 
HETATM   10  C2  UNL     1      16.989   5.975  14.840  1.00  0.00     0.020 C 
HETATM   11  C1  UNL     1      17.599   6.313  13.730  1.00  0.00    -0.025 C 
HETATM   12  C20 UNL     1      16.945   6.457  12.426  1.00  0.00     0.027 C 
HETATM   13  C19 UNL     1      15.471   6.637  12.479  1.00  0.00     0.010 C 
HETATM   14  C18 UNL     1      14.758   6.122  13.665  1.00  0.00     0.057 C 
ENDBRANCH   7   9
ENDBRANCH   6   7
ENDBRANCH   5   6
ENDBRANCH   3   5
ENDBRANCH   2   3
ENDBRANCH   1   2
BRANCH   1  15
HETATM   15  N3  UNL     1      17.250   2.343  14.611  1.00  0.00    -0.062 N 
ATOM     16  H32 UNL     1      16.765   3.195  14.890  1.00  0.00     0.278 HD
ATOM     17  H31 UNL     1      18.193   2.584  14.915  1.00  0.00     0.278 HD
BRANCH  15  18
HETATM   18  C8  UNL     1      17.196   2.158  13.166  1.00  0.00     0.127 C 
HETATM   19  C9  UNL     1      16.031   2.808  12.501  1.00  0.00     0.043 C 
HETATM   20  C10 UNL     1      16.156   2.596  11.007  1.00  0.00    -0.012 C 
HETATM   21  C11 UNL     1      17.370   3.351  10.530  1.00  0.00     0.009 C 
HETATM   22  C15 UNL     1      16.215   1.148  10.619  1.00  0.00     0.009 C 
HETATM   23  C12 UNL     1      18.580   2.695  11.133  1.00  0.00    -0.012 C 
HETATM   24  C13 UNL     1      18.650   1.223  10.797  1.00  0.00     0.009 C 
HETATM   25  C17 UNL     1      18.483   2.815  12.631  1.00  0.00     0.043 C 
HETATM   26  C14 UNL     1      17.426   0.540  11.319  1.00  0.00    -0.012 C 
HETATM   27  C16 UNL     1      17.279   0.705  12.830  1.00  0.00     0.043 C 
ENDBRANCH  15  18
ENDBRANCH   1  15
TORSDOF 8
ENDMDL
