MODEL 1
REMARK VINA RESULT: -8.735616976      0.000      0.000
REMARK  8 active torsions:
REMARK  status: ('A' for Active; 'I' for Inactive)
REMARK    1  A    between atoms: C4_4  and  N1_5 
REMARK    2  A    between atoms: N1_5  and  C5_7 
REMARK    3  A    between atoms: C7_9  and  C8_10 
REMARK    4  A    between atoms: C11_19  and  N5_20 
REMARK    5  A    between atoms: N5_20  and  C12_22 
REMARK    6  A    between atoms: C13_25  and  N7_26 
REMARK    7  A    between atoms: N7_26  and  C14_28 
REMARK    8  A    between atoms: C14_28  and  C15_29 
ROOT
HETATM    1  C12 UNL     1      -0.364   4.440  11.728  1.00  0.00     0.161 A 
HETATM    2  N6  UNL     1      -0.758   3.215  12.087  1.00  0.00    -0.174 N 
ATOM      3  H6  UNL     1      -0.820   2.994  13.081  1.00  0.00     0.186 HD
HETATM    4  C13 UNL     1      -1.079   2.257  11.193  1.00  0.00     0.680 A 
HETATM    5  N8  UNL     1      -0.989   2.574   9.885  1.00  0.00    -0.180 N 
ATOM      6  H8  UNL     1      -1.230   1.855   9.202  1.00  0.00     0.185 HD
HETATM    7  C18 UNL     1      -0.605   3.770   9.424  1.00  0.00     0.155 A 
HETATM    8  C19 UNL     1      -0.520   4.077   8.024  1.00  0.00     0.120 C 
HETATM    9  N9  UNL     1      -0.454   4.314   6.890  1.00  0.00    -0.190 NA
HETATM   10  C20 UNL     1      -0.281   4.737  10.384  1.00  0.00     0.117 A 
HETATM   11 CL1  UNL     1       0.231   6.327   9.910  1.00  0.00    -0.077 Cl
ENDROOT
BRANCH   4  12
HETATM   12  N7  UNL     1      -1.458   1.080  11.560  1.00  0.00    -0.226 N 
ATOM     13  H7  UNL     1      -0.807   0.428  11.996  1.00  0.00     0.177 HD
BRANCH  12  14
HETATM   14  C14 UNL     1      -2.840   0.715  11.329  1.00  0.00     0.142 C 
BRANCH  14  15
HETATM   15  C15 UNL     1      -3.731   1.150  12.474  1.00  0.00    -0.004 C 
HETATM   16  C16 UNL     1      -4.258  -0.097  13.151  1.00  0.00     0.011 C 
HETATM   17  C17 UNL     1      -4.943   1.839  11.837  1.00  0.00     0.011 C 
ENDBRANCH  14  15
ENDBRANCH  12  14
ENDBRANCH   4  12
BRANCH   1  18
HETATM   18  N5  UNL     1      -0.032   5.426  12.694  1.00  0.00    -0.174 N 
ATOM     19  H5  UNL     1       0.942   5.698  12.832  1.00  0.00     0.186 HD
BRANCH  18  20
HETATM   20  C11 UNL     1      -0.963   5.980  13.398  1.00  0.00     0.685 A 
HETATM   21  N4  UNL     1      -2.068   5.269  13.688  1.00  0.00    -0.176 N 
HETATM   22  C4  UNL     1      -3.088   5.786  14.424  1.00  0.00     0.124 A 
ATOM     23  H4  UNL     1      -2.142   4.311  13.346  1.00  0.00     0.186 HD
HETATM   24  C3  UNL     1      -2.932   7.076  14.856  1.00  0.00     0.074 A 
HETATM   25  C2  UNL     1      -1.815   7.838  14.580  1.00  0.00     0.026 A 
HETATM   26  C1  UNL     1      -1.683   9.235  15.067  1.00  0.00     0.069 C 
HETATM   27  N10 UNL     1      -0.851   7.251  13.845  1.00  0.00    -0.196 N 
ATOM     28  H10 UNL     1      -0.009   7.782  13.619  1.00  0.00     0.184 HD
BRANCH  22  29
HETATM   29  N1  UNL     1      -4.219   4.979  14.690  1.00  0.00    -0.327 N 
ATOM     30  H1  UNL     1      -5.138   5.335  14.430  1.00  0.00     0.169 HD
BRANCH  29  31
HETATM   31  C5  UNL     1      -4.150   3.816  15.244  1.00  0.00     0.123 A 
HETATM   32  C6  UNL     1      -5.250   3.110  15.668  1.00  0.00     0.076 A 
HETATM   33  C7  UNL     1      -4.818   1.918  16.207  1.00  0.00     0.033 A 
HETATM   34  N2  UNL     1      -3.487   1.937  16.096  1.00  0.00    -0.303 N 
HETATM   35  N3  UNL     1      -3.083   3.060  15.525  1.00  0.00    -0.285 N 
ATOM     36  H2  UNL     1      -2.867   1.190  16.409  1.00  0.00     0.186 HD
ATOM     37  H3  UNL     1      -2.113   3.309  15.330  1.00  0.00     0.188 HD
BRANCH  33  38
HETATM   38  C8  UNL     1      -5.704   0.870  16.780  1.00  0.00     0.037 A 
HETATM   39  C9  UNL     1      -7.068   1.382  17.184  1.00  0.00     0.011 A 
HETATM   40  C10 UNL     1      -6.063   1.040  18.259  1.00  0.00     0.011 A 
ENDBRANCH  33  38
ENDBRANCH  29  31
ENDBRANCH  22  29
ENDBRANCH  18  20
ENDBRANCH   1  18
TORSDOF 8
ENDMDL
MODEL 2
REMARK VINA RESULT: -8.626133138      2.156      2.582
REMARK  8 active torsions:
REMARK  status: ('A' for Active; 'I' for Inactive)
REMARK    1  A    between atoms: C4_4  and  N1_5 
REMARK    2  A    between atoms: N1_5  and  C5_7 
REMARK    3  A    between atoms: C7_9  and  C8_10 
REMARK    4  A    between atoms: C11_19  and  N5_20 
REMARK    5  A    between atoms: N5_20  and  C12_22 
REMARK    6  A    between atoms: C13_25  and  N7_26 
REMARK    7  A    between atoms: N7_26  and  C14_28 
REMARK    8  A    between atoms: C14_28  and  C15_29 
ROOT
HETATM    1  C12 UNL     1      -2.409   4.135  10.512  1.00  0.00     0.161 A 
HETATM    2  N6  UNL     1      -2.729   2.955  11.051  1.00  0.00    -0.174 N 
ATOM      3  H6  UNL     1      -3.706   2.771  11.277  1.00  0.00     0.186 HD
HETATM    4  C13 UNL     1      -1.815   1.997  11.310  1.00  0.00     0.680 A 
HETATM    5  N8  UNL     1      -0.529   2.265  11.002  1.00  0.00    -0.180 N 
ATOM      6  H8  UNL     1       0.167   1.546  11.195  1.00  0.00     0.185 HD
HETATM    7  C18 UNL     1      -0.109   3.414  10.460  1.00  0.00     0.155 A 
HETATM    8  C19 UNL     1       1.268   3.670  10.143  1.00  0.00     0.120 C 
HETATM    9  N9  UNL     1       2.384   3.866   9.891  1.00  0.00    -0.190 NA
HETATM   10  C20 UNL     1      -1.088   4.383  10.206  1.00  0.00     0.117 A 
HETATM   11 CL1  UNL     1      -0.665   5.915   9.505  1.00  0.00    -0.077 Cl
ENDROOT
BRANCH   4  12
HETATM   12  N7  UNL     1      -2.143   0.863  11.832  1.00  0.00    -0.226 N 
ATOM     13  H7  UNL     1      -1.504   0.070  11.815  1.00  0.00     0.177 HD
BRANCH  12  14
HETATM   14  C14 UNL     1      -3.452   0.757  12.442  1.00  0.00     0.142 C 
BRANCH  14  15
HETATM   15  C15 UNL     1      -4.202  -0.461  11.945  1.00  0.00    -0.004 C 
HETATM   16  C16 UNL     1      -3.179  -1.487  11.506  1.00  0.00     0.011 C 
HETATM   17  C17 UNL     1      -4.940  -0.021  10.675  1.00  0.00     0.011 C 
ENDBRANCH  14  15
ENDBRANCH  12  14
ENDBRANCH   4  12
BRANCH   1  18
HETATM   18  N5  UNL     1      -3.394   5.124  10.252  1.00  0.00    -0.174 N 
ATOM     19  H5  UNL     1      -3.517   5.485   9.305  1.00  0.00     0.186 HD
BRANCH  18  20
HETATM   20  C11 UNL     1      -4.136   5.566  11.212  1.00  0.00     0.685 A 
HETATM   21  N4  UNL     1      -3.804   5.263  12.481  1.00  0.00    -0.176 N 
HETATM   22  C4  UNL     1      -4.537   5.694  13.542  1.00  0.00     0.124 A 
ATOM     23  H4  UNL     1      -2.976   4.692  12.651  1.00  0.00     0.186 HD
HETATM   24  C3  UNL     1      -5.637   6.456  13.252  1.00  0.00     0.074 A 
HETATM   25  C2  UNL     1      -6.010   6.788  11.966  1.00  0.00     0.026 A 
HETATM   26  C1  UNL     1      -7.212   7.619  11.691  1.00  0.00     0.069 C 
HETATM   27  N10 UNL     1      -5.231   6.322  10.971  1.00  0.00    -0.196 N 
ATOM     28  H10 UNL     1      -5.473   6.546  10.006  1.00  0.00     0.184 HD
BRANCH  22  29
HETATM   29  N1  UNL     1      -4.127   5.335  14.849  1.00  0.00    -0.327 N 
ATOM     30  H1  UNL     1      -3.849   6.079  15.488  1.00  0.00     0.169 HD
BRANCH  29  31
HETATM   31  C5  UNL     1      -4.088   4.118  15.273  1.00  0.00     0.123 A 
HETATM   32  C6  UNL     1      -5.188   3.442  15.746  1.00  0.00     0.076 A 
HETATM   33  C7  UNL     1      -4.792   2.175  16.113  1.00  0.00     0.033 A 
HETATM   34  N2  UNL     1      -3.482   2.121  15.857  1.00  0.00    -0.303 N 
HETATM   35  N3  UNL     1      -3.057   3.270  15.358  1.00  0.00    -0.285 N 
ATOM     36  H2  UNL     1      -2.892   1.306  16.022  1.00  0.00     0.186 HD
ATOM     37  H3  UNL     1      -2.097   3.476  15.082  1.00  0.00     0.188 HD
BRANCH  33  38
HETATM   38  C8  UNL     1      -5.690   1.130  16.674  1.00  0.00     0.037 A 
HETATM   39  C9  UNL     1      -7.053   1.650  17.071  1.00  0.00     0.011 A 
HETATM   40  C10 UNL     1      -6.058   1.296  18.151  1.00  0.00     0.011 A 
ENDBRANCH  33  38
ENDBRANCH  29  31
ENDBRANCH  22  29
ENDBRANCH  18  20
ENDBRANCH   1  18
TORSDOF 8
ENDMDL
MODEL 3
REMARK VINA RESULT: -8.518304394      2.879      6.735
REMARK  8 active torsions:
REMARK  status: ('A' for Active; 'I' for Inactive)
REMARK    1  A    between atoms: C4_4  and  N1_5 
REMARK    2  A    between atoms: N1_5  and  C5_7 
REMARK    3  A    between atoms: C7_9  and  C8_10 
REMARK    4  A    between atoms: C11_19  and  N5_20 
REMARK    5  A    between atoms: N5_20  and  C12_22 
REMARK    6  A    between atoms: C13_25  and  N7_26 
REMARK    7  A    between atoms: N7_26  and  C14_28 
REMARK    8  A    between atoms: C14_28  and  C15_29 
ROOT
HETATM    1  C12 UNL     1      -5.647   3.478  14.747  1.00  0.00     0.161 A 
HETATM    2  N6  UNL     1      -4.868   2.966  13.790  1.00  0.00    -0.174 N 
ATOM      3  H6  UNL     1      -4.699   3.519  12.950  1.00  0.00     0.186 HD
HETATM    4  C13 UNL     1      -4.293   1.749  13.887  1.00  0.00     0.680 A 
HETATM    5  N8  UNL     1      -4.531   1.037  15.008  1.00  0.00    -0.180 N 
ATOM      6  H8  UNL     1      -4.101   0.116  15.089  1.00  0.00     0.185 HD
HETATM    7  C18 UNL     1      -5.296   1.461  16.021  1.00  0.00     0.155 A 
HETATM    8  C19 UNL     1      -5.530   0.680  17.203  1.00  0.00     0.120 C 
HETATM    9  N9  UNL     1      -5.713   0.039  18.153  1.00  0.00    -0.190 NA
HETATM   10  C20 UNL     1      -5.873   2.730  15.883  1.00  0.00     0.117 A 
HETATM   11 CL1  UNL     1      -6.886   3.389  17.130  1.00  0.00    -0.077 Cl
ENDROOT
BRANCH   4  12
HETATM   12  N7  UNL     1      -3.543   1.272  12.952  1.00  0.00    -0.226 N 
ATOM     13  H7  UNL     1      -2.530   1.382  12.981  1.00  0.00     0.177 HD
BRANCH  12  14
HETATM   14  C14 UNL     1      -4.190   0.574  11.861  1.00  0.00     0.142 C 
BRANCH  14  15
HETATM   15  C15 UNL     1      -3.183  -0.106  10.958  1.00  0.00    -0.004 C 
HETATM   16  C16 UNL     1      -3.011  -1.529  11.444  1.00  0.00     0.011 C 
HETATM   17  C17 UNL     1      -1.843   0.597  11.207  1.00  0.00     0.011 C 
ENDBRANCH  14  15
ENDBRANCH  12  14
ENDBRANCH   4  12
BRANCH   1  18
HETATM   18  N5  UNL     1      -6.238   4.762  14.615  1.00  0.00    -0.174 N 
ATOM     19  H5  UNL     1      -7.025   5.025  15.209  1.00  0.00     0.186 HD
BRANCH  18  20
HETATM   20  C11 UNL     1      -5.780   5.598  13.744  1.00  0.00     0.685 A 
HETATM   21  N4  UNL     1      -4.455   5.824  13.695  1.00  0.00    -0.176 N 
HETATM   22  C4  UNL     1      -3.901   6.690  12.804  1.00  0.00     0.124 A 
ATOM     23  H4  UNL     1      -3.845   5.329  14.346  1.00  0.00     0.186 HD
HETATM   24  C3  UNL     1      -4.768   7.325  11.955  1.00  0.00     0.074 A 
HETATM   25  C2  UNL     1      -6.132   7.121  11.974  1.00  0.00     0.026 A 
HETATM   26  C1  UNL     1      -7.040   7.829  11.035  1.00  0.00     0.069 C 
HETATM   27  N10 UNL     1      -6.600   6.247  12.886  1.00  0.00    -0.196 N 
ATOM     28  H10 UNL     1      -7.603   6.069  12.932  1.00  0.00     0.184 HD
BRANCH  22  29
HETATM   29  N1  UNL     1      -2.498   6.877  12.811  1.00  0.00    -0.327 N 
ATOM     30  H1  UNL     1      -2.135   7.795  13.064  1.00  0.00     0.169 HD
BRANCH  29  31
HETATM   31  C5  UNL     1      -1.655   5.947  12.515  1.00  0.00     0.123 A 
HETATM   32  C6  UNL     1      -1.470   5.468  11.239  1.00  0.00     0.076 A 
HETATM   33  C7  UNL     1      -0.502   4.488  11.282  1.00  0.00     0.033 A 
HETATM   34  N2  UNL     1      -0.135   4.403  12.564  1.00  0.00    -0.303 N 
HETATM   35  N3  UNL     1      -0.814   5.266  13.301  1.00  0.00    -0.285 N 
ATOM     36  H2  UNL     1       0.572   3.762  12.924  1.00  0.00     0.186 HD
ATOM     37  H3  UNL     1      -0.712   5.392  14.308  1.00  0.00     0.188 HD
BRANCH  33  38
HETATM   38  C8  UNL     1      -0.013   3.720  10.106  1.00  0.00     0.037 A 
HETATM   39  C9  UNL     1       1.491   3.736   9.953  1.00  0.00     0.011 A 
HETATM   40  C10 UNL     1       0.646   4.548   9.000  1.00  0.00     0.011 A 
ENDBRANCH  33  38
ENDBRANCH  29  31
ENDBRANCH  22  29
ENDBRANCH  18  20
ENDBRANCH   1  18
TORSDOF 8
ENDMDL
MODEL 4
REMARK VINA RESULT: -8.416753374      1.340      1.535
REMARK  8 active torsions:
REMARK  status: ('A' for Active; 'I' for Inactive)
REMARK    1  A    between atoms: C4_4  and  N1_5 
REMARK    2  A    between atoms: N1_5  and  C5_7 
REMARK    3  A    between atoms: C7_9  and  C8_10 
REMARK    4  A    between atoms: C11_19  and  N5_20 
REMARK    5  A    between atoms: N5_20  and  C12_22 
REMARK    6  A    between atoms: C13_25  and  N7_26 
REMARK    7  A    between atoms: N7_26  and  C14_28 
REMARK    8  A    between atoms: C14_28  and  C15_29 
ROOT
HETATM    1  C12 UNL     1      -1.328   5.325  11.019  1.00  0.00     0.161 A 
HETATM    2  N6  UNL     1      -2.150   4.273  10.958  1.00  0.00    -0.174 N 
ATOM      3  H6  UNL     1      -3.125   4.401  11.227  1.00  0.00     0.186 HD
HETATM    4  C13 UNL     1      -1.746   3.050  10.558  1.00  0.00     0.680 A 
HETATM    5  N8  UNL     1      -0.451   2.908  10.208  1.00  0.00    -0.180 N 
ATOM      6  H8  UNL     1      -0.137   1.986   9.904  1.00  0.00     0.185 HD
HETATM    7  C18 UNL     1       0.450   3.897  10.233  1.00  0.00     0.155 A 
HETATM    8  C19 UNL     1       1.822   3.714   9.854  1.00  0.00     0.120 C 
HETATM    9  N9  UNL     1       2.930   3.554   9.545  1.00  0.00    -0.190 NA
HETATM   10  C20 UNL     1      -0.010   5.152  10.655  1.00  0.00     0.117 A 
HETATM   11 CL1  UNL     1       1.065   6.515  10.730  1.00  0.00    -0.077 Cl
ENDROOT
BRANCH   4  12
HETATM   12  N7  UNL     1      -2.555   2.046  10.507  1.00  0.00    -0.226 N 
ATOM     13  H7  UNL     1      -3.307   2.009   9.819  1.00  0.00     0.177 HD
BRANCH  12  14
HETATM   14  C14 UNL     1      -2.357   0.974  11.459  1.00  0.00     0.142 C 
BRANCH  14  15
HETATM   15  C15 UNL     1      -3.577   0.082  11.555  1.00  0.00    -0.004 C 
HETATM   16  C16 UNL     1      -4.179   0.266  12.932  1.00  0.00     0.011 C 
HETATM   17  C17 UNL     1      -3.058  -1.360  11.502  1.00  0.00     0.011 C 
ENDBRANCH  14  15
ENDBRANCH  12  14
ENDBRANCH   4  12
BRANCH   1  18
HETATM   18  N5  UNL     1      -1.784   6.600  11.445  1.00  0.00    -0.174 N 
ATOM     19  H5  UNL     1      -1.797   7.382  10.790  1.00  0.00     0.186 HD
BRANCH  18  20
HETATM   20  C11 UNL     1      -2.181   6.771  12.662  1.00  0.00     0.685 A 
HETATM   21  N4  UNL     1      -3.143   5.966  13.150  1.00  0.00    -0.176 N 
HETATM   22  C4  UNL     1      -3.611   6.087  14.420  1.00  0.00     0.124 A 
ATOM     23  H4  UNL     1      -3.534   5.242  12.546  1.00  0.00     0.186 HD
HETATM   24  C3  UNL     1      -3.050   7.076  15.183  1.00  0.00     0.074 A 
HETATM   25  C2  UNL     1      -2.062   7.921  14.721  1.00  0.00     0.026 A 
HETATM   26  C1  UNL     1      -1.478   8.983  15.580  1.00  0.00     0.069 C 
HETATM   27  N10 UNL     1      -1.655   7.735  13.450  1.00  0.00    -0.196 N 
ATOM     28  H10 UNL     1      -0.926   8.340  13.071  1.00  0.00     0.184 HD
BRANCH  22  29
HETATM   29  N1  UNL     1      -4.625   5.204  14.865  1.00  0.00    -0.327 N 
ATOM     30  H1  UNL     1      -5.593   5.523  14.826  1.00  0.00     0.169 HD
BRANCH  29  31
HETATM   31  C5  UNL     1      -4.390   4.019  15.315  1.00  0.00     0.123 A 
HETATM   32  C6  UNL     1      -5.368   3.181  15.795  1.00  0.00     0.076 A 
HETATM   33  C7  UNL     1      -4.773   2.004  16.191  1.00  0.00     0.033 A 
HETATM   34  N2  UNL     1      -3.469   2.161  15.943  1.00  0.00    -0.303 N 
HETATM   35  N3  UNL     1      -3.235   3.354  15.423  1.00  0.00    -0.285 N 
ATOM     36  H2  UNL     1      -2.754   1.458  16.130  1.00  0.00     0.186 HD
ATOM     37  H3  UNL     1      -2.319   3.710  15.148  1.00  0.00     0.188 HD
BRANCH  33  38
HETATM   38  C8  UNL     1      -5.491   0.837  16.769  1.00  0.00     0.037 A 
HETATM   39  C9  UNL     1      -6.931   1.127  17.128  1.00  0.00     0.011 A 
HETATM   40  C10 UNL     1      -5.913   0.977  18.234  1.00  0.00     0.011 A 
ENDBRANCH  33  38
ENDBRANCH  29  31
ENDBRANCH  22  29
ENDBRANCH  18  20
ENDBRANCH   1  18
TORSDOF 8
ENDMDL
MODEL 5
REMARK VINA RESULT: -8.361189290      2.629      5.226
REMARK  8 active torsions:
REMARK  status: ('A' for Active; 'I' for Inactive)
REMARK    1  A    between atoms: C4_4  and  N1_5 
REMARK    2  A    between atoms: N1_5  and  C5_7 
REMARK    3  A    between atoms: C7_9  and  C8_10 
REMARK    4  A    between atoms: C11_19  and  N5_20 
REMARK    5  A    between atoms: N5_20  and  C12_22 
REMARK    6  A    between atoms: C13_25  and  N7_26 
REMARK    7  A    between atoms: N7_26  and  C14_28 
REMARK    8  A    between atoms: C14_28  and  C15_29 
ROOT
HETATM    1  C12 UNL     1      -0.002   3.872   9.638  1.00  0.00     0.161 A 
HETATM    2  N6  UNL     1       0.551   4.059  10.841  1.00  0.00    -0.174 N 
ATOM      3  H6  UNL     1      -0.037   3.960  11.668  1.00  0.00     0.186 HD
HETATM    4  C13 UNL     1       1.852   4.371  11.008  1.00  0.00     0.680 A 
HETATM    5  N8  UNL     1       2.609   4.496   9.898  1.00  0.00    -0.180 N 
ATOM      6  H8  UNL     1       3.594   4.733  10.016  1.00  0.00     0.185 HD
HETATM    7  C18 UNL     1       2.151   4.329   8.652  1.00  0.00     0.155 A 
HETATM    8  C19 UNL     1       2.982   4.468   7.489  1.00  0.00     0.120 C 
HETATM    9  N9  UNL     1       3.663   4.584   6.556  1.00  0.00    -0.190 NA
HETATM   10  C20 UNL     1       0.795   4.005   8.520  1.00  0.00     0.117 A 
HETATM   11 CL1  UNL     1       0.083   3.764   6.954  1.00  0.00    -0.077 Cl
ENDROOT
BRANCH   4  12
HETATM   12  N7  UNL     1       2.367   4.548  12.177  1.00  0.00    -0.226 N 
ATOM     13  H7  UNL     1       2.372   3.800  12.870  1.00  0.00     0.177 HD
BRANCH  12  14
HETATM   14  C14 UNL     1       2.938   5.845  12.472  1.00  0.00     0.142 C 
BRANCH  14  15
HETATM   15  C15 UNL     1       4.240   5.721  13.237  1.00  0.00    -0.004 C 
HETATM   16  C16 UNL     1       4.563   7.078  13.825  1.00  0.00     0.011 C 
HETATM   17  C17 UNL     1       5.325   5.437  12.191  1.00  0.00     0.011 C 
ENDBRANCH  14  15
ENDBRANCH  12  14
ENDBRANCH   4  12
BRANCH   1  18
HETATM   18  N5  UNL     1      -1.375   3.544   9.495  1.00  0.00    -0.174 N 
ATOM     19  H5  UNL     1      -1.886   3.839   8.662  1.00  0.00     0.186 HD
BRANCH  18  20
HETATM   20  C11 UNL     1      -1.979   2.872  10.418  1.00  0.00     0.685 A 
HETATM   21  N4  UNL     1      -2.579   3.540  11.420  1.00  0.00    -0.176 N 
HETATM   22  C4  UNL     1      -3.234   2.900  12.425  1.00  0.00     0.124 A 
ATOM     23  H4  UNL     1      -2.542   4.560  11.425  1.00  0.00     0.186 HD
HETATM   24  C3  UNL     1      -3.250   1.532  12.365  1.00  0.00     0.074 A 
HETATM   25  C2  UNL     1      -2.648   0.811  11.355  1.00  0.00     0.026 A 
HETATM   26  C1  UNL     1      -2.688  -0.674  11.325  1.00  0.00     0.069 C 
HETATM   27  N10 UNL     1      -2.020   1.521  10.398  1.00  0.00    -0.196 N 
ATOM     28  H10 UNL     1      -1.562   1.024   9.634  1.00  0.00     0.184 HD
BRANCH  22  29
HETATM   29  N1  UNL     1      -3.842   3.669  13.446  1.00  0.00    -0.327 N 
ATOM     30  H1  UNL     1      -3.997   4.662  13.275  1.00  0.00     0.169 HD
BRANCH  29  31
HETATM   31  C5  UNL     1      -4.209   3.181  14.582  1.00  0.00     0.123 A 
HETATM   32  C6  UNL     1      -5.495   3.260  15.062  1.00  0.00     0.076 A 
HETATM   33  C7  UNL     1      -5.536   2.640  16.292  1.00  0.00     0.033 A 
HETATM   34  N2  UNL     1      -4.292   2.211  16.518  1.00  0.00    -0.303 N 
HETATM   35  N3  UNL     1      -3.499   2.528  15.507  1.00  0.00    -0.285 N 
ATOM     36  H2  UNL     1      -3.994   1.709  17.354  1.00  0.00     0.186 HD
ATOM     37  H3  UNL     1      -2.504   2.309  15.444  1.00  0.00     0.188 HD
BRANCH  33  38
HETATM   38  C8  UNL     1      -6.750   2.512  17.142  1.00  0.00     0.037 A 
HETATM   39  C9  UNL     1      -6.498   1.807  18.456  1.00  0.00     0.011 A 
HETATM   40  C10 UNL     1      -7.255   1.085  17.366  1.00  0.00     0.011 A 
ENDBRANCH  33  38
ENDBRANCH  29  31
ENDBRANCH  22  29
ENDBRANCH  18  20
ENDBRANCH   1  18
TORSDOF 8
ENDMDL
