MODEL 1
REMARK VINA RESULT: -6.610671764      0.000      0.000
REMARK  8 active torsions:
REMARK  status: ('A' for Active; 'I' for Inactive)
REMARK    1  A    between atoms: N1_2  and  C4_5 
REMARK    2  A    between atoms: C4_5  and  C5_6 
REMARK    3  A    between atoms: C5_6  and  C6_7 
REMARK    4  A    between atoms: C6_7  and  N2_8 
REMARK       I    between atoms: N2_8  and  C7_10 
REMARK       I    between atoms: C7_10  and  N4_15 
REMARK    5  A    between atoms: N3_11  and  O1_13 
REMARK    6  A    between atoms: N4_15  and  C8_17 
REMARK    7  A    between atoms: C8_17  and  C9_18 
REMARK    8  A    between atoms: C9_18  and  N5_19 
ROOT
HETATM    1  N2  UNL     1       1.039   2.628  82.425  1.00  0.00    -0.225 N 
ATOM      2  H2  UNL     1       0.994   1.723  82.894  1.00  0.00     0.177 HD
HETATM    3  C7  UNL     1       0.635   3.776  83.160  1.00  0.00     0.693 C 
HETATM    4  N3  UNL     1       1.565   4.475  83.690  1.00  0.00    -0.099 N 
ATOM      5  H3  UNL     1       1.314   5.306  84.226  1.00  0.00     0.213 HD
HETATM    6  N4  UNL     1      -0.710   4.166  83.329  1.00  0.00    -0.223 N 
ATOM      7  H4  UNL     1      -1.276   4.247  82.483  1.00  0.00     0.177 HD
ENDROOT
BRANCH   1   8
HETATM    8  C6  UNL     1       1.507   2.656  81.062  1.00  0.00     0.140 C 
BRANCH   8   9
HETATM    9  C5  UNL     1       1.617   1.289  80.432  1.00  0.00     0.048 C 
BRANCH   9  10
HETATM   10  C4  UNL     1       1.511   0.144  81.362  1.00  0.00     0.237 C 
BRANCH  10  11
HETATM   11  N1  UNL     1       0.375  -0.690  81.306  1.00  0.00    -0.079 N 
HETATM   12  C1  UNL     1      -0.538  -0.406  82.402  1.00  0.00     0.271 C 
HETATM   13  C2  UNL     1       0.616  -2.103  81.303  1.00  0.00     0.271 C 
HETATM   14  C3  UNL     1      -0.353  -0.363  80.083  1.00  0.00     0.271 C 
ENDBRANCH  10  11
ENDBRANCH   9  10
ENDBRANCH   8   9
ENDBRANCH   1   8
BRANCH   4  15
HETATM   15  O1  UNL     1       2.874   4.148  83.565  1.00  0.00    -0.276 OA
ATOM     16  H1  UNL     1       3.537   4.479  84.158  1.00  0.00     0.245 HD
ENDBRANCH   4  15
BRANCH   6  17
HETATM   17  C8  UNL     1      -1.356   4.457  84.564  1.00  0.00     0.158 C 
BRANCH  17  18
HETATM   18  C9  UNL     1      -2.580   3.620  84.861  1.00  0.00     0.142 C 
BRANCH  18  19
HETATM   19  N5  UNL     1      -2.260   2.648  85.837  1.00  0.00    -0.388 N 
HETATM   20  C10 UNL     1      -1.229   1.733  85.606  1.00  0.00     0.084 C 
HETATM   21  C11 UNL     1      -1.464   0.483  86.434  1.00  0.00     0.212 C 
HETATM   22  O2  UNL     1      -2.782   0.116  86.368  1.00  0.00    -0.385 OA
HETATM   23  C12 UNL     1      -3.646   1.000  87.000  1.00  0.00     0.187 C 
HETATM   24  C13 UNL     1      -3.169   2.427  86.894  1.00  0.00     0.148 C 
ENDBRANCH  18  19
ENDBRANCH  17  18
ENDBRANCH   6  17
TORSDOF 8
ENDMDL
MODEL 2
REMARK VINA RESULT: -6.041132273      1.979      6.064
REMARK  8 active torsions:
REMARK  status: ('A' for Active; 'I' for Inactive)
REMARK    1  A    between atoms: N1_2  and  C4_5 
REMARK    2  A    between atoms: C4_5  and  C5_6 
REMARK    3  A    between atoms: C5_6  and  C6_7 
REMARK    4  A    between atoms: C6_7  and  N2_8 
REMARK       I    between atoms: N2_8  and  C7_10 
REMARK       I    between atoms: C7_10  and  N4_15 
REMARK    5  A    between atoms: N3_11  and  O1_13 
REMARK    6  A    between atoms: N4_15  and  C8_17 
REMARK    7  A    between atoms: C8_17  and  C9_18 
REMARK    8  A    between atoms: C9_18  and  N5_19 
ROOT
HETATM    1  N2  UNL     1      -1.187   3.902  83.710  1.00  0.00    -0.225 N 
ATOM      2  H2  UNL     1      -1.107   4.519  82.901  1.00  0.00     0.177 HD
HETATM    3  C7  UNL     1      -0.502   2.657  83.663  1.00  0.00     0.693 C 
HETATM    4  N3  UNL     1       0.629   2.601  84.258  1.00  0.00    -0.099 N 
ATOM      5  H3  UNL     1       1.150   1.724  84.246  1.00  0.00     0.213 HD
HETATM    6  N4  UNL     1      -0.999   1.512  83.005  1.00  0.00    -0.223 N 
ATOM      7  H4  UNL     1      -1.948   1.222  83.239  1.00  0.00     0.177 HD
ENDROOT
BRANCH   1   8
HETATM    8  C6  UNL     1      -1.987   4.351  84.822  1.00  0.00     0.140 C 
BRANCH   8   9
HETATM    9  C5  UNL     1      -2.985   3.326  85.301  1.00  0.00     0.048 C 
BRANCH   9  10
HETATM   10  C4  UNL     1      -3.030   3.109  86.764  1.00  0.00     0.237 C 
BRANCH  10  11
HETATM   11  N1  UNL     1      -2.674   1.848  87.287  1.00  0.00    -0.079 N 
HETATM   12  C1  UNL     1      -2.580   1.891  88.738  1.00  0.00     0.271 C 
HETATM   13  C2  UNL     1      -1.459   1.269  86.795  1.00  0.00     0.271 C 
HETATM   14  C3  UNL     1      -3.761   0.921  86.984  1.00  0.00     0.271 C 
ENDBRANCH  10  11
ENDBRANCH   9  10
ENDBRANCH   8   9
ENDBRANCH   1   8
BRANCH   4  15
HETATM   15  O1  UNL     1       1.157   3.668  84.904  1.00  0.00    -0.276 OA
ATOM     16  H1  UNL     1       1.412   3.630  85.818  1.00  0.00     0.245 HD
ENDBRANCH   4  15
BRANCH   6  17
HETATM   17  C8  UNL     1      -0.305   0.723  82.044  1.00  0.00     0.158 C 
BRANCH  17  18
HETATM   18  C9  UNL     1      -0.175   1.347  80.673  1.00  0.00     0.142 C 
BRANCH  18  19
HETATM   19  N5  UNL     1       1.041   2.063  80.593  1.00  0.00    -0.388 N 
HETATM   20  C10 UNL     1       2.231   1.479  81.037  1.00  0.00     0.084 C 
HETATM   21  C11 UNL     1       3.217   2.566  81.422  1.00  0.00     0.212 C 
HETATM   22  O2  UNL     1       2.582   3.544  82.142  1.00  0.00    -0.385 OA
HETATM   23  C12 UNL     1       1.671   4.285  81.403  1.00  0.00     0.187 C 
HETATM   24  C13 UNL     1       0.992   3.452  80.344  1.00  0.00     0.148 C 
ENDBRANCH  18  19
ENDBRANCH  17  18
ENDBRANCH   6  17
TORSDOF 8
ENDMDL
MODEL 3
REMARK VINA RESULT: -5.997471452      2.144      3.664
REMARK  8 active torsions:
REMARK  status: ('A' for Active; 'I' for Inactive)
REMARK    1  A    between atoms: N1_2  and  C4_5 
REMARK    2  A    between atoms: C4_5  and  C5_6 
REMARK    3  A    between atoms: C5_6  and  C6_7 
REMARK    4  A    between atoms: C6_7  and  N2_8 
REMARK       I    between atoms: N2_8  and  C7_10 
REMARK       I    between atoms: C7_10  and  N4_15 
REMARK    5  A    between atoms: N3_11  and  O1_13 
REMARK    6  A    between atoms: N4_15  and  C8_17 
REMARK    7  A    between atoms: C8_17  and  C9_18 
REMARK    8  A    between atoms: C9_18  and  N5_19 
ROOT
HETATM    1  N2  UNL     1       0.373   1.226  80.994  1.00  0.00    -0.225 N 
ATOM      2  H2  UNL     1      -0.207   1.576  80.230  1.00  0.00     0.177 HD
HETATM    3  C7  UNL     1      -0.239   1.055  82.266  1.00  0.00     0.693 C 
HETATM    4  N3  UNL     1      -0.616  -0.129  82.567  1.00  0.00    -0.099 N 
ATOM      5  H3  UNL     1      -1.059  -0.290  83.472  1.00  0.00     0.213 HD
HETATM    6  N4  UNL     1      -0.444   2.106  83.184  1.00  0.00    -0.223 N 
ATOM      7  H4  UNL     1       0.366   2.681  83.415  1.00  0.00     0.177 HD
ENDROOT
BRANCH   1   8
HETATM    8  C6  UNL     1       1.757   0.938  80.709  1.00  0.00     0.140 C 
BRANCH   8   9
HETATM    9  C5  UNL     1       2.686   2.091  80.999  1.00  0.00     0.048 C 
BRANCH   9  10
HETATM   10  C4  UNL     1       2.344   3.372  80.344  1.00  0.00     0.237 C 
BRANCH  10  11
HETATM   11  N1  UNL     1       1.996   4.484  81.138  1.00  0.00    -0.079 N 
HETATM   12  C1  UNL     1       2.377   4.276  82.526  1.00  0.00     0.271 C 
HETATM   13  C2  UNL     1       0.617   4.875  81.126  1.00  0.00     0.271 C 
HETATM   14  C3  UNL     1       2.782   5.624  80.673  1.00  0.00     0.271 C 
ENDBRANCH  10  11
ENDBRANCH   9  10
ENDBRANCH   8   9
ENDBRANCH   1   8
BRANCH   4  15
HETATM   15  O1  UNL     1      -0.447  -1.176  81.725  1.00  0.00    -0.276 OA
ATOM     16  H1  UNL     1      -0.538  -1.088  80.784  1.00  0.00     0.245 HD
ENDBRANCH   4  15
BRANCH   6  17
HETATM   17  C8  UNL     1      -1.673   2.443  83.821  1.00  0.00     0.158 C 
BRANCH  17  18
HETATM   18  C9  UNL     1      -1.535   3.200  85.123  1.00  0.00     0.142 C 
BRANCH  18  19
HETATM   19  N5  UNL     1      -1.866   2.347  86.201  1.00  0.00    -0.388 N 
HETATM   20  C10 UNL     1      -1.075   1.231  86.484  1.00  0.00     0.084 C 
HETATM   21  C11 UNL     1      -1.906   0.191  87.212  1.00  0.00     0.212 C 
HETATM   22  O2  UNL     1      -3.135   0.071  86.619  1.00  0.00    -0.385 OA
HETATM   23  C12 UNL     1      -3.945   1.188  86.771  1.00  0.00     0.187 C 
HETATM   24  C13 UNL     1      -3.145   2.467  86.787  1.00  0.00     0.148 C 
ENDBRANCH  18  19
ENDBRANCH  17  18
ENDBRANCH   6  17
TORSDOF 8
ENDMDL
MODEL 4
REMARK VINA RESULT: -5.962946127      2.455      3.978
REMARK  8 active torsions:
REMARK  status: ('A' for Active; 'I' for Inactive)
REMARK    1  A    between atoms: N1_2  and  C4_5 
REMARK    2  A    between atoms: C4_5  and  C5_6 
REMARK    3  A    between atoms: C5_6  and  C6_7 
REMARK    4  A    between atoms: C6_7  and  N2_8 
REMARK       I    between atoms: N2_8  and  C7_10 
REMARK       I    between atoms: C7_10  and  N4_15 
REMARK    5  A    between atoms: N3_11  and  O1_13 
REMARK    6  A    between atoms: N4_15  and  C8_17 
REMARK    7  A    between atoms: C8_17  and  C9_18 
REMARK    8  A    between atoms: C9_18  and  N5_19 
ROOT
HETATM    1  N2  UNL     1       0.461   2.215  80.856  1.00  0.00    -0.225 N 
ATOM      2  H2  UNL     1       0.263   3.143  80.481  1.00  0.00     0.177 HD
HETATM    3  C7  UNL     1      -0.486   1.645  81.750  1.00  0.00     0.693 C 
HETATM    4  N3  UNL     1      -1.314   0.808  81.252  1.00  0.00    -0.099 N 
ATOM      5  H3  UNL     1      -2.009   0.378  81.863  1.00  0.00     0.213 HD
HETATM    6  N4  UNL     1      -0.552   1.955  83.125  1.00  0.00    -0.223 N 
ATOM      7  H4  UNL     1       0.315   1.876  83.657  1.00  0.00     0.177 HD
ENDROOT
BRANCH   1   8
HETATM    8  C6  UNL     1       1.684   1.571  80.443  1.00  0.00     0.140 C 
BRANCH   8   9
HETATM    9  C5  UNL     1       2.919   2.144  81.094  1.00  0.00     0.048 C 
BRANCH   9  10
HETATM   10  C4  UNL     1       2.771   3.500  81.669  1.00  0.00     0.237 C 
BRANCH  10  11
HETATM   11  N1  UNL     1       3.625   4.533  81.232  1.00  0.00    -0.079 N 
HETATM   12  C1  UNL     1       4.957   4.025  80.944  1.00  0.00     0.271 C 
HETATM   13  C2  UNL     1       3.775   5.655  82.111  1.00  0.00     0.271 C 
HETATM   14  C3  UNL     1       3.104   5.032  79.962  1.00  0.00     0.271 C 
ENDBRANCH  10  11
ENDBRANCH   9  10
ENDBRANCH   8   9
ENDBRANCH   1   8
BRANCH   4  15
HETATM   15  O1  UNL     1      -1.300   0.473  79.939  1.00  0.00    -0.276 OA
ATOM     16  H1  UNL     1      -0.818  -0.278  79.614  1.00  0.00     0.245 HD
ENDBRANCH   4  15
BRANCH   6  17
HETATM   17  C8  UNL     1      -1.711   2.368  83.842  1.00  0.00     0.158 C 
BRANCH  17  18
HETATM   18  C9  UNL     1      -1.438   3.097  85.138  1.00  0.00     0.142 C 
BRANCH  18  19
HETATM   19  N5  UNL     1      -1.834   2.287  86.227  1.00  0.00    -0.388 N 
HETATM   20  C10 UNL     1      -1.092   1.153  86.567  1.00  0.00     0.084 C 
HETATM   21  C11 UNL     1      -1.981   0.163  87.295  1.00  0.00     0.212 C 
HETATM   22  O2  UNL     1      -3.194   0.068  86.664  1.00  0.00    -0.385 OA
HETATM   23  C12 UNL     1      -3.969   1.215  86.759  1.00  0.00     0.187 C 
HETATM   24  C13 UNL     1      -3.126   2.467  86.767  1.00  0.00     0.148 C 
ENDBRANCH  18  19
ENDBRANCH  17  18
ENDBRANCH   6  17
TORSDOF 8
ENDMDL
MODEL 5
REMARK VINA RESULT: -5.924376216      2.218      4.104
REMARK  8 active torsions:
REMARK  status: ('A' for Active; 'I' for Inactive)
REMARK    1  A    between atoms: N1_2  and  C4_5 
REMARK    2  A    between atoms: C4_5  and  C5_6 
REMARK    3  A    between atoms: C5_6  and  C6_7 
REMARK    4  A    between atoms: C6_7  and  N2_8 
REMARK       I    between atoms: N2_8  and  C7_10 
REMARK       I    between atoms: C7_10  and  N4_15 
REMARK    5  A    between atoms: N3_11  and  O1_13 
REMARK    6  A    between atoms: N4_15  and  C8_17 
REMARK    7  A    between atoms: C8_17  and  C9_18 
REMARK    8  A    between atoms: C9_18  and  N5_19 
ROOT
HETATM    1  N2  UNL     1       1.066   2.350  80.697  1.00  0.00    -0.225 N 
ATOM      2  H2  UNL     1       0.423   3.055  80.336  1.00  0.00     0.177 HD
HETATM    3  C7  UNL     1       0.544   1.369  81.583  1.00  0.00     0.693 C 
HETATM    4  N3  UNL     1       0.249   0.234  81.074  1.00  0.00    -0.099 N 
ATOM      5  H3  UNL     1      -0.129  -0.495  81.679  1.00  0.00     0.213 HD
HETATM    6  N4  UNL     1       0.341   1.586  82.962  1.00  0.00    -0.223 N 
ATOM      7  H4  UNL     1       1.133   1.950  83.493  1.00  0.00     0.177 HD
ENDROOT
BRANCH   1   8
HETATM    8  C6  UNL     1       2.444   2.417  80.275  1.00  0.00     0.140 C 
BRANCH   8   9
HETATM    9  C5  UNL     1       3.329   3.191  81.220  1.00  0.00     0.048 C 
BRANCH   9  10
HETATM   10  C4  UNL     1       3.252   4.665  81.111  1.00  0.00     0.237 C 
BRANCH  10  11
HETATM   11  N1  UNL     1       2.565   5.396  82.102  1.00  0.00    -0.079 N 
HETATM   12  C1  UNL     1       3.305   6.590  82.479  1.00  0.00     0.271 C 
HETATM   13  C2  UNL     1       2.240   4.693  83.308  1.00  0.00     0.271 C 
HETATM   14  C3  UNL     1       1.314   5.870  81.515  1.00  0.00     0.271 C 
ENDBRANCH  10  11
ENDBRANCH   9  10
ENDBRANCH   8   9
ENDBRANCH   1   8
BRANCH   4  15
HETATM   15  O1  UNL     1       0.420  -0.032  79.757  1.00  0.00    -0.276 OA
ATOM     16  H1  UNL     1      -0.306  -0.048  79.145  1.00  0.00     0.245 HD
ENDBRANCH   4  15
BRANCH   6  17
HETATM   17  C8  UNL     1      -0.862   1.348  83.686  1.00  0.00     0.158 C 
BRANCH  17  18
HETATM   18  C9  UNL     1      -1.309   2.483  84.581  1.00  0.00     0.142 C 
BRANCH  18  19
HETATM   19  N5  UNL     1      -1.713   1.966  85.832  1.00  0.00    -0.388 N 
HETATM   20  C10 UNL     1      -1.098   0.823  86.353  1.00  0.00     0.084 C 
HETATM   21  C11 UNL     1      -2.044   0.132  87.317  1.00  0.00     0.212 C 
HETATM   22  O2  UNL     1      -3.308   0.093  86.790  1.00  0.00    -0.385 OA
HETATM   23  C12 UNL     1      -3.916   1.337  86.693  1.00  0.00     0.187 C 
HETATM   24  C13 UNL     1      -2.920   2.431  86.397  1.00  0.00     0.148 C 
ENDBRANCH  18  19
ENDBRANCH  17  18
ENDBRANCH   6  17
TORSDOF 8
ENDMDL
