MODEL 1
REMARK VINA RESULT: -6.859512876      0.000      0.000
REMARK  18 active torsions:
REMARK  status: ('A' for Active; 'I' for Inactive)
REMARK    1  A    between atoms: C2_2  and  C3_3 
REMARK    2  A    between atoms: C3_3  and  C4_4 
REMARK    3  A    between atoms: C4_4  and  N1_5 
REMARK    4  A    between atoms: C5_7  and  C6_8 
REMARK    5  A    between atoms: C5_7  and  N6_29 
REMARK    6  A    between atoms: C6_8  and  C7_9 
REMARK    7  A    between atoms: C7_9  and  N2_10 
REMARK    8  A    between atoms: N2_10  and  C8_11 
REMARK       I    between atoms: N2_10  and  C12_19 
REMARK    9  A    between atoms: C8_11  and  C9_12 
REMARK   10  A    between atoms: C9_12  and  C10_13 
REMARK   11  A    between atoms: C10_13  and  N3_14 
REMARK   12  A    between atoms: N3_14  and  C11_16 
REMARK   13  A    between atoms: C12_19  and  C13_21 
REMARK   14  A    between atoms: N6_29  and  C18_31 
REMARK   15  A    between atoms: C18_31  and  C19_32 
REMARK   16  A    between atoms: C19_32  and  C20_33 
REMARK   17  A    between atoms: C20_33  and  C21_34 
REMARK   18  A    between atoms: C21_34  and  N7_35 
ROOT
HETATM    1  N1  UNL     1      36.161  -7.496   2.428  1.00  0.00    -0.380 N 
ATOM      2  H1  UNL     1      36.269  -7.649   1.425  1.00  0.00     0.160 HD
HETATM    3  C5  UNL     1      35.390  -8.322   2.999  1.00  0.00     0.074 C 
ENDROOT
BRANCH   3   4
HETATM    4  C6  UNL     1      34.775  -9.384   2.091  1.00  0.00     0.096 C 
BRANCH   4   5
HETATM    5  C7  UNL     1      35.363  -9.114   0.747  1.00  0.00     0.133 C 
BRANCH   5   6
HETATM    6  N2  UNL     1      34.511  -8.933  -0.367  1.00  0.00    -0.350 N 
HETATM    7  C12 UNL     1      34.034  -9.992  -1.153  1.00  0.00     0.250 C 
HETATM    8  O1  UNL     1      33.260  -9.701  -2.131  1.00  0.00    -0.271 OA
BRANCH   6   9
HETATM    9  C8  UNL     1      34.033  -7.582  -0.713  1.00  0.00     0.127 C 
BRANCH   9  10
HETATM   10  C9  UNL     1      35.223  -6.693  -0.937  1.00  0.00     0.039 C 
BRANCH  10  11
HETATM   11  C10 UNL     1      35.578  -6.739  -2.419  1.00  0.00     0.123 C 
BRANCH  11  12
HETATM   12  N3  UNL     1      35.824  -5.398  -2.878  1.00  0.00    -0.369 N 
ATOM     13  H3  UNL     1      35.095  -4.914  -3.404  1.00  0.00     0.161 HD
BRANCH  12  14
HETATM   14  C11 UNL     1      37.038  -4.731  -2.625  1.00  0.00     0.180 C 
HETATM   15  N4  UNL     1      38.268  -5.486  -2.624  1.00  0.00    -0.070 NA
HETATM   16  S1  UNL     1      37.190  -3.145  -2.304  1.00  0.00    -0.044 SA
ENDBRANCH  12  14
ENDBRANCH  11  12
ENDBRANCH  10  11
ENDBRANCH   9  10
ENDBRANCH   6   9
BRANCH   7  17
HETATM   17  C13 UNL     1      34.349 -11.411  -0.936  1.00  0.00     0.277 C 
HETATM   18  C14 UNL     1      34.420 -12.233  -2.169  1.00  0.00     0.043 C 
HETATM   19  C15 UNL     1      33.451 -13.324  -2.367  1.00  0.00     0.004 C 
HETATM   20  C16 UNL     1      32.684 -13.758  -1.137  1.00  0.00     0.027 C 
HETATM   21  C17 UNL     1      32.260 -12.443  -0.464  1.00  0.00     0.233 C 
HETATM   22  N5  UNL     1      33.457 -11.895   0.089  1.00  0.00    -0.062 N 
ATOM     23  H52 UNL     1      33.923 -12.564   0.701  1.00  0.00     0.278 HD
ATOM     24  H51 UNL     1      33.250 -11.168   0.774  1.00  0.00     0.278 HD
ENDBRANCH   7  17
ENDBRANCH   5   6
ENDBRANCH   4   5
ENDBRANCH   3   4
BRANCH   3  25
HETATM   25  N6  UNL     1      35.032  -8.394   4.357  1.00  0.00    -0.380 N 
ATOM     26  H6  UNL     1      34.584  -7.562   4.742  1.00  0.00     0.160 HD
BRANCH  25  27
HETATM   27  C18 UNL     1      35.214  -9.480   5.264  1.00  0.00     0.121 C 
BRANCH  27  28
HETATM   28  C19 UNL     1      36.702  -9.665   5.551  1.00  0.00     0.021 C 
BRANCH  28  29
HETATM   29  C20 UNL     1      36.916 -11.178   5.629  1.00  0.00     0.021 C 
BRANCH  29  30
HETATM   30  C21 UNL     1      36.481 -11.787   4.339  1.00  0.00     0.126 C 
BRANCH  30  31
HETATM   31  N7  UNL     1      35.713 -13.023   4.585  1.00  0.00    -0.349 N 
HETATM   32  C22 UNL     1      35.936 -13.728   5.827  1.00  0.00     0.153 C 
HETATM   33  C23 UNL     1      35.302 -15.094   5.719  1.00  0.00     0.252 C 
HETATM   34  N8  UNL     1      35.486 -15.636   4.362  1.00  0.00    -0.065 N 
HETATM   35  C24 UNL     1      34.574 -14.959   3.459  1.00  0.00     0.334 C 
ATOM     36  H82 UNL     1      36.455 -15.582   4.049  1.00  0.00     0.277 HD
ATOM     37  H81 UNL     1      35.383 -16.650   4.331  1.00  0.00     0.277 HD
HETATM   38  C25 UNL     1      34.779 -13.502   3.636  1.00  0.00     0.245 C 
HETATM   39  O2  UNL     1      34.141 -12.633   2.959  1.00  0.00    -0.272 OA
ENDBRANCH  30  31
ENDBRANCH  29  30
ENDBRANCH  28  29
ENDBRANCH  27  28
ENDBRANCH  25  27
ENDBRANCH   3  25
BRANCH   1  40
HETATM   40  C4  UNL     1      36.897  -6.400   2.926  1.00  0.00     0.121 C 
BRANCH  40  41
HETATM   41  C3  UNL     1      38.230  -6.305   2.223  1.00  0.00     0.019 C 
BRANCH  41  42
HETATM   42  C2  UNL     1      38.141  -5.417   1.002  1.00  0.00    -0.003 C 
HETATM   43  C1  UNL     1      37.767  -4.010   1.412  1.00  0.00     0.005 C 
ENDBRANCH  41  42
ENDBRANCH  40  41
ENDBRANCH   1  40
TORSDOF 18
ENDMDL
MODEL 2
REMARK VINA RESULT: -6.829257552      3.355      8.850
REMARK  18 active torsions:
REMARK  status: ('A' for Active; 'I' for Inactive)
REMARK    1  A    between atoms: C2_2  and  C3_3 
REMARK    2  A    between atoms: C3_3  and  C4_4 
REMARK    3  A    between atoms: C4_4  and  N1_5 
REMARK    4  A    between atoms: C5_7  and  C6_8 
REMARK    5  A    between atoms: C5_7  and  N6_29 
REMARK    6  A    between atoms: C6_8  and  C7_9 
REMARK    7  A    between atoms: C7_9  and  N2_10 
REMARK    8  A    between atoms: N2_10  and  C8_11 
REMARK       I    between atoms: N2_10  and  C12_19 
REMARK    9  A    between atoms: C8_11  and  C9_12 
REMARK   10  A    between atoms: C9_12  and  C10_13 
REMARK   11  A    between atoms: C10_13  and  N3_14 
REMARK   12  A    between atoms: N3_14  and  C11_16 
REMARK   13  A    between atoms: C12_19  and  C13_21 
REMARK   14  A    between atoms: N6_29  and  C18_31 
REMARK   15  A    between atoms: C18_31  and  C19_32 
REMARK   16  A    between atoms: C19_32  and  C20_33 
REMARK   17  A    between atoms: C20_33  and  C21_34 
REMARK   18  A    between atoms: C21_34  and  N7_35 
ROOT
HETATM    1  N1  UNL     1      36.131  -7.560   3.945  1.00  0.00    -0.380 N 
ATOM      2  H1  UNL     1      36.656  -7.433   4.810  1.00  0.00     0.160 HD
HETATM    3  C5  UNL     1      35.367  -8.570   3.944  1.00  0.00     0.074 C 
ENDROOT
BRANCH   3   4
HETATM    4  C6  UNL     1      35.374  -9.399   5.226  1.00  0.00     0.096 C 
BRANCH   4   5
HETATM    5  C7  UNL     1      36.216 -10.587   4.900  1.00  0.00     0.133 C 
BRANCH   5   6
HETATM    6  N2  UNL     1      35.903 -11.844   5.466  1.00  0.00    -0.350 N 
HETATM    7  C12 UNL     1      36.834 -12.628   6.163  1.00  0.00     0.250 C 
HETATM    8  O1  UNL     1      36.428 -13.746   6.638  1.00  0.00    -0.271 OA
BRANCH   6   9
HETATM    9  C8  UNL     1      34.524 -12.360   5.390  1.00  0.00     0.127 C 
BRANCH   9  10
HETATM   10  C9  UNL     1      34.199 -12.653   3.953  1.00  0.00     0.039 C 
BRANCH  10  11
HETATM   11  C10 UNL     1      34.464 -14.132   3.697  1.00  0.00     0.123 C 
BRANCH  11  12
HETATM   12  N3  UNL     1      34.067 -14.881   4.859  1.00  0.00    -0.369 N 
ATOM     13  H3  UNL     1      33.374 -14.480   5.493  1.00  0.00     0.161 HD
BRANCH  12  14
HETATM   14  C11 UNL     1      34.603 -16.150   5.151  1.00  0.00     0.180 C 
HETATM   15  N4  UNL     1      34.244 -16.798   6.390  1.00  0.00    -0.070 NA
HETATM   16  S1  UNL     1      35.636 -16.974   4.204  1.00  0.00    -0.044 SA
ENDBRANCH  12  14
ENDBRANCH  11  12
ENDBRANCH  10  11
ENDBRANCH   9  10
ENDBRANCH   6   9
BRANCH   7  17
HETATM   17  C13 UNL     1      38.239 -12.263   6.395  1.00  0.00     0.277 C 
HETATM   18  C14 UNL     1      39.175 -13.408   6.504  1.00  0.00     0.043 C 
HETATM   19  C15 UNL     1      39.881 -13.646   7.774  1.00  0.00     0.004 C 
HETATM   20  C16 UNL     1      39.876 -12.498   8.758  1.00  0.00     0.027 C 
HETATM   21  C17 UNL     1      38.426 -11.990   8.749  1.00  0.00     0.233 C 
HETATM   22  N5  UNL     1      38.261 -11.329   7.494  1.00  0.00    -0.062 N 
ATOM     23  H52 UNL     1      38.971 -10.611   7.357  1.00  0.00     0.278 HD
ATOM     24  H51 UNL     1      37.431 -10.736   7.494  1.00  0.00     0.278 HD
ENDBRANCH   7  17
ENDBRANCH   5   6
ENDBRANCH   4   5
ENDBRANCH   3   4
BRANCH   3  25
HETATM   25  N6  UNL     1      34.514  -9.024   2.924  1.00  0.00    -0.380 N 
ATOM     26  H6  UNL     1      33.520  -8.846   3.064  1.00  0.00     0.160 HD
BRANCH  25  27
HETATM   27  C18 UNL     1      34.861  -9.703   1.717  1.00  0.00     0.121 C 
BRANCH  27  28
HETATM   28  C19 UNL     1      34.743  -8.743   0.536  1.00  0.00     0.021 C 
BRANCH  28  29
HETATM   29  C20 UNL     1      33.993  -9.522  -0.547  1.00  0.00     0.021 C 
BRANCH  29  30
HETATM   30  C21 UNL     1      33.201  -8.559  -1.364  1.00  0.00     0.126 C 
BRANCH  30  31
HETATM   31  N7  UNL     1      34.080  -7.521  -1.936  1.00  0.00    -0.349 N 
HETATM   32  C22 UNL     1      34.980  -7.902  -3.001  1.00  0.00     0.153 C 
HETATM   33  C23 UNL     1      35.981  -6.790  -3.198  1.00  0.00     0.252 C 
HETATM   34  N8  UNL     1      36.362  -6.209  -1.899  1.00  0.00    -0.065 N 
HETATM   35  C24 UNL     1      35.277  -5.372  -1.423  1.00  0.00     0.334 C 
ATOM     36  H82 UNL     1      36.632  -6.919  -1.219  1.00  0.00     0.277 HD
ATOM     37  H81 UNL     1      37.250  -5.708  -1.942  1.00  0.00     0.277 HD
HETATM   38  C25 UNL     1      34.041  -6.189  -1.461  1.00  0.00     0.245 C 
HETATM   39  O2  UNL     1      32.913  -5.743  -1.076  1.00  0.00    -0.272 OA
ENDBRANCH  30  31
ENDBRANCH  29  30
ENDBRANCH  28  29
ENDBRANCH  27  28
ENDBRANCH  25  27
ENDBRANCH   3  25
BRANCH   1  40
HETATM   40  C4  UNL     1      36.388  -6.577   2.965  1.00  0.00     0.121 C 
BRANCH  40  41
HETATM   41  C3  UNL     1      37.579  -6.975   2.127  1.00  0.00     0.019 C 
BRANCH  41  42
HETATM   42  C2  UNL     1      38.578  -5.844   2.027  1.00  0.00    -0.003 C 
HETATM   43  C1  UNL     1      37.938  -4.647   1.360  1.00  0.00     0.005 C 
ENDBRANCH  41  42
ENDBRANCH  40  41
ENDBRANCH   1  40
TORSDOF 18
ENDMDL
MODEL 3
REMARK VINA RESULT: -6.804990992      2.371      4.935
REMARK  18 active torsions:
REMARK  status: ('A' for Active; 'I' for Inactive)
REMARK    1  A    between atoms: C2_2  and  C3_3 
REMARK    2  A    between atoms: C3_3  and  C4_4 
REMARK    3  A    between atoms: C4_4  and  N1_5 
REMARK    4  A    between atoms: C5_7  and  C6_8 
REMARK    5  A    between atoms: C5_7  and  N6_29 
REMARK    6  A    between atoms: C6_8  and  C7_9 
REMARK    7  A    between atoms: C7_9  and  N2_10 
REMARK    8  A    between atoms: N2_10  and  C8_11 
REMARK       I    between atoms: N2_10  and  C12_19 
REMARK    9  A    between atoms: C8_11  and  C9_12 
REMARK   10  A    between atoms: C9_12  and  C10_13 
REMARK   11  A    between atoms: C10_13  and  N3_14 
REMARK   12  A    between atoms: N3_14  and  C11_16 
REMARK   13  A    between atoms: C12_19  and  C13_21 
REMARK   14  A    between atoms: N6_29  and  C18_31 
REMARK   15  A    between atoms: C18_31  and  C19_32 
REMARK   16  A    between atoms: C19_32  and  C20_33 
REMARK   17  A    between atoms: C20_33  and  C21_34 
REMARK   18  A    between atoms: C21_34  and  N7_35 
ROOT
HETATM    1  N1  UNL     1      36.115  -7.836   1.676  1.00  0.00    -0.380 N 
ATOM      2  H1  UNL     1      36.283  -7.704   0.679  1.00  0.00     0.160 HD
HETATM    3  C5  UNL     1      35.146  -8.608   1.941  1.00  0.00     0.074 C 
ENDROOT
BRANCH   3   4
HETATM    4  C6  UNL     1      34.420  -9.190   0.731  1.00  0.00     0.096 C 
BRANCH   4   5
HETATM    5  C7  UNL     1      35.013  -8.482  -0.440  1.00  0.00     0.133 C 
BRANCH   5   6
HETATM    6  N2  UNL     1      34.176  -7.752  -1.315  1.00  0.00    -0.350 N 
HETATM    7  C12 UNL     1      34.348  -6.386  -1.585  1.00  0.00     0.250 C 
HETATM    8  O1  UNL     1      33.530  -5.838  -2.404  1.00  0.00    -0.271 OA
BRANCH   6   9
HETATM    9  C8  UNL     1      33.094  -8.442  -2.041  1.00  0.00     0.127 C 
BRANCH   9  10
HETATM   10  C9  UNL     1      33.624  -8.901  -3.370  1.00  0.00     0.039 C 
BRANCH  10  11
HETATM   11  C10 UNL     1      33.806 -10.414  -3.312  1.00  0.00     0.123 C 
BRANCH  11  12
HETATM   12  N3  UNL     1      32.842 -10.961  -2.395  1.00  0.00    -0.369 N 
ATOM     13  H3  UNL     1      31.959 -10.469  -2.254  1.00  0.00     0.161 HD
BRANCH  12  14
HETATM   14  C11 UNL     1      33.078 -12.155  -1.685  1.00  0.00     0.180 C 
HETATM   15  N4  UNL     1      32.693 -12.235  -0.296  1.00  0.00    -0.070 NA
HETATM   16  S1  UNL     1      33.782 -13.487  -2.295  1.00  0.00    -0.044 SA
ENDBRANCH  12  14
ENDBRANCH  11  12
ENDBRANCH  10  11
ENDBRANCH   9  10
ENDBRANCH   6   9
BRANCH   7  17
HETATM   17  C13 UNL     1      35.399  -5.538  -1.005  1.00  0.00     0.277 C 
HETATM   18  C14 UNL     1      35.039  -4.106  -0.860  1.00  0.00     0.043 C 
HETATM   19  C15 UNL     1      35.785  -3.093  -1.626  1.00  0.00     0.004 C 
HETATM   20  C16 UNL     1      37.095  -3.550  -2.226  1.00  0.00     0.027 C 
HETATM   21  C17 UNL     1      36.779  -4.923  -2.840  1.00  0.00     0.233 C 
HETATM   22  N5  UNL     1      36.614  -5.808  -1.732  1.00  0.00    -0.062 N 
ATOM     23  H52 UNL     1      37.427  -5.787  -1.117  1.00  0.00     0.278 HD
ATOM     24  H51 UNL     1      36.662  -6.783  -2.026  1.00  0.00     0.278 HD
ENDBRANCH   7  17
ENDBRANCH   5   6
ENDBRANCH   4   5
ENDBRANCH   3   4
BRANCH   3  25
HETATM   25  N6  UNL     1      34.656  -9.001   3.199  1.00  0.00    -0.380 N 
ATOM     26  H6  UNL     1      33.641  -9.062   3.281  1.00  0.00     0.160 HD
BRANCH  25  27
HETATM   27  C18 UNL     1      35.397  -9.325   4.375  1.00  0.00     0.121 C 
BRANCH  27  28
HETATM   28  C19 UNL     1      36.495 -10.328   4.030  1.00  0.00     0.021 C 
BRANCH  28  29
HETATM   29  C20 UNL     1      36.437 -11.388   5.132  1.00  0.00     0.021 C 
BRANCH  29  30
HETATM   30  C21 UNL     1      35.009 -11.627   5.489  1.00  0.00     0.126 C 
BRANCH  30  31
HETATM   31  N7  UNL     1      34.543 -12.908   4.924  1.00  0.00    -0.349 N 
HETATM   32  C22 UNL     1      34.407 -14.037   5.817  1.00  0.00     0.153 C 
HETATM   33  C23 UNL     1      34.238 -15.284   4.984  1.00  0.00     0.252 C 
HETATM   34  N8  UNL     1      35.090 -15.217   3.785  1.00  0.00    -0.065 N 
HETATM   35  C24 UNL     1      34.490 -14.301   2.833  1.00  0.00     0.334 C 
ATOM     36  H82 UNL     1      36.055 -14.972   4.006  1.00  0.00     0.277 HD
ATOM     37  H81 UNL     1      35.266 -16.138   3.381  1.00  0.00     0.277 HD
HETATM   38  C25 UNL     1      34.232 -13.029   3.550  1.00  0.00     0.245 C 
HETATM   39  O2  UNL     1      33.731 -12.009   2.975  1.00  0.00    -0.272 OA
ENDBRANCH  30  31
ENDBRANCH  29  30
ENDBRANCH  28  29
ENDBRANCH  27  28
ENDBRANCH  25  27
ENDBRANCH   3  25
BRANCH   1  40
HETATM   40  C4  UNL     1      37.004  -7.125   2.510  1.00  0.00     0.121 C 
BRANCH  40  41
HETATM   41  C3  UNL     1      36.893  -5.643   2.248  1.00  0.00     0.019 C 
BRANCH  41  42
HETATM   42  C2  UNL     1      38.114  -5.125   1.521  1.00  0.00    -0.003 C 
HETATM   43  C1  UNL     1      38.014  -3.626   1.346  1.00  0.00     0.005 C 
ENDBRANCH  41  42
ENDBRANCH  40  41
ENDBRANCH   1  40
TORSDOF 18
ENDMDL
MODEL 4
REMARK VINA RESULT: -6.708012851      4.002      9.128
REMARK  18 active torsions:
REMARK  status: ('A' for Active; 'I' for Inactive)
REMARK    1  A    between atoms: C2_2  and  C3_3 
REMARK    2  A    between atoms: C3_3  and  C4_4 
REMARK    3  A    between atoms: C4_4  and  N1_5 
REMARK    4  A    between atoms: C5_7  and  C6_8 
REMARK    5  A    between atoms: C5_7  and  N6_29 
REMARK    6  A    between atoms: C6_8  and  C7_9 
REMARK    7  A    between atoms: C7_9  and  N2_10 
REMARK    8  A    between atoms: N2_10  and  C8_11 
REMARK       I    between atoms: N2_10  and  C12_19 
REMARK    9  A    between atoms: C8_11  and  C9_12 
REMARK   10  A    between atoms: C9_12  and  C10_13 
REMARK   11  A    between atoms: C10_13  and  N3_14 
REMARK   12  A    between atoms: N3_14  and  C11_16 
REMARK   13  A    between atoms: C12_19  and  C13_21 
REMARK   14  A    between atoms: N6_29  and  C18_31 
REMARK   15  A    between atoms: C18_31  and  C19_32 
REMARK   16  A    between atoms: C19_32  and  C20_33 
REMARK   17  A    between atoms: C20_33  and  C21_34 
REMARK   18  A    between atoms: C21_34  and  N7_35 
ROOT
HETATM    1  N1  UNL     1      35.473 -10.382   2.797  1.00  0.00    -0.380 N 
ATOM      2  H1  UNL     1      35.768 -11.314   3.089  1.00  0.00     0.160 HD
HETATM    3  C5  UNL     1      35.544  -9.506   3.709  1.00  0.00     0.074 C 
ENDROOT
BRANCH   3   4
HETATM    4  C6  UNL     1      36.054 -10.003   5.060  1.00  0.00     0.096 C 
BRANCH   4   5
HETATM    5  C7  UNL     1      37.132 -10.976   4.719  1.00  0.00     0.133 C 
BRANCH   5   6
HETATM    6  N2  UNL     1      37.390 -12.067   5.582  1.00  0.00    -0.350 N 
HETATM    7  C12 UNL     1      36.488 -13.123   5.779  1.00  0.00     0.250 C 
HETATM    8  O1  UNL     1      36.841 -14.059   6.578  1.00  0.00    -0.271 OA
BRANCH   6   9
HETATM    9  C8  UNL     1      38.685 -12.159   6.279  1.00  0.00     0.127 C 
BRANCH   9  10
HETATM   10  C9  UNL     1      38.669 -11.220   7.451  1.00  0.00     0.039 C 
BRANCH  10  11
HETATM   11  C10 UNL     1      38.493 -12.046   8.720  1.00  0.00     0.123 C 
BRANCH  11  12
HETATM   12  N3  UNL     1      38.984 -11.286   9.839  1.00  0.00    -0.369 N 
ATOM     13  H3  UNL     1      38.313 -10.866  10.484  1.00  0.00     0.161 HD
BRANCH  12  14
HETATM   14  C11 UNL     1      40.361 -11.101  10.072  1.00  0.00     0.180 C 
HETATM   15  N4  UNL     1      40.833  -9.810  10.513  1.00  0.00    -0.070 NA
HETATM   16  S1  UNL     1      41.508 -12.234   9.868  1.00  0.00    -0.044 SA
ENDBRANCH  12  14
ENDBRANCH  11  12
ENDBRANCH  10  11
ENDBRANCH   9  10
ENDBRANCH   6   9
BRANCH   7  17
HETATM   17  C13 UNL     1      35.174 -13.241   5.132  1.00  0.00     0.277 C 
HETATM   18  C14 UNL     1      34.141 -13.941   5.935  1.00  0.00     0.043 C 
HETATM   19  C15 UNL     1      33.584 -15.214   5.445  1.00  0.00     0.004 C 
HETATM   20  C16 UNL     1      33.841 -15.530   3.989  1.00  0.00     0.027 C 
HETATM   21  C17 UNL     1      35.324 -15.188   3.777  1.00  0.00     0.233 C 
HETATM   22  N5  UNL     1      35.395 -13.762   3.806  1.00  0.00    -0.062 N 
ATOM     23  H52 UNL     1      34.755 -13.345   3.132  1.00  0.00     0.278 HD
ATOM     24  H51 UNL     1      36.277 -13.427   3.418  1.00  0.00     0.278 HD
ENDBRANCH   7  17
ENDBRANCH   5   6
ENDBRANCH   4   5
ENDBRANCH   3   4
BRANCH   3  25
HETATM   25  N6  UNL     1      35.221  -8.140   3.641  1.00  0.00    -0.380 N 
ATOM     26  H6  UNL     1      34.233  -7.911   3.753  1.00  0.00     0.160 HD
BRANCH  25  27
HETATM   27  C18 UNL     1      36.097  -7.032   3.434  1.00  0.00     0.121 C 
BRANCH  27  28
HETATM   28  C19 UNL     1      37.163  -7.406   2.407  1.00  0.00     0.021 C 
BRANCH  28  29
HETATM   29  C20 UNL     1      37.922  -6.109   2.119  1.00  0.00     0.021 C 
BRANCH  29  30
HETATM   30  C21 UNL     1      36.941  -5.066   1.700  1.00  0.00     0.126 C 
BRANCH  30  31
HETATM   31  N7  UNL     1      37.060  -4.798   0.254  1.00  0.00    -0.349 N 
HETATM   32  C22 UNL     1      36.192  -5.522  -0.648  1.00  0.00     0.153 C 
HETATM   33  C23 UNL     1      36.703  -5.332  -2.055  1.00  0.00     0.252 C 
HETATM   34  N8  UNL     1      38.176  -5.335  -2.069  1.00  0.00    -0.065 N 
HETATM   35  C24 UNL     1      38.653  -4.068  -1.547  1.00  0.00     0.334 C 
ATOM     36  H82 UNL     1      38.568  -6.133  -1.571  1.00  0.00     0.277 HD
ATOM     37  H81 UNL     1      38.556  -5.543  -2.993  1.00  0.00     0.277 HD
HETATM   38  C25 UNL     1      37.991  -3.854  -0.238  1.00  0.00     0.245 C 
HETATM   39  O2  UNL     1      38.225  -2.835   0.488  1.00  0.00    -0.272 OA
ENDBRANCH  30  31
ENDBRANCH  29  30
ENDBRANCH  28  29
ENDBRANCH  27  28
ENDBRANCH  25  27
ENDBRANCH   3  25
BRANCH   1  40
HETATM   40  C4  UNL     1      35.059 -10.303   1.451  1.00  0.00     0.121 C 
BRANCH  40  41
HETATM   41  C3  UNL     1      34.413 -11.600   1.026  1.00  0.00     0.019 C 
BRANCH  41  42
HETATM   42  C2  UNL     1      33.920 -11.522  -0.401  1.00  0.00    -0.003 C 
HETATM   43  C1  UNL     1      32.823 -12.539  -0.625  1.00  0.00     0.005 C 
ENDBRANCH  41  42
ENDBRANCH  40  41
ENDBRANCH   1  40
TORSDOF 18
ENDMDL
MODEL 5
REMARK VINA RESULT: -6.687443959      1.981      2.595
REMARK  18 active torsions:
REMARK  status: ('A' for Active; 'I' for Inactive)
REMARK    1  A    between atoms: C2_2  and  C3_3 
REMARK    2  A    between atoms: C3_3  and  C4_4 
REMARK    3  A    between atoms: C4_4  and  N1_5 
REMARK    4  A    between atoms: C5_7  and  C6_8 
REMARK    5  A    between atoms: C5_7  and  N6_29 
REMARK    6  A    between atoms: C6_8  and  C7_9 
REMARK    7  A    between atoms: C7_9  and  N2_10 
REMARK    8  A    between atoms: N2_10  and  C8_11 
REMARK       I    between atoms: N2_10  and  C12_19 
REMARK    9  A    between atoms: C8_11  and  C9_12 
REMARK   10  A    between atoms: C9_12  and  C10_13 
REMARK   11  A    between atoms: C10_13  and  N3_14 
REMARK   12  A    between atoms: N3_14  and  C11_16 
REMARK   13  A    between atoms: C12_19  and  C13_21 
REMARK   14  A    between atoms: N6_29  and  C18_31 
REMARK   15  A    between atoms: C18_31  and  C19_32 
REMARK   16  A    between atoms: C19_32  and  C20_33 
REMARK   17  A    between atoms: C20_33  and  C21_34 
REMARK   18  A    between atoms: C21_34  and  N7_35 
ROOT
HETATM    1  N1  UNL     1      36.117  -7.615   2.452  1.00  0.00    -0.380 N 
ATOM      2  H1  UNL     1      36.239  -7.715   1.444  1.00  0.00     0.160 HD
HETATM    3  C5  UNL     1      35.348  -8.479   2.968  1.00  0.00     0.074 C 
ENDROOT
BRANCH   3   4
HETATM    4  C6  UNL     1      34.755  -9.496   1.997  1.00  0.00     0.096 C 
BRANCH   4   5
HETATM    5  C7  UNL     1      35.345  -9.140   0.674  1.00  0.00     0.133 C 
BRANCH   5   6
HETATM    6  N2  UNL     1      34.499  -8.953  -0.444  1.00  0.00    -0.350 N 
HETATM    7  C12 UNL     1      34.043 -10.007  -1.250  1.00  0.00     0.250 C 
HETATM    8  O1  UNL     1      33.273  -9.713  -2.229  1.00  0.00    -0.271 OA
BRANCH   6   9
HETATM    9  C8  UNL     1      34.004  -7.604  -0.772  1.00  0.00     0.127 C 
BRANCH   9  10
HETATM   10  C9  UNL     1      35.175  -6.736  -1.132  1.00  0.00     0.039 C 
BRANCH  10  11
HETATM   11  C10 UNL     1      35.511  -6.975  -2.600  1.00  0.00     0.123 C 
BRANCH  11  12
HETATM   12  N3  UNL     1      35.876  -5.720  -3.201  1.00  0.00    -0.369 N 
ATOM     13  H3  UNL     1      35.377  -5.408  -4.034  1.00  0.00     0.161 HD
BRANCH  12  14
HETATM   14  C11 UNL     1      36.901  -4.909  -2.677  1.00  0.00     0.180 C 
HETATM   15  N4  UNL     1      38.238  -5.444  -2.575  1.00  0.00    -0.070 NA
HETATM   16  S1  UNL     1      36.714  -3.387  -2.141  1.00  0.00    -0.044 SA
ENDBRANCH  12  14
ENDBRANCH  11  12
ENDBRANCH  10  11
ENDBRANCH   9  10
ENDBRANCH   6   9
BRANCH   7  17
HETATM   17  C13 UNL     1      34.378 -11.425  -1.052  1.00  0.00     0.277 C 
HETATM   18  C14 UNL     1      34.437 -12.234  -2.294  1.00  0.00     0.043 C 
HETATM   19  C15 UNL     1      33.476 -13.333  -2.487  1.00  0.00     0.004 C 
HETATM   20  C16 UNL     1      32.736 -13.788  -1.249  1.00  0.00     0.027 C 
HETATM   21  C17 UNL     1      32.309 -12.485  -0.555  1.00  0.00     0.233 C 
HETATM   22  N5  UNL     1      33.509 -11.929  -0.017  1.00  0.00    -0.062 N 
ATOM     23  H52 UNL     1      33.993 -12.598   0.580  1.00  0.00     0.278 HD
ATOM     24  H51 UNL     1      33.306 -11.211   0.678  1.00  0.00     0.278 HD
ENDBRANCH   7  17
ENDBRANCH   5   6
ENDBRANCH   4   5
ENDBRANCH   3   4
BRANCH   3  25
HETATM   25  N6  UNL     1      34.972  -8.625   4.315  1.00  0.00    -0.380 N 
ATOM     26  H6  UNL     1      34.099  -8.173   4.585  1.00  0.00     0.160 HD
BRANCH  25  27
HETATM   27  C18 UNL     1      35.657  -9.326   5.353  1.00  0.00     0.121 C 
BRANCH  27  28
HETATM   28  C19 UNL     1      35.570 -10.830   5.102  1.00  0.00     0.021 C 
BRANCH  28  29
HETATM   29  C20 UNL     1      37.018 -11.306   4.982  1.00  0.00     0.021 C 
BRANCH  29  30
HETATM   30  C21 UNL     1      37.156 -12.600   5.712  1.00  0.00     0.126 C 
BRANCH  30  31
HETATM   31  N7  UNL     1      38.187 -12.492   6.762  1.00  0.00    -0.349 N 
HETATM   32  C22 UNL     1      38.652 -11.173   7.128  1.00  0.00     0.153 C 
HETATM   33  C23 UNL     1      39.900 -11.323   7.963  1.00  0.00     0.252 C 
HETATM   34  N8  UNL     1      40.727 -12.430   7.452  1.00  0.00    -0.065 N 
HETATM   35  C24 UNL     1      40.117 -13.688   7.839  1.00  0.00     0.334 C 
ATOM     36  H82 UNL     1      40.883 -12.367   6.446  1.00  0.00     0.277 HD
ATOM     37  H81 UNL     1      41.699 -12.361   7.752  1.00  0.00     0.277 HD
HETATM   38  C25 UNL     1      38.701 -13.645   7.401  1.00  0.00     0.245 C 
HETATM   39  O2  UNL     1      37.901 -14.620   7.573  1.00  0.00    -0.272 OA
ENDBRANCH  30  31
ENDBRANCH  29  30
ENDBRANCH  28  29
ENDBRANCH  27  28
ENDBRANCH  25  27
ENDBRANCH   3  25
BRANCH   1  40
HETATM   40  C4  UNL     1      36.836  -6.541   3.017  1.00  0.00     0.121 C 
BRANCH  40  41
HETATM   41  C3  UNL     1      38.133  -6.333   2.273  1.00  0.00     0.019 C 
BRANCH  41  42
HETATM   42  C2  UNL     1      37.923  -5.491   1.035  1.00  0.00    -0.003 C 
HETATM   43  C1  UNL     1      37.880  -4.026   1.408  1.00  0.00     0.005 C 
ENDBRANCH  41  42
ENDBRANCH  40  41
ENDBRANCH   1  40
TORSDOF 18
ENDMDL
