MODEL 1
REMARK VINA RESULT: -7.068888042      0.000      0.000
REMARK  3 active torsions:
REMARK  status: ('A' for Active; 'I' for Inactive)
REMARK    1  A    between atoms: C4_5  and  S1_6 
REMARK    2  A    between atoms: S1_6  and  N2_9 
REMARK    3  A    between atoms: N2_9  and  C5_11 
ROOT
HETATM    1  S1  UNL     1     -19.843  25.813  -0.722  1.00  0.00     0.276 S 
HETATM    2  O1  UNL     1     -20.438  24.494  -1.132  1.00  0.00    -0.200 OA
HETATM    3  O2  UNL     1     -20.902  26.884  -0.924  1.00  0.00    -0.200 OA
ENDROOT
BRANCH   1   4
HETATM    4  C4  UNL     1     -18.423  26.183  -1.698  1.00  0.00     0.080 A 
HETATM    5  C3  UNL     1     -18.524  26.884  -2.874  1.00  0.00     0.027 A 
HETATM    6  C2  UNL     1     -17.413  27.173  -3.637  1.00  0.00     0.028 A 
HETATM    7  C1  UNL     1     -16.141  26.767  -3.249  1.00  0.00     0.046 A 
HETATM    8  N1  UNL     1     -14.995  27.058  -4.024  1.00  0.00    -0.102 NA
HETATM    9  C8  UNL     1     -16.060  26.058  -2.055  1.00  0.00     0.028 A 
HETATM   10  C7  UNL     1     -17.168  25.772  -1.298  1.00  0.00     0.027 A 
ENDBRANCH   1   4
BRANCH   1  11
HETATM   11  N2  UNL     1     -19.346  25.800   0.930  1.00  0.00    -0.111 N 
ATOM     12  H2  UNL     1     -18.417  26.128   1.197  1.00  0.00     0.197 HD
BRANCH  11  13
HETATM   13  C5  UNL     1     -20.184  25.363   1.831  1.00  0.00     0.707 A 
HETATM   14  N3  UNL     1     -19.982  24.345   2.688  1.00  0.00    -0.185 N 
HETATM   15  C6  UNL     1     -21.100  24.223   3.448  1.00  0.00     0.215 A 
ATOM     16  H3  UNL     1     -19.143  23.769   2.753  1.00  0.00     0.185 HD
HETATM   17  N4  UNL     1     -21.982  25.156   3.064  1.00  0.00    -0.281 N 
HETATM   18  N5  UNL     1     -21.419  25.837   2.090  1.00  0.00    -0.130 N 
ATOM     19  H4  UNL     1     -22.913  25.309   3.453  1.00  0.00     0.188 HD
ATOM     20  H5  UNL     1     -21.857  26.615   1.597  1.00  0.00     0.205 HD
ENDBRANCH  11  13
ENDBRANCH   1  11
TORSDOF 3
ENDMDL
MODEL 2
REMARK VINA RESULT: -7.064141325      0.047      1.181
REMARK  3 active torsions:
REMARK  status: ('A' for Active; 'I' for Inactive)
REMARK    1  A    between atoms: C4_5  and  S1_6 
REMARK    2  A    between atoms: S1_6  and  N2_9 
REMARK    3  A    between atoms: N2_9  and  C5_11 
ROOT
HETATM    1  S1  UNL     1     -19.822  25.813  -0.746  1.00  0.00     0.276 S 
HETATM    2  O1  UNL     1     -20.443  24.511  -1.171  1.00  0.00    -0.200 OA
HETATM    3  O2  UNL     1     -20.858  26.907  -0.941  1.00  0.00    -0.200 OA
ENDROOT
BRANCH   1   4
HETATM    4  C4  UNL     1     -18.391  26.163  -1.715  1.00  0.00     0.080 A 
HETATM    5  C3  UNL     1     -17.143  25.743  -1.328  1.00  0.00     0.027 A 
HETATM    6  C2  UNL     1     -16.024  26.017  -2.086  1.00  0.00     0.028 A 
HETATM    7  C1  UNL     1     -16.112  26.732  -3.275  1.00  0.00     0.046 A 
HETATM    8  N1  UNL     1     -14.971  27.018  -4.061  1.00  0.00    -0.102 NA
HETATM    9  C8  UNL     1     -17.385  27.149  -3.650  1.00  0.00     0.028 A 
HETATM   10  C7  UNL     1     -18.496  26.874  -2.893  1.00  0.00     0.027 A 
ENDBRANCH   1   4
BRANCH   1  11
HETATM   11  N2  UNL     1     -19.330  25.774   0.906  1.00  0.00    -0.111 N 
ATOM     12  H2  UNL     1     -18.397  26.084   1.180  1.00  0.00     0.197 HD
BRANCH  11  13
HETATM   13  C5  UNL     1     -20.177  25.340   1.800  1.00  0.00     0.707 A 
HETATM   14  N3  UNL     1     -19.994  24.307   2.644  1.00  0.00    -0.185 N 
HETATM   15  C6  UNL     1     -21.116  24.195   3.401  1.00  0.00     0.215 A 
ATOM     16  H3  UNL     1     -19.165  23.716   2.704  1.00  0.00     0.185 HD
HETATM   17  N4  UNL     1     -21.981  25.148   3.027  1.00  0.00    -0.281 N 
HETATM   18  N5  UNL     1     -21.404  25.831   2.063  1.00  0.00    -0.130 N 
ATOM     19  H4  UNL     1     -22.909  25.312   3.416  1.00  0.00     0.188 HD
ATOM     20  H5  UNL     1     -21.828  26.623   1.580  1.00  0.00     0.205 HD
ENDBRANCH  11  13
ENDBRANCH   1  11
TORSDOF 3
ENDMDL
MODEL 3
REMARK VINA RESULT: -7.036564241      1.838      2.516
REMARK  3 active torsions:
REMARK  status: ('A' for Active; 'I' for Inactive)
REMARK    1  A    between atoms: C4_5  and  S1_6 
REMARK    2  A    between atoms: S1_6  and  N2_9 
REMARK    3  A    between atoms: N2_9  and  C5_11 
ROOT
HETATM    1  S1  UNL     1     -18.956  27.075  -2.297  1.00  0.00     0.276 S 
HETATM    2  O1  UNL     1     -19.556  27.699  -3.527  1.00  0.00    -0.200 OA
HETATM    3  O2  UNL     1     -19.065  28.082  -1.164  1.00  0.00    -0.200 OA
ENDROOT
BRANCH   1   4
HETATM    4  C4  UNL     1     -17.263  26.665  -2.572  1.00  0.00     0.080 A 
HETATM    5  C3  UNL     1     -16.541  25.948  -1.651  1.00  0.00     0.027 A 
HETATM    6  C2  UNL     1     -15.217  25.628  -1.867  1.00  0.00     0.028 A 
HETATM    7  C1  UNL     1     -14.557  26.017  -3.027  1.00  0.00     0.046 A 
HETATM    8  N1  UNL     1     -13.199  25.693  -3.258  1.00  0.00    -0.102 NA
HETATM    9  C8  UNL     1     -15.306  26.742  -3.948  1.00  0.00     0.028 A 
HETATM   10  C7  UNL     1     -16.623  27.060  -3.729  1.00  0.00     0.027 A 
ENDBRANCH   1   4
BRANCH   1  11
HETATM   11  N2  UNL     1     -19.774  25.623  -1.856  1.00  0.00    -0.111 N 
ATOM     12  H2  UNL     1     -20.088  24.964  -2.570  1.00  0.00     0.197 HD
BRANCH  11  13
HETATM   13  C5  UNL     1     -19.984  25.383  -0.590  1.00  0.00     0.707 A 
HETATM   14  N3  UNL     1     -19.504  24.345   0.120  1.00  0.00    -0.185 N 
HETATM   15  C6  UNL     1     -19.960  24.476   1.393  1.00  0.00     0.215 A 
ATOM     16  H3  UNL     1     -18.907  23.597  -0.233  1.00  0.00     0.185 HD
HETATM   17  N4  UNL     1     -20.713  25.582   1.466  1.00  0.00    -0.281 N 
HETATM   18  N5  UNL     1     -20.720  26.120   0.266  1.00  0.00    -0.130 N 
ATOM     19  H4  UNL     1     -21.190  25.938   2.293  1.00  0.00     0.188 HD
ATOM     20  H5  UNL     1     -21.214  26.976   0.016  1.00  0.00     0.205 HD
ENDBRANCH  11  13
ENDBRANCH   1  11
TORSDOF 3
ENDMDL
MODEL 4
REMARK VINA RESULT: -6.965078075      1.725      2.078
REMARK  3 active torsions:
REMARK  status: ('A' for Active; 'I' for Inactive)
REMARK    1  A    between atoms: C4_5  and  S1_6 
REMARK    2  A    between atoms: S1_6  and  N2_9 
REMARK    3  A    between atoms: N2_9  and  C5_11 
ROOT
HETATM    1  S1  UNL     1     -19.060  27.029  -2.116  1.00  0.00     0.276 S 
HETATM    2  O1  UNL     1     -19.773  27.628  -3.297  1.00  0.00    -0.200 OA
HETATM    3  O2  UNL     1     -19.124  28.033  -0.976  1.00  0.00    -0.200 OA
ENDROOT
BRANCH   1   4
HETATM    4  C4  UNL     1     -17.378  26.684  -2.516  1.00  0.00     0.080 A 
HETATM    5  C3  UNL     1     -16.792  27.193  -3.648  1.00  0.00     0.027 A 
HETATM    6  C2  UNL     1     -15.476  26.922  -3.961  1.00  0.00     0.028 A 
HETATM    7  C1  UNL     1     -14.687  26.122  -3.143  1.00  0.00     0.046 A 
HETATM    8  N1  UNL     1     -13.336  25.839  -3.454  1.00  0.00    -0.102 NA
HETATM    9  C8  UNL     1     -15.299  25.616  -2.001  1.00  0.00     0.028 A 
HETATM   10  C7  UNL     1     -16.608  25.887  -1.693  1.00  0.00     0.027 A 
ENDBRANCH   1   4
BRANCH   1  11
HETATM   11  N2  UNL     1     -19.788  25.547  -1.618  1.00  0.00    -0.111 N 
ATOM     12  H2  UNL     1     -20.011  24.821  -2.300  1.00  0.00     0.197 HD
BRANCH  11  13
HETATM   13  C5  UNL     1     -20.047  25.373  -0.350  1.00  0.00     0.707 A 
HETATM   14  N3  UNL     1     -19.548  24.410   0.446  1.00  0.00    -0.185 N 
HETATM   15  C6  UNL     1     -20.073  24.591   1.685  1.00  0.00     0.215 A 
ATOM     16  H3  UNL     1     -18.894  23.677   0.170  1.00  0.00     0.185 HD
HETATM   17  N4  UNL     1     -20.888  25.654   1.652  1.00  0.00    -0.281 N 
HETATM   18  N5  UNL     1     -20.864  26.117   0.422  1.00  0.00    -0.130 N 
ATOM     19  H4  UNL     1     -21.425  26.032   2.433  1.00  0.00     0.188 HD
ATOM     20  H5  UNL     1     -21.391  26.927   0.096  1.00  0.00     0.205 HD
ENDBRANCH  11  13
ENDBRANCH   1  11
TORSDOF 3
ENDMDL
MODEL 5
REMARK VINA RESULT: -6.756793079      2.794      6.859
REMARK  3 active torsions:
REMARK  status: ('A' for Active; 'I' for Inactive)
REMARK    1  A    between atoms: C4_5  and  S1_6 
REMARK    2  A    between atoms: S1_6  and  N2_9 
REMARK    3  A    between atoms: N2_9  and  C5_11 
ROOT
HETATM    1  S1  UNL     1     -20.370  24.978   1.353  1.00  0.00     0.276 S 
HETATM    2  O1  UNL     1     -19.264  25.697   2.076  1.00  0.00    -0.200 OA
HETATM    3  O2  UNL     1     -21.504  25.967   1.137  1.00  0.00    -0.200 OA
ENDROOT
BRANCH   1   4
HETATM    4  C4  UNL     1     -20.943  23.607   2.302  1.00  0.00     0.080 A 
HETATM    5  C3  UNL     1     -21.644  23.786   3.468  1.00  0.00     0.027 A 
HETATM    6  C2  UNL     1     -22.092  22.713   4.210  1.00  0.00     0.028 A 
HETATM    7  C1  UNL     1     -21.852  21.404   3.808  1.00  0.00     0.046 A 
HETATM    8  N1  UNL     1     -22.308  20.297   4.561  1.00  0.00    -0.102 NA
HETATM    9  C8  UNL     1     -21.140  21.244   2.624  1.00  0.00     0.028 A 
HETATM   10  C7  UNL     1     -20.696  22.314   1.889  1.00  0.00     0.027 A 
ENDBRANCH   1   4
BRANCH   1  11
HETATM   11  N2  UNL     1     -19.842  24.368  -0.171  1.00  0.00    -0.111 N 
ATOM     12  H2  UNL     1     -19.638  23.375  -0.292  1.00  0.00     0.197 HD
BRANCH  11  13
HETATM   13  C5  UNL     1     -19.707  25.203  -1.166  1.00  0.00     0.707 A 
HETATM   14  N3  UNL     1     -19.747  26.547  -1.097  1.00  0.00    -0.185 N 
HETATM   15  C6  UNL     1     -19.565  27.026  -2.354  1.00  0.00     0.215 A 
ATOM     16  H3  UNL     1     -19.889  27.104  -0.254  1.00  0.00     0.185 HD
HETATM   17  N4  UNL     1     -19.416  25.988  -3.189  1.00  0.00    -0.281 N 
HETATM   18  N5  UNL     1     -19.503  24.896  -2.462  1.00  0.00    -0.130 N 
ATOM     19  H4  UNL     1     -19.265  26.037  -4.197  1.00  0.00     0.188 HD
ATOM     20  H5  UNL     1     -19.427  23.948  -2.829  1.00  0.00     0.205 HD
ENDBRANCH  11  13
ENDBRANCH   1  11
TORSDOF 3
ENDMDL
