MODEL 1
REMARK VINA RESULT: -7.391957855      0.000      0.000
REMARK  3 active torsions:
REMARK  status: ('A' for Active; 'I' for Inactive)
REMARK    1  A    between atoms: C6_7  and  S1_8 
REMARK    2  A    between atoms: S1_8  and  N2_11 
REMARK    3  A    between atoms: N2_11  and  C7_13 
ROOT
HETATM    1  S1  UNL     1     -18.421  26.908  -2.969  1.00  0.00     0.266 S 
HETATM    2  O1  UNL     1     -18.410  28.311  -2.405  1.00  0.00    -0.200 OA
HETATM    3  O2  UNL     1     -19.121  27.022  -4.312  1.00  0.00    -0.200 OA
ENDROOT
BRANCH   1   4
HETATM    4  C6  UNL     1     -16.745  26.470  -3.405  1.00  0.00     0.103 A 
HETATM    5  C1  UNL     1     -16.448  25.133  -3.483  1.00  0.00     0.069 A 
HETATM    6  N1  UNL     1     -17.431  24.151  -3.227  1.00  0.00    -0.101 NA
HETATM    7  C2  UNL     1     -15.163  24.724  -3.819  1.00  0.00     0.028 A 
HETATM    8  C3  UNL     1     -14.175  25.654  -4.076  1.00  0.00     0.002 A 
HETATM    9  C4  UNL     1     -14.506  26.994  -3.989  1.00  0.00     0.002 A 
HETATM   10  C5  UNL     1     -15.783  27.404  -3.656  1.00  0.00     0.027 A 
ENDBRANCH   1   4
BRANCH   1  11
HETATM   11  N2  UNL     1     -18.989  25.746  -1.944  1.00  0.00    -0.264 N 
ATOM     12  H2  UNL     1     -19.461  25.020  -2.482  1.00  0.00     0.180 HD
BRANCH  11  13
HETATM   13  C7  UNL     1     -19.034  25.460  -0.743  1.00  0.00     0.139 A 
HETATM   14  N3  UNL     1     -18.026  24.689  -0.191  1.00  0.00    -0.350 N 
HETATM   15  C8  UNL     1     -18.006  24.342   1.097  1.00  0.00     0.090 A 
ATOM     16  H3  UNL     1     -17.268  24.373  -0.794  1.00  0.00     0.166 HD
HETATM   17  C9  UNL     1     -18.978  24.714   1.995  1.00  0.00     0.019 A 
HETATM   18  C10 UNL     1     -19.999  25.480   1.496  1.00  0.00     0.032 A 
HETATM   19  C11 UNL     1     -20.008  25.839   0.138  1.00  0.00     0.091 A 
HETATM   20  N4  UNL     1     -21.111  26.640  -0.304  1.00  0.00    -0.098 NA
ENDBRANCH  11  13
ENDBRANCH   1  11
TORSDOF 3
ENDMDL
MODEL 2
REMARK VINA RESULT: -7.270189824      1.285      1.389
REMARK  3 active torsions:
REMARK  status: ('A' for Active; 'I' for Inactive)
REMARK    1  A    between atoms: C6_7  and  S1_8 
REMARK    2  A    between atoms: S1_8  and  N2_11 
REMARK    3  A    between atoms: N2_11  and  C7_13 
ROOT
HETATM    1  S1  UNL     1     -18.710  26.262  -2.196  1.00  0.00     0.266 S 
HETATM    2  O1  UNL     1     -19.536  27.344  -2.854  1.00  0.00    -0.200 OA
HETATM    3  O2  UNL     1     -19.163  24.964  -2.841  1.00  0.00    -0.200 OA
ENDROOT
BRANCH   1   4
HETATM    4  C6  UNL     1     -17.021  26.438  -2.747  1.00  0.00     0.103 A 
HETATM    5  C1  UNL     1     -16.095  25.577  -2.214  1.00  0.00     0.069 A 
HETATM    6  N1  UNL     1     -16.470  24.597  -1.268  1.00  0.00    -0.101 NA
HETATM    7  C2  UNL     1     -14.763  25.660  -2.601  1.00  0.00     0.028 A 
HETATM    8  C3  UNL     1     -14.357  26.605  -3.523  1.00  0.00     0.002 A 
HETATM    9  C4  UNL     1     -15.314  27.458  -4.043  1.00  0.00     0.002 A 
HETATM   10  C5  UNL     1     -16.639  27.378  -3.660  1.00  0.00     0.027 A 
ENDBRANCH   1   4
BRANCH   1  11
HETATM   11  N2  UNL     1     -18.701  26.294  -0.545  1.00  0.00    -0.264 N 
ATOM     12  H2  UNL     1     -18.116  27.065  -0.224  1.00  0.00     0.180 HD
BRANCH  11  13
HETATM   13  C7  UNL     1     -19.167  25.698   0.431  1.00  0.00     0.139 A 
HETATM   14  N3  UNL     1     -18.337  24.893   1.192  1.00  0.00    -0.350 N 
HETATM   15  C8  UNL     1     -18.767  24.219   2.261  1.00  0.00     0.090 A 
ATOM     16  H3  UNL     1     -17.357  24.812   0.925  1.00  0.00     0.166 HD
HETATM   17  C9  UNL     1     -20.067  24.259   2.706  1.00  0.00     0.019 A 
HETATM   18  C10 UNL     1     -20.928  25.044   1.984  1.00  0.00     0.032 A 
HETATM   19  C11 UNL     1     -20.463  25.748   0.862  1.00  0.00     0.091 A 
HETATM   20  N4  UNL     1     -21.427  26.544   0.162  1.00  0.00    -0.098 NA
ENDBRANCH  11  13
ENDBRANCH   1  11
TORSDOF 3
ENDMDL
MODEL 3
REMARK VINA RESULT: -7.156732022      1.246      5.487
REMARK  3 active torsions:
REMARK  status: ('A' for Active; 'I' for Inactive)
REMARK    1  A    between atoms: C6_7  and  S1_8 
REMARK    2  A    between atoms: S1_8  and  N2_11 
REMARK    3  A    between atoms: N2_11  and  C7_13 
ROOT
HETATM    1  S1  UNL     1     -19.277  26.994  -1.685  1.00  0.00     0.266 S 
HETATM    2  O1  UNL     1     -20.716  27.252  -2.071  1.00  0.00    -0.200 OA
HETATM    3  O2  UNL     1     -18.763  28.319  -1.147  1.00  0.00    -0.200 OA
ENDROOT
BRANCH   1   4
HETATM    4  C6  UNL     1     -19.267  25.927  -0.253  1.00  0.00     0.103 A 
HETATM    5  C1  UNL     1     -20.408  25.889   0.507  1.00  0.00     0.069 A 
HETATM    6  N1  UNL     1     -21.539  26.664   0.166  1.00  0.00    -0.101 NA
HETATM    7  C2  UNL     1     -20.467  25.078   1.635  1.00  0.00     0.028 A 
HETATM    8  C3  UNL     1     -19.382  24.306   2.001  1.00  0.00     0.002 A 
HETATM    9  C4  UNL     1     -18.247  24.366   1.215  1.00  0.00     0.002 A 
HETATM   10  C5  UNL     1     -18.185  25.171   0.093  1.00  0.00     0.027 A 
ENDBRANCH   1   4
BRANCH   1  11
HETATM   11  N2  UNL     1     -18.358  26.272  -2.851  1.00  0.00    -0.264 N 
ATOM     12  H2  UNL     1     -18.963  25.746  -3.481  1.00  0.00     0.180 HD
BRANCH  11  13
HETATM   13  C7  UNL     1     -17.184  26.155  -3.215  1.00  0.00     0.139 A 
HETATM   14  N3  UNL     1     -16.439  27.291  -3.477  1.00  0.00    -0.350 N 
HETATM   15  C8  UNL     1     -15.166  27.244  -3.873  1.00  0.00     0.090 A 
ATOM     16  H3  UNL     1     -16.882  28.202  -3.363  1.00  0.00     0.166 HD
HETATM   17  C9  UNL     1     -14.475  26.069  -4.058  1.00  0.00     0.019 A 
HETATM   18  C10 UNL     1     -15.171  24.915  -3.810  1.00  0.00     0.032 A 
HETATM   19  C11 UNL     1     -16.511  24.979  -3.394  1.00  0.00     0.091 A 
HETATM   20  N4  UNL     1     -17.167  23.727  -3.158  1.00  0.00    -0.098 NA
ENDBRANCH  11  13
ENDBRANCH   1  11
TORSDOF 3
ENDMDL
MODEL 4
REMARK VINA RESULT: -6.997076145      2.028      2.454
REMARK  3 active torsions:
REMARK  status: ('A' for Active; 'I' for Inactive)
REMARK    1  A    between atoms: C6_7  and  S1_8 
REMARK    2  A    between atoms: S1_8  and  N2_11 
REMARK    3  A    between atoms: N2_11  and  C7_13 
ROOT
HETATM    1  S1  UNL     1     -17.374  23.948  -2.395  1.00  0.00     0.266 S 
HETATM    2  O1  UNL     1     -17.785  23.100  -3.576  1.00  0.00    -0.200 OA
HETATM    3  O2  UNL     1     -16.486  23.053  -1.549  1.00  0.00    -0.200 OA
ENDROOT
BRANCH   1   4
HETATM    4  C6  UNL     1     -16.259  25.215  -2.978  1.00  0.00     0.103 A 
HETATM    5  C1  UNL     1     -16.821  26.324  -3.558  1.00  0.00     0.069 A 
HETATM    6  N1  UNL     1     -18.222  26.451  -3.686  1.00  0.00    -0.101 NA
HETATM    7  C2  UNL     1     -16.009  27.348  -4.033  1.00  0.00     0.028 A 
HETATM    8  C3  UNL     1     -14.635  27.261  -3.926  1.00  0.00     0.002 A 
HETATM    9  C4  UNL     1     -14.099  26.131  -3.337  1.00  0.00     0.002 A 
HETATM   10  C5  UNL     1     -14.904  25.112  -2.864  1.00  0.00     0.027 A 
ENDBRANCH   1   4
BRANCH   1  11
HETATM   11  N2  UNL     1     -18.615  24.701  -1.608  1.00  0.00    -0.264 N 
ATOM     12  H2  UNL     1     -19.060  25.369  -2.237  1.00  0.00     0.180 HD
BRANCH  11  13
HETATM   13  C7  UNL     1     -19.186  24.726  -0.512  1.00  0.00     0.139 A 
HETATM   14  N3  UNL     1     -18.959  23.704   0.393  1.00  0.00    -0.350 N 
HETATM   15  C8  UNL     1     -19.538  23.663   1.594  1.00  0.00     0.090 A 
ATOM     16  H3  UNL     1     -18.323  22.952   0.131  1.00  0.00     0.166 HD
HETATM   17  C9  UNL     1     -20.410  24.625   2.046  1.00  0.00     0.019 A 
HETATM   18  C10 UNL     1     -20.667  25.659   1.184  1.00  0.00     0.032 A 
HETATM   19  C11 UNL     1     -20.051  25.690  -0.078  1.00  0.00     0.091 A 
HETATM   20  N4  UNL     1     -20.374  26.804  -0.919  1.00  0.00    -0.098 NA
ENDBRANCH  11  13
ENDBRANCH   1  11
TORSDOF 3
ENDMDL
MODEL 5
REMARK VINA RESULT: -6.990493255      1.632      1.917
REMARK  3 active torsions:
REMARK  status: ('A' for Active; 'I' for Inactive)
REMARK    1  A    between atoms: C6_7  and  S1_8 
REMARK    2  A    between atoms: S1_8  and  N2_11 
REMARK    3  A    between atoms: N2_11  and  C7_13 
ROOT
HETATM    1  S1  UNL     1     -18.937  26.495  -1.710  1.00  0.00     0.266 S 
HETATM    2  O1  UNL     1     -19.610  27.721  -2.283  1.00  0.00    -0.200 OA
HETATM    3  O2  UNL     1     -19.530  25.321  -2.469  1.00  0.00    -0.200 OA
ENDROOT
BRANCH   1   4
HETATM    4  C6  UNL     1     -17.227  26.507  -2.224  1.00  0.00     0.103 A 
HETATM    5  C1  UNL     1     -16.966  26.861  -3.523  1.00  0.00     0.069 A 
HETATM    6  N1  UNL     1     -18.012  27.200  -4.411  1.00  0.00    -0.101 NA
HETATM    7  C2  UNL     1     -15.656  26.891  -3.987  1.00  0.00     0.028 A 
HETATM    8  C3  UNL     1     -14.607  26.566  -3.150  1.00  0.00     0.002 A 
HETATM    9  C4  UNL     1     -14.902  26.214  -1.846  1.00  0.00     0.002 A 
HETATM   10  C5  UNL     1     -16.203  26.183  -1.382  1.00  0.00     0.027 A 
ENDBRANCH   1   4
BRANCH   1  11
HETATM   11  N2  UNL     1     -18.961  26.388  -0.063  1.00  0.00    -0.264 N 
ATOM     12  H2  UNL     1     -18.487  27.198   0.336  1.00  0.00     0.180 HD
BRANCH  11  13
HETATM   13  C7  UNL     1     -19.361  25.656   0.848  1.00  0.00     0.139 A 
HETATM   14  N3  UNL     1     -18.466  24.811   1.480  1.00  0.00    -0.350 N 
HETATM   15  C8  UNL     1     -18.823  23.993   2.472  1.00  0.00     0.090 A 
ATOM     16  H3  UNL     1     -17.494  24.814   1.175  1.00  0.00     0.166 HD
HETATM   17  C9  UNL     1     -20.107  23.912   2.959  1.00  0.00     0.019 A 
HETATM   18  C10 UNL     1     -21.031  24.731   2.364  1.00  0.00     0.032 A 
HETATM   19  C11 UNL     1     -20.641  25.587   1.322  1.00  0.00     0.091 A 
HETATM   20  N4  UNL     1     -21.667  26.410   0.753  1.00  0.00    -0.098 NA
ENDBRANCH  11  13
ENDBRANCH   1  11
TORSDOF 3
ENDMDL
