MODEL 1
REMARK VINA RESULT: -7.009736813      0.000      0.000
REMARK  4 active torsions:
REMARK  status: ('A' for Active; 'I' for Inactive)
REMARK    1  A    between atoms: N1_2  and  C2_4 
REMARK    2  A    between atoms: C3_7  and  N3_8 
REMARK    3  A    between atoms: C5_14  and  N6_15 
REMARK    4  A    between atoms: N6_15  and  C6_17 
ROOT
HETATM    1  N3  UNL     1      84.708  95.526  16.748  1.00  0.00    -0.125 N 
ATOM      2  H3  UNL     1      84.177  95.412  17.612  1.00  0.00     0.197 HD
HETATM    3  C4  UNL     1      85.911  96.223  16.765  1.00  0.00     0.196 C 
HETATM    4  N4  UNL     1      86.910  96.817  16.772  1.00  0.00    -0.171 NA
ENDROOT
BRANCH   1   5
HETATM    5  C3  UNL     1      84.254  95.018  15.640  1.00  0.00     0.720 A 
HETATM    6  N2  UNL     1      85.041  94.939  14.559  1.00  0.00    -0.021 N 
HETATM    7  C2  UNL     1      84.600  94.419  13.401  1.00  0.00     0.706 A 
ATOM      8  H2  UNL     1      86.000  95.282  14.616  1.00  0.00     0.203 HD
HETATM    9  N7  UNL     1      83.319  93.972  13.354  1.00  0.00    -0.021 N 
HETATM   10  C5  UNL     1      82.496  94.031  14.409  1.00  0.00     0.711 A 
ATOM     11  H7  UNL     1      82.970  93.575  12.481  1.00  0.00     0.203 HD
HETATM   12  N5  UNL     1      82.982  94.559  15.547  1.00  0.00    -0.020 N 
ATOM     13  H5  UNL     1      82.375  94.615  16.365  1.00  0.00     0.203 HD
BRANCH   7  14
HETATM   14  N1  UNL     1      85.393  94.360  12.380  1.00  0.00    -0.229 N 
HETATM   15  C1  UNL     1      86.173  93.223  12.025  1.00  0.00     0.165 C 
ATOM     16  H1  UNL     1      85.466  95.188  11.788  1.00  0.00     0.177 HD
ENDBRANCH   7  14
BRANCH  10  17
HETATM   17  N6  UNL     1      81.307  93.602  14.323  1.00  0.00    -0.191 N 
ATOM     18  H6  UNL     1      81.145  92.646  14.639  1.00  0.00     0.184 HD
BRANCH  17  19
HETATM   19  C6  UNL     1      80.191  94.298  13.841  1.00  0.00     0.049 A 
HETATM   20  C7  UNL     1      80.050  94.545  12.489  1.00  0.00     0.030 A 
HETATM   21  C8  UNL     1      79.001  95.210  11.932  1.00  0.00     0.002 A 
HETATM   22  C9  UNL     1      78.004  95.671  12.790  1.00  0.00     0.000 A 
HETATM   23  C10 UNL     1      78.099  95.450  14.153  1.00  0.00     0.002 A 
HETATM   24  C11 UNL     1      79.193  94.762  14.675  1.00  0.00     0.030 A 
ENDBRANCH  17  19
ENDBRANCH  10  17
ENDBRANCH   1   5
TORSDOF 4
ENDMDL
MODEL 2
REMARK VINA RESULT: -6.994760726      0.048      1.125
REMARK  4 active torsions:
REMARK  status: ('A' for Active; 'I' for Inactive)
REMARK    1  A    between atoms: N1_2  and  C2_4 
REMARK    2  A    between atoms: C3_7  and  N3_8 
REMARK    3  A    between atoms: C5_14  and  N6_15 
REMARK    4  A    between atoms: N6_15  and  C6_17 
ROOT
HETATM    1  N3  UNL     1      84.701  95.507  16.742  1.00  0.00    -0.125 N 
ATOM      2  H3  UNL     1      84.178  95.380  17.609  1.00  0.00     0.197 HD
HETATM    3  C4  UNL     1      85.902  96.206  16.757  1.00  0.00     0.196 C 
HETATM    4  N4  UNL     1      86.899  96.803  16.763  1.00  0.00    -0.171 NA
ENDROOT
BRANCH   1   5
HETATM    5  C3  UNL     1      84.238  95.012  15.633  1.00  0.00     0.720 A 
HETATM    6  N2  UNL     1      85.020  94.934  14.548  1.00  0.00    -0.021 N 
HETATM    7  C2  UNL     1      84.569  94.428  13.387  1.00  0.00     0.706 A 
ATOM      8  H2  UNL     1      85.982  95.268  14.604  1.00  0.00     0.203 HD
HETATM    9  N7  UNL     1      83.284  93.993  13.341  1.00  0.00    -0.021 N 
HETATM   10  C5  UNL     1      82.466  94.051  14.400  1.00  0.00     0.711 A 
ATOM     11  H7  UNL     1      82.928  93.606  12.466  1.00  0.00     0.203 HD
HETATM   12  N5  UNL     1      82.961  94.565  15.541  1.00  0.00    -0.020 N 
ATOM     13  H5  UNL     1      82.358  94.621  16.361  1.00  0.00     0.203 HD
BRANCH   7  14
HETATM   14  N1  UNL     1      85.358  94.370  12.363  1.00  0.00    -0.229 N 
HETATM   15  C1  UNL     1      86.148  93.239  12.012  1.00  0.00     0.165 C 
ATOM     16  H1  UNL     1      85.419  95.194  11.764  1.00  0.00     0.177 HD
ENDBRANCH   7  14
BRANCH  10  17
HETATM   17  N6  UNL     1      81.273  93.634  14.315  1.00  0.00    -0.191 N 
ATOM     18  H6  UNL     1      81.094  92.695  14.670  1.00  0.00     0.184 HD
BRANCH  17  19
HETATM   19  C6  UNL     1      80.172  94.322  13.787  1.00  0.00     0.049 A 
HETATM   20  C7  UNL     1      79.168  94.780  14.620  1.00  0.00     0.030 A 
HETATM   21  C8  UNL     1      78.066  95.456  14.196  1.00  0.00     0.002 A 
HETATM   22  C9  UNL     1      77.947  95.702  12.830  1.00  0.00     0.000 A 
HETATM   23  C10 UNL     1      78.926  95.264  11.954  1.00  0.00     0.002 A 
HETATM   24  C11 UNL     1      80.037  94.575  12.437  1.00  0.00     0.030 A 
ENDBRANCH  17  19
ENDBRANCH  10  17
ENDBRANCH   1   5
TORSDOF 4
ENDMDL
MODEL 3
REMARK VINA RESULT: -6.889060902      5.363      7.308
REMARK  4 active torsions:
REMARK  status: ('A' for Active; 'I' for Inactive)
REMARK    1  A    between atoms: N1_2  and  C2_4 
REMARK    2  A    between atoms: C3_7  and  N3_8 
REMARK    3  A    between atoms: C5_14  and  N6_15 
REMARK    4  A    between atoms: N6_15  and  C6_17 
ROOT
HETATM    1  N3  UNL     1      84.802  96.032  18.040  1.00  0.00    -0.125 N 
ATOM      2  H3  UNL     1      84.328  95.135  17.929  1.00  0.00     0.197 HD
HETATM    3  C4  UNL     1      85.868  96.356  17.208  1.00  0.00     0.196 C 
HETATM    4  N4  UNL     1      86.769  96.625  16.525  1.00  0.00    -0.171 NA
ENDROOT
BRANCH   1   5
HETATM    5  C3  UNL     1      84.404  96.863  18.957  1.00  0.00     0.720 A 
HETATM    6  N2  UNL     1      85.277  97.364  19.842  1.00  0.00    -0.021 N 
HETATM    7  C2  UNL     1      84.895  98.225  20.801  1.00  0.00     0.706 A 
ATOM      8  H2  UNL     1      86.256  97.086  19.786  1.00  0.00     0.203 HD
HETATM    9  N7  UNL     1      83.584  98.576  20.852  1.00  0.00    -0.021 N 
HETATM   10  C5  UNL     1      82.677  98.100  19.990  1.00  0.00     0.711 A 
ATOM     11  H7  UNL     1      83.280  99.228  21.576  1.00  0.00     0.203 HD
HETATM   12  N5  UNL     1      83.105  97.242  19.047  1.00  0.00    -0.020 N 
ATOM     13  H5  UNL     1      82.433  96.866  18.378  1.00  0.00     0.203 HD
BRANCH   7  14
HETATM   14  N1  UNL     1      85.770  98.686  21.635  1.00  0.00    -0.229 N 
HETATM   15  C1  UNL     1      85.875  98.293  22.999  1.00  0.00     0.165 C 
ATOM     16  H1  UNL     1      86.432  99.383  21.291  1.00  0.00     0.177 HD
ENDBRANCH   7  14
BRANCH  10  17
HETATM   17  N6  UNL     1      81.463  98.454  20.073  1.00  0.00    -0.191 N 
ATOM     18  H6  UNL     1      80.853  97.858  20.633  1.00  0.00     0.184 HD
BRANCH  17  19
HETATM   19  C6  UNL     1      80.867  99.574  19.479  1.00  0.00     0.049 A 
HETATM   20  C7  UNL     1      80.348  99.496  18.200  1.00  0.00     0.030 A 
HETATM   21  C8  UNL     1      79.752 100.530  17.546  1.00  0.00     0.002 A 
HETATM   22  C9  UNL     1      79.661 101.748  18.217  1.00  0.00     0.000 A 
HETATM   23  C10 UNL     1      80.165 101.878  19.500  1.00  0.00     0.002 A 
HETATM   24  C11 UNL     1      80.767 100.789  20.128  1.00  0.00     0.030 A 
ENDBRANCH  17  19
ENDBRANCH  10  17
ENDBRANCH   1   5
TORSDOF 4
ENDMDL
MODEL 4
REMARK VINA RESULT: -6.874697609      5.332      8.883
REMARK  4 active torsions:
REMARK  status: ('A' for Active; 'I' for Inactive)
REMARK    1  A    between atoms: N1_2  and  C2_4 
REMARK    2  A    between atoms: C3_7  and  N3_8 
REMARK    3  A    between atoms: C5_14  and  N6_15 
REMARK    4  A    between atoms: N6_15  and  C6_17 
ROOT
HETATM    1  N3  UNL     1      84.953  95.838  17.952  1.00  0.00    -0.125 N 
ATOM      2  H3  UNL     1      84.783  94.835  18.034  1.00  0.00     0.197 HD
HETATM    3  C4  UNL     1      86.017  96.296  17.184  1.00  0.00     0.196 C 
HETATM    4  N4  UNL     1      86.915  96.683  16.555  1.00  0.00    -0.171 NA
ENDROOT
BRANCH   1   5
HETATM    5  C3  UNL     1      84.172  96.677  18.566  1.00  0.00     0.720 A 
HETATM    6  N2  UNL     1      82.948  96.937  18.087  1.00  0.00    -0.021 N 
HETATM    7  C2  UNL     1      82.118  97.799  18.700  1.00  0.00     0.706 A 
ATOM      8  H2  UNL     1      82.637  96.470  17.236  1.00  0.00     0.203 HD
HETATM    9  N7  UNL     1      82.559  98.408  19.831  1.00  0.00    -0.021 N 
HETATM   10  C5  UNL     1      83.774  98.179  20.346  1.00  0.00     0.711 A 
ATOM     11  H7  UNL     1      81.940  99.065  20.307  1.00  0.00     0.203 HD
HETATM   12  N5  UNL     1      84.569  97.308  19.698  1.00  0.00    -0.020 N 
ATOM     13  H5  UNL     1      85.499  97.116  20.071  1.00  0.00     0.203 HD
BRANCH   7  14
HETATM   14  N1  UNL     1      80.944  98.022  18.205  1.00  0.00    -0.229 N 
HETATM   15  C1  UNL     1      80.251  99.263  18.289  1.00  0.00     0.165 C 
ATOM     16  H1  UNL     1      80.481  97.253  17.719  1.00  0.00     0.177 HD
ENDBRANCH   7  14
BRANCH  10  17
HETATM   17  N6  UNL     1      84.146  98.768  21.404  1.00  0.00    -0.191 N 
ATOM     18  H6  UNL     1      84.211  99.784  21.359  1.00  0.00     0.184 HD
BRANCH  17  19
HETATM   19  C6  UNL     1      84.479  98.175  22.629  1.00  0.00     0.049 A 
HETATM   20  C7  UNL     1      85.743  98.337  23.164  1.00  0.00     0.030 A 
HETATM   21  C8  UNL     1      86.153  97.799  24.345  1.00  0.00     0.002 A 
HETATM   22  C9  UNL     1      85.232  97.036  25.059  1.00  0.00     0.000 A 
HETATM   23  C10 UNL     1      83.953  96.843  24.566  1.00  0.00     0.002 A 
HETATM   24  C11 UNL     1      83.580  97.415  23.351  1.00  0.00     0.030 A 
ENDBRANCH  17  19
ENDBRANCH  10  17
ENDBRANCH   1   5
TORSDOF 4
ENDMDL
MODEL 5
REMARK VINA RESULT: -6.859821762      5.341      7.348
REMARK  4 active torsions:
REMARK  status: ('A' for Active; 'I' for Inactive)
REMARK    1  A    between atoms: N1_2  and  C2_4 
REMARK    2  A    between atoms: C3_7  and  N3_8 
REMARK    3  A    between atoms: C5_14  and  N6_15 
REMARK    4  A    between atoms: N6_15  and  C6_17 
ROOT
HETATM    1  N3  UNL     1      84.807  96.009  18.035  1.00  0.00    -0.125 N 
ATOM      2  H3  UNL     1      84.338  95.109  17.930  1.00  0.00     0.197 HD
HETATM    3  C4  UNL     1      85.870  96.334  17.200  1.00  0.00     0.196 C 
HETATM    4  N4  UNL     1      86.768  96.604  16.513  1.00  0.00    -0.171 NA
ENDROOT
BRANCH   1   5
HETATM    5  C3  UNL     1      84.405  96.843  18.948  1.00  0.00     0.720 A 
HETATM    6  N2  UNL     1      85.275  97.350  19.832  1.00  0.00    -0.021 N 
HETATM    7  C2  UNL     1      84.890  98.213  20.787  1.00  0.00     0.706 A 
ATOM      8  H2  UNL     1      86.256  97.073  19.779  1.00  0.00     0.203 HD
HETATM    9  N7  UNL     1      83.579  98.562  20.834  1.00  0.00    -0.021 N 
HETATM   10  C5  UNL     1      82.674  98.081  19.972  1.00  0.00     0.711 A 
ATOM     11  H7  UNL     1      83.271  99.217  21.554  1.00  0.00     0.203 HD
HETATM   12  N5  UNL     1      83.106  97.220  19.033  1.00  0.00    -0.020 N 
ATOM     13  H5  UNL     1      82.436  96.840  18.365  1.00  0.00     0.203 HD
BRANCH   7  14
HETATM   14  N1  UNL     1      85.763  98.680  21.621  1.00  0.00    -0.229 N 
HETATM   15  C1  UNL     1      85.858  98.301  22.990  1.00  0.00     0.165 C 
ATOM     16  H1  UNL     1      86.430  99.368  21.272  1.00  0.00     0.177 HD
ENDBRANCH   7  14
BRANCH  10  17
HETATM   17  N6  UNL     1      81.459  98.433  20.051  1.00  0.00    -0.191 N 
ATOM     18  H6  UNL     1      80.858  97.860  20.642  1.00  0.00     0.184 HD
BRANCH  17  19
HETATM   19  C6  UNL     1      80.852  99.523  19.415  1.00  0.00     0.049 A 
HETATM   20  C7  UNL     1      80.772 100.748  20.049  1.00  0.00     0.030 A 
HETATM   21  C8  UNL     1      80.202 101.860  19.509  1.00  0.00     0.002 A 
HETATM   22  C9  UNL     1      79.665 101.749  18.228  1.00  0.00     0.000 A 
HETATM   23  C10 UNL     1      79.719 100.543  17.550  1.00  0.00     0.002 A 
HETATM   24  C11 UNL     1      80.314  99.433  18.146  1.00  0.00     0.030 A 
ENDBRANCH  17  19
ENDBRANCH  10  17
ENDBRANCH   1   5
TORSDOF 4
ENDMDL
