MODEL 1
REMARK VINA RESULT: -6.087559382      0.000      0.000
REMARK  6 active torsions:
REMARK  status: ('A' for Active; 'I' for Inactive)
REMARK    1  A    between atoms: S1_2  and  C2_3 
REMARK    2  A    between atoms: C2_3  and  N1_5 
REMARK       I    between atoms: N1_5  and  C4_7 
REMARK    3  A    between atoms: C4_7  and  C5_9 
REMARK    4  A    between atoms: C5_9  and  S2_10 
REMARK    5  A    between atoms: S2_10  and  C6_11 
REMARK    6  A    between atoms: C6_11  and  N2_13 
ROOT
HETATM    1  C5  UNL     1      21.169  32.365  20.464  1.00  0.00     0.184 C 
ENDROOT
BRANCH   1   2
HETATM    2  C4  UNL     1      20.685  32.647  19.092  1.00  0.00     0.228 C 
HETATM    3  N1  UNL     1      19.343  32.367  18.762  1.00  0.00    -0.347 N 
ATOM      4  H1  UNL     1      18.719  31.974  19.466  1.00  0.00     0.163 HD
HETATM    5  O1  UNL     1      21.448  33.135  18.212  1.00  0.00    -0.273 OA
BRANCH   3   6
HETATM    6  C2  UNL     1      18.852  32.634  17.435  1.00  0.00     0.142 C 
HETATM    7  C3  UNL     1      17.499  33.287  17.452  1.00  0.00     0.044 C 
BRANCH   6   8
HETATM    8  S1  UNL     1      18.696  31.012  16.589  1.00  0.00    -0.149 SA
HETATM    9  C1  UNL     1      20.340  30.568  15.917  1.00  0.00     0.091 C 
ENDBRANCH   6   8
ENDBRANCH   3   6
ENDBRANCH   1   2
BRANCH   1  10
HETATM   10  S2  UNL     1      22.409  33.616  20.912  1.00  0.00    -0.091 SA
BRANCH  10  11
HETATM   11  C6  UNL     1      23.864  32.807  21.554  1.00  0.00     0.137 C 
HETATM   12  S3  UNL     1      23.786  31.478  22.485  1.00  0.00    -0.053 SA
BRANCH  11  13
HETATM   13  N2  UNL     1      25.122  33.356  21.234  1.00  0.00    -0.367 N 
HETATM   14  C7  UNL     1      25.334  34.763  20.968  1.00  0.00     0.124 C 
HETATM   15  C8  UNL     1      26.803  35.110  21.081  1.00  0.00     0.020 C 
HETATM   16  C9  UNL     1      27.674  34.262  20.216  1.00  0.00     0.003 C 
HETATM   17  C10 UNL     1      27.075  32.899  19.937  1.00  0.00     0.020 C 
HETATM   18  C11 UNL     1      26.271  32.484  21.160  1.00  0.00     0.124 C 
ENDBRANCH  11  13
ENDBRANCH  10  11
ENDBRANCH   1  10
TORSDOF 6
ENDMDL
MODEL 2
REMARK VINA RESULT: -5.821507879      1.204      1.864
REMARK  6 active torsions:
REMARK  status: ('A' for Active; 'I' for Inactive)
REMARK    1  A    between atoms: S1_2  and  C2_3 
REMARK    2  A    between atoms: C2_3  and  N1_5 
REMARK       I    between atoms: N1_5  and  C4_7 
REMARK    3  A    between atoms: C4_7  and  C5_9 
REMARK    4  A    between atoms: C5_9  and  S2_10 
REMARK    5  A    between atoms: S2_10  and  C6_11 
REMARK    6  A    between atoms: C6_11  and  N2_13 
ROOT
HETATM    1  C5  UNL     1      20.981  33.034  21.433  1.00  0.00     0.184 C 
ENDROOT
BRANCH   1   2
HETATM    2  C4  UNL     1      20.514  32.241  20.271  1.00  0.00     0.228 C 
HETATM    3  N1  UNL     1      19.943  32.906  19.167  1.00  0.00    -0.347 N 
ATOM      4  H1  UNL     1      19.858  33.922  19.174  1.00  0.00     0.163 HD
HETATM    5  O1  UNL     1      20.616  30.983  20.249  1.00  0.00    -0.273 OA
BRANCH   3   6
HETATM    6  C2  UNL     1      19.482  32.155  18.028  1.00  0.00     0.142 C 
HETATM    7  C3  UNL     1      20.478  32.162  16.903  1.00  0.00     0.044 C 
BRANCH   6   8
HETATM    8  S1  UNL     1      17.946  32.971  17.438  1.00  0.00    -0.149 SA
HETATM    9  C1  UNL     1      17.043  33.593  18.904  1.00  0.00     0.091 C 
ENDBRANCH   6   8
ENDBRANCH   3   6
ENDBRANCH   1   2
BRANCH   1  10
HETATM   10  S2  UNL     1      22.503  33.909  20.964  1.00  0.00    -0.091 SA
BRANCH  10  11
HETATM   11  C6  UNL     1      23.921  32.970  21.505  1.00  0.00     0.137 C 
HETATM   12  S3  UNL     1      23.783  31.583  22.339  1.00  0.00    -0.053 SA
BRANCH  11  13
HETATM   13  N2  UNL     1      25.202  33.465  21.191  1.00  0.00    -0.367 N 
HETATM   14  C7  UNL     1      25.477  34.864  20.939  1.00  0.00     0.124 C 
HETATM   15  C8  UNL     1      26.960  35.144  21.056  1.00  0.00     0.020 C 
HETATM   16  C9  UNL     1      27.794  34.266  20.184  1.00  0.00     0.003 C 
HETATM   17  C10 UNL     1      27.134  32.933  19.892  1.00  0.00     0.020 C 
HETATM   18  C11 UNL     1      26.312  32.544  21.111  1.00  0.00     0.124 C 
ENDBRANCH  11  13
ENDBRANCH  10  11
ENDBRANCH   1  10
TORSDOF 6
ENDMDL
MODEL 3
REMARK VINA RESULT: -5.808770056      1.413      2.250
REMARK  6 active torsions:
REMARK  status: ('A' for Active; 'I' for Inactive)
REMARK    1  A    between atoms: S1_2  and  C2_3 
REMARK    2  A    between atoms: C2_3  and  N1_5 
REMARK       I    between atoms: N1_5  and  C4_7 
REMARK    3  A    between atoms: C4_7  and  C5_9 
REMARK    4  A    between atoms: C5_9  and  S2_10 
REMARK    5  A    between atoms: S2_10  and  C6_11 
REMARK    6  A    between atoms: C6_11  and  N2_13 
ROOT
HETATM    1  C5  UNL     1      21.393  33.698  20.843  1.00  0.00     0.184 C 
ENDROOT
BRANCH   1   2
HETATM    2  C4  UNL     1      20.841  32.695  19.902  1.00  0.00     0.228 C 
HETATM    3  N1  UNL     1      20.033  33.126  18.831  1.00  0.00    -0.347 N 
ATOM      4  H1  UNL     1      19.835  34.119  18.711  1.00  0.00     0.163 HD
HETATM    5  O1  UNL     1      21.080  31.463  20.038  1.00  0.00    -0.273 OA
BRANCH   3   6
HETATM    6  C2  UNL     1      19.486  32.169  17.904  1.00  0.00     0.142 C 
HETATM    7  C3  UNL     1      20.382  31.952  16.718  1.00  0.00     0.044 C 
BRANCH   6   8
HETATM    8  S1  UNL     1      17.894  32.858  17.303  1.00  0.00    -0.149 SA
HETATM    9  C1  UNL     1      16.976  33.498  18.751  1.00  0.00     0.091 C 
ENDBRANCH   6   8
ENDBRANCH   3   6
ENDBRANCH   1   2
BRANCH   1  10
HETATM   10  S2  UNL     1      23.054  33.164  21.353  1.00  0.00    -0.091 SA
BRANCH  10  11
HETATM   11  C6  UNL     1      24.184  34.541  21.233  1.00  0.00     0.137 C 
HETATM   12  S3  UNL     1      23.724  36.075  21.508  1.00  0.00    -0.053 SA
BRANCH  11  13
HETATM   13  N2  UNL     1      25.522  34.270  20.886  1.00  0.00    -0.367 N 
HETATM   14  C7  UNL     1      26.391  35.235  20.247  1.00  0.00     0.124 C 
HETATM   15  C8  UNL     1      27.841  34.823  20.390  1.00  0.00     0.020 C 
HETATM   16  C9  UNL     1      28.110  33.443  19.891  1.00  0.00     0.003 C 
HETATM   17  C10 UNL     1      26.892  32.545  19.962  1.00  0.00     0.020 C 
HETATM   18  C11 UNL     1      26.073  32.966  21.174  1.00  0.00     0.124 C 
ENDBRANCH  11  13
ENDBRANCH  10  11
ENDBRANCH   1  10
TORSDOF 6
ENDMDL
MODEL 4
REMARK VINA RESULT: -5.796703867      0.832      1.187
REMARK  6 active torsions:
REMARK  status: ('A' for Active; 'I' for Inactive)
REMARK    1  A    between atoms: S1_2  and  C2_3 
REMARK    2  A    between atoms: C2_3  and  N1_5 
REMARK       I    between atoms: N1_5  and  C4_7 
REMARK    3  A    between atoms: C4_7  and  C5_9 
REMARK    4  A    between atoms: C5_9  and  S2_10 
REMARK    5  A    between atoms: S2_10  and  C6_11 
REMARK    6  A    between atoms: C6_11  and  N2_13 
ROOT
HETATM    1  C5  UNL     1      20.635  32.626  20.842  1.00  0.00     0.184 C 
ENDROOT
BRANCH   1   2
HETATM    2  C4  UNL     1      20.375  32.730  19.387  1.00  0.00     0.228 C 
HETATM    3  N1  UNL     1      19.056  32.589  18.910  1.00  0.00    -0.347 N 
ATOM      4  H1  UNL     1      18.294  32.418  19.566  1.00  0.00     0.163 HD
HETATM    5  O1  UNL     1      21.309  32.944  18.565  1.00  0.00    -0.273 OA
BRANCH   3   6
HETATM    6  C2  UNL     1      18.781  32.687  17.500  1.00  0.00     0.142 C 
HETATM    7  C3  UNL     1      17.442  33.312  17.225  1.00  0.00     0.044 C 
BRANCH   6   8
HETATM    8  S1  UNL     1      18.759  30.974  16.841  1.00  0.00    -0.149 SA
HETATM    9  C1  UNL     1      20.335  30.693  15.954  1.00  0.00     0.091 C 
ENDBRANCH   6   8
ENDBRANCH   3   6
ENDBRANCH   1   2
BRANCH   1  10
HETATM   10  S2  UNL     1      22.402  32.288  21.094  1.00  0.00    -0.091 SA
BRANCH  10  11
HETATM   11  C6  UNL     1      23.285  33.830  21.257  1.00  0.00     0.137 C 
HETATM   12  S3  UNL     1      22.531  35.244  21.526  1.00  0.00    -0.053 SA
BRANCH  11  13
HETATM   13  N2  UNL     1      24.689  33.804  21.145  1.00  0.00    -0.367 N 
HETATM   14  C7  UNL     1      25.489  34.976  20.856  1.00  0.00     0.124 C 
HETATM   15  C8  UNL     1      26.938  34.734  21.218  1.00  0.00     0.020 C 
HETATM   16  C9  UNL     1      27.510  33.518  20.568  1.00  0.00     0.003 C 
HETATM   17  C10 UNL     1      26.460  32.475  20.249  1.00  0.00     0.020 C 
HETATM   18  C11 UNL     1      25.386  32.551  21.324  1.00  0.00     0.124 C 
ENDBRANCH  11  13
ENDBRANCH  10  11
ENDBRANCH   1  10
TORSDOF 6
ENDMDL
MODEL 5
REMARK VINA RESULT: -5.793614302      3.425      6.737
REMARK  6 active torsions:
REMARK  status: ('A' for Active; 'I' for Inactive)
REMARK    1  A    between atoms: S1_2  and  C2_3 
REMARK    2  A    between atoms: C2_3  and  N1_5 
REMARK       I    between atoms: N1_5  and  C4_7 
REMARK    3  A    between atoms: C4_7  and  C5_9 
REMARK    4  A    between atoms: C5_9  and  S2_10 
REMARK    5  A    between atoms: S2_10  and  C6_11 
REMARK    6  A    between atoms: C6_11  and  N2_13 
ROOT
HETATM    1  C5  UNL     1      24.008  32.422  21.954  1.00  0.00     0.184 C 
ENDROOT
BRANCH   1   2
HETATM    2  C4  UNL     1      25.099  32.693  20.989  1.00  0.00     0.228 C 
HETATM    3  N1  UNL     1      25.873  33.863  21.133  1.00  0.00    -0.347 N 
ATOM      4  H1  UNL     1      25.677  34.510  21.895  1.00  0.00     0.163 HD
HETATM    5  O1  UNL     1      25.353  31.898  20.041  1.00  0.00    -0.273 OA
BRANCH   3   6
HETATM    6  C2  UNL     1      26.939  34.146  20.206  1.00  0.00     0.142 C 
HETATM    7  C3  UNL     1      28.235  33.511  20.622  1.00  0.00     0.044 C 
BRANCH   6   8
HETATM    8  S1  UNL     1      27.168  35.967  20.198  1.00  0.00    -0.149 SA
HETATM    9  C1  UNL     1      25.681  36.724  20.949  1.00  0.00     0.091 C 
ENDBRANCH   6   8
ENDBRANCH   3   6
ENDBRANCH   1   2
BRANCH   1  10
HETATM   10  S2  UNL     1      22.417  32.565  21.087  1.00  0.00    -0.091 SA
BRANCH  10  11
HETATM   11  C6  UNL     1      21.310  33.590  22.040  1.00  0.00     0.137 C 
HETATM   12  S3  UNL     1      20.466  33.021  23.307  1.00  0.00    -0.053 SA
BRANCH  11  13
HETATM   13  N2  UNL     1      21.173  34.941  21.667  1.00  0.00    -0.367 N 
HETATM   14  C7  UNL     1      22.246  35.908  21.763  1.00  0.00     0.124 C 
HETATM   15  C8  UNL     1      21.945  37.124  20.913  1.00  0.00     0.020 C 
HETATM   16  C9  UNL     1      20.627  37.749  21.229  1.00  0.00     0.003 C 
HETATM   17  C10 UNL     1      19.631  36.760  21.798  1.00  0.00     0.020 C 
HETATM   18  C11 UNL     1      19.902  35.406  21.161  1.00  0.00     0.124 C 
ENDBRANCH  11  13
ENDBRANCH  10  11
ENDBRANCH   1  10
TORSDOF 6
ENDMDL
