MODEL 1
REMARK VINA RESULT: -6.779429456      0.000      0.000
REMARK  5 active torsions:
REMARK  status: ('A' for Active; 'I' for Inactive)
REMARK    1  A    between atoms: C3_3  and  C5_5 
REMARK    2  A    between atoms: C5_5  and  C6_6 
REMARK    3  A    between atoms: C8_11  and  C9_12 
REMARK    4  A    between atoms: C9_12  and  O2_14 
REMARK    5  A    between atoms: O2_14  and  C10_15 
ROOT
HETATM    1  C1  UNL     1      21.706  38.438  20.865  1.00  0.00     0.012 C 
HETATM    2  C2  UNL     1      20.837  37.629  21.127  1.00  0.00    -0.113 C 
HETATM    3  C3  UNL     1      19.784  36.693  21.467  1.00  0.00     0.062 C 
HETATM    4  C4  UNL     1      19.758  36.666  23.013  1.00  0.00     0.023 C 
ENDROOT
BRANCH   3   5
HETATM    5  C5  UNL     1      19.959  35.320  21.030  1.00  0.00     0.051 C 
BRANCH   5   6
HETATM    6  C6  UNL     1      20.881  34.375  21.651  1.00  0.00     0.204 C 
HETATM    7  N1  UNL     1      22.233  34.719  21.968  1.00  0.00    -0.060 N 
HETATM    8  C7  UNL     1      22.709  33.732  21.070  1.00  0.00     0.242 C 
ATOM      9  H12 UNL     1      22.546  35.685  21.869  1.00  0.00     0.278 HD
ATOM     10  H11 UNL     1      22.542  34.712  22.940  1.00  0.00     0.278 HD
HETATM   11  C8  UNL     1      23.719  32.789  21.569  1.00  0.00     0.067 C 
HETATM   12  C14 UNL     1      21.332  33.181  20.845  1.00  0.00     0.113 C 
HETATM   13  C12 UNL     1      23.538  31.869  22.476  1.00  0.00     0.035 C 
HETATM   14 CL1  UNL     1      24.868  30.835  22.943  1.00  0.00    -0.087 Cl
HETATM   15  C13 UNL     1      22.214  31.679  23.124  1.00  0.00     0.126 C 
HETATM   16  S1  UNL     1      21.029  31.631  21.720  1.00  0.00    -0.154 SA
BRANCH  11  17
HETATM   17  C9  UNL     1      25.082  32.873  21.007  1.00  0.00     0.292 C 
HETATM   18  O1  UNL     1      25.401  32.199  19.969  1.00  0.00    -0.259 OA
BRANCH  17  19
HETATM   19  O2  UNL     1      26.081  33.653  21.536  1.00  0.00    -0.318 OA
BRANCH  19  20
HETATM   20  C10 UNL     1      26.604  34.801  20.894  1.00  0.00     0.174 C 
HETATM   21  C11 UNL     1      25.789  36.034  21.125  1.00  0.00     0.034 C 
ENDBRANCH  19  20
ENDBRANCH  17  19
ENDBRANCH  11  17
ENDBRANCH   5   6
ENDBRANCH   3   5
TORSDOF 5
ENDMDL
MODEL 2
REMARK VINA RESULT: -6.612555462      3.533      4.826
REMARK  5 active torsions:
REMARK  status: ('A' for Active; 'I' for Inactive)
REMARK    1  A    between atoms: C3_3  and  C5_5 
REMARK    2  A    between atoms: C5_5  and  C6_6 
REMARK    3  A    between atoms: C8_11  and  C9_12 
REMARK    4  A    between atoms: C9_12  and  O2_14 
REMARK    5  A    between atoms: O2_14  and  C10_15 
ROOT
HETATM    1  C1  UNL     1      16.793  33.653  17.433  1.00  0.00     0.012 C 
HETATM    2  C2  UNL     1      17.797  33.089  17.822  1.00  0.00    -0.113 C 
HETATM    3  C3  UNL     1      19.004  32.409  18.245  1.00  0.00     0.062 C 
HETATM    4  C4  UNL     1      18.997  31.067  17.476  1.00  0.00     0.023 C 
ENDROOT
BRANCH   3   5
HETATM    5  C5  UNL     1      19.115  32.080  19.655  1.00  0.00     0.051 C 
BRANCH   5   6
HETATM    6  C6  UNL     1      19.424  33.050  20.699  1.00  0.00     0.204 C 
HETATM    7  N1  UNL     1      19.229  34.456  20.522  1.00  0.00    -0.060 N 
HETATM    8  C7  UNL     1      20.619  34.682  20.680  1.00  0.00     0.242 C 
ATOM      9  H12 UNL     1      18.752  34.799  19.688  1.00  0.00     0.278 HD
ATOM     10  H11 UNL     1      18.564  34.953  21.114  1.00  0.00     0.278 HD
HETATM   11  C8  UNL     1      21.036  35.714  21.639  1.00  0.00     0.067 C 
HETATM   12  C14 UNL     1      20.871  33.258  21.077  1.00  0.00     0.113 C 
HETATM   13  C12 UNL     1      20.902  35.664  22.935  1.00  0.00     0.035 C 
HETATM   14 CL1  UNL     1      21.462  36.997  23.919  1.00  0.00    -0.087 Cl
HETATM   15  C13 UNL     1      20.281  34.489  23.600  1.00  0.00     0.126 C 
HETATM   16  S1  UNL     1      21.136  33.045  22.849  1.00  0.00    -0.154 SA
BRANCH  11  17
HETATM   17  C9  UNL     1      21.666  36.939  21.108  1.00  0.00     0.292 C 
HETATM   18  O1  UNL     1      20.964  37.979  20.862  1.00  0.00    -0.259 OA
BRANCH  17  19
HETATM   19  O2  UNL     1      23.008  37.056  20.843  1.00  0.00    -0.318 OA
BRANCH  19  20
HETATM   20  C10 UNL     1      23.998  36.222  21.416  1.00  0.00     0.174 C 
HETATM   21  C11 UNL     1      25.389  36.579  20.998  1.00  0.00     0.034 C 
ENDBRANCH  19  20
ENDBRANCH  17  19
ENDBRANCH  11  17
ENDBRANCH   5   6
ENDBRANCH   3   5
TORSDOF 5
ENDMDL
MODEL 3
REMARK VINA RESULT: -6.462183643      2.961      4.282
REMARK  5 active torsions:
REMARK  status: ('A' for Active; 'I' for Inactive)
REMARK    1  A    between atoms: C3_3  and  C5_5 
REMARK    2  A    between atoms: C5_5  and  C6_6 
REMARK    3  A    between atoms: C8_11  and  C9_12 
REMARK    4  A    between atoms: C9_12  and  O2_14 
REMARK    5  A    between atoms: O2_14  and  C10_15 
ROOT
HETATM    1  C1  UNL     1      20.069  31.063  16.257  1.00  0.00     0.012 C 
HETATM    2  C2  UNL     1      19.264  31.475  17.069  1.00  0.00    -0.113 C 
HETATM    3  C3  UNL     1      18.278  31.976  18.006  1.00  0.00     0.062 C 
HETATM    4  C4  UNL     1      17.859  33.356  17.445  1.00  0.00     0.023 C 
ENDROOT
BRANCH   3   5
HETATM    5  C5  UNL     1      18.720  32.199  19.371  1.00  0.00     0.051 C 
BRANCH   5   6
HETATM    6  C6  UNL     1      19.791  33.116  19.743  1.00  0.00     0.204 C 
HETATM    7  N1  UNL     1      21.110  33.016  19.200  1.00  0.00    -0.060 N 
HETATM    8  C7  UNL     1      21.637  32.763  20.490  1.00  0.00     0.242 C 
ATOM      9  H12 UNL     1      21.296  32.362  18.440  1.00  0.00     0.278 HD
ATOM     10  H11 UNL     1      21.485  33.782  18.640  1.00  0.00     0.278 HD
HETATM   11  C8  UNL     1      22.787  33.568  20.926  1.00  0.00     0.067 C 
HETATM   12  C14 UNL     1      20.325  33.056  21.155  1.00  0.00     0.113 C 
HETATM   13  C12 UNL     1      22.782  34.847  21.184  1.00  0.00     0.035 C 
HETATM   14 CL1  UNL     1      24.257  35.636  21.693  1.00  0.00    -0.087 Cl
HETATM   15  C13 UNL     1      21.540  35.653  21.057  1.00  0.00     0.126 C 
HETATM   16  S1  UNL     1      20.273  34.672  21.958  1.00  0.00    -0.154 SA
BRANCH  11  17
HETATM   17  C9  UNL     1      24.086  32.888  21.090  1.00  0.00     0.292 C 
HETATM   18  O1  UNL     1      24.341  32.215  22.147  1.00  0.00    -0.259 OA
BRANCH  17  19
HETATM   19  O2  UNL     1      25.091  32.921  20.155  1.00  0.00    -0.318 OA
BRANCH  19  20
HETATM   20  C10 UNL     1      26.426  32.528  20.420  1.00  0.00     0.174 C 
HETATM   21  C11 UNL     1      27.445  33.428  19.796  1.00  0.00     0.034 C 
ENDBRANCH  19  20
ENDBRANCH  17  19
ENDBRANCH  11  17
ENDBRANCH   5   6
ENDBRANCH   3   5
TORSDOF 5
ENDMDL
MODEL 4
REMARK VINA RESULT: -6.326800170      3.894      5.455
REMARK  5 active torsions:
REMARK  status: ('A' for Active; 'I' for Inactive)
REMARK    1  A    between atoms: C3_3  and  C5_5 
REMARK    2  A    between atoms: C5_5  and  C6_6 
REMARK    3  A    between atoms: C8_11  and  C9_12 
REMARK    4  A    between atoms: C9_12  and  O2_14 
REMARK    5  A    between atoms: O2_14  and  C10_15 
ROOT
HETATM    1  C1  UNL     1      17.172  33.287  16.738  1.00  0.00     0.012 C 
HETATM    2  C2  UNL     1      18.049  32.542  17.126  1.00  0.00    -0.113 C 
HETATM    3  C3  UNL     1      19.109  31.649  17.551  1.00  0.00     0.062 C 
HETATM    4  C4  UNL     1      19.025  30.443  16.585  1.00  0.00     0.023 C 
ENDROOT
BRANCH   3   5
HETATM    5  C5  UNL     1      19.019  31.113  18.896  1.00  0.00     0.051 C 
BRANCH   5   6
HETATM    6  C6  UNL     1      19.256  31.893  20.105  1.00  0.00     0.204 C 
HETATM    7  N1  UNL     1      18.596  33.137  20.357  1.00  0.00    -0.060 N 
HETATM    8  C7  UNL     1      19.840  33.815  20.348  1.00  0.00     0.242 C 
ATOM      9  H12 UNL     1      17.846  33.446  19.739  1.00  0.00     0.278 HD
ATOM     10  H11 UNL     1      17.976  33.226  21.162  1.00  0.00     0.278 HD
HETATM   11  C8  UNL     1      20.136  34.709  21.476  1.00  0.00     0.067 C 
HETATM   12  C14 UNL     1      20.613  32.531  20.290  1.00  0.00     0.113 C 
HETATM   13  C12 UNL     1      20.347  34.349  22.712  1.00  0.00     0.035 C 
HETATM   14 CL1  UNL     1      20.687  35.564  23.924  1.00  0.00    -0.087 Cl
HETATM   15  C13 UNL     1      20.307  32.920  23.115  1.00  0.00     0.126 C 
HETATM   16  S1  UNL     1      21.358  32.072  21.868  1.00  0.00    -0.154 SA
BRANCH  11  17
HETATM   17  C9  UNL     1      20.202  36.159  21.211  1.00  0.00     0.292 C 
HETATM   18  O1  UNL     1      19.207  36.916  21.477  1.00  0.00    -0.259 OA
BRANCH  17  19
HETATM   19  O2  UNL     1      21.299  36.791  20.678  1.00  0.00    -0.318 OA
BRANCH  19  20
HETATM   20  C10 UNL     1      21.533  38.184  20.784  1.00  0.00     0.174 C 
HETATM   21  C11 UNL     1      22.249  38.570  22.040  1.00  0.00     0.034 C 
ENDBRANCH  19  20
ENDBRANCH  17  19
ENDBRANCH  11  17
ENDBRANCH   5   6
ENDBRANCH   3   5
TORSDOF 5
ENDMDL
MODEL 5
REMARK VINA RESULT: -6.263364226      4.123      6.013
REMARK  5 active torsions:
REMARK  status: ('A' for Active; 'I' for Inactive)
REMARK    1  A    between atoms: C3_3  and  C5_5 
REMARK    2  A    between atoms: C5_5  and  C6_6 
REMARK    3  A    between atoms: C8_11  and  C9_12 
REMARK    4  A    between atoms: C9_12  and  O2_14 
REMARK    5  A    between atoms: O2_14  and  C10_15 
ROOT
HETATM    1  C1  UNL     1      27.609  34.576  20.139  1.00  0.00     0.012 C 
HETATM    2  C2  UNL     1      26.591  33.957  20.380  1.00  0.00    -0.113 C 
HETATM    3  C3  UNL     1      25.356  33.248  20.648  1.00  0.00     0.062 C 
HETATM    4  C4  UNL     1      24.403  34.316  21.236  1.00  0.00     0.023 C 
ENDROOT
BRANCH   3   5
HETATM    5  C5  UNL     1      25.413  32.165  21.613  1.00  0.00     0.051 C 
BRANCH   5   6
HETATM    6  C6  UNL     1      24.260  31.672  22.358  1.00  0.00     0.204 C 
HETATM    7  N1  UNL     1      24.364  30.624  23.325  1.00  0.00    -0.060 N 
HETATM    8  C7  UNL     1      23.507  29.805  22.550  1.00  0.00     0.242 C 
ATOM      9  H12 UNL     1      25.283  30.278  23.601  1.00  0.00     0.278 HD
ATOM     10  H11 UNL     1      24.137  30.813  24.302  1.00  0.00     0.278 HD
HETATM   11  C8  UNL     1      22.366  29.176  23.230  1.00  0.00     0.067 C 
HETATM   12  C14 UNL     1      23.188  30.924  21.603  1.00  0.00     0.113 C 
HETATM   13  C12 UNL     1      21.326  29.789  23.721  1.00  0.00     0.035 C 
HETATM   14 CL1  UNL     1      20.061  28.866  24.500  1.00  0.00    -0.087 Cl
HETATM   15  C13 UNL     1      21.189  31.266  23.631  1.00  0.00     0.126 C 
HETATM   16  S1  UNL     1      21.555  31.645  21.870  1.00  0.00    -0.154 SA
BRANCH  11  17
HETATM   17  C9  UNL     1      22.378  27.708  23.389  1.00  0.00     0.292 C 
HETATM   18  O1  UNL     1      21.692  26.963  22.608  1.00  0.00    -0.259 OA
BRANCH  17  19
HETATM   19  O2  UNL     1      23.100  27.048  24.353  1.00  0.00    -0.318 OA
BRANCH  19  20
HETATM   20  C10 UNL     1      22.716  26.982  25.714  1.00  0.00     0.174 C 
HETATM   21  C11 UNL     1      23.253  28.110  26.537  1.00  0.00     0.034 C 
ENDBRANCH  19  20
ENDBRANCH  17  19
ENDBRANCH  11  17
ENDBRANCH   5   6
ENDBRANCH   3   5
TORSDOF 5
ENDMDL
