MODEL 1
REMARK VINA RESULT: -7.641263943      0.000      0.000
REMARK  4 active torsions:
REMARK  status: ('A' for Active; 'I' for Inactive)
REMARK    1  A    between atoms: C4_7  and  C5_8 
REMARK    2  A    between atoms: C5_8  and  N3_9 
REMARK    3  A    between atoms: N3_9  and  C6_12 
REMARK    4  A    between atoms: N4_15  and  C9_16 
ROOT
HETATM    1  C6  UNL     1      20.824  33.716  21.056  1.00  0.00     0.221 C 
HETATM    2  C7  UNL     1      22.062  33.438  20.373  1.00  0.00     0.066 C 
HETATM    3  C8  UNL     1      23.300  33.574  21.227  1.00  0.00     0.275 C 
HETATM    4  N4  UNL     1      23.688  34.897  21.581  1.00  0.00     0.093 N 
HETATM    5  C14 UNL     1      22.670  35.888  21.251  1.00  0.00     0.276 C 
HETATM    6  C15 UNL     1      21.490  35.864  22.168  1.00  0.00     0.069 C 
HETATM    7  C16 UNL     1      20.811  34.571  22.294  1.00  0.00     0.202 C 
HETATM    8  F1  UNL     1      21.187  33.904  23.439  1.00  0.00    -0.247 F 
ENDROOT
BRANCH   1   9
HETATM    9  N3  UNL     1      19.686  34.001  20.263  1.00  0.00    -0.063 N 
ATOM     10  H32 UNL     1      19.955  34.458  19.391  1.00  0.00     0.278 HD
ATOM     11  H31 UNL     1      19.131  34.749  20.680  1.00  0.00     0.278 HD
BRANCH   9  12
HETATM   12  C5  UNL     1      18.884  32.862  20.006  1.00  0.00     0.291 C 
BRANCH  12  13
HETATM   13  C4  UNL     1      18.287  33.033  18.638  1.00  0.00     0.055 A 
HETATM   14  N1  UNL     1      18.806  32.683  17.486  1.00  0.00    -0.299 N 
HETATM   15  C1  UNL     1      20.110  32.042  17.232  1.00  0.00     0.177 C 
HETATM   16  N2  UNL     1      17.961  32.966  16.521  1.00  0.00    -0.310 N 
HETATM   17  C2  UNL     1      16.873  33.516  17.037  1.00  0.00     0.109 A 
ATOM     18  H2  UNL     1      18.119  32.789  15.528  1.00  0.00     0.186 HD
HETATM   19  C3  UNL     1      17.049  33.564  18.390  1.00  0.00     0.047 A 
ENDBRANCH  12  13
ENDBRANCH   9  12
ENDBRANCH   1   9
BRANCH   4  20
HETATM   20  C9  UNL     1      24.885  35.234  20.862  1.00  0.00     0.223 C 
HETATM   21  C10 UNL     1      25.437  36.590  21.073  1.00  0.00     0.036 C 
HETATM   22  C11 UNL     1      26.800  36.484  20.394  1.00  0.00     0.002 C 
HETATM   23  C12 UNL     1      27.033  35.024  20.083  1.00  0.00     0.002 C 
HETATM   24  C13 UNL     1      26.037  34.321  21.023  1.00  0.00     0.036 C 
ENDBRANCH   4  20
TORSDOF 4
ENDMDL
MODEL 2
REMARK VINA RESULT: -7.578759444      4.315      7.016
REMARK  4 active torsions:
REMARK  status: ('A' for Active; 'I' for Inactive)
REMARK    1  A    between atoms: C4_7  and  C5_8 
REMARK    2  A    between atoms: C5_8  and  N3_9 
REMARK    3  A    between atoms: N3_9  and  C6_12 
REMARK    4  A    between atoms: N4_15  and  C9_16 
ROOT
HETATM    1  C6  UNL     1      22.204  36.636  21.229  1.00  0.00     0.221 C 
HETATM    2  C7  UNL     1      21.863  35.952  22.451  1.00  0.00     0.066 C 
HETATM    3  C8  UNL     1      20.732  36.580  23.231  1.00  0.00     0.275 C 
HETATM    4  N4  UNL     1      21.018  37.809  23.891  1.00  0.00     0.093 N 
HETATM    5  C14 UNL     1      22.303  38.373  23.494  1.00  0.00     0.276 C 
HETATM    6  C15 UNL     1      22.296  38.976  22.127  1.00  0.00     0.069 C 
HETATM    7  C16 UNL     1      21.860  38.089  21.045  1.00  0.00     0.202 C 
HETATM    8  F1  UNL     1      20.547  38.312  20.695  1.00  0.00    -0.247 F 
ENDROOT
BRANCH   1   9
HETATM    9  N3  UNL     1      23.473  36.366  20.658  1.00  0.00    -0.063 N 
ATOM     10  H32 UNL     1      23.892  37.218  20.285  1.00  0.00     0.278 HD
ATOM     11  H31 UNL     1      23.375  35.834  19.793  1.00  0.00     0.278 HD
BRANCH   9  12
HETATM   12  C5  UNL     1      24.361  35.718  21.551  1.00  0.00     0.291 C 
BRANCH  12  13
HETATM   13  C4  UNL     1      25.745  35.853  20.983  1.00  0.00     0.055 A 
HETATM   14  N1  UNL     1      26.495  34.911  20.463  1.00  0.00    -0.299 N 
HETATM   15  C1  UNL     1      26.181  33.478  20.309  1.00  0.00     0.177 C 
HETATM   16  N2  UNL     1      27.625  35.433  20.043  1.00  0.00    -0.310 N 
HETATM   17  C2  UNL     1      27.628  36.733  20.293  1.00  0.00     0.109 A 
ATOM     18  H2  UNL     1      28.382  34.917  19.594  1.00  0.00     0.186 HD
HETATM   19  C3  UNL     1      26.435  37.031  20.887  1.00  0.00     0.047 A 
ENDBRANCH  12  13
ENDBRANCH   9  12
ENDBRANCH   1   9
BRANCH   4  20
HETATM   20  C9  UNL     1      21.057  37.572  25.307  1.00  0.00     0.223 C 
HETATM   21  C10 UNL     1      20.611  36.243  25.780  1.00  0.00     0.036 C 
HETATM   22  C11 UNL     1      21.043  36.268  27.244  1.00  0.00     0.002 C 
HETATM   23  C12 UNL     1      21.925  37.481  27.430  1.00  0.00     0.002 C 
HETATM   24  C13 UNL     1      22.350  37.807  25.987  1.00  0.00     0.036 C 
ENDBRANCH   4  20
TORSDOF 4
ENDMDL
MODEL 3
REMARK VINA RESULT: -7.495067477      4.481      6.978
REMARK  4 active torsions:
REMARK  status: ('A' for Active; 'I' for Inactive)
REMARK    1  A    between atoms: C4_7  and  C5_8 
REMARK    2  A    between atoms: C5_8  and  N3_9 
REMARK    3  A    between atoms: N3_9  and  C6_12 
REMARK    4  A    between atoms: N4_15  and  C9_16 
ROOT
HETATM    1  C6  UNL     1      22.509  36.764  21.157  1.00  0.00     0.221 C 
HETATM    2  C7  UNL     1      22.244  36.037  22.374  1.00  0.00     0.066 C 
HETATM    3  C8  UNL     1      21.023  36.499  23.133  1.00  0.00     0.275 C 
HETATM    4  N4  UNL     1      21.122  37.754  23.798  1.00  0.00     0.093 N 
HETATM    5  C14 UNL     1      22.322  38.494  23.424  1.00  0.00     0.276 C 
HETATM    6  C15 UNL     1      22.255  39.093  22.057  1.00  0.00     0.069 C 
HETATM    7  C16 UNL     1      21.968  38.156  20.967  1.00  0.00     0.202 C 
HETATM    8  F1  UNL     1      20.642  38.194  20.593  1.00  0.00    -0.247 F 
ENDROOT
BRANCH   1   9
HETATM    9  N3  UNL     1      23.812  36.676  20.610  1.00  0.00    -0.063 N 
ATOM     10  H32 UNL     1      24.050  37.527  20.099  1.00  0.00     0.278 HD
ATOM     11  H31 UNL     1      23.838  36.005  19.842  1.00  0.00     0.278 HD
BRANCH   9  12
HETATM   12  C5  UNL     1      24.804  36.376  21.575  1.00  0.00     0.291 C 
BRANCH  12  13
HETATM   13  C4  UNL     1      25.766  35.409  20.943  1.00  0.00     0.055 A 
HETATM   14  N1  UNL     1      26.954  35.665  20.452  1.00  0.00    -0.299 N 
HETATM   15  C1  UNL     1      27.651  36.964  20.382  1.00  0.00     0.177 C 
HETATM   16  N2  UNL     1      27.500  34.550  20.023  1.00  0.00    -0.310 N 
HETATM   17  C2  UNL     1      26.663  33.545  20.225  1.00  0.00     0.109 A 
ATOM     18  H2  UNL     1      28.425  34.470  19.600  1.00  0.00     0.186 HD
HETATM   19  C3  UNL     1      25.548  34.063  20.820  1.00  0.00     0.047 A 
ENDBRANCH  12  13
ENDBRANCH   9  12
ENDBRANCH   1   9
BRANCH   4  20
HETATM   20  C9  UNL     1      21.168  37.522  25.214  1.00  0.00     0.223 C 
HETATM   21  C10 UNL     1      20.717  36.198  25.695  1.00  0.00     0.036 C 
HETATM   22  C11 UNL     1      21.158  36.225  27.156  1.00  0.00     0.002 C 
HETATM   23  C12 UNL     1      22.049  37.433  27.332  1.00  0.00     0.002 C 
HETATM   24  C13 UNL     1      22.466  37.752  25.885  1.00  0.00     0.036 C 
ENDBRANCH   4  20
TORSDOF 4
ENDMDL
MODEL 4
REMARK VINA RESULT: -7.480631137      3.527      5.958
REMARK  4 active torsions:
REMARK  status: ('A' for Active; 'I' for Inactive)
REMARK    1  A    between atoms: C4_7  and  C5_8 
REMARK    2  A    between atoms: C5_8  and  N3_9 
REMARK    3  A    between atoms: N3_9  and  C6_12 
REMARK    4  A    between atoms: N4_15  and  C9_16 
ROOT
HETATM    1  C6  UNL     1      20.933  36.192  21.141  1.00  0.00     0.221 C 
HETATM    2  C7  UNL     1      20.315  35.998  22.429  1.00  0.00     0.066 C 
HETATM    3  C8  UNL     1      20.062  37.268  23.206  1.00  0.00     0.275 C 
HETATM    4  N4  UNL     1      21.204  37.919  23.752  1.00  0.00     0.093 N 
HETATM    5  C14 UNL     1      22.458  37.365  23.253  1.00  0.00     0.276 C 
HETATM    6  C15 UNL     1      22.767  37.754  21.844  1.00  0.00     0.069 C 
HETATM    7  C16 UNL     1      21.730  37.436  20.857  1.00  0.00     0.202 C 
HETATM    8  F1  UNL     1      20.959  38.535  20.550  1.00  0.00    -0.247 F 
ENDROOT
BRANCH   1   9
HETATM    9  N3  UNL     1      21.558  35.073  20.537  1.00  0.00    -0.063 N 
ATOM     10  H32 UNL     1      22.538  35.269  20.335  1.00  0.00     0.278 HD
ATOM     11  H31 UNL     1      21.214  34.935  19.587  1.00  0.00     0.278 HD
BRANCH   9  12
HETATM   12  C5  UNL     1      21.429  33.884  21.297  1.00  0.00     0.291 C 
BRANCH  12  13
HETATM   13  C4  UNL     1      22.772  33.209  21.303  1.00  0.00     0.055 A 
HETATM   14  N1  UNL     1      23.026  31.928  21.429  1.00  0.00    -0.299 N 
HETATM   15  C1  UNL     1      22.066  30.823  21.607  1.00  0.00     0.177 C 
HETATM   16  N2  UNL     1      24.322  31.729  21.347  1.00  0.00    -0.310 N 
HETATM   17  C2  UNL     1      24.934  32.889  21.172  1.00  0.00     0.109 A 
ATOM     18  H2  UNL     1      24.784  30.822  21.409  1.00  0.00     0.186 HD
HETATM   19  C3  UNL     1      23.967  33.853  21.131  1.00  0.00     0.047 A 
ENDBRANCH  12  13
ENDBRANCH   9  12
ENDBRANCH   1   9
BRANCH   4  20
HETATM   20  C9  UNL     1      21.186  37.760  25.179  1.00  0.00     0.223 C 
HETATM   21  C10 UNL     1      22.492  37.606  25.856  1.00  0.00     0.036 C 
HETATM   22  C11 UNL     1      22.104  37.742  27.326  1.00  0.00     0.002 C 
HETATM   23  C12 UNL     1      20.671  38.220  27.368  1.00  0.00     0.002 C 
HETATM   24  C13 UNL     1      20.472  38.798  25.955  1.00  0.00     0.036 C 
ENDBRANCH   4  20
TORSDOF 4
ENDMDL
MODEL 5
REMARK VINA RESULT: -7.453620703      0.558      1.364
REMARK  4 active torsions:
REMARK  status: ('A' for Active; 'I' for Inactive)
REMARK    1  A    between atoms: C4_7  and  C5_8 
REMARK    2  A    between atoms: C5_8  and  N3_9 
REMARK    3  A    between atoms: N3_9  and  C6_12 
REMARK    4  A    between atoms: N4_15  and  C9_16 
ROOT
HETATM    1  C6  UNL     1      20.695  33.530  20.841  1.00  0.00     0.221 C 
HETATM    2  C7  UNL     1      21.957  33.353  20.168  1.00  0.00     0.066 C 
HETATM    3  C8  UNL     1      23.170  33.453  21.063  1.00  0.00     0.275 C 
HETATM    4  N4  UNL     1      23.504  34.752  21.540  1.00  0.00     0.093 N 
HETATM    5  C14 UNL     1      22.461  35.735  21.270  1.00  0.00     0.276 C 
HETATM    6  C15 UNL     1      21.262  35.594  22.151  1.00  0.00     0.069 C 
HETATM    7  C16 UNL     1      20.625  34.274  22.148  1.00  0.00     0.202 C 
HETATM    8  F1  UNL     1      20.997  33.521  23.240  1.00  0.00    -0.247 F 
ENDROOT
BRANCH   1   9
HETATM    9  N3  UNL     1      19.566  33.847  20.046  1.00  0.00    -0.063 N 
ATOM     10  H32 UNL     1      19.852  34.194  19.130  1.00  0.00     0.278 HD
ATOM     11  H31 UNL     1      19.095  34.679  20.401  1.00  0.00     0.278 HD
BRANCH   9  12
HETATM   12  C5  UNL     1      18.656  32.770  19.915  1.00  0.00     0.291 C 
BRANCH  12  13
HETATM   13  C4  UNL     1      18.676  32.339  18.476  1.00  0.00     0.055 A 
HETATM   14  N1  UNL     1      17.899  32.751  17.503  1.00  0.00    -0.299 N 
HETATM   15  C1  UNL     1      16.800  33.733  17.569  1.00  0.00     0.177 C 
HETATM   16  N2  UNL     1      18.254  32.166  16.381  1.00  0.00    -0.310 N 
HETATM   17  C2  UNL     1      19.272  31.353  16.613  1.00  0.00     0.109 A 
ATOM     18  H2  UNL     1      17.813  32.315  15.474  1.00  0.00     0.186 HD
HETATM   19  C3  UNL     1      19.569  31.449  17.943  1.00  0.00     0.047 A 
ENDBRANCH  12  13
ENDBRANCH   9  12
ENDBRANCH   1   9
BRANCH   4  20
HETATM   20  C9  UNL     1      24.705  35.189  20.883  1.00  0.00     0.223 C 
HETATM   21  C10 UNL     1      25.169  36.563  21.174  1.00  0.00     0.036 C 
HETATM   22  C11 UNL     1      26.560  36.566  20.545  1.00  0.00     0.002 C 
HETATM   23  C12 UNL     1      26.889  35.136  20.181  1.00  0.00     0.002 C 
HETATM   24  C13 UNL     1      25.902  34.336  21.050  1.00  0.00     0.036 C 
ENDBRANCH   4  20
TORSDOF 4
ENDMDL
