MODEL 1
REMARK VINA RESULT: -5.269514414      0.000      0.000
REMARK  3 active torsions:
REMARK  status: ('A' for Active; 'I' for Inactive)
REMARK    1  A    between atoms: S1_2  and  C2_3 
REMARK    2  A    between atoms: C2_3  and  O2_5 
REMARK    3  A    between atoms: O2_5  and  C3_6 
ROOT
HETATM    1  C3  UNL     1     -23.117  -4.300 -10.014  1.00  0.00     0.147 C 
HETATM    2  C4  UNL     1     -23.426  -5.667 -10.583  1.00  0.00     0.048 C 
HETATM    3  C5  UNL     1     -24.771  -6.045 -10.019  1.00  0.00     0.143 C 
HETATM    4  S2  UNL     1     -25.636  -4.467  -9.970  1.00  0.00     0.146 S 
HETATM    5  O3  UNL     1     -26.062  -4.136  -8.579  1.00  0.00    -0.228 OA
HETATM    6  O4  UNL     1     -26.738  -4.415 -10.960  1.00  0.00    -0.228 OA
HETATM    7  C6  UNL     1     -24.252  -3.423 -10.470  1.00  0.00     0.172 C 
ENDROOT
BRANCH   1   8
HETATM    8  O2  UNL     1     -21.858  -3.854 -10.354  1.00  0.00    -0.306 OA
BRANCH   8   9
HETATM    9  C2  UNL     1     -21.070  -3.124  -9.486  1.00  0.00     0.322 C 
HETATM   10  O1  UNL     1     -20.077  -3.708  -8.997  1.00  0.00    -0.252 OA
BRANCH   9  11
HETATM   11  S1  UNL     1     -21.437  -1.412  -9.066  1.00  0.00    -0.066 SA
HETATM   12  C1  UNL     1     -20.070  -0.706  -8.112  1.00  0.00     0.101 C 
ENDBRANCH   9  11
ENDBRANCH   8   9
ENDBRANCH   1   8
TORSDOF 3
ENDMDL
MODEL 2
REMARK VINA RESULT: -4.895166824      1.004      1.127
REMARK  3 active torsions:
REMARK  status: ('A' for Active; 'I' for Inactive)
REMARK    1  A    between atoms: S1_2  and  C2_3 
REMARK    2  A    between atoms: C2_3  and  O2_5 
REMARK    3  A    between atoms: O2_5  and  C3_6 
ROOT
HETATM    1  C3  UNL     1     -23.346  -4.524 -10.208  1.00  0.00     0.147 C 
HETATM    2  C4  UNL     1     -23.764  -5.902 -10.670  1.00  0.00     0.048 C 
HETATM    3  C5  UNL     1     -25.055  -6.195  -9.950  1.00  0.00     0.143 C 
HETATM    4  S2  UNL     1     -25.850  -4.581  -9.892  1.00  0.00     0.146 S 
HETATM    5  O3  UNL     1     -26.113  -4.167  -8.483  1.00  0.00    -0.228 OA
HETATM    6  O4  UNL     1     -27.049  -4.529 -10.763  1.00  0.00    -0.228 OA
HETATM    7  C6  UNL     1     -24.490  -3.622 -10.588  1.00  0.00     0.172 C 
ENDROOT
BRANCH   1   8
HETATM    8  O2  UNL     1     -22.115  -4.148 -10.700  1.00  0.00    -0.306 OA
BRANCH   8   9
HETATM    9  C2  UNL     1     -21.534  -2.933 -10.398  1.00  0.00     0.322 C 
HETATM   10  O1  UNL     1     -21.652  -2.023 -11.248  1.00  0.00    -0.252 OA
BRANCH   9  11
HETATM   11  S1  UNL     1     -20.644  -2.652  -8.858  1.00  0.00    -0.066 SA
HETATM   12  C1  UNL     1     -20.687  -0.891  -8.435  1.00  0.00     0.101 C 
ENDBRANCH   9  11
ENDBRANCH   8   9
ENDBRANCH   1   8
TORSDOF 3
ENDMDL
MODEL 3
REMARK VINA RESULT: -4.878555703      1.020      1.063
REMARK  3 active torsions:
REMARK  status: ('A' for Active; 'I' for Inactive)
REMARK    1  A    between atoms: S1_2  and  C2_3 
REMARK    2  A    between atoms: C2_3  and  O2_5 
REMARK    3  A    between atoms: O2_5  and  C3_6 
ROOT
HETATM    1  C3  UNL     1     -22.910  -3.308  -9.834  1.00  0.00     0.147 C 
HETATM    2  C4  UNL     1     -22.838  -4.657 -10.515  1.00  0.00     0.048 C 
HETATM    3  C5  UNL     1     -24.081  -5.393 -10.086  1.00  0.00     0.143 C 
HETATM    4  S2  UNL     1     -25.308  -4.078 -10.001  1.00  0.00     0.146 S 
HETATM    5  O3  UNL     1     -25.887  -3.976  -8.630  1.00  0.00    -0.228 OA
HETATM    6  O4  UNL     1     -26.327  -4.210 -11.071  1.00  0.00    -0.228 OA
HETATM    7  C6  UNL     1     -24.196  -2.694 -10.321  1.00  0.00     0.172 C 
ENDROOT
BRANCH   1   8
HETATM    8  O2  UNL     1     -21.781  -2.546 -10.044  1.00  0.00    -0.306 OA
BRANCH   8   9
HETATM    9  C2  UNL     1     -20.800  -2.393  -9.083  1.00  0.00     0.322 C 
HETATM   10  O1  UNL     1     -20.127  -3.406  -8.796  1.00  0.00    -0.252 OA
BRANCH   9  11
HETATM   11  S1  UNL     1     -20.493  -0.815  -8.271  1.00  0.00    -0.066 SA
HETATM   12  C1  UNL     1     -22.065   0.000  -7.895  1.00  0.00     0.101 C 
ENDBRANCH   9  11
ENDBRANCH   8   9
ENDBRANCH   1   8
TORSDOF 3
ENDMDL
MODEL 4
REMARK VINA RESULT: -4.579155864      2.378      5.152
REMARK  3 active torsions:
REMARK  status: ('A' for Active; 'I' for Inactive)
REMARK    1  A    between atoms: S1_2  and  C2_3 
REMARK    2  A    between atoms: C2_3  and  O2_5 
REMARK    3  A    between atoms: O2_5  and  C3_6 
ROOT
HETATM    1  C3  UNL     1     -24.043  -4.530 -10.160  1.00  0.00     0.147 C 
HETATM    2  C4  UNL     1     -22.605  -4.665  -9.711  1.00  0.00     0.048 C 
HETATM    3  C5  UNL     1     -21.867  -3.529 -10.371  1.00  0.00     0.143 C 
HETATM    4  S2  UNL     1     -23.083  -2.202 -10.347  1.00  0.00     0.146 S 
HETATM    5  O3  UNL     1     -23.381  -1.726 -11.729  1.00  0.00    -0.228 OA
HETATM    6  O4  UNL     1     -22.693  -1.118  -9.413  1.00  0.00    -0.228 OA
HETATM    7  C6  UNL     1     -24.468  -3.161  -9.699  1.00  0.00     0.172 C 
ENDROOT
BRANCH   1   8
HETATM    8  O2  UNL     1     -24.837  -5.568  -9.724  1.00  0.00    -0.306 OA
BRANCH   8   9
HETATM    9  C2  UNL     1     -25.636  -6.302 -10.578  1.00  0.00     0.322 C 
HETATM   10  O1  UNL     1     -26.630  -5.718 -11.063  1.00  0.00    -0.252 OA
BRANCH   9  11
HETATM   11  S1  UNL     1     -25.279  -8.019 -10.987  1.00  0.00    -0.066 SA
HETATM   12  C1  UNL     1     -23.489  -8.287 -11.009  1.00  0.00     0.101 C 
ENDBRANCH   9  11
ENDBRANCH   8   9
ENDBRANCH   1   8
TORSDOF 3
ENDMDL
MODEL 5
REMARK VINA RESULT: -4.430551475      1.994      2.437
REMARK  3 active torsions:
REMARK  status: ('A' for Active; 'I' for Inactive)
REMARK    1  A    between atoms: S1_2  and  C2_3 
REMARK    2  A    between atoms: C2_3  and  O2_5 
REMARK    3  A    between atoms: O2_5  and  C3_6 
ROOT
HETATM    1  C3  UNL     1     -22.003  -2.971  -9.416  1.00  0.00     0.147 C 
HETATM    2  C4  UNL     1     -21.159  -4.216  -9.249  1.00  0.00     0.048 C 
HETATM    3  C5  UNL     1     -22.135  -5.334  -8.990  1.00  0.00     0.143 C 
HETATM    4  S2  UNL     1     -23.537  -4.882 -10.024  1.00  0.00     0.146 S 
HETATM    5  O3  UNL     1     -24.773  -4.716  -9.205  1.00  0.00    -0.228 OA
HETATM    6  O4  UNL     1     -23.699  -5.814 -11.166  1.00  0.00    -0.228 OA
HETATM    7  C6  UNL     1     -22.922  -3.275 -10.569  1.00  0.00     0.172 C 
ENDROOT
BRANCH   1   8
HETATM    8  O2  UNL     1     -21.245  -1.829  -9.556  1.00  0.00    -0.306 OA
BRANCH   8   9
HETATM    9  C2  UNL     1     -20.633  -1.208  -8.484  1.00  0.00     0.322 C 
HETATM   10  O1  UNL     1     -19.516  -1.651  -8.138  1.00  0.00    -0.252 OA
BRANCH   9  11
HETATM   11  S1  UNL     1     -21.392   0.174  -7.615  1.00  0.00    -0.066 SA
HETATM   12  C1  UNL     1     -23.176   0.192  -7.928  1.00  0.00     0.101 C 
ENDBRANCH   9  11
ENDBRANCH   8   9
ENDBRANCH   1   8
TORSDOF 3
ENDMDL
