MODEL 1
REMARK VINA RESULT: -8.222019222      0.000      0.000
REMARK  12 active torsions:
REMARK  status: ('A' for Active; 'I' for Inactive)
REMARK    1  A    between atoms: C2_2  and  C3_3 
REMARK    2  A    between atoms: C2_2  and  C26_31 
REMARK    3  A    between atoms: C3_3  and  C4_4 
REMARK    4  A    between atoms: C4_4  and  O1_5 
REMARK    5  A    between atoms: C4_4  and  C5_7 
REMARK    6  A    between atoms: C5_7  and  C6_9 
REMARK    7  A    between atoms: C26_31  and  O5_32 
REMARK    8  A    between atoms: C26_31  and  C27_34 
REMARK    9  A    between atoms: C27_34  and  O6_35 
REMARK   10  A    between atoms: C27_34  and  C28_37 
REMARK   11  A    between atoms: C28_37  and  C30_39 
REMARK   12  A    between atoms: C30_39  and  O7_40 
ROOT
HETATM    1  C6  UNL     1      62.479  79.087  79.435  1.00  0.00     0.067 C 
HETATM    2  C7  UNL     1      61.254  79.953  79.786  1.00  0.00     0.013 C 
HETATM    3  C8  UNL     1      62.047  80.971  80.653  1.00  0.00     0.007 C 
HETATM    4  C9  UNL     1      62.699  80.006  81.587  1.00  0.00     0.003 C 
HETATM    5  C10 UNL     1      63.092  78.794  80.789  1.00  0.00    -0.029 C 
HETATM    6  C11 UNL     1      62.349  77.573  81.340  1.00  0.00     0.016 C 
HETATM    7  C12 UNL     1      64.545  78.537  80.633  1.00  0.00     0.011 C 
HETATM    8  C13 UNL     1      65.428  79.679  81.191  1.00  0.00     0.012 C 
HETATM    9  C14 UNL     1      64.924  79.737  82.625  1.00  0.00    -0.020 A 
HETATM   10  C15 UNL     1      65.327  78.659  83.335  1.00  0.00     0.026 A 
HETATM   11  C16 UNL     1      65.536  80.013  83.842  1.00  0.00     0.017 A 
HETATM   12  C17 UNL     1      66.098  79.718  85.150  1.00  0.00     0.184 C 
HETATM   13  O3  UNL     1      67.443  79.342  84.916  1.00  0.00    -0.355 OA
HETATM   14  C18 UNL     1      68.163  80.228  84.191  1.00  0.00     0.157 C 
HETATM   15  C19 UNL     1      69.428  79.513  83.716  1.00  0.00     0.078 C 
HETATM   16  C20 UNL     1      68.664  81.416  85.020  1.00  0.00     0.078 C 
HETATM   17  O4  UNL     1      67.550  80.702  83.005  1.00  0.00    -0.350 OA
HETATM   18  C21 UNL     1      66.314  81.202  83.430  1.00  0.00     0.136 C 
HETATM   19  C22 UNL     1      65.659  82.178  82.537  1.00  0.00     0.034 C 
HETATM   20  C23 UNL     1      64.216  81.947  82.176  1.00  0.00     0.013 C 
HETATM   21  C24 UNL     1      63.694  80.561  82.520  1.00  0.00    -0.031 C 
HETATM   22  C25 UNL     1      63.124  80.685  83.947  1.00  0.00     0.016 C 
ENDROOT
BRANCH   1  23
HETATM   23  C5  UNL     1      62.213  77.970  78.570  1.00  0.00     0.160 C 
HETATM   24  O2  UNL     1      61.263  77.221  78.654  1.00  0.00    -0.295 OA
BRANCH  23  25
HETATM   25  C4  UNL     1      63.167  77.657  77.440  1.00  0.00     0.192 C 
BRANCH  25  26
HETATM   26  C3  UNL     1      63.883  76.374  77.690  1.00  0.00     0.075 C 
BRANCH  26  27
HETATM   27  C2  UNL     1      63.687  75.340  76.636  1.00  0.00    -0.056 C 
HETATM   28  C1  UNL     1      62.619  74.588  76.659  1.00  0.00     0.017 C 
BRANCH  27  29
HETATM   29  C26 UNL     1      64.752  75.139  75.602  1.00  0.00     0.175 C 
BRANCH  29  30
HETATM   30  O5  UNL     1      65.891  75.726  76.306  1.00  0.00    -0.389 OA
ATOM     31  H5  UNL     1      65.473  76.497  76.672  1.00  0.00     0.210 HD
ENDBRANCH  29  30
BRANCH  29  32
HETATM   32  C27 UNL     1      65.188  73.750  75.365  1.00  0.00     0.156 C 
BRANCH  32  33
HETATM   33  O6  UNL     1      66.645  73.768  75.209  1.00  0.00    -0.392 OA
ATOM     34  H6  UNL     1      67.019  73.344  75.973  1.00  0.00     0.210 HD
ENDBRANCH  32  33
BRANCH  32  35
HETATM   35  C28 UNL     1      64.713  73.108  74.091  1.00  0.00     0.037 C 
HETATM   36  C29 UNL     1      63.678  73.790  73.300  1.00  0.00     0.015 C 
BRANCH  35  37
HETATM   37  C30 UNL     1      65.850  72.716  73.168  1.00  0.00     0.170 C 
BRANCH  37  38
HETATM   38  O7  UNL     1      66.118  73.696  72.216  1.00  0.00    -0.400 OA
ATOM     39  H7  UNL     1      67.042  73.744  71.999  1.00  0.00     0.209 HD
ENDBRANCH  37  38
ENDBRANCH  35  37
ENDBRANCH  32  35
ENDBRANCH  29  32
ENDBRANCH  27  29
ENDBRANCH  26  27
ENDBRANCH  25  26
BRANCH  25  40
HETATM   40  O1  UNL     1      64.044  78.687  77.202  1.00  0.00    -0.388 OA
ATOM     41  H1  UNL     1      64.192  79.207  77.983  1.00  0.00     0.210 HD
ENDBRANCH  25  40
ENDBRANCH  23  25
ENDBRANCH   1  23
TORSDOF 12
ENDMDL
MODEL 2
REMARK VINA RESULT: -8.145577102      2.666      4.930
REMARK  12 active torsions:
REMARK  status: ('A' for Active; 'I' for Inactive)
REMARK    1  A    between atoms: C2_2  and  C3_3 
REMARK    2  A    between atoms: C2_2  and  C26_31 
REMARK    3  A    between atoms: C3_3  and  C4_4 
REMARK    4  A    between atoms: C4_4  and  O1_5 
REMARK    5  A    between atoms: C4_4  and  C5_7 
REMARK    6  A    between atoms: C5_7  and  C6_9 
REMARK    7  A    between atoms: C26_31  and  O5_32 
REMARK    8  A    between atoms: C26_31  and  C27_34 
REMARK    9  A    between atoms: C27_34  and  O6_35 
REMARK   10  A    between atoms: C27_34  and  C28_37 
REMARK   11  A    between atoms: C28_37  and  C30_39 
REMARK   12  A    between atoms: C30_39  and  O7_40 
ROOT
HETATM    1  C6  UNL     1      64.436  78.315  80.049  1.00  0.00     0.067 C 
HETATM    2  C7  UNL     1      65.415  79.332  80.666  1.00  0.00     0.013 C 
HETATM    3  C8  UNL     1      64.855  79.206  82.110  1.00  0.00     0.007 C 
HETATM    4  C9  UNL     1      63.417  79.482  81.816  1.00  0.00     0.003 C 
HETATM    5  C10 UNL     1      63.083  78.815  80.510  1.00  0.00    -0.029 C 
HETATM    6  C11 UNL     1      62.655  79.884  79.501  1.00  0.00     0.016 C 
HETATM    7  C12 UNL     1      62.125  77.684  80.563  1.00  0.00     0.011 C 
HETATM    8  C13 UNL     1      61.753  77.268  82.007  1.00  0.00     0.012 C 
HETATM    9  C14 UNL     1      61.232  78.592  82.546  1.00  0.00    -0.020 A 
HETATM   10  C15 UNL     1      60.037  78.914  81.999  1.00  0.00     0.026 A 
HETATM   11  C16 UNL     1      60.229  78.929  83.447  1.00  0.00     0.017 A 
HETATM   12  C17 UNL     1      58.936  79.435  83.876  1.00  0.00     0.184 C 
HETATM   13  O3  UNL     1      58.038  78.345  83.766  1.00  0.00    -0.355 OA
HETATM   14  C18 UNL     1      58.431  77.219  84.403  1.00  0.00     0.157 C 
HETATM   15  C19 UNL     1      57.572  76.070  83.876  1.00  0.00     0.078 C 
HETATM   16  C20 UNL     1      58.160  77.258  85.912  1.00  0.00     0.078 C 
HETATM   17  O4  UNL     1      59.765  76.809  84.170  1.00  0.00    -0.350 OA
HETATM   18  C21 UNL     1      60.536  77.931  84.496  1.00  0.00     0.136 C 
HETATM   19  C22 UNL     1      61.955  77.682  84.817  1.00  0.00     0.034 C 
HETATM   20  C23 UNL     1      62.993  78.522  84.121  1.00  0.00     0.013 C 
HETATM   21  C24 UNL     1      62.471  79.312  82.931  1.00  0.00    -0.031 C 
HETATM   22  C25 UNL     1      62.029  80.670  83.510  1.00  0.00     0.016 C 
ENDROOT
BRANCH   1  23
HETATM   23  C5  UNL     1      64.610  78.071  78.643  1.00  0.00     0.160 C 
HETATM   24  O2  UNL     1      65.361  78.676  77.908  1.00  0.00    -0.295 OA
BRANCH  23  25
HETATM   25  C4  UNL     1      63.814  76.976  77.970  1.00  0.00     0.192 C 
BRANCH  25  26
HETATM   26  C3  UNL     1      64.706  75.866  77.529  1.00  0.00     0.075 C 
BRANCH  26  27
HETATM   27  C2  UNL     1      64.139  75.008  76.451  1.00  0.00    -0.056 C 
HETATM   28  C1  UNL     1      62.929  74.533  76.572  1.00  0.00     0.017 C 
BRANCH  27  29
HETATM   29  C26 UNL     1      64.994  74.655  75.272  1.00  0.00     0.175 C 
BRANCH  29  30
HETATM   30  O5  UNL     1      66.300  74.588  75.927  1.00  0.00    -0.389 OA
ATOM     31  H5  UNL     1      66.360  73.651  76.069  1.00  0.00     0.210 HD
ENDBRANCH  29  30
BRANCH  29  32
HETATM   32  C27 UNL     1      64.829  73.298  74.720  1.00  0.00     0.156 C 
BRANCH  32  33
HETATM   33  O6  UNL     1      66.161  72.694  74.634  1.00  0.00    -0.392 OA
ATOM     34  H6  UNL     1      66.120  72.004  73.982  1.00  0.00     0.210 HD
ENDBRANCH  32  33
BRANCH  32  35
HETATM   35  C28 UNL     1      64.317  73.208  73.309  1.00  0.00     0.037 C 
HETATM   36  C29 UNL     1      62.865  73.198  73.083  1.00  0.00     0.015 C 
BRANCH  35  37
HETATM   37  C30 UNL     1      64.945  74.235  72.387  1.00  0.00     0.170 C 
BRANCH  37  38
HETATM   38  O7  UNL     1      66.190  73.828  71.914  1.00  0.00    -0.400 OA
ATOM     39  H7  UNL     1      66.199  73.720  70.970  1.00  0.00     0.209 HD
ENDBRANCH  37  38
ENDBRANCH  35  37
ENDBRANCH  32  35
ENDBRANCH  29  32
ENDBRANCH  27  29
ENDBRANCH  26  27
ENDBRANCH  25  26
BRANCH  25  40
HETATM   40  O1  UNL     1      63.049  77.453  76.934  1.00  0.00    -0.388 OA
ATOM     41  H1  UNL     1      63.553  77.522  76.131  1.00  0.00     0.210 HD
ENDBRANCH  25  40
ENDBRANCH  23  25
ENDBRANCH   1  23
TORSDOF 12
ENDMDL
MODEL 3
REMARK VINA RESULT: -7.859211773      2.962      5.299
REMARK  12 active torsions:
REMARK  status: ('A' for Active; 'I' for Inactive)
REMARK    1  A    between atoms: C2_2  and  C3_3 
REMARK    2  A    between atoms: C2_2  and  C26_31 
REMARK    3  A    between atoms: C3_3  and  C4_4 
REMARK    4  A    between atoms: C4_4  and  O1_5 
REMARK    5  A    between atoms: C4_4  and  C5_7 
REMARK    6  A    between atoms: C5_7  and  C6_9 
REMARK    7  A    between atoms: C26_31  and  O5_32 
REMARK    8  A    between atoms: C26_31  and  C27_34 
REMARK    9  A    between atoms: C27_34  and  O6_35 
REMARK   10  A    between atoms: C27_34  and  C28_37 
REMARK   11  A    between atoms: C28_37  and  C30_39 
REMARK   12  A    between atoms: C30_39  and  O7_40 
ROOT
HETATM    1  C6  UNL     1      63.244  77.782  79.527  1.00  0.00     0.067 C 
HETATM    2  C7  UNL     1      64.429  78.574  80.112  1.00  0.00     0.013 C 
HETATM    3  C8  UNL     1      64.047  78.318  81.597  1.00  0.00     0.007 C 
HETATM    4  C9  UNL     1      62.638  78.808  81.552  1.00  0.00     0.003 C 
HETATM    5  C10 UNL     1      62.047  78.377  80.238  1.00  0.00    -0.029 C 
HETATM    6  C11 UNL     1      61.648  79.621  79.440  1.00  0.00     0.016 C 
HETATM    7  C12 UNL     1      60.953  77.377  80.293  1.00  0.00     0.011 C 
HETATM    8  C13 UNL     1      60.714  76.813  81.715  1.00  0.00     0.012 C 
HETATM    9  C14 UNL     1      60.461  78.102  82.481  1.00  0.00    -0.020 A 
HETATM   10  C15 UNL     1      59.264  78.643  82.158  1.00  0.00     0.026 A 
HETATM   11  C16 UNL     1      59.641  78.431  83.554  1.00  0.00     0.017 A 
HETATM   12  C17 UNL     1      58.498  79.029  84.225  1.00  0.00     0.184 C 
HETATM   13  O3  UNL     1      57.449  78.085  84.116  1.00  0.00    -0.355 OA
HETATM   14  C18 UNL     1      57.756  76.841  84.548  1.00  0.00     0.157 C 
HETATM   15  C19 UNL     1      56.682  75.892  84.017  1.00  0.00     0.078 C 
HETATM   16  C20 UNL     1      57.690  76.702  86.074  1.00  0.00     0.078 C 
HETATM   17  O4  UNL     1      58.977  76.305  84.075  1.00  0.00    -0.350 OA
HETATM   18  C21 UNL     1      59.935  77.267  84.417  1.00  0.00     0.136 C 
HETATM   19  C22 UNL     1      61.334  76.802  84.494  1.00  0.00     0.034 C 
HETATM   20  C23 UNL     1      62.382  77.596  83.762  1.00  0.00     0.013 C 
HETATM   21  C24 UNL     1      61.829  78.603  82.765  1.00  0.00    -0.031 C 
HETATM   22  C25 UNL     1      61.662  79.911  83.563  1.00  0.00     0.016 C 
ENDROOT
BRANCH   1  23
HETATM   23  C5  UNL     1      63.199  77.717  78.091  1.00  0.00     0.160 C 
HETATM   24  O2  UNL     1      62.223  77.931  77.404  1.00  0.00    -0.295 OA
BRANCH  23  25
HETATM   25  C4  UNL     1      64.449  77.359  77.320  1.00  0.00     0.192 C 
BRANCH  25  26
HETATM   26  C3  UNL     1      64.781  75.915  77.491  1.00  0.00     0.075 C 
BRANCH  26  27
HETATM   27  C2  UNL     1      64.249  75.027  76.420  1.00  0.00    -0.056 C 
HETATM   28  C1  UNL     1      63.037  74.551  76.518  1.00  0.00     0.017 C 
BRANCH  27  29
HETATM   29  C26 UNL     1      65.139  74.645  75.278  1.00  0.00     0.175 C 
BRANCH  29  30
HETATM   30  O5  UNL     1      66.420  74.569  75.979  1.00  0.00    -0.389 OA
ATOM     31  H5  UNL     1      66.223  75.114  76.732  1.00  0.00     0.210 HD
ENDBRANCH  29  30
BRANCH  29  32
HETATM   32  C27 UNL     1      64.974  73.282  74.739  1.00  0.00     0.156 C 
BRANCH  32  33
HETATM   33  O6  UNL     1      66.308  72.681  74.648  1.00  0.00    -0.392 OA
ATOM     34  H6  UNL     1      66.323  72.139  73.868  1.00  0.00     0.210 HD
ENDBRANCH  32  33
BRANCH  32  35
HETATM   35  C28 UNL     1      64.453  73.178  73.332  1.00  0.00     0.037 C 
HETATM   36  C29 UNL     1      62.999  73.190  73.115  1.00  0.00     0.015 C 
BRANCH  35  37
HETATM   37  C30 UNL     1      65.093  74.178  72.390  1.00  0.00     0.170 C 
BRANCH  37  38
HETATM   38  O7  UNL     1      66.325  73.738  71.912  1.00  0.00    -0.400 OA
ATOM     39  H7  UNL     1      67.049  74.242  72.265  1.00  0.00     0.209 HD
ENDBRANCH  37  38
ENDBRANCH  35  37
ENDBRANCH  32  35
ENDBRANCH  29  32
ENDBRANCH  27  29
ENDBRANCH  26  27
ENDBRANCH  25  26
BRANCH  25  40
HETATM   40  O1  UNL     1      65.511  78.165  77.650  1.00  0.00    -0.388 OA
ATOM     41  H1  UNL     1      66.043  77.778  78.336  1.00  0.00     0.210 HD
ENDBRANCH  25  40
ENDBRANCH  23  25
ENDBRANCH   1  23
TORSDOF 12
ENDMDL
MODEL 4
REMARK VINA RESULT: -7.779849167      2.496      4.114
REMARK  12 active torsions:
REMARK  status: ('A' for Active; 'I' for Inactive)
REMARK    1  A    between atoms: C2_2  and  C3_3 
REMARK    2  A    between atoms: C2_2  and  C26_31 
REMARK    3  A    between atoms: C3_3  and  C4_4 
REMARK    4  A    between atoms: C4_4  and  O1_5 
REMARK    5  A    between atoms: C4_4  and  C5_7 
REMARK    6  A    between atoms: C5_7  and  C6_9 
REMARK    7  A    between atoms: C26_31  and  O5_32 
REMARK    8  A    between atoms: C26_31  and  C27_34 
REMARK    9  A    between atoms: C27_34  and  O6_35 
REMARK   10  A    between atoms: C27_34  and  C28_37 
REMARK   11  A    between atoms: C28_37  and  C30_39 
REMARK   12  A    between atoms: C30_39  and  O7_40 
ROOT
HETATM    1  C6  UNL     1      63.756  77.742  78.881  1.00  0.00     0.067 C 
HETATM    2  C7  UNL     1      65.133  78.434  78.875  1.00  0.00     0.013 C 
HETATM    3  C8  UNL     1      65.286  78.450  80.422  1.00  0.00     0.007 C 
HETATM    4  C9  UNL     1      63.999  79.123  80.767  1.00  0.00     0.003 C 
HETATM    5  C10 UNL     1      62.945  78.596  79.832  1.00  0.00    -0.029 C 
HETATM    6  C11 UNL     1      62.391  79.757  79.001  1.00  0.00     0.016 C 
HETATM    7  C12 UNL     1      61.864  77.780  80.437  1.00  0.00     0.011 C 
HETATM    8  C13 UNL     1      62.103  77.465  81.933  1.00  0.00     0.012 C 
HETATM    9  C14 UNL     1      62.247  78.874  82.489  1.00  0.00    -0.020 A 
HETATM   10  C15 UNL     1      61.062  79.526  82.495  1.00  0.00     0.026 A 
HETATM   11  C16 UNL     1      61.893  79.466  83.695  1.00  0.00     0.017 A 
HETATM   12  C17 UNL     1      61.119  80.310  84.591  1.00  0.00     0.184 C 
HETATM   13  O3  UNL     1      60.025  79.518  85.019  1.00  0.00    -0.355 OA
HETATM   14  C18 UNL     1      60.363  78.318  85.543  1.00  0.00     0.157 C 
HETATM   15  C19 UNL     1      59.096  77.464  85.590  1.00  0.00     0.078 C 
HETATM   16  C20 UNL     1      60.835  78.410  86.999  1.00  0.00     0.078 C 
HETATM   17  O4  UNL     1      61.287  77.552  84.791  1.00  0.00    -0.350 OA
HETATM   18  C21 UNL     1      62.379  78.407  84.608  1.00  0.00     0.136 C 
HETATM   19  C22 UNL     1      63.670  77.765  84.292  1.00  0.00     0.034 C 
HETATM   20  C23 UNL     1      64.450  78.289  83.115  1.00  0.00     0.013 C 
HETATM   21  C24 UNL     1      63.662  79.211  82.197  1.00  0.00    -0.031 C 
HETATM   22  C25 UNL     1      63.899  80.630  82.749  1.00  0.00     0.016 C 
ENDROOT
BRANCH   1  23
HETATM   23  C5  UNL     1      63.197  77.479  77.583  1.00  0.00     0.160 C 
HETATM   24  O2  UNL     1      63.285  78.205  76.615  1.00  0.00    -0.295 OA
BRANCH  23  25
HETATM   25  C4  UNL     1      62.424  76.202  77.347  1.00  0.00     0.192 C 
BRANCH  25  26
HETATM   26  C3  UNL     1      62.943  75.480  76.151  1.00  0.00     0.075 C 
BRANCH  26  27
HETATM   27  C2  UNL     1      64.267  74.826  76.349  1.00  0.00    -0.056 C 
HETATM   28  C1  UNL     1      64.682  74.562  77.559  1.00  0.00     0.017 C 
BRANCH  27  29
HETATM   29  C26 UNL     1      65.126  74.539  75.156  1.00  0.00     0.175 C 
BRANCH  29  30
HETATM   30  O5  UNL     1      66.430  74.442  75.810  1.00  0.00    -0.389 OA
ATOM     31  H5  UNL     1      66.871  73.860  75.202  1.00  0.00     0.210 HD
ENDBRANCH  29  30
BRANCH  29  32
HETATM   32  C27 UNL     1      64.967  73.212  74.532  1.00  0.00     0.156 C 
BRANCH  32  33
HETATM   33  O6  UNL     1      66.309  72.660  74.327  1.00  0.00    -0.392 OA
ATOM     34  H6  UNL     1      66.502  72.721  73.399  1.00  0.00     0.210 HD
ENDBRANCH  32  33
BRANCH  32  35
HETATM   35  C28 UNL     1      64.369  73.188  73.153  1.00  0.00     0.037 C 
HETATM   36  C29 UNL     1      62.906  73.237  73.016  1.00  0.00     0.015 C 
BRANCH  35  37
HETATM   37  C30 UNL     1      64.978  74.224  72.229  1.00  0.00     0.170 C 
BRANCH  37  38
HETATM   38  O7  UNL     1      66.213  73.821  71.726  1.00  0.00    -0.400 OA
ATOM     39  H7  UNL     1      66.388  74.187  70.866  1.00  0.00     0.209 HD
ENDBRANCH  37  38
ENDBRANCH  35  37
ENDBRANCH  32  35
ENDBRANCH  29  32
ENDBRANCH  27  29
ENDBRANCH  26  27
ENDBRANCH  25  26
BRANCH  25  40
HETATM   40  O1  UNL     1      61.071  76.424  77.256  1.00  0.00    -0.388 OA
ATOM     41  H1  UNL     1      60.642  76.322  78.098  1.00  0.00     0.210 HD
ENDBRANCH  25  40
ENDBRANCH  23  25
ENDBRANCH   1  23
TORSDOF 12
ENDMDL
MODEL 5
REMARK VINA RESULT: -7.716655784      3.999      5.639
REMARK  12 active torsions:
REMARK  status: ('A' for Active; 'I' for Inactive)
REMARK    1  A    between atoms: C2_2  and  C3_3 
REMARK    2  A    between atoms: C2_2  and  C26_31 
REMARK    3  A    between atoms: C3_3  and  C4_4 
REMARK    4  A    between atoms: C4_4  and  O1_5 
REMARK    5  A    between atoms: C4_4  and  C5_7 
REMARK    6  A    between atoms: C5_7  and  C6_9 
REMARK    7  A    between atoms: C26_31  and  O5_32 
REMARK    8  A    between atoms: C26_31  and  C27_34 
REMARK    9  A    between atoms: C27_34  and  O6_35 
REMARK   10  A    between atoms: C27_34  and  C28_37 
REMARK   11  A    between atoms: C28_37  and  C30_39 
REMARK   12  A    between atoms: C30_39  and  O7_40 
ROOT
HETATM    1  C6  UNL     1      61.982  77.720  78.998  1.00  0.00     0.067 C 
HETATM    2  C7  UNL     1      63.162  78.288  78.187  1.00  0.00     0.013 C 
HETATM    3  C8  UNL     1      64.133  78.375  79.397  1.00  0.00     0.007 C 
HETATM    4  C9  UNL     1      63.272  79.176  80.317  1.00  0.00     0.003 C 
HETATM    5  C10 UNL     1      61.857  78.692  80.152  1.00  0.00    -0.029 C 
HETATM    6  C11 UNL     1      60.991  79.849  79.647  1.00  0.00     0.016 C 
HETATM    7  C12 UNL     1      61.245  78.007  81.317  1.00  0.00     0.011 C 
HETATM    8  C13 UNL     1      62.247  77.755  82.470  1.00  0.00     0.012 C 
HETATM    9  C14 UNL     1      62.730  79.175  82.726  1.00  0.00    -0.020 A 
HETATM   10  C15 UNL     1      61.770  79.928  83.309  1.00  0.00     0.026 A 
HETATM   11  C16 UNL     1      63.117  79.861  83.871  1.00  0.00     0.017 A 
HETATM   12  C17 UNL     1      62.993  80.817  84.960  1.00  0.00     0.184 C 
HETATM   13  O3  UNL     1      62.275  80.147  85.981  1.00  0.00    -0.355 OA
HETATM   14  C18 UNL     1      62.791  78.953  86.350  1.00  0.00     0.157 C 
HETATM   15  C19 UNL     1      61.718  78.217  87.152  1.00  0.00     0.078 C 
HETATM   16  C20 UNL     1      63.983  79.084  87.306  1.00  0.00     0.078 C 
HETATM   17  O4  UNL     1      63.123  78.070  85.295  1.00  0.00    -0.350 OA
HETATM   18  C21 UNL     1      63.975  78.815  84.472  1.00  0.00     0.136 C 
HETATM   19  C22 UNL     1      64.856  78.047  83.572  1.00  0.00     0.034 C 
HETATM   20  C23 UNL     1      64.892  78.435  82.118  1.00  0.00     0.013 C 
HETATM   21  C24 UNL     1      63.772  79.371  81.688  1.00  0.00    -0.031 C 
HETATM   22  C25 UNL     1      64.332  80.792  81.889  1.00  0.00     0.016 C 
ENDROOT
BRANCH   1  23
HETATM   23  C5  UNL     1      60.795  77.436  78.238  1.00  0.00     0.160 C 
HETATM   24  O2  UNL     1      59.722  77.109  78.698  1.00  0.00    -0.295 OA
BRANCH  23  25
HETATM   25  C4  UNL     1      60.831  77.539  76.730  1.00  0.00     0.192 C 
BRANCH  25  26
HETATM   26  C3  UNL     1      59.475  77.832  76.186  1.00  0.00     0.075 C 
BRANCH  26  27
HETATM   27  C2  UNL     1      59.474  78.550  74.880  1.00  0.00    -0.056 C 
HETATM   28  C1  UNL     1      59.928  79.772  74.814  1.00  0.00     0.017 C 
BRANCH  27  29
HETATM   29  C26 UNL     1      58.893  77.875  73.676  1.00  0.00     0.175 C 
BRANCH  29  30
HETATM   30  O5  UNL     1      59.936  76.881  73.424  1.00  0.00    -0.389 OA
ATOM     31  H5  UNL     1      60.283  76.788  74.303  1.00  0.00     0.210 HD
ENDBRANCH  29  30
BRANCH  29  32
HETATM   32  C27 UNL     1      57.692  77.047  73.897  1.00  0.00     0.156 C 
BRANCH  32  33
HETATM   33  O6  UNL     1      57.754  75.923  72.960  1.00  0.00    -0.392 OA
ATOM     34  H6  UNL     1      58.549  75.438  73.149  1.00  0.00     0.210 HD
ENDBRANCH  32  33
BRANCH  32  35
HETATM   35  C28 UNL     1      56.370  77.689  73.580  1.00  0.00     0.037 C 
HETATM   36  C29 UNL     1      55.383  77.846  74.658  1.00  0.00     0.015 C 
BRANCH  35  37
HETATM   37  C30 UNL     1      56.516  79.015  72.858  1.00  0.00     0.170 C 
BRANCH  37  38
HETATM   38  O7  UNL     1      55.284  79.586  72.551  1.00  0.00    -0.400 OA
ATOM     39  H7  UNL     1      55.256  80.514  72.757  1.00  0.00     0.209 HD
ENDBRANCH  37  38
ENDBRANCH  35  37
ENDBRANCH  32  35
ENDBRANCH  29  32
ENDBRANCH  27  29
ENDBRANCH  26  27
ENDBRANCH  25  26
BRANCH  25  40
HETATM   40  O1  UNL     1      61.379  76.423  76.147  1.00  0.00    -0.388 OA
ATOM     41  H1  UNL     1      60.870  75.643  76.338  1.00  0.00     0.210 HD
ENDBRANCH  25  40
ENDBRANCH  23  25
ENDBRANCH   1  23
TORSDOF 12
ENDMDL
