MODEL 1
REMARK VINA RESULT: -8.570917868      0.000      0.000
REMARK  8 active torsions:
REMARK  status: ('A' for Active; 'I' for Inactive)
REMARK    1  A    between atoms: N2_9  and  C8_10 
REMARK    2  A    between atoms: C8_10  and  C9_11 
REMARK    3  A    between atoms: C10_12  and  C11_13 
REMARK       I    between atoms: C11_13  and  N3_15 
REMARK    4  A    between atoms: N3_15  and  C12_17 
REMARK    5  A    between atoms: C12_17  and  C13_18 
REMARK    6  A    between atoms: N4_21  and  C15_22 
REMARK    7  A    between atoms: C17_24  and  O2_25 
REMARK    8  A    between atoms: C18_27  and  C19_28 
ROOT
HETATM    1  C9  UNL     1      12.434  37.516  77.194  1.00  0.00     0.020 A 
HETATM    2  C10 UNL     1      11.322  38.007  77.913  1.00  0.00     0.061 A 
HETATM    3  C14 UNL     1      11.786  38.895  78.838  1.00  0.00     0.116 A 
HETATM    4  N4  UNL     1      13.107  38.998  78.753  1.00  0.00    -0.319 N 
HETATM    5  C20 UNL     1      13.503  38.161  77.754  1.00  0.00     0.026 A 
HETATM    6  C21 UNL     1      14.919  38.076  77.396  1.00  0.00     0.070 C 
ENDROOT
BRANCH   1   7
HETATM    7  C8  UNL     1      12.294  36.567  76.086  1.00  0.00     0.117 C 
BRANCH   7   8
HETATM    8  N2  UNL     1      12.963  36.760  74.869  1.00  0.00    -0.267 N 
HETATM    9  C6  UNL     1      12.444  37.660  73.887  1.00  0.00     0.054 A 
HETATM   10  C5  UNL     1      13.048  37.881  72.664  1.00  0.00     0.018 A 
HETATM   11  C7  UNL     1      11.250  38.317  74.208  1.00  0.00     0.037 A 
HETATM   12  C4  UNL     1      12.510  38.738  71.736  1.00  0.00     0.057 A 
HETATM   13  C23 UNL     1      14.307  37.182  72.331  1.00  0.00     0.223 A 
HETATM   14  C3  UNL     1      11.336  39.377  72.064  1.00  0.00     0.034 A 
HETATM   15  N1  UNL     1      13.171  38.930  70.499  1.00  0.00    -0.102 NA
HETATM   16  C2  UNL     1      10.711  39.176  73.276  1.00  0.00    -0.058 A 
HETATM   17  C1  UNL     1       9.438  39.863  73.616  1.00  0.00     0.048 C 
HETATM   18  O5  UNL     1      14.741  36.313  73.319  1.00  0.00    -0.299 OA
HETATM   19  C22 UNL     1      14.165  36.070  74.541  1.00  0.00     0.371 A 
HETATM   20  O4  UNL     1      14.664  35.272  75.359  1.00  0.00    -0.238 OA
ENDBRANCH   7   8
ENDBRANCH   1   7
BRANCH   2  21
HETATM   21  C11 UNL     1       9.933  37.590  77.734  1.00  0.00     0.254 C 
HETATM   22  O1  UNL     1       9.239  38.158  76.815  1.00  0.00    -0.268 OA
HETATM   23  N3  UNL     1       9.282  36.603  78.503  1.00  0.00    -0.356 N 
ATOM     24  H3  UNL     1       9.786  36.132  79.254  1.00  0.00     0.162 HD
BRANCH  23  25
HETATM   25  C12 UNL     1       7.913  36.258  78.233  1.00  0.00     0.134 C 
BRANCH  25  26
HETATM   26  C13 UNL     1       7.199  35.539  79.323  1.00  0.00     0.104 C 
HETATM   27 BR1  UNL     1       8.244  35.501  80.954  1.00  0.00    -0.095 Br
ENDBRANCH  25  26
ENDBRANCH  23  25
ENDBRANCH   2  21
BRANCH   4  28
HETATM   28  C15 UNL     1      13.946  39.828  79.579  1.00  0.00     0.084 A 
HETATM   29  C16 UNL     1      15.285  40.004  79.597  1.00  0.00     0.075 A 
HETATM   30  C17 UNL     1      15.794  40.866  80.511  1.00  0.00     0.090 A 
HETATM   31  C18 UNL     1      14.890  41.485  81.340  1.00  0.00     0.105 A 
HETATM   32  S1  UNL     1      13.396  40.850  80.820  1.00  0.00    -0.064 SA
BRANCH  30  33
HETATM   33  O2  UNL     1      17.174  41.174  80.676  1.00  0.00    -0.359 OA
ATOM     34  H2  UNL     1      17.786  40.692  81.221  1.00  0.00     0.217 HD
ENDBRANCH  30  33
BRANCH  31  35
HETATM   35  C19 UNL     1      15.164  42.461  82.419  1.00  0.00     0.274 C 
HETATM   36  N5  UNL     1      16.121  42.092  83.391  1.00  0.00    -0.057 NA
HETATM   37  O3  UNL     1      14.580  43.554  82.471  1.00  0.00    -0.270 OA
ENDBRANCH  31  35
ENDBRANCH   4  28
TORSDOF 8
ENDMDL
MODEL 2
REMARK VINA RESULT: -8.483165754      1.385      2.560
REMARK  8 active torsions:
REMARK  status: ('A' for Active; 'I' for Inactive)
REMARK    1  A    between atoms: N2_9  and  C8_10 
REMARK    2  A    between atoms: C8_10  and  C9_11 
REMARK    3  A    between atoms: C10_12  and  C11_13 
REMARK       I    between atoms: C11_13  and  N3_15 
REMARK    4  A    between atoms: N3_15  and  C12_17 
REMARK    5  A    between atoms: C12_17  and  C13_18 
REMARK    6  A    between atoms: N4_21  and  C15_22 
REMARK    7  A    between atoms: C17_24  and  O2_25 
REMARK    8  A    between atoms: C18_27  and  C19_28 
ROOT
HETATM    1  C9  UNL     1      12.087  37.822  77.166  1.00  0.00     0.020 A 
HETATM    2  C10 UNL     1      11.070  38.112  78.104  1.00  0.00     0.061 A 
HETATM    3  C14 UNL     1      11.615  38.899  79.075  1.00  0.00     0.116 A 
HETATM    4  N4  UNL     1      12.898  39.123  78.818  1.00  0.00    -0.319 N 
HETATM    5  C20 UNL     1      13.186  38.471  77.658  1.00  0.00     0.026 A 
HETATM    6  C21 UNL     1      14.533  38.556  77.091  1.00  0.00     0.070 C 
ENDROOT
BRANCH   1   7
HETATM    7  C8  UNL     1      11.836  37.029  75.959  1.00  0.00     0.117 C 
BRANCH   7   8
HETATM    8  N2  UNL     1      12.071  37.551  74.680  1.00  0.00    -0.267 N 
HETATM    9  C6  UNL     1      13.258  37.211  73.961  1.00  0.00     0.054 A 
HETATM   10  C5  UNL     1      13.555  37.705  72.705  1.00  0.00     0.018 A 
HETATM   11  C7  UNL     1      14.155  36.348  74.604  1.00  0.00     0.037 A 
HETATM   12  C4  UNL     1      14.716  37.373  72.052  1.00  0.00     0.057 A 
HETATM   13  C23 UNL     1      12.605  38.618  72.033  1.00  0.00     0.223 A 
HETATM   14  C3  UNL     1      15.588  36.525  72.695  1.00  0.00     0.034 A 
HETATM   15  N1  UNL     1      14.969  37.906  70.765  1.00  0.00    -0.102 NA
HETATM   16  C2  UNL     1      15.320  36.016  73.948  1.00  0.00    -0.058 A 
HETATM   17  C1  UNL     1      16.274  35.109  74.637  1.00  0.00     0.048 C 
HETATM   18  O5  UNL     1      11.487  38.918  72.794  1.00  0.00    -0.299 OA
HETATM   19  C22 UNL     1      11.165  38.446  74.042  1.00  0.00     0.371 A 
HETATM   20  O4  UNL     1      10.112  38.779  74.622  1.00  0.00    -0.238 OA
ENDBRANCH   7   8
ENDBRANCH   1   7
BRANCH   2  21
HETATM   21  C11 UNL     1       9.699  37.609  78.064  1.00  0.00     0.254 C 
HETATM   22  O1  UNL     1       8.899  38.085  77.179  1.00  0.00    -0.268 OA
HETATM   23  N3  UNL     1       9.174  36.633  78.936  1.00  0.00    -0.356 N 
ATOM     24  H3  UNL     1       9.765  36.234  79.665  1.00  0.00     0.162 HD
BRANCH  23  25
HETATM   25  C12 UNL     1       7.811  36.197  78.802  1.00  0.00     0.134 C 
BRANCH  25  26
HETATM   26  C13 UNL     1       7.310  35.294  79.874  1.00  0.00     0.104 C 
HETATM   27 BR1  UNL     1       8.449  35.349  81.440  1.00  0.00    -0.095 Br
ENDBRANCH  25  26
ENDBRANCH  23  25
ENDBRANCH   2  21
BRANCH   4  28
HETATM   28  C15 UNL     1      13.801  39.898  79.630  1.00  0.00     0.084 A 
HETATM   29  C16 UNL     1      15.147  39.999  79.618  1.00  0.00     0.075 A 
HETATM   30  C17 UNL     1      15.724  40.822  80.527  1.00  0.00     0.090 A 
HETATM   31  C18 UNL     1      14.875  41.484  81.381  1.00  0.00     0.105 A 
HETATM   32  S1  UNL     1      13.337  40.939  80.891  1.00  0.00    -0.064 SA
BRANCH  30  33
HETATM   33  O2  UNL     1      17.123  41.052  80.663  1.00  0.00    -0.359 OA
ATOM     34  H2  UNL     1      17.598  41.794  80.306  1.00  0.00     0.217 HD
ENDBRANCH  30  33
BRANCH  31  35
HETATM   35  C19 UNL     1      15.228  42.434  82.461  1.00  0.00     0.274 C 
HETATM   36  N5  UNL     1      16.237  42.033  83.365  1.00  0.00    -0.057 NA
HETATM   37  O3  UNL     1      14.665  43.533  82.570  1.00  0.00    -0.270 OA
ENDBRANCH  31  35
ENDBRANCH   4  28
TORSDOF 8
ENDMDL
MODEL 3
REMARK VINA RESULT: -8.429508949      1.500      1.562
REMARK  8 active torsions:
REMARK  status: ('A' for Active; 'I' for Inactive)
REMARK    1  A    between atoms: N2_9  and  C8_10 
REMARK    2  A    between atoms: C8_10  and  C9_11 
REMARK    3  A    between atoms: C10_12  and  C11_13 
REMARK       I    between atoms: C11_13  and  N3_15 
REMARK    4  A    between atoms: N3_15  and  C12_17 
REMARK    5  A    between atoms: C12_17  and  C13_18 
REMARK    6  A    between atoms: N4_21  and  C15_22 
REMARK    7  A    between atoms: C17_24  and  O2_25 
REMARK    8  A    between atoms: C18_27  and  C19_28 
ROOT
HETATM    1  C9  UNL     1      12.590  37.546  76.981  1.00  0.00     0.020 A 
HETATM    2  C10 UNL     1      11.371  38.055  77.483  1.00  0.00     0.061 A 
HETATM    3  C14 UNL     1      11.669  38.953  78.463  1.00  0.00     0.116 A 
HETATM    4  N4  UNL     1      12.985  39.047  78.616  1.00  0.00    -0.319 N 
HETATM    5  C20 UNL     1      13.546  38.194  77.715  1.00  0.00     0.026 A 
HETATM    6  C21 UNL     1      15.003  38.094  77.618  1.00  0.00     0.070 C 
ENDROOT
BRANCH   1   7
HETATM    7  C8  UNL     1      12.642  36.582  75.879  1.00  0.00     0.117 C 
BRANCH   7   8
HETATM    8  N2  UNL     1      13.390  36.835  74.721  1.00  0.00    -0.267 N 
HETATM    9  C6  UNL     1      12.870  37.671  73.686  1.00  0.00     0.054 A 
HETATM   10  C5  UNL     1      13.551  37.947  72.515  1.00  0.00     0.018 A 
HETATM   11  C7  UNL     1      11.591  38.204  73.893  1.00  0.00     0.037 A 
HETATM   12  C4  UNL     1      13.011  38.738  71.532  1.00  0.00     0.057 A 
HETATM   13  C23 UNL     1      14.899  37.379  72.301  1.00  0.00     0.223 A 
HETATM   14  C3  UNL     1      11.754  39.255  71.749  1.00  0.00     0.034 A 
HETATM   15  N1  UNL     1      13.753  38.990  70.353  1.00  0.00    -0.102 NA
HETATM   16  C2  UNL     1      11.050  38.998  72.907  1.00  0.00    -0.058 A 
HETATM   17  C1  UNL     1       9.689  39.553  73.126  1.00  0.00     0.048 C 
HETATM   18  O5  UNL     1      15.332  36.565  73.335  1.00  0.00    -0.299 OA
HETATM   19  C22 UNL     1      14.680  36.271  74.506  1.00  0.00     0.371 A 
HETATM   20  O4  UNL     1      15.186  35.533  75.375  1.00  0.00    -0.238 OA
ENDBRANCH   7   8
ENDBRANCH   1   7
BRANCH   2  21
HETATM   21  C11 UNL     1      10.033  37.644  77.063  1.00  0.00     0.254 C 
HETATM   22  O1  UNL     1       9.296  38.499  76.451  1.00  0.00    -0.268 OA
HETATM   23  N3  UNL     1       9.477  36.367  77.283  1.00  0.00    -0.356 N 
ATOM     24  H3  UNL     1      10.016  35.656  77.777  1.00  0.00     0.162 HD
BRANCH  23  25
HETATM   25  C12 UNL     1       8.152  36.061  76.814  1.00  0.00     0.134 C 
BRANCH  25  26
HETATM   26  C13 UNL     1       8.075  35.214  75.593  1.00  0.00     0.104 C 
HETATM   27 BR1  UNL     1       7.821  36.286  73.999  1.00  0.00    -0.095 Br
ENDBRANCH  25  26
ENDBRANCH  23  25
ENDBRANCH   2  21
BRANCH   4  28
HETATM   28  C15 UNL     1      13.670  39.884  79.567  1.00  0.00     0.084 A 
HETATM   29  C16 UNL     1      14.980  40.171  79.722  1.00  0.00     0.075 A 
HETATM   30  C17 UNL     1      15.326  41.005  80.733  1.00  0.00     0.090 A 
HETATM   31  C18 UNL     1      14.300  41.485  81.510  1.00  0.00     0.105 A 
HETATM   32  S1  UNL     1      12.922  40.766  80.813  1.00  0.00    -0.064 SA
BRANCH  30  33
HETATM   33  O2  UNL     1      16.653  41.416  81.046  1.00  0.00    -0.359 OA
ATOM     34  H2  UNL     1      16.887  42.107  81.656  1.00  0.00     0.217 HD
ENDBRANCH  30  33
BRANCH  31  35
HETATM   35  C19 UNL     1      14.389  42.403  82.670  1.00  0.00     0.274 C 
HETATM   36  N5  UNL     1      13.208  42.610  83.416  1.00  0.00    -0.057 NA
HETATM   37  O3  UNL     1      15.451  42.966  82.973  1.00  0.00    -0.270 OA
ENDBRANCH  31  35
ENDBRANCH   4  28
TORSDOF 8
ENDMDL
MODEL 4
REMARK VINA RESULT: -8.299576709      1.834      2.840
REMARK  8 active torsions:
REMARK  status: ('A' for Active; 'I' for Inactive)
REMARK    1  A    between atoms: N2_9  and  C8_10 
REMARK    2  A    between atoms: C8_10  and  C9_11 
REMARK    3  A    between atoms: C10_12  and  C11_13 
REMARK       I    between atoms: C11_13  and  N3_15 
REMARK    4  A    between atoms: N3_15  and  C12_17 
REMARK    5  A    between atoms: C12_17  and  C13_18 
REMARK    6  A    between atoms: N4_21  and  C15_22 
REMARK    7  A    between atoms: C17_24  and  O2_25 
REMARK    8  A    between atoms: C18_27  and  C19_28 
ROOT
HETATM    1  C9  UNL     1      12.195  37.710  77.188  1.00  0.00     0.020 A 
HETATM    2  C10 UNL     1      11.173  37.977  78.127  1.00  0.00     0.061 A 
HETATM    3  C14 UNL     1      11.697  38.787  79.090  1.00  0.00     0.116 A 
HETATM    4  N4  UNL     1      12.972  39.048  78.827  1.00  0.00    -0.319 N 
HETATM    5  C20 UNL     1      13.277  38.395  77.671  1.00  0.00     0.026 A 
HETATM    6  C21 UNL     1      14.618  38.516  77.100  1.00  0.00     0.070 C 
ENDROOT
BRANCH   1   7
HETATM    7  C8  UNL     1      11.965  36.900  75.989  1.00  0.00     0.117 C 
BRANCH   7   8
HETATM    8  N2  UNL     1      12.085  37.447  74.704  1.00  0.00    -0.267 N 
HETATM    9  C6  UNL     1      13.253  37.209  73.917  1.00  0.00     0.054 A 
HETATM   10  C5  UNL     1      13.438  37.731  72.651  1.00  0.00     0.018 A 
HETATM   11  C7  UNL     1      14.251  36.417  74.499  1.00  0.00     0.037 A 
HETATM   12  C4  UNL     1      14.583  37.499  71.931  1.00  0.00     0.057 A 
HETATM   13  C23 UNL     1      12.382  38.569  72.043  1.00  0.00     0.223 A 
HETATM   14  C3  UNL     1      15.556  36.720  72.516  1.00  0.00     0.034 A 
HETATM   15  N1  UNL     1      14.720  38.057  70.637  1.00  0.00    -0.102 NA
HETATM   16  C2  UNL     1      15.400  36.184  73.777  1.00  0.00    -0.058 A 
HETATM   17  C1  UNL     1      16.461  35.353  74.403  1.00  0.00     0.048 C 
HETATM   18  O5  UNL     1      11.287  38.773  72.868  1.00  0.00    -0.299 OA
HETATM   19  C22 UNL     1      11.075  38.269  74.127  1.00  0.00     0.371 A 
HETATM   20  O4  UNL     1      10.033  38.512  74.767  1.00  0.00    -0.238 OA
ENDBRANCH   7   8
ENDBRANCH   1   7
BRANCH   2  21
HETATM   21  C11 UNL     1       9.818  37.433  78.096  1.00  0.00     0.254 C 
HETATM   22  O1  UNL     1       8.999  37.783  79.022  1.00  0.00    -0.268 OA
HETATM   23  N3  UNL     1       9.331  36.538  77.122  1.00  0.00    -0.356 N 
ATOM     24  H3  UNL     1       9.946  36.219  76.374  1.00  0.00     0.162 HD
BRANCH  23  25
HETATM   25  C12 UNL     1       7.972  36.073  77.176  1.00  0.00     0.134 C 
BRANCH  25  26
HETATM   26  C13 UNL     1       7.432  35.495  75.916  1.00  0.00     0.104 C 
HETATM   27 BR1  UNL     1       8.853  35.019  74.687  1.00  0.00    -0.095 Br
ENDBRANCH  25  26
ENDBRANCH  23  25
ENDBRANCH   2  21
BRANCH   4  28
HETATM   28  C15 UNL     1      13.855  39.856  79.630  1.00  0.00     0.084 A 
HETATM   29  C16 UNL     1      15.199  39.974  79.634  1.00  0.00     0.075 A 
HETATM   30  C17 UNL     1      15.754  40.828  80.528  1.00  0.00     0.090 A 
HETATM   31  C18 UNL     1      14.885  41.501  81.352  1.00  0.00     0.105 A 
HETATM   32  S1  UNL     1      13.360  40.923  80.857  1.00  0.00    -0.064 SA
BRANCH  30  33
HETATM   33  O2  UNL     1      17.148  41.079  80.676  1.00  0.00    -0.359 OA
ATOM     34  H2  UNL     1      17.635  41.763  80.232  1.00  0.00     0.217 HD
ENDBRANCH  30  33
BRANCH  31  35
HETATM   35  C19 UNL     1      15.211  42.485  82.411  1.00  0.00     0.274 C 
HETATM   36  N5  UNL     1      16.177  42.101  83.368  1.00  0.00    -0.057 NA
HETATM   37  O3  UNL     1      14.662  43.595  82.458  1.00  0.00    -0.270 OA
ENDBRANCH  31  35
ENDBRANCH   4  28
TORSDOF 8
ENDMDL
MODEL 5
REMARK VINA RESULT: -8.283663491      2.199      3.169
REMARK  8 active torsions:
REMARK  status: ('A' for Active; 'I' for Inactive)
REMARK    1  A    between atoms: N2_9  and  C8_10 
REMARK    2  A    between atoms: C8_10  and  C9_11 
REMARK    3  A    between atoms: C10_12  and  C11_13 
REMARK       I    between atoms: C11_13  and  N3_15 
REMARK    4  A    between atoms: N3_15  and  C12_17 
REMARK    5  A    between atoms: C12_17  and  C13_18 
REMARK    6  A    between atoms: N4_21  and  C15_22 
REMARK    7  A    between atoms: C17_24  and  O2_25 
REMARK    8  A    between atoms: C18_27  and  C19_28 
ROOT
HETATM    1  C9  UNL     1      10.748  37.442  77.847  1.00  0.00     0.020 A 
HETATM    2  C10 UNL     1      10.140  37.760  79.082  1.00  0.00     0.061 A 
HETATM    3  C14 UNL     1      11.008  38.544  79.782  1.00  0.00     0.116 A 
HETATM    4  N4  UNL     1      12.118  38.740  79.079  1.00  0.00    -0.319 N 
HETATM    5  C20 UNL     1      11.961  38.073  77.903  1.00  0.00     0.026 A 
HETATM    6  C21 UNL     1      13.016  38.126  76.890  1.00  0.00     0.070 C 
ENDROOT
BRANCH   1   7
HETATM    7  C8  UNL     1      10.069  36.644  76.822  1.00  0.00     0.117 C 
BRANCH   7   8
HETATM    8  N2  UNL     1      10.254  36.899  75.456  1.00  0.00    -0.267 N 
HETATM    9  C6  UNL     1      11.057  36.031  74.654  1.00  0.00     0.054 A 
HETATM   10  C5  UNL     1      11.290  36.237  73.308  1.00  0.00     0.018 A 
HETATM   11  C7  UNL     1      11.641  34.938  75.306  1.00  0.00     0.037 A 
HETATM   12  C4  UNL     1      12.085  35.394  72.573  1.00  0.00     0.057 A 
HETATM   13  C23 UNL     1      10.673  37.396  72.627  1.00  0.00     0.223 A 
HETATM   14  C3  UNL     1      12.652  34.323  73.226  1.00  0.00     0.034 A 
HETATM   15  N1  UNL     1      12.289  35.651  71.195  1.00  0.00    -0.102 NA
HETATM   16  C2  UNL     1      12.439  34.092  74.568  1.00  0.00    -0.058 A 
HETATM   17  C1  UNL     1      13.065  32.938  75.265  1.00  0.00     0.048 C 
HETATM   18  O5  UNL     1       9.924  38.203  73.467  1.00  0.00    -0.299 OA
HETATM   19  C22 UNL     1       9.676  38.027  74.805  1.00  0.00     0.371 A 
HETATM   20  O4  UNL     1       8.965  38.819  75.454  1.00  0.00    -0.238 OA
ENDBRANCH   7   8
ENDBRANCH   1   7
BRANCH   2  21
HETATM   21  C11 UNL     1       8.838  37.284  79.544  1.00  0.00     0.254 C 
HETATM   22  O1  UNL     1       7.781  37.811  79.039  1.00  0.00    -0.268 OA
HETATM   23  N3  UNL     1       8.646  36.282  80.517  1.00  0.00    -0.356 N 
ATOM     24  H3  UNL     1       9.453  35.842  80.959  1.00  0.00     0.162 HD
BRANCH  23  25
HETATM   25  C12 UNL     1       7.318  35.877  80.891  1.00  0.00     0.134 C 
BRANCH  25  26
HETATM   26  C13 UNL     1       6.848  34.586  80.319  1.00  0.00     0.104 C 
HETATM   27 BR1  UNL     1       7.685  33.074  81.194  1.00  0.00    -0.095 Br
ENDBRANCH  25  26
ENDBRANCH  23  25
ENDBRANCH   2  21
BRANCH   4  28
HETATM   28  C15 UNL     1      13.264  39.504  79.502  1.00  0.00     0.084 A 
HETATM   29  C16 UNL     1      14.570  39.408  79.173  1.00  0.00     0.075 A 
HETATM   30  C17 UNL     1      15.430  40.282  79.751  1.00  0.00     0.090 A 
HETATM   31  C18 UNL     1      14.885  41.191  80.624  1.00  0.00     0.105 A 
HETATM   32  S1  UNL     1      13.227  40.797  80.604  1.00  0.00    -0.064 SA
BRANCH  30  33
HETATM   33  O2  UNL     1      16.835  40.328  79.526  1.00  0.00    -0.359 OA
ATOM     34  H2  UNL     1      17.259  40.703  78.762  1.00  0.00     0.217 HD
ENDBRANCH  30  33
BRANCH  31  35
HETATM   35  C19 UNL     1      15.584  42.249  81.391  1.00  0.00     0.274 C 
HETATM   36  N5  UNL     1      16.836  41.914  81.953  1.00  0.00    -0.057 NA
HETATM   37  O3  UNL     1      15.093  43.379  81.535  1.00  0.00    -0.270 OA
ENDBRANCH  31  35
ENDBRANCH   4  28
TORSDOF 8
ENDMDL
