MODEL 1
REMARK VINA RESULT: -7.593075742      0.000      0.000
REMARK  11 active torsions:
REMARK  status: ('A' for Active; 'I' for Inactive)
REMARK    1  A    between atoms: C2_2  and  C4_4 
REMARK    2  A    between atoms: C4_4  and  O1_5 
REMARK    3  A    between atoms: C4_4  and  C5_7 
REMARK    4  A    between atoms: C4_4  and  C26_39 
REMARK    5  A    between atoms: C5_7  and  N1_8 
REMARK    6  A    between atoms: N1_8  and  C6_10 
REMARK    7  A    between atoms: C9_13  and  C10_14 
REMARK       I    between atoms: C10_14  and  N2_16 
REMARK    8  A    between atoms: N2_16  and  C11_18 
REMARK    9  A    between atoms: C14_22  and  C15_23 
REMARK       I    between atoms: N4_28  and  C18_29 
REMARK   10  A    between atoms: C18_29  and  O5_31 
REMARK   11  A    between atoms: O5_31  and  C19_32 
ROOT
HETATM    1  C10 UNL     1      11.682  -6.580  -4.905  1.00  0.00     0.226 C 
HETATM    2  O2  UNL     1      10.962  -5.580  -4.713  1.00  0.00    -0.273 OA
HETATM    3  N2  UNL     1      11.884  -7.499  -3.803  1.00  0.00    -0.320 N 
ATOM      4  H2  UNL     1      12.458  -8.336  -3.902  1.00  0.00     0.169 HD
ENDROOT
BRANCH   1   5
HETATM    5  C9  UNL     1      12.345  -6.896  -6.171  1.00  0.00     0.078 C 
HETATM    6  C8  UNL     1      13.517  -7.874  -6.019  1.00  0.00     0.016 C 
HETATM    7  C7  UNL     1      13.913  -8.262  -7.409  1.00  0.00     0.026 C 
HETATM    8  C6  UNL     1      14.524  -7.120  -8.127  1.00  0.00     0.081 C 
HETATM    9  C25 UNL     1      14.264  -5.825  -7.360  1.00  0.00     0.026 C 
HETATM   10  C24 UNL     1      12.846  -5.674  -6.911  1.00  0.00     0.016 C 
BRANCH   8  11
HETATM   11  N1  UNL     1      15.931  -7.194  -8.300  1.00  0.00    -0.395 N 
ATOM     12  H1  UNL     1      16.420  -6.440  -8.783  1.00  0.00     0.159 HD
BRANCH  11  13
HETATM   13  C5  UNL     1      16.651  -8.282  -7.820  1.00  0.00     0.103 C 
BRANCH  13  14
HETATM   14  C4  UNL     1      17.500  -8.083  -6.571  1.00  0.00     0.190 C 
BRANCH  14  15
HETATM   15  C2  UNL     1      17.365  -9.212  -5.598  1.00  0.00     0.026 C 
HETATM   16  C1  UNL     1      16.616 -10.397  -6.195  1.00  0.00     0.013 C 
HETATM   17  C3  UNL     1      16.544  -8.802  -4.391  1.00  0.00     0.013 C 
ENDBRANCH  14  15
BRANCH  14  18
HETATM   18  O1  UNL     1      17.174  -6.898  -5.920  1.00  0.00    -0.376 OA
ATOM     19  H1  UNL     1      17.971  -6.400  -5.782  1.00  0.00     0.211 HD
ENDBRANCH  14  18
BRANCH  14  20
HETATM   20  C26 UNL     1      18.972  -8.038  -7.014  1.00  0.00     0.423 C 
HETATM   21  F1  UNL     1      19.145  -8.054  -8.358  1.00  0.00    -0.167 F 
HETATM   22  F2  UNL     1      19.573  -6.901  -6.497  1.00  0.00    -0.167 F 
HETATM   23  F3  UNL     1      19.671  -9.120  -6.488  1.00  0.00    -0.167 F 
ENDBRANCH  14  20
ENDBRANCH  13  14
ENDBRANCH  11  13
ENDBRANCH   8  11
ENDBRANCH   1   5
BRANCH   3  24
HETATM   24  C11 UNL     1      11.230  -7.170  -2.553  1.00  0.00     0.093 A 
HETATM   25  S1  UNL     1       9.566  -7.411  -2.198  1.00  0.00    -0.074 SA
HETATM   26  C12 UNL     1       9.530  -6.809  -0.618  1.00  0.00     0.010 A 
HETATM   27  C13 UNL     1      10.827  -6.426  -0.384  1.00  0.00    -0.024 A 
HETATM   28  C23 UNL     1       8.421  -6.637   0.407  1.00  0.00     0.174 C 
HETATM   29  C14 UNL     1      11.717  -6.615  -1.398  1.00  0.00     0.070 A 
HETATM   30  C16 UNL     1      11.037  -5.861   1.016  1.00  0.00     0.061 C 
HETATM   31  C17 UNL     1      10.392  -6.878   1.960  1.00  0.00     0.133 C 
HETATM   32  N4  UNL     1       8.948  -6.903   1.709  1.00  0.00    -0.323 N 
HETATM   33  C18 UNL     1       8.100  -7.188   2.800  1.00  0.00     0.363 C 
HETATM   34  O4  UNL     1       8.597  -7.410   3.926  1.00  0.00    -0.238 OA
BRANCH  29  35
HETATM   35  C15 UNL     1      13.162  -6.244  -1.314  1.00  0.00     0.268 C 
HETATM   36  N3  UNL     1      13.942  -6.362  -0.140  1.00  0.00    -0.057 NA
HETATM   37  O3  UNL     1      13.787  -5.790  -2.304  1.00  0.00    -0.271 OA
ENDBRANCH  29  35
BRANCH  33  38
HETATM   38  O5  UNL     1       6.730  -7.230   2.661  1.00  0.00    -0.294 OA
BRANCH  38  39
HETATM   39  C19 UNL     1       5.991  -8.437   2.605  1.00  0.00     0.061 C 
HETATM   40  C20 UNL     1       5.382  -8.773   3.943  1.00  0.00     0.046 C 
HETATM   41  C21 UNL     1       6.848  -9.616   2.200  1.00  0.00     0.046 C 
HETATM   42  C22 UNL     1       4.906  -8.298   1.559  1.00  0.00     0.046 C 
ENDBRANCH  38  39
ENDBRANCH  33  38
ENDBRANCH   3  24
TORSDOF 11
ENDMDL
MODEL 2
REMARK VINA RESULT: -7.473814578      1.438      1.891
REMARK  11 active torsions:
REMARK  status: ('A' for Active; 'I' for Inactive)
REMARK    1  A    between atoms: C2_2  and  C4_4 
REMARK    2  A    between atoms: C4_4  and  O1_5 
REMARK    3  A    between atoms: C4_4  and  C5_7 
REMARK    4  A    between atoms: C4_4  and  C26_39 
REMARK    5  A    between atoms: C5_7  and  N1_8 
REMARK    6  A    between atoms: N1_8  and  C6_10 
REMARK    7  A    between atoms: C9_13  and  C10_14 
REMARK       I    between atoms: C10_14  and  N2_16 
REMARK    8  A    between atoms: N2_16  and  C11_18 
REMARK    9  A    between atoms: C14_22  and  C15_23 
REMARK       I    between atoms: N4_28  and  C18_29 
REMARK   10  A    between atoms: C18_29  and  O5_31 
REMARK   11  A    between atoms: O5_31  and  C19_32 
ROOT
HETATM    1  C10 UNL     1      12.213  -6.843  -4.958  1.00  0.00     0.226 C 
HETATM    2  O2  UNL     1      11.554  -5.792  -4.833  1.00  0.00    -0.273 OA
HETATM    3  N2  UNL     1      12.283  -7.744  -3.824  1.00  0.00    -0.320 N 
ATOM      4  H2  UNL     1      12.802  -8.621  -3.869  1.00  0.00     0.169 HD
ENDROOT
BRANCH   1   5
HETATM    5  C9  UNL     1      12.928  -7.238  -6.172  1.00  0.00     0.078 C 
HETATM    6  C8  UNL     1      13.687  -8.563  -6.031  1.00  0.00     0.016 C 
HETATM    7  C7  UNL     1      14.148  -8.923  -7.409  1.00  0.00     0.026 C 
HETATM    8  C6  UNL     1      15.195  -7.989  -7.880  1.00  0.00     0.081 C 
HETATM    9  C25 UNL     1      15.247  -6.764  -6.970  1.00  0.00     0.026 C 
HETATM   10  C24 UNL     1      13.900  -6.190  -6.667  1.00  0.00     0.016 C 
BRANCH   8  11
HETATM   11  N1  UNL     1      16.513  -8.514  -7.902  1.00  0.00    -0.395 N 
ATOM     12  H1  UNL     1      16.776  -9.186  -8.623  1.00  0.00     0.159 HD
BRANCH  11  13
HETATM   13  C5  UNL     1      17.450  -8.125  -6.952  1.00  0.00     0.103 C 
BRANCH  13  14
HETATM   14  C4  UNL     1      18.188  -9.216  -6.187  1.00  0.00     0.190 C 
BRANCH  14  15
HETATM   15  C2  UNL     1      19.455  -8.723  -5.560  1.00  0.00     0.026 C 
HETATM   16  C1  UNL     1      19.772  -7.288  -5.961  1.00  0.00     0.013 C 
HETATM   17  C3  UNL     1      20.649  -9.530  -6.028  1.00  0.00     0.013 C 
ENDBRANCH  14  15
BRANCH  14  18
HETATM   18  O1  UNL     1      18.494 -10.294  -7.010  1.00  0.00    -0.376 OA
ATOM     19  H1  UNL     1      17.999 -11.050  -6.713  1.00  0.00     0.211 HD
ENDBRANCH  14  18
BRANCH  14  20
HETATM   20  C26 UNL     1      17.269  -9.685  -5.046  1.00  0.00     0.423 C 
HETATM   21  F1  UNL     1      16.306 -10.555  -5.436  1.00  0.00    -0.167 F 
HETATM   22  F2  UNL     1      18.033 -10.277  -4.053  1.00  0.00    -0.167 F 
HETATM   23  F3  UNL     1      16.636  -8.597  -4.453  1.00  0.00    -0.167 F 
ENDBRANCH  14  20
ENDBRANCH  13  14
ENDBRANCH  11  13
ENDBRANCH   8  11
ENDBRANCH   1   5
BRANCH   3  24
HETATM   24  C11 UNL     1      11.580  -7.337  -2.625  1.00  0.00     0.093 A 
HETATM   25  S1  UNL     1       9.897  -7.530  -2.336  1.00  0.00    -0.074 SA
HETATM   26  C12 UNL     1       9.801  -6.844  -0.793  1.00  0.00     0.010 A 
HETATM   27  C13 UNL     1      11.094  -6.472  -0.519  1.00  0.00    -0.024 A 
HETATM   28  C23 UNL     1       8.650  -6.598   0.169  1.00  0.00     0.174 C 
HETATM   29  C14 UNL     1      12.025  -6.730  -1.480  1.00  0.00     0.070 A 
HETATM   30  C16 UNL     1      11.250  -5.836   0.856  1.00  0.00     0.061 C 
HETATM   31  C17 UNL     1      10.544  -6.790   1.822  1.00  0.00     0.133 C 
HETATM   32  N4  UNL     1       9.112  -6.803   1.507  1.00  0.00    -0.323 N 
HETATM   33  C18 UNL     1       8.211  -7.015   2.570  1.00  0.00     0.363 C 
HETATM   34  O4  UNL     1       8.651  -7.185   3.728  1.00  0.00    -0.238 OA
BRANCH  29  35
HETATM   35  C15 UNL     1      13.472  -6.379  -1.349  1.00  0.00     0.268 C 
HETATM   36  N3  UNL     1      14.278  -6.749  -0.247  1.00  0.00    -0.057 NA
HETATM   37  O3  UNL     1      14.074  -5.715  -2.229  1.00  0.00    -0.271 OA
ENDBRANCH  29  35
BRANCH  33  38
HETATM   38  O5  UNL     1       6.847  -7.041   2.370  1.00  0.00    -0.294 OA
BRANCH  38  39
HETATM   39  C19 UNL     1       6.090  -8.237   2.328  1.00  0.00     0.061 C 
HETATM   40  C20 UNL     1       5.451  -8.532   3.661  1.00  0.00     0.046 C 
HETATM   41  C21 UNL     1       6.936  -9.439   1.967  1.00  0.00     0.046 C 
HETATM   42  C22 UNL     1       5.028  -8.106   1.259  1.00  0.00     0.046 C 
ENDBRANCH  38  39
ENDBRANCH  33  38
ENDBRANCH   3  24
TORSDOF 11
ENDMDL
MODEL 3
REMARK VINA RESULT: -7.388091021      0.808      1.218
REMARK  11 active torsions:
REMARK  status: ('A' for Active; 'I' for Inactive)
REMARK    1  A    between atoms: C2_2  and  C4_4 
REMARK    2  A    between atoms: C4_4  and  O1_5 
REMARK    3  A    between atoms: C4_4  and  C5_7 
REMARK    4  A    between atoms: C4_4  and  C26_39 
REMARK    5  A    between atoms: C5_7  and  N1_8 
REMARK    6  A    between atoms: N1_8  and  C6_10 
REMARK    7  A    between atoms: C9_13  and  C10_14 
REMARK       I    between atoms: C10_14  and  N2_16 
REMARK    8  A    between atoms: N2_16  and  C11_18 
REMARK    9  A    between atoms: C14_22  and  C15_23 
REMARK       I    between atoms: N4_28  and  C18_29 
REMARK   10  A    between atoms: C18_29  and  O5_31 
REMARK   11  A    between atoms: O5_31  and  C19_32 
ROOT
HETATM    1  C10 UNL     1      12.314  -6.923  -4.706  1.00  0.00     0.226 C 
HETATM    2  O2  UNL     1      11.605  -5.900  -4.638  1.00  0.00    -0.273 OA
HETATM    3  N2  UNL     1      12.377  -7.790  -3.546  1.00  0.00    -0.320 N 
ATOM      4  H2  UNL     1      12.935  -8.643  -3.546  1.00  0.00     0.169 HD
ENDROOT
BRANCH   1   5
HETATM    5  C9  UNL     1      13.096  -7.316  -5.879  1.00  0.00     0.078 C 
HETATM    6  C8  UNL     1      14.353  -8.124  -5.533  1.00  0.00     0.016 C 
HETATM    7  C7  UNL     1      14.886  -8.635  -6.836  1.00  0.00     0.026 C 
HETATM    8  C6  UNL     1      15.419  -7.529  -7.663  1.00  0.00     0.081 C 
HETATM    9  C25 UNL     1      14.966  -6.187  -7.091  1.00  0.00     0.026 C 
HETATM   10  C24 UNL     1      13.511  -6.148  -6.746  1.00  0.00     0.016 C 
BRANCH   8  11
HETATM   11  N1  UNL     1      16.834  -7.459  -7.746  1.00  0.00    -0.395 N 
ATOM     12  H1  UNL     1      17.280  -6.587  -8.030  1.00  0.00     0.159 HD
BRANCH  11  13
HETATM   13  C5  UNL     1      17.619  -8.566  -7.445  1.00  0.00     0.103 C 
BRANCH  13  14
HETATM   14  C4  UNL     1      18.444  -8.530  -6.165  1.00  0.00     0.190 C 
BRANCH  14  15
HETATM   15  C2  UNL     1      18.511  -9.862  -5.485  1.00  0.00     0.026 C 
HETATM   16  C1  UNL     1      18.307 -11.014  -6.461  1.00  0.00     0.013 C 
HETATM   17  C3  UNL     1      17.399 -10.014  -4.466  1.00  0.00     0.013 C 
ENDBRANCH  14  15
BRANCH  14  18
HETATM   18  O1  UNL     1      17.940  -7.599  -5.263  1.00  0.00    -0.376 OA
ATOM     19  H1  UNL     1      18.671  -7.181  -4.821  1.00  0.00     0.211 HD
ENDBRANCH  14  18
BRANCH  14  20
HETATM   20  C26 UNL     1      19.883  -8.145  -6.551  1.00  0.00     0.423 C 
HETATM   21  F1  UNL     1      20.837  -8.888  -5.938  1.00  0.00    -0.167 F 
HETATM   22  F2  UNL     1      20.037  -8.259  -7.923  1.00  0.00    -0.167 F 
HETATM   23  F3  UNL     1      20.128  -6.810  -6.242  1.00  0.00    -0.167 F 
ENDBRANCH  14  20
ENDBRANCH  13  14
ENDBRANCH  11  13
ENDBRANCH   8  11
ENDBRANCH   1   5
BRANCH   3  24
HETATM   24  C11 UNL     1      11.607  -7.385  -2.389  1.00  0.00     0.093 A 
HETATM   25  S1  UNL     1       9.917  -7.617  -2.178  1.00  0.00    -0.074 SA
HETATM   26  C12 UNL     1       9.729  -6.912  -0.651  1.00  0.00     0.010 A 
HETATM   27  C13 UNL     1      10.998  -6.503  -0.322  1.00  0.00    -0.024 A 
HETATM   28  C23 UNL     1       8.528  -6.682   0.251  1.00  0.00     0.174 C 
HETATM   29  C14 UNL     1      11.981  -6.751  -1.233  1.00  0.00     0.070 A 
HETATM   30  C16 UNL     1      11.073  -5.845   1.050  1.00  0.00     0.061 C 
HETATM   31  C17 UNL     1      10.344  -6.803   1.995  1.00  0.00     0.133 C 
HETATM   32  N4  UNL     1       8.930  -6.857   1.612  1.00  0.00    -0.323 N 
HETATM   33  C18 UNL     1       7.983  -7.077   2.634  1.00  0.00     0.363 C 
HETATM   34  O4  UNL     1       8.372  -7.220   3.814  1.00  0.00    -0.238 OA
BRANCH  29  35
HETATM   35  C15 UNL     1      13.410  -6.362  -1.038  1.00  0.00     0.268 C 
HETATM   36  N3  UNL     1      14.203  -6.785   0.055  1.00  0.00    -0.057 NA
HETATM   37  O3  UNL     1      14.009  -5.615  -1.850  1.00  0.00    -0.271 OA
ENDBRANCH  29  35
BRANCH  33  38
HETATM   38  O5  UNL     1       6.633  -7.140   2.369  1.00  0.00    -0.294 OA
BRANCH  38  39
HETATM   39  C19 UNL     1       5.916  -8.358   2.268  1.00  0.00     0.061 C 
HETATM   40  C20 UNL     1       6.848  -9.533   2.111  1.00  0.00     0.046 C 
HETATM   41  C21 UNL     1       4.979  -8.375   1.080  1.00  0.00     0.046 C 
HETATM   42  C22 UNL     1       5.065  -8.529   3.506  1.00  0.00     0.046 C 
ENDBRANCH  38  39
ENDBRANCH  33  38
ENDBRANCH   3  24
TORSDOF 11
ENDMDL
MODEL 4
REMARK VINA RESULT: -7.271036471      2.329      3.400
REMARK  11 active torsions:
REMARK  status: ('A' for Active; 'I' for Inactive)
REMARK    1  A    between atoms: C2_2  and  C4_4 
REMARK    2  A    between atoms: C4_4  and  O1_5 
REMARK    3  A    between atoms: C4_4  and  C5_7 
REMARK    4  A    between atoms: C4_4  and  C26_39 
REMARK    5  A    between atoms: C5_7  and  N1_8 
REMARK    6  A    between atoms: N1_8  and  C6_10 
REMARK    7  A    between atoms: C9_13  and  C10_14 
REMARK       I    between atoms: C10_14  and  N2_16 
REMARK    8  A    between atoms: N2_16  and  C11_18 
REMARK    9  A    between atoms: C14_22  and  C15_23 
REMARK       I    between atoms: N4_28  and  C18_29 
REMARK   10  A    between atoms: C18_29  and  O5_31 
REMARK   11  A    between atoms: O5_31  and  C19_32 
ROOT
HETATM    1  C10 UNL     1      13.285  -9.423  -3.527  1.00  0.00     0.226 C 
HETATM    2  O2  UNL     1      12.813 -10.118  -2.606  1.00  0.00    -0.273 OA
HETATM    3  N2  UNL     1      12.973  -8.007  -3.543  1.00  0.00    -0.320 N 
ATOM      4  H2  UNL     1      13.334  -7.388  -4.267  1.00  0.00     0.169 HD
ENDROOT
BRANCH   1   5
HETATM    5  C9  UNL     1      14.135  -9.933  -4.603  1.00  0.00     0.078 C 
HETATM    6  C8  UNL     1      15.012  -8.854  -5.252  1.00  0.00     0.016 C 
HETATM    7  C7  UNL     1      15.968  -9.583  -6.145  1.00  0.00     0.026 C 
HETATM    8  C6  UNL     1      15.265 -10.180  -7.303  1.00  0.00     0.081 C 
HETATM    9  C25 UNL     1      13.757 -10.159  -7.062  1.00  0.00     0.026 C 
HETATM   10  C24 UNL     1      13.365 -10.635  -5.700  1.00  0.00     0.016 C 
BRANCH   8  11
HETATM   11  N1  UNL     1      15.471  -9.524  -8.544  1.00  0.00    -0.395 N 
ATOM     12  H1  UNL     1      16.333  -9.688  -9.064  1.00  0.00     0.159 HD
BRANCH  11  13
HETATM   13  C5  UNL     1      14.512  -8.659  -9.059  1.00  0.00     0.103 C 
BRANCH  13  14
HETATM   14  C4  UNL     1      14.899  -7.199  -9.256  1.00  0.00     0.190 C 
BRANCH  14  15
HETATM   15  C2  UNL     1      14.352  -6.625 -10.525  1.00  0.00     0.026 C 
HETATM   16  C1  UNL     1      13.085  -7.340 -10.978  1.00  0.00     0.013 C 
HETATM   17  C3  UNL     1      15.327  -6.798 -11.672  1.00  0.00     0.013 C 
ENDBRANCH  14  15
BRANCH  14  18
HETATM   18  O1  UNL     1      16.280  -7.036  -9.258  1.00  0.00    -0.376 OA
ATOM     19  H1  UNL     1      16.650  -7.593  -8.582  1.00  0.00     0.211 HD
ENDBRANCH  14  18
BRANCH  14  20
HETATM   20  C26 UNL     1      14.289  -6.397  -8.094  1.00  0.00     0.423 C 
HETATM   21  F1  UNL     1      15.156  -6.143  -7.083  1.00  0.00    -0.167 F 
HETATM   22  F2  UNL     1      13.795  -5.194  -8.573  1.00  0.00    -0.167 F 
HETATM   23  F3  UNL     1      13.201  -7.075  -7.553  1.00  0.00    -0.167 F 
ENDBRANCH  14  20
ENDBRANCH  13  14
ENDBRANCH  11  13
ENDBRANCH   8  11
ENDBRANCH   1   5
BRANCH   3  24
HETATM   24  C11 UNL     1      12.122  -7.516  -2.478  1.00  0.00     0.093 A 
HETATM   25  S1  UNL     1      10.425  -7.758  -2.360  1.00  0.00    -0.074 SA
HETATM   26  C12 UNL     1      10.127  -6.927  -0.917  1.00  0.00     0.010 A 
HETATM   27  C13 UNL     1      11.366  -6.469  -0.541  1.00  0.00    -0.024 A 
HETATM   28  C23 UNL     1       8.865  -6.640  -0.120  1.00  0.00     0.174 C 
HETATM   29  C14 UNL     1      12.410  -6.778  -1.361  1.00  0.00     0.070 A 
HETATM   30  C16 UNL     1      11.340  -5.693   0.770  1.00  0.00     0.061 C 
HETATM   31  C17 UNL     1      10.561  -6.578   1.744  1.00  0.00     0.133 C 
HETATM   32  N4  UNL     1       9.176  -6.690   1.275  1.00  0.00    -0.323 N 
HETATM   33  C18 UNL     1       8.165  -6.836   2.247  1.00  0.00     0.363 C 
HETATM   34  O4  UNL     1       8.475  -6.869   3.458  1.00  0.00    -0.238 OA
BRANCH  29  35
HETATM   35  C15 UNL     1      13.819  -6.349  -1.106  1.00  0.00     0.268 C 
HETATM   36  N3  UNL     1      14.588  -6.776   0.003  1.00  0.00    -0.057 NA
HETATM   37  O3  UNL     1      14.421  -5.562  -1.878  1.00  0.00    -0.271 OA
ENDBRANCH  29  35
BRANCH  33  38
HETATM   38  O5  UNL     1       6.836  -6.945   1.900  1.00  0.00    -0.294 OA
BRANCH  38  39
HETATM   39  C19 UNL     1       6.114  -8.162   1.960  1.00  0.00     0.061 C 
HETATM   40  C20 UNL     1       5.478  -8.360   3.313  1.00  0.00     0.046 C 
HETATM   41  C21 UNL     1       6.996  -9.365   1.706  1.00  0.00     0.046 C 
HETATM   42  C22 UNL     1       5.053  -8.155   0.882  1.00  0.00     0.046 C 
ENDBRANCH  38  39
ENDBRANCH  33  38
ENDBRANCH   3  24
TORSDOF 11
ENDMDL
MODEL 5
REMARK VINA RESULT: -7.229653603      1.640      2.025
REMARK  11 active torsions:
REMARK  status: ('A' for Active; 'I' for Inactive)
REMARK    1  A    between atoms: C2_2  and  C4_4 
REMARK    2  A    between atoms: C4_4  and  O1_5 
REMARK    3  A    between atoms: C4_4  and  C5_7 
REMARK    4  A    between atoms: C4_4  and  C26_39 
REMARK    5  A    between atoms: C5_7  and  N1_8 
REMARK    6  A    between atoms: N1_8  and  C6_10 
REMARK    7  A    between atoms: C9_13  and  C10_14 
REMARK       I    between atoms: C10_14  and  N2_16 
REMARK    8  A    between atoms: N2_16  and  C11_18 
REMARK    9  A    between atoms: C14_22  and  C15_23 
REMARK       I    between atoms: N4_28  and  C18_29 
REMARK   10  A    between atoms: C18_29  and  O5_31 
REMARK   11  A    between atoms: O5_31  and  C19_32 
ROOT
HETATM    1  C10 UNL     1      11.734  -7.622  -3.975  1.00  0.00     0.226 C 
HETATM    2  O2  UNL     1      11.534  -8.662  -3.317  1.00  0.00    -0.273 OA
HETATM    3  N2  UNL     1      11.361  -6.355  -3.380  1.00  0.00    -0.320 N 
ATOM      4  H2  UNL     1      11.506  -5.471  -3.868  1.00  0.00     0.169 HD
ENDROOT
BRANCH   1   5
HETATM    5  C9  UNL     1      12.321  -7.586  -5.315  1.00  0.00     0.078 C 
HETATM    6  C8  UNL     1      13.360  -8.688  -5.557  1.00  0.00     0.016 C 
HETATM    7  C7  UNL     1      13.671  -8.648  -7.021  1.00  0.00     0.026 C 
HETATM    8  C6  UNL     1      14.407  -7.413  -7.375  1.00  0.00     0.081 C 
HETATM    9  C25 UNL     1      14.333  -6.416  -6.221  1.00  0.00     0.026 C 
HETATM   10  C24 UNL     1      12.957  -6.257  -5.659  1.00  0.00     0.016 C 
BRANCH   8  11
HETATM   11  N1  UNL     1      15.788  -7.588  -7.652  1.00  0.00    -0.395 N 
ATOM     12  H1  UNL     1      16.099  -7.694  -8.618  1.00  0.00     0.159 HD
BRANCH  11  13
HETATM   13  C5  UNL     1      16.722  -7.618  -6.622  1.00  0.00     0.103 C 
BRANCH  13  14
HETATM   14  C4  UNL     1      17.486  -8.914  -6.387  1.00  0.00     0.190 C 
BRANCH  14  15
HETATM   15  C2  UNL     1      18.969  -8.716  -6.380  1.00  0.00     0.026 C 
HETATM   16  C1  UNL     1      19.356  -7.305  -5.953  1.00  0.00     0.013 C 
HETATM   17  C3  UNL     1      19.551  -8.875  -7.770  1.00  0.00     0.013 C 
ENDBRANCH  14  15
BRANCH  14  18
HETATM   18  O1  UNL     1      17.173  -9.869  -7.349  1.00  0.00    -0.376 OA
ATOM     19  H1  UNL     1      16.251 -10.085  -7.270  1.00  0.00     0.211 HD
ENDBRANCH  14  18
BRANCH  14  20
HETATM   20  C26 UNL     1      17.090  -9.439  -4.996  1.00  0.00     0.423 C 
HETATM   21  F1  UNL     1      18.128  -9.931  -4.276  1.00  0.00    -0.167 F 
HETATM   22  F2  UNL     1      16.486  -8.422  -4.274  1.00  0.00    -0.167 F 
HETATM   23  F3  UNL     1      16.142 -10.451  -5.109  1.00  0.00    -0.167 F 
ENDBRANCH  14  20
ENDBRANCH  13  14
ENDBRANCH  11  13
ENDBRANCH   8  11
ENDBRANCH   1   5
BRANCH   3  24
HETATM   24  C11 UNL     1      10.772  -6.405  -2.058  1.00  0.00     0.093 A 
HETATM   25  S1  UNL     1       9.114  -6.697  -1.710  1.00  0.00    -0.074 SA
HETATM   26  C12 UNL     1       9.165  -6.605  -0.022  1.00  0.00     0.010 A 
HETATM   27  C13 UNL     1      10.486  -6.347   0.252  1.00  0.00    -0.024 A 
HETATM   28  C23 UNL     1       8.106  -6.724   1.062  1.00  0.00     0.174 C 
HETATM   29  C14 UNL     1      11.327  -6.242  -0.816  1.00  0.00     0.070 A 
HETATM   30  C16 UNL     1      10.774  -6.242   1.744  1.00  0.00     0.061 C 
HETATM   31  C17 UNL     1      10.127  -7.481   2.367  1.00  0.00     0.133 C 
HETATM   32  N4  UNL     1       8.674  -7.389   2.194  1.00  0.00    -0.323 N 
HETATM   33  C18 UNL     1       7.859  -7.970   3.188  1.00  0.00     0.363 C 
HETATM   34  O4  UNL     1       8.390  -8.538   4.167  1.00  0.00    -0.238 OA
BRANCH  29  35
HETATM   35  C15 UNL     1      12.788  -5.953  -0.696  1.00  0.00     0.268 C 
HETATM   36  N3  UNL     1      13.804  -6.793  -1.209  1.00  0.00    -0.057 NA
HETATM   37  O3  UNL     1      13.213  -4.924  -0.116  1.00  0.00    -0.271 OA
ENDBRANCH  29  35
BRANCH  33  38
HETATM   38  O5  UNL     1       6.483  -7.930   3.112  1.00  0.00    -0.294 OA
BRANCH  38  39
HETATM   39  C19 UNL     1       5.698  -9.020   2.665  1.00  0.00     0.061 C 
HETATM   40  C20 UNL     1       5.066  -9.755   3.820  1.00  0.00     0.046 C 
HETATM   41  C21 UNL     1       6.511 -10.033   1.888  1.00  0.00     0.046 C 
HETATM   42  C22 UNL     1       4.627  -8.501   1.730  1.00  0.00     0.046 C 
ENDBRANCH  38  39
ENDBRANCH  33  38
ENDBRANCH   3  24
TORSDOF 11
ENDMDL
