MODEL 1
REMARK VINA RESULT: -7.432091079      0.000      0.000
REMARK  6 active torsions:
REMARK  status: ('A' for Active; 'I' for Inactive)
REMARK       I    between atoms: C1_2  and  N1_3 
REMARK       I    between atoms: C1_2  and  N2_11 
REMARK    1  A    between atoms: N1_3  and  C2_5 
REMARK    2  A    between atoms: C2_5  and  C3_6 
REMARK    3  A    between atoms: C3_6  and  C4_7 
REMARK    4  A    between atoms: C4_7  and  C5_8 
REMARK    5  A    between atoms: N5_22  and  C12_24 
REMARK    6  A    between atoms: N7_33  and  C19_34 
ROOT
HETATM    1  O1  UNL     1       0.289 -10.077  11.564  1.00  0.00    -0.247 OA
HETATM    2  C1  UNL     1       0.216 -11.224  10.998  1.00  0.00     0.322 C 
HETATM    3  N1  UNL     1       1.422 -11.871  10.802  1.00  0.00    -0.343 N 
ATOM      4  H1  UNL     1       1.413 -12.792  10.363  1.00  0.00     0.164 HD
HETATM    5  N2  UNL     1      -1.113 -11.656  10.660  1.00  0.00    -0.300 N 
HETATM    6  C6  UNL     1      -2.094 -10.673  11.156  1.00  0.00     0.139 C 
HETATM    7  C7  UNL     1      -2.213  -9.266  10.415  1.00  0.00     0.065 C 
HETATM    8  C8  UNL     1      -2.241  -9.391   9.069  1.00  0.00     0.011 A 
HETATM    9  C9  UNL     1      -3.016 -10.549   8.778  1.00  0.00     0.035 A 
HETATM   10  N3  UNL     1      -2.584 -10.299   7.726  1.00  0.00    -0.354 N 
ATOM     11  H3  UNL     1      -2.014  -9.454   7.689  1.00  0.00     0.163 HD
HETATM   12  C10 UNL     1      -2.693 -10.848   6.726  1.00  0.00     0.288 A 
HETATM   13  N4  UNL     1      -1.850  -9.664   6.564  1.00  0.00    -0.339 N 
ATOM     14  H4  UNL     1      -1.448  -9.373   5.673  1.00  0.00     0.165 HD
HETATM   15  C11 UNL     1      -1.651  -8.963   7.786  1.00  0.00     0.108 A 
HETATM   16  N5  UNL     1      -0.973  -7.942   7.965  1.00  0.00    -0.371 N 
ATOM     17  H5  UNL     1      -0.973  -7.632   8.936  1.00  0.00     0.161 HD
HETATM   18  N6  UNL     1      -3.416 -11.858   7.280  1.00  0.00    -0.370 N 
HETATM   19  C17 UNL     1      -3.522 -13.056   6.926  1.00  0.00     0.136 C 
HETATM   20  C18 UNL     1      -2.654 -13.896   8.032  1.00  0.00     0.116 C 
HETATM   21  N7  UNL     1      -1.562 -13.152   8.600  1.00  0.00    -0.273 NA
HETATM   22  C23 UNL     1      -1.271 -12.948   9.993  1.00  0.00     0.158 C 
HETATM   23  C24 UNL     1      -3.870 -11.657   8.750  1.00  0.00     0.178 C 
ENDROOT
BRANCH   3  24
HETATM   24  C2  UNL     1       2.703 -11.302  11.193  1.00  0.00     0.124 C 
BRANCH  24  25
HETATM   25  C3  UNL     1       3.429 -10.603  10.100  1.00  0.00     0.025 C 
BRANCH  25  26
HETATM   26  C4  UNL     1       4.503  -9.725  10.748  1.00  0.00     0.073 C 
BRANCH  26  27
HETATM   27  C5  UNL     1       5.807  -9.842   9.951  1.00  0.00     0.353 C 
HETATM   28  F1  UNL     1       6.065  -8.635   9.351  1.00  0.00    -0.214 F 
HETATM   29  F2  UNL     1       5.691 -10.813   8.975  1.00  0.00    -0.214 F 
ENDBRANCH  26  27
ENDBRANCH  25  26
ENDBRANCH  24  25
ENDBRANCH   3  24
BRANCH  21  30
HETATM   30  C19 UNL     1      -0.310 -13.626   7.977  1.00  0.00     0.063 C 
HETATM   31  C20 UNL     1       0.447 -14.608   8.839  1.00  0.00     0.020 C 
HETATM   32  C21 UNL     1       0.752 -15.374   7.568  1.00  0.00     0.003 C 
HETATM   33  C22 UNL     1      -0.383 -14.598   6.874  1.00  0.00     0.020 C 
ENDBRANCH  21  30
BRANCH  16  34
HETATM   34  C12 UNL     1      -0.204  -7.117   7.130  1.00  0.00     0.087 C 
HETATM   35  C13 UNL     1       0.278  -7.798   5.893  1.00  0.00     0.051 C 
HETATM   36  C14 UNL     1      -0.125  -6.928   4.709  1.00  0.00     0.169 C 
HETATM   37  O2  UNL     1       0.357  -5.641   4.905  1.00  0.00    -0.391 OA
HETATM   38  C15 UNL     1      -0.310  -4.953   5.910  1.00  0.00     0.169 C 
HETATM   39  C16 UNL     1      -1.092  -5.929   6.725  1.00  0.00     0.051 C 
ENDBRANCH  16  34
TORSDOF 6
ENDMDL
MODEL 2
REMARK VINA RESULT: -7.343091670      1.029      1.505
REMARK  6 active torsions:
REMARK  status: ('A' for Active; 'I' for Inactive)
REMARK       I    between atoms: C1_2  and  N1_3 
REMARK       I    between atoms: C1_2  and  N2_11 
REMARK    1  A    between atoms: N1_3  and  C2_5 
REMARK    2  A    between atoms: C2_5  and  C3_6 
REMARK    3  A    between atoms: C3_6  and  C4_7 
REMARK    4  A    between atoms: C4_7  and  C5_8 
REMARK    5  A    between atoms: N5_22  and  C12_24 
REMARK    6  A    between atoms: N7_33  and  C19_34 
ROOT
HETATM    1  O1  UNL     1       0.754  -9.385  11.074  1.00  0.00    -0.247 OA
HETATM    2  C1  UNL     1       0.900 -10.624  10.784  1.00  0.00     0.322 C 
HETATM    3  N1  UNL     1       2.179 -11.007  10.427  1.00  0.00    -0.343 N 
ATOM      4  H1  UNL     1       2.346 -11.986  10.196  1.00  0.00     0.164 HD
HETATM    5  N2  UNL     1      -0.294 -11.421  10.881  1.00  0.00    -0.300 N 
HETATM    6  C6  UNL     1      -1.399 -10.595  11.400  1.00  0.00     0.139 C 
HETATM    7  C7  UNL     1      -2.046  -9.492  10.448  1.00  0.00     0.065 C 
HETATM    8  C8  UNL     1      -2.291  -9.962   9.204  1.00  0.00     0.011 A 
HETATM    9  C9  UNL     1      -2.750 -11.301   9.353  1.00  0.00     0.035 A 
HETATM   10  N3  UNL     1      -2.612 -11.239   8.198  1.00  0.00    -0.354 N 
ATOM     11  H3  UNL     1      -2.321 -10.325   7.852  1.00  0.00     0.163 HD
HETATM   12  C10 UNL     1      -2.750 -12.036   7.386  1.00  0.00     0.288 A 
HETATM   13  N4  UNL     1      -2.319 -10.774   6.787  1.00  0.00    -0.339 N 
ATOM     14  H4  UNL     1      -2.190 -10.638   5.784  1.00  0.00     0.165 HD
HETATM   15  C11 UNL     1      -2.098  -9.756   7.756  1.00  0.00     0.108 A 
HETATM   16  N5  UNL     1      -1.713  -8.596   7.553  1.00  0.00    -0.371 N 
ATOM     17  H5  UNL     1      -1.617  -8.055   8.412  1.00  0.00     0.161 HD
HETATM   18  N6  UNL     1      -3.042 -13.008   8.293  1.00  0.00    -0.370 N 
HETATM   19  C17 UNL     1      -2.871 -14.248   8.223  1.00  0.00     0.136 C 
HETATM   20  C18 UNL     1      -1.610 -14.553   9.222  1.00  0.00     0.116 C 
HETATM   21  N7  UNL     1      -0.684 -13.459   9.339  1.00  0.00    -0.273 NA
HETATM   22  C23 UNL     1      -0.205 -12.842  10.546  1.00  0.00     0.158 C 
HETATM   23  C24 UNL     1      -3.248 -12.544   9.759  1.00  0.00     0.178 C 
ENDROOT
BRANCH   3  24
HETATM   24  C2  UNL     1       3.299 -10.079  10.364  1.00  0.00     0.124 C 
BRANCH  24  25
HETATM   25  C3  UNL     1       4.210 -10.128  11.537  1.00  0.00     0.025 C 
BRANCH  25  26
HETATM   26  C4  UNL     1       5.646 -10.100  11.008  1.00  0.00     0.073 C 
BRANCH  26  27
HETATM   27  C5  UNL     1       5.693  -9.307   9.698  1.00  0.00     0.353 C 
HETATM   28  F1  UNL     1       6.253 -10.096   8.725  1.00  0.00    -0.214 F 
HETATM   29  F2  UNL     1       6.461  -8.168   9.850  1.00  0.00    -0.214 F 
ENDBRANCH  26  27
ENDBRANCH  25  26
ENDBRANCH  24  25
ENDBRANCH   3  24
BRANCH  21  30
HETATM   30  C19 UNL     1       0.509 -13.778   8.531  1.00  0.00     0.063 C 
HETATM   31  C20 UNL     1       1.674 -14.265   9.359  1.00  0.00     0.020 C 
HETATM   32  C21 UNL     1       1.946 -15.265   8.255  1.00  0.00     0.003 C 
HETATM   33  C22 UNL     1       0.521 -15.011   7.728  1.00  0.00     0.020 C 
ENDBRANCH  21  30
BRANCH  16  34
HETATM   34  C12 UNL     1      -1.379  -7.860   6.406  1.00  0.00     0.087 C 
HETATM   35  C13 UNL     1      -1.347  -6.385   6.629  1.00  0.00     0.051 C 
HETATM   36  C14 UNL     1      -0.000  -5.879   6.128  1.00  0.00     0.169 C 
HETATM   37  O2  UNL     1       0.178  -6.286   4.812  1.00  0.00    -0.391 OA
HETATM   38  C15 UNL     1       0.404  -7.650   4.685  1.00  0.00     0.169 C 
HETATM   39  C16 UNL     1       0.017  -8.323   5.961  1.00  0.00     0.051 C 
ENDBRANCH  16  34
TORSDOF 6
ENDMDL
MODEL 3
REMARK VINA RESULT: -7.111705258      1.901      2.152
REMARK  6 active torsions:
REMARK  status: ('A' for Active; 'I' for Inactive)
REMARK       I    between atoms: C1_2  and  N1_3 
REMARK       I    between atoms: C1_2  and  N2_11 
REMARK    1  A    between atoms: N1_3  and  C2_5 
REMARK    2  A    between atoms: C2_5  and  C3_6 
REMARK    3  A    between atoms: C3_6  and  C4_7 
REMARK    4  A    between atoms: C4_7  and  C5_8 
REMARK    5  A    between atoms: N5_22  and  C12_24 
REMARK    6  A    between atoms: N7_33  and  C19_34 
ROOT
HETATM    1  O1  UNL     1       0.739 -10.454  11.188  1.00  0.00    -0.247 OA
HETATM    2  C1  UNL     1       0.507 -11.542  10.553  1.00  0.00     0.322 C 
HETATM    3  N1  UNL     1       1.624 -12.244  10.143  1.00  0.00    -0.343 N 
ATOM      4  H1  UNL     1       1.488 -13.122   9.641  1.00  0.00     0.164 HD
HETATM    5  N2  UNL     1      -0.885 -11.859  10.370  1.00  0.00    -0.300 N 
HETATM    6  C6  UNL     1      -1.715 -10.862  11.070  1.00  0.00     0.139 C 
HETATM    7  C7  UNL     1      -1.828  -9.392  10.462  1.00  0.00     0.065 C 
HETATM    8  C8  UNL     1      -2.043  -9.400   9.128  1.00  0.00     0.011 A 
HETATM    9  C9  UNL     1      -2.934 -10.478   8.861  1.00  0.00     0.035 A 
HETATM   10  N3  UNL     1      -2.628 -10.168   7.780  1.00  0.00    -0.354 N 
ATOM     11  H3  UNL     1      -2.008  -9.360   7.728  1.00  0.00     0.163 HD
HETATM   12  C10 UNL     1      -2.910 -10.621   6.766  1.00  0.00     0.288 A 
HETATM   13  N4  UNL     1      -2.011  -9.484   6.579  1.00  0.00    -0.339 N 
ATOM     14  H4  UNL     1      -1.710  -9.144   5.666  1.00  0.00     0.165 HD
HETATM   15  C11 UNL     1      -1.599  -8.903   7.811  1.00  0.00     0.108 A 
HETATM   16  N5  UNL     1      -0.830  -7.946   7.971  1.00  0.00    -0.371 N 
ATOM     17  H5  UNL     1      -0.678  -7.720   8.954  1.00  0.00     0.161 HD
HETATM   18  N6  UNL     1      -3.626 -11.628   7.338  1.00  0.00    -0.370 N 
HETATM   19  C17 UNL     1      -3.866 -12.782   6.912  1.00  0.00     0.136 C 
HETATM   20  C18 UNL     1      -2.923 -13.766   7.820  1.00  0.00     0.116 C 
HETATM   21  N7  UNL     1      -1.713 -13.143   8.285  1.00  0.00    -0.273 NA
HETATM   22  C23 UNL     1      -1.225 -13.077   9.637  1.00  0.00     0.158 C 
HETATM   23  C24 UNL     1      -3.864 -11.524   8.867  1.00  0.00     0.178 C 
ENDROOT
BRANCH   3  24
HETATM   24  C2  UNL     1       2.985 -11.793  10.394  1.00  0.00     0.124 C 
BRANCH  24  25
HETATM   25  C3  UNL     1       3.754 -12.642  11.340  1.00  0.00     0.025 C 
BRANCH  25  26
HETATM   26  C4  UNL     1       3.464 -12.136  12.756  1.00  0.00     0.073 C 
BRANCH  26  27
HETATM   27  C5  UNL     1       3.408 -13.324  13.721  1.00  0.00     0.353 C 
HETATM   28  F1  UNL     1       2.296 -14.074  13.432  1.00  0.00    -0.214 F 
HETATM   29  F2  UNL     1       3.323 -12.882  15.027  1.00  0.00    -0.214 F 
ENDBRANCH  26  27
ENDBRANCH  25  26
ENDBRANCH  24  25
ENDBRANCH   3  24
BRANCH  21  30
HETATM   30  C19 UNL     1      -0.594 -13.641   7.461  1.00  0.00     0.063 C 
HETATM   31  C20 UNL     1       0.202 -14.731   8.137  1.00  0.00     0.020 C 
HETATM   32  C21 UNL     1       0.278 -15.411   6.785  1.00  0.00     0.003 C 
HETATM   33  C22 UNL     1      -0.884 -14.516   6.314  1.00  0.00     0.020 C 
ENDBRANCH  21  30
BRANCH  16  34
HETATM   34  C12 UNL     1      -0.120  -7.102   7.102  1.00  0.00     0.087 C 
HETATM   35  C13 UNL     1       0.318  -7.772   5.842  1.00  0.00     0.051 C 
HETATM   36  C14 UNL     1      -0.159  -6.910   4.681  1.00  0.00     0.169 C 
HETATM   37  O2  UNL     1       0.302  -5.612   4.856  1.00  0.00    -0.391 OA
HETATM   38  C15 UNL     1      -0.333  -4.940   5.893  1.00  0.00     0.169 C 
HETATM   39  C16 UNL     1      -1.053  -5.935   6.742  1.00  0.00     0.051 C 
ENDBRANCH  16  34
TORSDOF 6
ENDMDL
MODEL 4
REMARK VINA RESULT: -6.990168372      1.985      2.544
REMARK  6 active torsions:
REMARK  status: ('A' for Active; 'I' for Inactive)
REMARK       I    between atoms: C1_2  and  N1_3 
REMARK       I    between atoms: C1_2  and  N2_11 
REMARK    1  A    between atoms: N1_3  and  C2_5 
REMARK    2  A    between atoms: C2_5  and  C3_6 
REMARK    3  A    between atoms: C3_6  and  C4_7 
REMARK    4  A    between atoms: C4_7  and  C5_8 
REMARK    5  A    between atoms: N5_22  and  C12_24 
REMARK    6  A    between atoms: N7_33  and  C19_34 
ROOT
HETATM    1  O1  UNL     1       1.049  -8.451   9.612  1.00  0.00    -0.247 OA
HETATM    2  C1  UNL     1       0.848  -9.664   9.970  1.00  0.00     0.322 C 
HETATM    3  N1  UNL     1       1.961 -10.344  10.429  1.00  0.00    -0.343 N 
ATOM      4  H1  UNL     1       1.847 -11.310  10.734  1.00  0.00     0.164 HD
HETATM    5  N2  UNL     1      -0.509 -10.124   9.840  1.00  0.00    -0.300 N 
HETATM    6  C6  UNL     1      -1.368  -9.010   9.400  1.00  0.00     0.139 C 
HETATM    7  C7  UNL     1      -1.252  -8.497   7.895  1.00  0.00     0.065 C 
HETATM    8  C8  UNL     1      -1.224  -9.512   7.003  1.00  0.00     0.011 A 
HETATM    9  C9  UNL     1      -2.136 -10.499   7.474  1.00  0.00     0.035 A 
HETATM   10  N3  UNL     1      -1.617 -11.071   6.602  1.00  0.00    -0.354 N 
ATOM     11  H3  UNL     1      -0.935 -10.523   6.079  1.00  0.00     0.163 HD
HETATM   12  C10 UNL     1      -1.748 -12.149   6.236  1.00  0.00     0.288 A 
HETATM   13  N4  UNL     1      -0.741 -11.460   5.430  1.00  0.00    -0.339 N 
ATOM     14  H4  UNL     1      -0.255 -11.889   4.643  1.00  0.00     0.165 HD
HETATM   15  C11 UNL     1      -0.512 -10.125   5.865  1.00  0.00     0.108 A 
HETATM   16  N5  UNL     1       0.290  -9.308   5.394  1.00  0.00    -0.371 N 
ATOM     17  H5  UNL     1       0.281  -8.415   5.886  1.00  0.00     0.161 HD
HETATM   18  N6  UNL     1      -2.633 -12.451   7.224  1.00  0.00    -0.370 N 
HETATM   19  C17 UNL     1      -2.885 -13.553   7.766  1.00  0.00     0.136 C 
HETATM   20  C18 UNL     1      -2.202 -13.453   9.251  1.00  0.00     0.116 C 
HETATM   21  N7  UNL     1      -1.050 -12.595   9.304  1.00  0.00    -0.273 NA
HETATM   22  C23 UNL     1      -0.809 -11.506  10.212  1.00  0.00     0.158 C 
HETATM   23  C24 UNL     1      -3.133 -11.264   8.089  1.00  0.00     0.178 C 
ENDROOT
BRANCH   3  24
HETATM   24  C2  UNL     1       3.286  -9.746  10.498  1.00  0.00     0.124 C 
BRANCH  24  25
HETATM   25  C3  UNL     1       4.179 -10.339  11.526  1.00  0.00     0.025 C 
BRANCH  25  26
HETATM   26  C4  UNL     1       5.614 -10.256  10.995  1.00  0.00     0.073 C 
BRANCH  26  27
HETATM   27  C5  UNL     1       5.643  -9.381   9.739  1.00  0.00     0.353 C 
HETATM   28  F1  UNL     1       6.193 -10.104   8.711  1.00  0.00    -0.214 F 
HETATM   29  F2  UNL     1       6.411  -8.252   9.954  1.00  0.00    -0.214 F 
ENDBRANCH  26  27
ENDBRANCH  25  26
ENDBRANCH  24  25
ENDBRANCH   3  24
BRANCH  21  30
HETATM   30  C19 UNL     1       0.155 -13.447   9.343  1.00  0.00     0.063 C 
HETATM   31  C20 UNL     1       0.729 -13.600  10.732  1.00  0.00     0.020 C 
HETATM   32  C21 UNL     1       0.991 -15.051  10.383  1.00  0.00     0.003 C 
HETATM   33  C22 UNL     1       0.007 -14.904   9.206  1.00  0.00     0.020 C 
ENDBRANCH  21  30
BRANCH  16  34
HETATM   34  C12 UNL     1       1.210  -9.336   4.334  1.00  0.00     0.087 C 
HETATM   35  C13 UNL     1       0.865 -10.322   3.268  1.00  0.00     0.051 C 
HETATM   36  C14 UNL     1       0.876  -9.577   1.939  1.00  0.00     0.169 C 
HETATM   37  O2  UNL     1       2.099  -8.938   1.785  1.00  0.00    -0.391 OA
HETATM   38  C15 UNL     1       2.262  -7.853   2.637  1.00  0.00     0.169 C 
HETATM   39  C16 UNL     1       1.232  -7.929   3.716  1.00  0.00     0.051 C 
ENDBRANCH  16  34
TORSDOF 6
ENDMDL
MODEL 5
REMARK VINA RESULT: -6.781106582      3.522      5.999
REMARK  6 active torsions:
REMARK  status: ('A' for Active; 'I' for Inactive)
REMARK       I    between atoms: C1_2  and  N1_3 
REMARK       I    between atoms: C1_2  and  N2_11 
REMARK    1  A    between atoms: N1_3  and  C2_5 
REMARK    2  A    between atoms: C2_5  and  C3_6 
REMARK    3  A    between atoms: C3_6  and  C4_7 
REMARK    4  A    between atoms: C4_7  and  C5_8 
REMARK    5  A    between atoms: N5_22  and  C12_24 
REMARK    6  A    between atoms: N7_33  and  C19_34 
ROOT
HETATM    1  O1  UNL     1      -2.233  -9.391   6.191  1.00  0.00    -0.247 OA
HETATM    2  C1  UNL     1      -1.444  -9.490   7.195  1.00  0.00     0.322 C 
HETATM    3  N1  UNL     1      -0.364  -8.627   7.193  1.00  0.00    -0.343 N 
ATOM      4  H1  UNL     1       0.287  -8.663   7.977  1.00  0.00     0.164 HD
HETATM    5  N2  UNL     1      -1.812 -10.484   8.168  1.00  0.00    -0.300 N 
HETATM    6  C6  UNL     1      -3.102 -11.089   7.791  1.00  0.00     0.139 C 
HETATM    7  C7  UNL     1      -3.149 -12.088   6.550  1.00  0.00     0.065 C 
HETATM    8  C8  UNL     1      -2.141 -12.989   6.572  1.00  0.00     0.011 A 
HETATM    9  C9  UNL     1      -1.956 -13.366   7.932  1.00  0.00     0.035 A 
HETATM   10  N3  UNL     1      -1.032 -13.869   7.433  1.00  0.00    -0.354 N 
ATOM     11  H3  UNL     1      -0.984 -13.762   6.420  1.00  0.00     0.163 HD
HETATM   12  C10 UNL     1      -0.167 -14.465   7.893  1.00  0.00     0.288 A 
HETATM   13  N4  UNL     1       0.006 -14.358   6.445  1.00  0.00    -0.339 N 
ATOM     14  H4  UNL     1       0.781 -14.783   5.935  1.00  0.00     0.165 HD
HETATM   15  C11 UNL     1      -1.023 -13.596   5.825  1.00  0.00     0.108 A 
HETATM   16  N5  UNL     1      -1.133 -13.320   4.623  1.00  0.00    -0.371 N 
ATOM     17  H5  UNL     1      -1.953 -12.748   4.422  1.00  0.00     0.161 HD
HETATM   18  N6  UNL     1      -0.620 -14.273   9.162  1.00  0.00    -0.370 N 
HETATM   19  C17 UNL     1       0.015 -14.234  10.242  1.00  0.00     0.136 C 
HETATM   20  C18 UNL     1       0.023 -12.652  10.663  1.00  0.00     0.116 C 
HETATM   21  N7  UNL     1      -0.027 -11.752   9.543  1.00  0.00    -0.273 NA
HETATM   22  C23 UNL     1      -0.946 -10.666   9.332  1.00  0.00     0.158 C 
HETATM   23  C24 UNL     1      -2.026 -13.632   9.304  1.00  0.00     0.178 C 
ENDROOT
BRANCH   3  24
HETATM   24  C2  UNL     1      -0.112  -7.670   6.126  1.00  0.00     0.124 C 
BRANCH  24  25
HETATM   25  C3  UNL     1      -0.340  -6.251   6.501  1.00  0.00     0.025 C 
BRANCH  25  26
HETATM   26  C4  UNL     1      -0.150  -5.404   5.239  1.00  0.00     0.073 C 
BRANCH  26  27
HETATM   27  C5  UNL     1      -0.475  -3.940   5.553  1.00  0.00     0.353 C 
HETATM   28  F1  UNL     1       0.375  -3.136   4.835  1.00  0.00    -0.214 F 
HETATM   29  F2  UNL     1      -0.303  -3.685   6.900  1.00  0.00    -0.214 F 
ENDBRANCH  26  27
ENDBRANCH  25  26
ENDBRANCH  24  25
ENDBRANCH   3  24
BRANCH  21  30
HETATM   30  C19 UNL     1       1.327 -11.201   9.335  1.00  0.00     0.063 C 
HETATM   31  C20 UNL     1       1.514  -9.837   9.956  1.00  0.00     0.020 C 
HETATM   32  C21 UNL     1       2.899 -10.295  10.364  1.00  0.00     0.003 C 
HETATM   33  C22 UNL     1       2.450 -11.747  10.113  1.00  0.00     0.020 C 
ENDBRANCH  21  30
BRANCH  16  34
HETATM   34  C12 UNL     1      -0.383 -13.618   3.475  1.00  0.00     0.087 C 
HETATM   35  C13 UNL     1      -1.215 -14.008   2.299  1.00  0.00     0.051 C 
HETATM   36  C14 UNL     1      -0.791 -13.127   1.131  1.00  0.00     0.169 C 
HETATM   37  O2  UNL     1       0.581 -13.239   0.951  1.00  0.00    -0.391 OA
HETATM   38  C15 UNL     1       1.318 -12.626   1.956  1.00  0.00     0.169 C 
HETATM   39  C16 UNL     1       0.418 -12.356   3.117  1.00  0.00     0.051 C 
ENDBRANCH  16  34
TORSDOF 6
ENDMDL
