MODEL 1
REMARK VINA RESULT: -7.968937415      0.000      0.000
REMARK  7 active torsions:
REMARK  status: ('A' for Active; 'I' for Inactive)
REMARK    1  A    between atoms: C5_10  and  N4_11 
REMARK    2  A    between atoms: N4_11  and  C6_13 
REMARK    3  A    between atoms: C6_13  and  C7_14 
REMARK    4  A    between atoms: N5_17  and  C10_18 
REMARK    5  A    between atoms: C10_18  and  C11_19 
REMARK    6  A    between atoms: C11_19  and  N6_20 
REMARK    7  A    between atoms: N8_31  and  C20_33 
ROOT
HETATM    1  N1  UNL     1       1.028  -4.811   3.321  1.00  0.00    -0.191 NA
HETATM    2  C1  UNL     1       0.572  -5.570   4.059  1.00  0.00     0.103 C 
HETATM    3  C2  UNL     1      -0.008  -6.492   4.990  1.00  0.00     0.087 A 
HETATM    4  C3  UNL     1      -0.787  -5.936   6.006  1.00  0.00     0.114 A 
HETATM    5  N2  UNL     1      -1.381  -6.694   6.932  1.00  0.00    -0.350 N 
ATOM      6  H2  UNL     1      -1.946  -6.265   7.665  1.00  0.00     0.166 HD
HETATM    7  C4  UNL     1      -1.228  -8.011   6.888  1.00  0.00     0.135 A 
HETATM    8  N3  UNL     1      -1.838  -8.750   7.831  1.00  0.00    -0.176 N 
ATOM      9  H3  UNL     1      -2.394  -8.281   8.547  1.00  0.00     0.186 HD
HETATM   10  C5  UNL     1      -1.735 -10.094   7.857  1.00  0.00     0.679 A 
HETATM   11  N7  UNL     1      -0.989 -10.696   6.894  1.00  0.00    -0.201 N 
ATOM     12  H7  UNL     1      -0.898 -11.712   6.897  1.00  0.00     0.183 HD
HETATM   13  C17 UNL     1      -0.361  -9.976   5.927  1.00  0.00     0.123 A 
HETATM   14  C18 UNL     1      -0.472  -8.600   5.908  1.00  0.00     0.052 A 
HETATM   15  C19 UNL     1       0.173  -7.847   4.912  1.00  0.00     0.066 A 
HETATM   16  N8  UNL     1       0.830  -8.431   4.068  1.00  0.00    -0.383 N 
ATOM     17  H8  UNL     1       0.778  -9.430   4.267  1.00  0.00     0.160 HD
ENDROOT
BRANCH  16  18
HETATM   18  C20 UNL     1       1.618  -8.264   2.947  1.00  0.00     0.082 C 
HETATM   19  C21 UNL     1       2.998  -8.886   3.014  1.00  0.00     0.031 C 
HETATM   20  C22 UNL     1       3.790  -8.263   1.879  1.00  0.00     0.081 C 
HETATM   21  C23 UNL     1       3.061  -8.429   0.559  1.00  0.00     0.243 C 
HETATM   22  F1  UNL     1       3.950  -9.031  -0.311  1.00  0.00    -0.206 F 
HETATM   23  F2  UNL     1       2.701  -7.218   0.001  1.00  0.00    -0.206 F 
HETATM   24  C24 UNL     1       1.885  -9.371   0.698  1.00  0.00     0.081 C 
HETATM   25  C25 UNL     1       0.927  -9.009   1.779  1.00  0.00     0.031 C 
ENDBRANCH  16  18
BRANCH  10  26
HETATM   26  N4  UNL     1      -2.322 -10.804   8.762  1.00  0.00    -0.226 N 
ATOM     27  H4  UNL     1      -2.823 -11.657   8.513  1.00  0.00     0.177 HD
BRANCH  26  28
HETATM   28  C6  UNL     1      -2.254 -10.367  10.117  1.00  0.00     0.142 C 
BRANCH  28  29
HETATM   29  C7  UNL     1      -0.901 -10.638  10.766  1.00  0.00     0.007 C 
HETATM   30  C8  UNL     1      -0.423 -11.974  10.347  1.00  0.00     0.036 C 
HETATM   31  C9  UNL     1       0.937 -12.044   9.749  1.00  0.00     0.273 C 
HETATM   32  N5  UNL     1       1.808 -11.175  10.559  1.00  0.00     0.090 N 
HETATM   33  C15 UNL     1       1.387  -9.838  10.074  1.00  0.00     0.273 C 
HETATM   34  C16 UNL     1       0.037  -9.505  10.641  1.00  0.00     0.036 C 
BRANCH  32  35
HETATM   35  C10 UNL     1       3.189 -11.412  10.263  1.00  0.00     0.302 C 
BRANCH  35  36
HETATM   36  C11 UNL     1       3.994 -10.181  10.374  1.00  0.00     0.302 C 
BRANCH  36  37
HETATM   37  N6  UNL     1       5.374 -10.274  10.602  1.00  0.00     0.090 N 
HETATM   38  C12 UNL     1       6.143  -9.333  11.291  1.00  0.00     0.274 C 
HETATM   39  C13 UNL     1       6.483  -8.566  10.029  1.00  0.00     0.060 C 
HETATM   40  C14 UNL     1       6.115  -9.907   9.379  1.00  0.00     0.274 C 
ENDBRANCH  36  37
ENDBRANCH  35  36
ENDBRANCH  32  35
ENDBRANCH  28  29
ENDBRANCH  26  28
ENDBRANCH  10  26
TORSDOF 7
ENDMDL
MODEL 2
REMARK VINA RESULT: -7.514104224      4.059      8.984
REMARK  7 active torsions:
REMARK  status: ('A' for Active; 'I' for Inactive)
REMARK    1  A    between atoms: C5_10  and  N4_11 
REMARK    2  A    between atoms: N4_11  and  C6_13 
REMARK    3  A    between atoms: C6_13  and  C7_14 
REMARK    4  A    between atoms: N5_17  and  C10_18 
REMARK    5  A    between atoms: C10_18  and  C11_19 
REMARK    6  A    between atoms: C11_19  and  N6_20 
REMARK    7  A    between atoms: N8_31  and  C20_33 
ROOT
HETATM    1  N1  UNL     1      -0.988 -14.374  12.368  1.00  0.00    -0.191 NA
HETATM    2  C1  UNL     1      -1.074 -13.434  11.705  1.00  0.00     0.103 C 
HETATM    3  C2  UNL     1      -1.210 -12.273  10.878  1.00  0.00     0.087 A 
HETATM    4  C3  UNL     1      -2.479 -12.039  10.344  1.00  0.00     0.114 A 
HETATM    5  N2  UNL     1      -2.729 -10.987   9.559  1.00  0.00    -0.350 N 
ATOM      6  H2  UNL     1      -3.664 -10.837   9.180  1.00  0.00     0.166 HD
HETATM    7  C4  UNL     1      -1.748 -10.140   9.278  1.00  0.00     0.135 A 
HETATM    8  N3  UNL     1      -2.028  -9.089   8.487  1.00  0.00    -0.176 N 
ATOM      9  H3  UNL     1      -2.977  -8.976   8.129  1.00  0.00     0.186 HD
HETATM   10  C5  UNL     1      -1.089  -8.180   8.154  1.00  0.00     0.679 A 
HETATM   11  N7  UNL     1       0.167  -8.353   8.642  1.00  0.00    -0.201 N 
ATOM     12  H7  UNL     1       0.892  -7.677   8.401  1.00  0.00     0.183 HD
HETATM   13  C17 UNL     1       0.481  -9.404   9.444  1.00  0.00     0.123 A 
HETATM   14  C18 UNL     1      -0.487 -10.330   9.780  1.00  0.00     0.052 A 
HETATM   15  C19 UNL     1      -0.172 -11.420  10.610  1.00  0.00     0.066 A 
HETATM   16  N8  UNL     1       0.968 -11.532  11.025  1.00  0.00    -0.383 N 
ATOM     17  H8  UNL     1       1.511 -10.751  10.660  1.00  0.00     0.160 HD
ENDROOT
BRANCH  16  18
HETATM   18  C20 UNL     1       1.809 -12.308  11.798  1.00  0.00     0.082 C 
HETATM   19  C21 UNL     1       2.384 -13.533  11.117  1.00  0.00     0.031 C 
HETATM   20  C22 UNL     1       2.937 -14.405  12.230  1.00  0.00     0.081 C 
HETATM   21  C23 UNL     1       3.904 -13.623  13.098  1.00  0.00     0.243 C 
HETATM   22  F1  UNL     1       5.081 -14.346  13.130  1.00  0.00    -0.206 F 
HETATM   23  F2  UNL     1       3.463 -13.502  14.401  1.00  0.00    -0.206 F 
HETATM   24  C24 UNL     1       4.235 -12.283  12.477  1.00  0.00     0.081 C 
HETATM   25  C25 UNL     1       3.050 -11.448  12.138  1.00  0.00     0.031 C 
ENDBRANCH  16  18
BRANCH  10  26
HETATM   26  N4  UNL     1      -1.358  -7.171   7.396  1.00  0.00    -0.226 N 
ATOM     27  H4  UNL     1      -2.284  -6.742   7.405  1.00  0.00     0.177 HD
BRANCH  26  28
HETATM   28  C6  UNL     1      -0.329  -6.668   6.547  1.00  0.00     0.142 C 
BRANCH  28  29
HETATM   29  C7  UNL     1      -0.374  -7.255   5.141  1.00  0.00     0.007 C 
HETATM   30  C8  UNL     1       0.411  -6.391   4.231  1.00  0.00     0.036 C 
HETATM   31  C9  UNL     1       1.474  -7.050   3.428  1.00  0.00     0.273 C 
HETATM   32  N5  UNL     1       0.913  -8.319   2.931  1.00  0.00     0.090 N 
HETATM   33  C15 UNL     1       0.975  -9.145   4.161  1.00  0.00     0.273 C 
HETATM   34  C16 UNL     1      -0.100  -8.705   5.112  1.00  0.00     0.036 C 
BRANCH  32  35
HETATM   35  C10 UNL     1       1.737  -8.877   1.901  1.00  0.00     0.302 C 
BRANCH  35  36
HETATM   36  C11 UNL     1       3.103  -8.321   1.928  1.00  0.00     0.302 C 
BRANCH  36  37
HETATM   37  N6  UNL     1       3.977  -8.578   0.862  1.00  0.00     0.090 N 
HETATM   38  C12 UNL     1       4.854  -7.649   0.297  1.00  0.00     0.274 C 
HETATM   39  C13 UNL     1       3.844  -7.204  -0.742  1.00  0.00     0.060 C 
HETATM   40  C14 UNL     1       3.234  -8.574  -0.414  1.00  0.00     0.274 C 
ENDBRANCH  36  37
ENDBRANCH  35  36
ENDBRANCH  32  35
ENDBRANCH  28  29
ENDBRANCH  26  28
ENDBRANCH  10  26
TORSDOF 7
ENDMDL
MODEL 3
REMARK VINA RESULT: -7.480301819      4.161      9.260
REMARK  7 active torsions:
REMARK  status: ('A' for Active; 'I' for Inactive)
REMARK    1  A    between atoms: C5_10  and  N4_11 
REMARK    2  A    between atoms: N4_11  and  C6_13 
REMARK    3  A    between atoms: C6_13  and  C7_14 
REMARK    4  A    between atoms: N5_17  and  C10_18 
REMARK    5  A    between atoms: C10_18  and  C11_19 
REMARK    6  A    between atoms: C11_19  and  N6_20 
REMARK    7  A    between atoms: N8_31  and  C20_33 
ROOT
HETATM    1  N1  UNL     1      -1.105  -5.590   7.460  1.00  0.00    -0.191 NA
HETATM    2  C1  UNL     1      -0.641  -6.171   6.579  1.00  0.00     0.103 C 
HETATM    3  C2  UNL     1      -0.058  -6.867   5.471  1.00  0.00     0.087 A 
HETATM    4  C3  UNL     1       0.434  -6.074   4.432  1.00  0.00     0.114 A 
HETATM    5  N2  UNL     1       1.001  -6.609   3.347  1.00  0.00    -0.350 N 
ATOM      6  H2  UNL     1       1.353  -6.009   2.601  1.00  0.00     0.166 HD
HETATM    7  C4  UNL     1       1.101  -7.928   3.250  1.00  0.00     0.135 A 
HETATM    8  N3  UNL     1       1.677  -8.439   2.148  1.00  0.00    -0.176 N 
ATOM      9  H3  UNL     1       2.016  -7.804   1.425  1.00  0.00     0.186 HD
HETATM   10  C5  UNL     1       1.820  -9.768   1.972  1.00  0.00     0.679 A 
HETATM   11  N7  UNL     1       1.360 -10.594   2.948  1.00  0.00    -0.201 N 
ATOM     12  H7  UNL     1       1.458 -11.603   2.834  1.00  0.00     0.183 HD
HETATM   13  C17 UNL     1       0.773 -10.108   4.073  1.00  0.00     0.123 A 
HETATM   14  C18 UNL     1       0.632  -8.745   4.246  1.00  0.00     0.052 A 
HETATM   15  C19 UNL     1       0.027  -8.233   5.407  1.00  0.00     0.066 A 
HETATM   16  N8  UNL     1      -0.369  -9.012   6.255  1.00  0.00    -0.383 N 
ATOM     17  H8  UNL     1      -0.167  -9.957   5.930  1.00  0.00     0.160 HD
ENDROOT
BRANCH  16  18
HETATM   18  C20 UNL     1      -0.985  -9.111   7.487  1.00  0.00     0.082 C 
HETATM   19  C21 UNL     1      -1.580 -10.465   7.817  1.00  0.00     0.031 C 
HETATM   20  C22 UNL     1      -2.506 -10.234   8.997  1.00  0.00     0.081 C 
HETATM   21  C23 UNL     1      -1.772  -9.548  10.133  1.00  0.00     0.243 C 
HETATM   22  F1  UNL     1      -1.958 -10.331  11.256  1.00  0.00    -0.206 F 
HETATM   23  F2  UNL     1      -2.289  -8.299  10.416  1.00  0.00    -0.206 F 
HETATM   24  C24 UNL     1      -0.281  -9.507   9.874  1.00  0.00     0.081 C 
HETATM   25  C25 UNL     1       0.104  -8.906   8.568  1.00  0.00     0.031 C 
ENDBRANCH  16  18
BRANCH  10  26
HETATM   26  N4  UNL     1       2.375 -10.258   0.915  1.00  0.00    -0.226 N 
ATOM     27  H4  UNL     1       3.355 -10.540   0.922  1.00  0.00     0.177 HD
BRANCH  26  28
HETATM   28  C6  UNL     1       1.584 -10.397  -0.264  1.00  0.00     0.142 C 
BRANCH  28  29
HETATM   29  C7  UNL     1       2.209  -9.732  -1.485  1.00  0.00     0.007 C 
HETATM   30  C8  UNL     1       2.113  -8.263  -1.338  1.00  0.00     0.036 C 
HETATM   31  C9  UNL     1       3.374  -7.489  -1.475  1.00  0.00     0.273 C 
HETATM   32  N5  UNL     1       4.110  -8.065  -2.614  1.00  0.00     0.090 N 
HETATM   33  C15 UNL     1       4.639  -9.306  -1.999  1.00  0.00     0.273 C 
HETATM   34  C16 UNL     1       3.524 -10.299  -1.842  1.00  0.00     0.036 C 
BRANCH  32  35
HETATM   35  C10 UNL     1       5.178  -7.204  -3.024  1.00  0.00     0.302 C 
BRANCH  35  36
HETATM   36  C11 UNL     1       5.580  -6.277  -1.950  1.00  0.00     0.302 C 
BRANCH  36  37
HETATM   37  N6  UNL     1       6.869  -6.363  -1.405  1.00  0.00     0.090 N 
HETATM   38  C12 UNL     1       7.506  -7.547  -1.026  1.00  0.00     0.274 C 
HETATM   39  C13 UNL     1       6.996  -7.460   0.399  1.00  0.00     0.060 C 
HETATM   40  C14 UNL     1       6.844  -5.981   0.020  1.00  0.00     0.274 C 
ENDBRANCH  36  37
ENDBRANCH  35  36
ENDBRANCH  32  35
ENDBRANCH  28  29
ENDBRANCH  26  28
ENDBRANCH  10  26
TORSDOF 7
ENDMDL
MODEL 4
REMARK VINA RESULT: -7.424509361      5.178      9.967
REMARK  7 active torsions:
REMARK  status: ('A' for Active; 'I' for Inactive)
REMARK    1  A    between atoms: C5_10  and  N4_11 
REMARK    2  A    between atoms: N4_11  and  C6_13 
REMARK    3  A    between atoms: C6_13  and  C7_14 
REMARK    4  A    between atoms: N5_17  and  C10_18 
REMARK    5  A    between atoms: C10_18  and  C11_19 
REMARK    6  A    between atoms: C11_19  and  N6_20 
REMARK    7  A    between atoms: N8_31  and  C20_33 
ROOT
HETATM    1  N1  UNL     1       6.789 -13.091  12.652  1.00  0.00    -0.191 NA
HETATM    2  C1  UNL     1       5.884 -12.517  12.225  1.00  0.00     0.103 C 
HETATM    3  C2  UNL     1       4.778 -11.791  11.677  1.00  0.00     0.087 A 
HETATM    4  C3  UNL     1       5.079 -10.879  10.663  1.00  0.00     0.114 A 
HETATM    5  N2  UNL     1       4.132 -10.144  10.073  1.00  0.00    -0.350 N 
ATOM      6  H2  UNL     1       4.376  -9.484   9.335  1.00  0.00     0.166 HD
HETATM    7  C4  UNL     1       2.870 -10.283  10.459  1.00  0.00     0.135 A 
HETATM    8  N3  UNL     1       1.936  -9.532   9.847  1.00  0.00    -0.176 N 
ATOM      9  H3  UNL     1       2.223  -8.884   9.113  1.00  0.00     0.186 HD
HETATM   10  C5  UNL     1       0.632  -9.613  10.176  1.00  0.00     0.679 A 
HETATM   11  N7  UNL     1       0.275 -10.484  11.157  1.00  0.00    -0.201 N 
ATOM     12  H7  UNL     1      -0.708 -10.559  11.422  1.00  0.00     0.183 HD
HETATM   13  C17 UNL     1       1.194 -11.255  11.794  1.00  0.00     0.123 A 
HETATM   14  C18 UNL     1       2.528 -11.166  11.449  1.00  0.00     0.052 A 
HETATM   15  C19 UNL     1       3.487 -11.961  12.101  1.00  0.00     0.066 A 
HETATM   16  N8  UNL     1       3.119 -12.728  12.973  1.00  0.00    -0.383 N 
ATOM     17  H8  UNL     1       2.108 -12.634  13.065  1.00  0.00     0.160 HD
ENDROOT
BRANCH  16  18
HETATM   18  C20 UNL     1       3.541 -13.675  13.885  1.00  0.00     0.082 C 
HETATM   19  C21 UNL     1       3.290 -13.341  15.342  1.00  0.00     0.031 C 
HETATM   20  C22 UNL     1       4.154 -14.300  16.141  1.00  0.00     0.081 C 
HETATM   21  C23 UNL     1       3.876 -15.736  15.742  1.00  0.00     0.243 C 
HETATM   22  F1  UNL     1       3.568 -16.419  16.904  1.00  0.00    -0.206 F 
HETATM   23  F2  UNL     1       4.982 -16.352  15.188  1.00  0.00    -0.206 F 
HETATM   24  C24 UNL     1       2.659 -15.830  14.848  1.00  0.00     0.081 C 
HETATM   25  C25 UNL     1       2.706 -14.956  13.644  1.00  0.00     0.031 C 
ENDBRANCH  16  18
BRANCH  10  26
HETATM   26  N4  UNL     1      -0.265  -8.895   9.588  1.00  0.00    -0.226 N 
ATOM     27  H4  UNL     1      -0.244  -7.877   9.651  1.00  0.00     0.177 HD
BRANCH  26  28
HETATM   28  C6  UNL     1      -1.286  -9.559   8.847  1.00  0.00     0.142 C 
BRANCH  28  29
HETATM   29  C7  UNL     1      -1.401  -9.065   7.410  1.00  0.00     0.007 C 
HETATM   30  C8  UNL     1      -0.975  -7.648   7.350  1.00  0.00     0.036 C 
HETATM   31  C9  UNL     1       0.081  -7.304   6.362  1.00  0.00     0.273 C 
HETATM   32  N5  UNL     1      -0.244  -8.025   5.118  1.00  0.00     0.090 N 
HETATM   33  C15 UNL     1       0.184  -9.398   5.478  1.00  0.00     0.273 C 
HETATM   34  C16 UNL     1      -0.812  -9.997   6.429  1.00  0.00     0.036 C 
BRANCH  32  35
HETATM   35  C10 UNL     1       0.525  -7.525   4.018  1.00  0.00     0.302 C 
BRANCH  35  36
HETATM   36  C11 UNL     1       1.321  -8.587   3.375  1.00  0.00     0.302 C 
BRANCH  36  37
HETATM   37  N6  UNL     1       2.098  -8.284   2.247  1.00  0.00     0.090 N 
HETATM   38  C12 UNL     1       2.424  -9.182   1.229  1.00  0.00     0.274 C 
HETATM   39  C13 UNL     1       3.712  -9.608   1.904  1.00  0.00     0.060 C 
HETATM   40  C14 UNL     1       3.528  -8.258   2.610  1.00  0.00     0.274 C 
ENDBRANCH  36  37
ENDBRANCH  35  36
ENDBRANCH  32  35
ENDBRANCH  28  29
ENDBRANCH  26  28
ENDBRANCH  10  26
TORSDOF 7
ENDMDL
MODEL 5
REMARK VINA RESULT: -7.414684337      1.093      1.269
REMARK  7 active torsions:
REMARK  status: ('A' for Active; 'I' for Inactive)
REMARK    1  A    between atoms: C5_10  and  N4_11 
REMARK    2  A    between atoms: N4_11  and  C6_13 
REMARK    3  A    between atoms: C6_13  and  C7_14 
REMARK    4  A    between atoms: N5_17  and  C10_18 
REMARK    5  A    between atoms: C10_18  and  C11_19 
REMARK    6  A    between atoms: C11_19  and  N6_20 
REMARK    7  A    between atoms: N8_31  and  C20_33 
ROOT
HETATM    1  N1  UNL     1       0.907  -5.106   3.374  1.00  0.00    -0.191 NA
HETATM    2  C1  UNL     1       0.473  -5.769   4.212  1.00  0.00     0.103 C 
HETATM    3  C2  UNL     1      -0.076  -6.569   5.267  1.00  0.00     0.087 A 
HETATM    4  C3  UNL     1      -0.665  -5.875   6.325  1.00  0.00     0.114 A 
HETATM    5  N2  UNL     1      -1.212  -6.511   7.366  1.00  0.00    -0.350 N 
ATOM      6  H2  UNL     1      -1.637  -5.983   8.127  1.00  0.00     0.166 HD
HETATM    7  C4  UNL     1      -1.195  -7.837   7.396  1.00  0.00     0.135 A 
HETATM    8  N3  UNL     1      -1.754  -8.451   8.454  1.00  0.00    -0.176 N 
ATOM      9  H3  UNL     1      -2.169  -7.885   9.195  1.00  0.00     0.186 HD
HETATM   10  C5  UNL     1      -1.782  -9.794   8.563  1.00  0.00     0.679 A 
HETATM   11  N7  UNL     1      -1.223 -10.527   7.564  1.00  0.00    -0.201 N 
ATOM     12  H7  UNL     1      -1.232 -11.545   7.628  1.00  0.00     0.183 HD
HETATM   13  C17 UNL     1      -0.651  -9.936   6.482  1.00  0.00     0.123 A 
HETATM   14  C18 UNL     1      -0.628  -8.559   6.379  1.00  0.00     0.052 A 
HETATM   15  C19 UNL     1      -0.039  -7.938   5.264  1.00  0.00     0.066 A 
HETATM   16  N8  UNL     1       0.448  -8.636   4.392  1.00  0.00    -0.383 N 
ATOM     17  H8  UNL     1       0.323  -9.610   4.666  1.00  0.00     0.160 HD
ENDROOT
BRANCH  16  18
HETATM   18  C20 UNL     1       1.104  -8.619   3.178  1.00  0.00     0.082 C 
HETATM   19  C21 UNL     1       2.591  -8.329   3.238  1.00  0.00     0.031 C 
HETATM   20  C22 UNL     1       3.003  -7.985   1.818  1.00  0.00     0.081 C 
HETATM   21  C23 UNL     1       2.589  -9.081   0.856  1.00  0.00     0.243 C 
HETATM   22  F1  UNL     1       3.728  -9.457   0.168  1.00  0.00    -0.206 F 
HETATM   23  F2  UNL     1       1.673  -8.642  -0.081  1.00  0.00    -0.206 F 
HETATM   24  C24 UNL     1       2.107 -10.308   1.599  1.00  0.00     0.081 C 
HETATM   25  C25 UNL     1       1.024 -10.047   2.587  1.00  0.00     0.031 C 
ENDBRANCH  16  18
BRANCH  10  26
HETATM   26  N4  UNL     1      -2.320 -10.384   9.577  1.00  0.00    -0.226 N 
ATOM     27  H4  UNL     1      -3.012 -11.122   9.446  1.00  0.00     0.177 HD
BRANCH  26  28
HETATM   28  C6  UNL     1      -1.923  -9.979  10.885  1.00  0.00     0.142 C 
BRANCH  28  29
HETATM   29  C7  UNL     1      -0.557 -10.520  11.291  1.00  0.00     0.007 C 
HETATM   30  C8  UNL     1      -0.495 -11.965  10.977  1.00  0.00     0.036 C 
HETATM   31  C9  UNL     1       0.646 -12.424  10.143  1.00  0.00     0.273 C 
HETATM   32  N5  UNL     1       1.848 -11.730  10.640  1.00  0.00     0.090 N 
HETATM   33  C15 UNL     1       1.641 -10.380  10.065  1.00  0.00     0.273 C 
HETATM   34  C16 UNL     1       0.560  -9.672  10.830  1.00  0.00     0.036 C 
BRANCH  32  35
HETATM   35  C10 UNL     1       3.039 -12.329  10.118  1.00  0.00     0.302 C 
BRANCH  35  36
HETATM   36  C11 UNL     1       4.208 -11.441  10.261  1.00  0.00     0.302 C 
BRANCH  36  37
HETATM   37  N6  UNL     1       4.841 -11.323  11.507  1.00  0.00     0.090 N 
HETATM   38  C12 UNL     1       6.160 -10.910  11.705  1.00  0.00     0.274 C 
HETATM   39  C13 UNL     1       6.698 -12.326  11.655  1.00  0.00     0.060 C 
HETATM   40  C14 UNL     1       5.240 -12.656  12.000  1.00  0.00     0.274 C 
ENDBRANCH  36  37
ENDBRANCH  35  36
ENDBRANCH  32  35
ENDBRANCH  28  29
ENDBRANCH  26  28
ENDBRANCH  10  26
TORSDOF 7
ENDMDL
