MODEL 1
REMARK VINA RESULT: -6.174635000      0.000      0.000
REMARK  5 active torsions:
REMARK  status: ('A' for Active; 'I' for Inactive)
REMARK    1  A    between atoms: O1_2  and  C2_3 
REMARK       I    between atoms: C2_3  and  N1_5 
REMARK    2  A    between atoms: C5_8  and  N2_9 
REMARK       I    between atoms: N2_9  and  C6_11 
REMARK       I    between atoms: C6_11  and  N4_18 
REMARK    3  A    between atoms: N3_12  and  C7_14 
REMARK    4  A    between atoms: C7_14  and  C8_15 
REMARK    5  A    between atoms: C8_15  and  O3_16 
ROOT
HETATM    1  N2  UNL     1      -2.142   4.637  12.916  1.00  0.00    -0.222 N 
ATOM      2  H2  UNL     1      -2.241   5.546  13.369  1.00  0.00     0.178 HD
HETATM    3  C6  UNL     1      -1.267   4.597  11.810  1.00  0.00     0.671 C 
HETATM    4  N3  UNL     1      -0.085   4.162  11.965  1.00  0.00    -0.224 N 
ATOM      5  H3  UNL     1       0.137   3.869  12.916  1.00  0.00     0.177 HD
HETATM    6  N4  UNL     1      -1.684   5.086  10.571  1.00  0.00    -0.227 N 
HETATM    7  C9  UNL     1      -1.931   6.511  10.381  1.00  0.00     0.168 C 
HETATM    8  C10 UNL     1      -1.887   4.229   9.432  1.00  0.00     0.168 C 
ENDROOT
BRANCH   1   9
HETATM    9  C5  UNL     1      -2.904   3.578  13.484  1.00  0.00     0.102 C 
HETATM   10  C4  UNL     1      -3.661   4.099  14.689  1.00  0.00     0.045 C 
HETATM   11  C3  UNL     1      -4.883   3.265  14.973  1.00  0.00     0.130 C 
HETATM   12  N1  UNL     1      -4.646   1.896  14.573  1.00  0.00    -0.328 N 
HETATM   13  C2  UNL     1      -4.633   0.827  15.515  1.00  0.00     0.362 C 
HETATM   14  C12 UNL     1      -4.426   1.664  13.164  1.00  0.00     0.130 C 
HETATM   15  O2  UNL     1      -4.424  -0.357  15.129  1.00  0.00    -0.238 OA
HETATM   16  C11 UNL     1      -3.936   2.970  12.565  1.00  0.00     0.045 C 
BRANCH  13  17
HETATM   17  O1  UNL     1      -4.842   1.057  16.849  1.00  0.00    -0.309 OA
HETATM   18  C1  UNL     1      -6.117   0.828  17.466  1.00  0.00     0.215 C 
ENDBRANCH  13  17
ENDBRANCH   1   9
BRANCH   4  19
HETATM   19  C7  UNL     1       0.977   4.014  11.045  1.00  0.00     0.164 C 
BRANCH  19  20
HETATM   20  C8  UNL     1       2.161   4.907  11.345  1.00  0.00     0.184 C 
BRANCH  20  21
HETATM   21  O3  UNL     1       3.087   4.310  12.161  1.00  0.00    -0.399 OA
ATOM     22  H3  UNL     1       2.717   4.012  12.984  1.00  0.00     0.209 HD
ENDBRANCH  20  21
ENDBRANCH  19  20
ENDBRANCH   4  19
TORSDOF 5
ENDMDL
MODEL 2
REMARK VINA RESULT: -5.905870444      2.305      6.880
REMARK  5 active torsions:
REMARK  status: ('A' for Active; 'I' for Inactive)
REMARK    1  A    between atoms: O1_2  and  C2_3 
REMARK       I    between atoms: C2_3  and  N1_5 
REMARK    2  A    between atoms: C5_8  and  N2_9 
REMARK       I    between atoms: N2_9  and  C6_11 
REMARK       I    between atoms: C6_11  and  N4_18 
REMARK    3  A    between atoms: N3_12  and  C7_14 
REMARK    4  A    between atoms: C7_14  and  C8_15 
REMARK    5  A    between atoms: C8_15  and  O3_16 
ROOT
HETATM    1  N2  UNL     1      -4.376   2.399  12.346  1.00  0.00    -0.222 N 
ATOM      2  H2  UNL     1      -5.216   2.059  11.878  1.00  0.00     0.178 HD
HETATM    3  C6  UNL     1      -4.513   2.679  13.721  1.00  0.00     0.671 C 
HETATM    4  N3  UNL     1      -4.116   1.828  14.574  1.00  0.00    -0.224 N 
ATOM      5  H3  UNL     1      -3.718   0.980  14.172  1.00  0.00     0.177 HD
HETATM    6  N4  UNL     1      -5.131   3.860  14.135  1.00  0.00    -0.227 N 
HETATM    7  C9  UNL     1      -6.556   4.071  13.905  1.00  0.00     0.168 C 
HETATM    8  C10 UNL     1      -4.414   4.914  14.803  1.00  0.00     0.168 C 
ENDROOT
BRANCH   1   9
HETATM    9  C5  UNL     1      -3.221   2.527  11.524  1.00  0.00     0.102 C 
HETATM   10  C4  UNL     1      -2.301   3.576  12.115  1.00  0.00     0.045 C 
HETATM   11  C3  UNL     1      -0.874   3.363  11.683  1.00  0.00     0.130 C 
HETATM   12  N1  UNL     1      -0.844   2.769  10.366  1.00  0.00    -0.328 N 
HETATM   13  C2  UNL     1      -0.280   3.448   9.246  1.00  0.00     0.362 C 
HETATM   14  C12 UNL     1      -1.413   1.447  10.239  1.00  0.00     0.130 C 
HETATM   15  O2  UNL     1      -0.271   2.897   8.109  1.00  0.00    -0.238 OA
HETATM   16  C11 UNL     1      -2.396   1.271  11.383  1.00  0.00     0.045 C 
BRANCH  13  17
HETATM   17  O1  UNL     1       0.257   4.701   9.375  1.00  0.00    -0.309 OA
HETATM   18  C1  UNL     1       1.675   4.919   9.396  1.00  0.00     0.215 C 
ENDBRANCH  13  17
ENDBRANCH   1   9
BRANCH   4  19
HETATM   19  C7  UNL     1      -4.132   1.853  15.987  1.00  0.00     0.164 C 
BRANCH  19  20
HETATM   20  C8  UNL     1      -5.373   1.228  16.585  1.00  0.00     0.184 C 
BRANCH  20  21
HETATM   21  O3  UNL     1      -5.445  -0.125  16.372  1.00  0.00    -0.399 OA
ATOM     22  H3  UNL     1      -4.700  -0.595  16.727  1.00  0.00     0.209 HD
ENDBRANCH  20  21
ENDBRANCH  19  20
ENDBRANCH   4  19
TORSDOF 5
ENDMDL
MODEL 3
REMARK VINA RESULT: -5.797303818      4.257      6.765
REMARK  5 active torsions:
REMARK  status: ('A' for Active; 'I' for Inactive)
REMARK    1  A    between atoms: O1_2  and  C2_3 
REMARK       I    between atoms: C2_3  and  N1_5 
REMARK    2  A    between atoms: C5_8  and  N2_9 
REMARK       I    between atoms: N2_9  and  C6_11 
REMARK       I    between atoms: C6_11  and  N4_18 
REMARK    3  A    between atoms: N3_12  and  C7_14 
REMARK    4  A    between atoms: C7_14  and  C8_15 
REMARK    5  A    between atoms: C8_15  and  O3_16 
ROOT
HETATM    1  N2  UNL     1      -2.859   3.009  11.114  1.00  0.00    -0.222 N 
ATOM      2  H2  UNL     1      -1.847   3.135  11.130  1.00  0.00     0.178 HD
HETATM    3  C6  UNL     1      -3.346   1.885  11.813  1.00  0.00     0.671 C 
HETATM    4  N3  UNL     1      -3.822   2.034  12.980  1.00  0.00    -0.224 N 
ATOM      5  H3  UNL     1      -3.807   2.994  13.324  1.00  0.00     0.177 HD
HETATM    6  N4  UNL     1      -3.253   0.614  11.244  1.00  0.00    -0.227 N 
HETATM    7  C9  UNL     1      -1.952  -0.016  11.048  1.00  0.00     0.168 C 
HETATM    8  C10 UNL     1      -4.411  -0.134  10.830  1.00  0.00     0.168 C 
ENDROOT
BRANCH   1   9
HETATM    9  C5  UNL     1      -3.591   3.991  10.388  1.00  0.00     0.102 C 
HETATM   10  C4  UNL     1      -4.294   4.912  11.365  1.00  0.00     0.045 C 
HETATM   11  C3  UNL     1      -4.578   6.255  10.746  1.00  0.00     0.130 C 
HETATM   12  N1  UNL     1      -4.796   6.104   9.325  1.00  0.00    -0.328 N 
HETATM   13  C2  UNL     1      -6.048   6.410   8.718  1.00  0.00     0.362 C 
HETATM   14  C12 UNL     1      -3.675   5.629   8.547  1.00  0.00     0.130 C 
HETATM   15  O2  UNL     1      -6.202   6.267   7.473  1.00  0.00    -0.238 OA
HETATM   16  C11 UNL     1      -2.758   4.876   9.494  1.00  0.00     0.045 C 
BRANCH  13  17
HETATM   17  O1  UNL     1      -7.105   6.860   9.464  1.00  0.00    -0.309 OA
HETATM   18  C1  UNL     1      -7.957   7.921   9.009  1.00  0.00     0.215 C 
ENDBRANCH  13  17
ENDBRANCH   1   9
BRANCH   4  19
HETATM   19  C7  UNL     1      -4.369   1.097  13.885  1.00  0.00     0.164 C 
BRANCH  19  20
HETATM   20  C8  UNL     1      -4.386   1.584  15.317  1.00  0.00     0.184 C 
BRANCH  20  21
HETATM   21  O3  UNL     1      -3.645   0.794  16.159  1.00  0.00    -0.399 OA
ATOM     22  H3  UNL     1      -3.490  -0.075  15.808  1.00  0.00     0.209 HD
ENDBRANCH  20  21
ENDBRANCH  19  20
ENDBRANCH   4  19
TORSDOF 5
ENDMDL
MODEL 4
REMARK VINA RESULT: -5.758940213      1.619      1.727
REMARK  5 active torsions:
REMARK  status: ('A' for Active; 'I' for Inactive)
REMARK    1  A    between atoms: O1_2  and  C2_3 
REMARK       I    between atoms: C2_3  and  N1_5 
REMARK    2  A    between atoms: C5_8  and  N2_9 
REMARK       I    between atoms: N2_9  and  C6_11 
REMARK       I    between atoms: C6_11  and  N4_18 
REMARK    3  A    between atoms: N3_12  and  C7_14 
REMARK    4  A    between atoms: C7_14  and  C8_15 
REMARK    5  A    between atoms: C8_15  and  O3_16 
ROOT
HETATM    1  N2  UNL     1      -2.361   4.782  12.976  1.00  0.00    -0.222 N 
ATOM      2  H2  UNL     1      -2.110   5.518  13.636  1.00  0.00     0.178 HD
HETATM    3  C6  UNL     1      -1.968   4.999  11.639  1.00  0.00     0.671 C 
HETATM    4  N3  UNL     1      -0.919   4.437  11.197  1.00  0.00    -0.224 N 
ATOM      5  H3  UNL     1      -0.433   3.854  11.878  1.00  0.00     0.177 HD
HETATM    6  N4  UNL     1      -2.697   5.871  10.830  1.00  0.00    -0.227 N 
HETATM    7  C9  UNL     1      -2.710   7.303  11.106  1.00  0.00     0.168 C 
HETATM    8  C10 UNL     1      -3.460   5.417   9.697  1.00  0.00     0.168 C 
ENDROOT
BRANCH   1   9
HETATM    9  C5  UNL     1      -3.061   3.671  13.527  1.00  0.00     0.102 C 
HETATM   10  C4  UNL     1      -3.841   4.127  14.743  1.00  0.00     0.045 C 
HETATM   11  C3  UNL     1      -5.013   3.220  15.015  1.00  0.00     0.130 C 
HETATM   12  N1  UNL     1      -4.702   1.875  14.589  1.00  0.00    -0.328 N 
HETATM   13  C2  UNL     1      -4.625   0.791  15.511  1.00  0.00     0.362 C 
HETATM   14  C12 UNL     1      -4.474   1.681  13.175  1.00  0.00     0.130 C 
HETATM   15  O2  UNL     1      -4.351  -0.372  15.102  1.00  0.00    -0.238 OA
HETATM   16  C11 UNL     1      -4.060   3.023  12.599  1.00  0.00     0.045 C 
BRANCH  13  17
HETATM   17  O1  UNL     1      -4.842   0.984  16.850  1.00  0.00    -0.309 OA
HETATM   18  C1  UNL     1      -6.117   0.726  17.455  1.00  0.00     0.215 C 
ENDBRANCH  13  17
ENDBRANCH   1   9
BRANCH   4  19
HETATM   19  C7  UNL     1      -0.311   4.480   9.923  1.00  0.00     0.164 C 
BRANCH  19  20
HETATM   20  C8  UNL     1      -0.295   3.141   9.219  1.00  0.00     0.184 C 
BRANCH  20  21
HETATM   21  O3  UNL     1      -1.342   2.333   9.584  1.00  0.00    -0.399 OA
ATOM     22  H3  UNL     1      -2.142   2.817   9.750  1.00  0.00     0.209 HD
ENDBRANCH  20  21
ENDBRANCH  19  20
ENDBRANCH   4  19
TORSDOF 5
ENDMDL
MODEL 5
REMARK VINA RESULT: -5.727767705      2.785      3.199
REMARK  5 active torsions:
REMARK  status: ('A' for Active; 'I' for Inactive)
REMARK    1  A    between atoms: O1_2  and  C2_3 
REMARK       I    between atoms: C2_3  and  N1_5 
REMARK    2  A    between atoms: C5_8  and  N2_9 
REMARK       I    between atoms: N2_9  and  C6_11 
REMARK       I    between atoms: C6_11  and  N4_18 
REMARK    3  A    between atoms: N3_12  and  C7_14 
REMARK    4  A    between atoms: C7_14  and  C8_15 
REMARK    5  A    between atoms: C8_15  and  O3_16 
ROOT
HETATM    1  N2  UNL     1      -4.149   5.974  13.504  1.00  0.00    -0.222 N 
ATOM      2  H2  UNL     1      -5.026   6.467  13.334  1.00  0.00     0.178 HD
HETATM    3  C6  UNL     1      -2.977   6.666  13.135  1.00  0.00     0.671 C 
HETATM    4  N3  UNL     1      -2.303   7.272  14.024  1.00  0.00    -0.224 N 
ATOM      5  H3  UNL     1      -2.687   7.203  14.966  1.00  0.00     0.177 HD
HETATM    6  N4  UNL     1      -2.596   6.729  11.793  1.00  0.00    -0.227 N 
HETATM    7  C9  UNL     1      -3.395   7.478  10.830  1.00  0.00     0.168 C 
HETATM    8  C10 UNL     1      -1.415   6.075  11.295  1.00  0.00     0.168 C 
ENDROOT
BRANCH   1   9
HETATM    9  C5  UNL     1      -4.271   4.679  14.083  1.00  0.00     0.102 C 
HETATM   10  C4  UNL     1      -5.531   4.625  14.923  1.00  0.00     0.045 C 
HETATM   11  C3  UNL     1      -6.032   3.212  15.072  1.00  0.00     0.130 C 
HETATM   12  N1  UNL     1      -4.918   2.291  15.047  1.00  0.00    -0.328 N 
HETATM   13  C2  UNL     1      -4.584   1.482  16.171  1.00  0.00     0.362 C 
HETATM   14  C12 UNL     1      -4.158   2.230  13.819  1.00  0.00     0.130 C 
HETATM   15  O2  UNL     1      -3.604   0.688  16.113  1.00  0.00    -0.238 OA
HETATM   16  C11 UNL     1      -4.373   3.545  13.092  1.00  0.00     0.045 C 
BRANCH  13  17
HETATM   17  O1  UNL     1      -5.310   1.548  17.331  1.00  0.00    -0.309 OA
HETATM   18  C1  UNL     1      -6.552   0.848  17.488  1.00  0.00     0.215 C 
ENDBRANCH  13  17
ENDBRANCH   1   9
BRANCH   4  19
HETATM   19  C7  UNL     1      -1.113   8.027  13.931  1.00  0.00     0.164 C 
BRANCH  19  20
HETATM   20  C8  UNL     1      -1.039   9.157  14.934  1.00  0.00     0.184 C 
BRANCH  20  21
HETATM   21  O3  UNL     1      -1.756   8.906  16.076  1.00  0.00    -0.399 OA
ATOM     22  H3  UNL     1      -1.309   9.193  16.863  1.00  0.00     0.209 HD
ENDBRANCH  20  21
ENDBRANCH  19  20
ENDBRANCH   4  19
TORSDOF 5
ENDMDL
