MODEL 1
REMARK VINA RESULT: -6.902481765      0.000      0.000
REMARK  4 active torsions:
REMARK  status: ('A' for Active; 'I' for Inactive)
REMARK    1  A    between atoms: N1_2  and  C2_3 
REMARK    2  A    between atoms: N1_2  and  C10_16 
REMARK    3  A    between atoms: C2_3  and  C3_4 
REMARK       I    between atoms: C3_4  and  N2_6 
REMARK    4  A    between atoms: C13_19  and  O2_20 
ROOT
HETATM    1  C3  UNL     1      -3.828   2.642  12.518  1.00  0.00     0.248 C 
HETATM    2  O1  UNL     1      -3.319   1.512  12.723  1.00  0.00    -0.271 OA
HETATM    3  N2  UNL     1      -3.118   3.549  11.705  1.00  0.00    -0.344 N 
HETATM    4  C4  UNL     1      -3.395   4.914  11.266  1.00  0.00     0.133 C 
HETATM    5  C5  UNL     1      -1.940   5.120  11.009  1.00  0.00     0.030 C 
HETATM    6  C6  UNL     1      -1.095   5.529  12.193  1.00  0.00     0.036 C 
HETATM    7  C7  UNL     1       0.352   5.207  11.808  1.00  0.00     0.233 C 
HETATM    8  N3  UNL     1       0.510   3.812  11.462  1.00  0.00    -0.073 N 
ATOM      9  H31 UNL     1       1.288   3.397  11.974  1.00  0.00     0.277 HD
ATOM     10  H32 UNL     1       0.863   3.711  10.510  1.00  0.00     0.277 HD
HETATM   11  C8  UNL     1      -0.696   3.043  11.647  1.00  0.00     0.257 C 
HETATM   12  C9  UNL     1      -1.884   3.607  10.954  1.00  0.00     0.118 C 
ENDROOT
BRANCH   1  13
HETATM   13  C2  UNL     1      -5.140   2.969  13.131  1.00  0.00     0.374 C 
BRANCH  13  14
HETATM   14  N1  UNL     1      -5.065   3.279  14.525  1.00  0.00     0.097 N 
HETATM   15  C1  UNL     1      -5.710   4.534  14.854  1.00  0.00     0.310 C 
BRANCH  14  16
HETATM   16  C10 UNL     1      -5.709   2.226  15.278  1.00  0.00     0.225 C 
HETATM   17  C11 UNL     1      -6.694   2.785  16.304  1.00  0.00     0.038 C 
HETATM   18  C12 UNL     1      -6.980   1.492  17.085  1.00  0.00     0.034 C 
HETATM   19  C13 UNL     1      -5.583   0.998  17.348  1.00  0.00     0.120 C 
HETATM   20  C14 UNL     1      -4.718   1.553  16.229  1.00  0.00     0.067 C 
BRANCH  19  21
HETATM   21  O2  UNL     1      -5.597  -0.390  17.326  1.00  0.00    -0.396 OA
ATOM     22  H2  UNL     1      -5.413  -0.679  16.439  1.00  0.00     0.210 HD
ENDBRANCH  19  21
ENDBRANCH  14  16
ENDBRANCH  13  14
ENDBRANCH   1  13
TORSDOF 4
ENDMDL
MODEL 2
REMARK VINA RESULT: -6.633648395      1.215      1.567
REMARK  4 active torsions:
REMARK  status: ('A' for Active; 'I' for Inactive)
REMARK    1  A    between atoms: N1_2  and  C2_3 
REMARK    2  A    between atoms: N1_2  and  C10_16 
REMARK    3  A    between atoms: C2_3  and  C3_4 
REMARK       I    between atoms: C3_4  and  N2_6 
REMARK    4  A    between atoms: C13_19  and  O2_20 
ROOT
HETATM    1  C3  UNL     1      -3.125   3.570  13.263  1.00  0.00     0.248 C 
HETATM    2  O1  UNL     1      -2.479   4.189  14.145  1.00  0.00    -0.271 OA
HETATM    3  N2  UNL     1      -2.435   3.166  12.101  1.00  0.00    -0.344 N 
HETATM    4  C4  UNL     1      -2.853   2.449  10.900  1.00  0.00     0.133 C 
HETATM    5  C5  UNL     1      -1.688   3.020  10.162  1.00  0.00     0.030 C 
HETATM    6  C6  UNL     1      -1.870   4.397   9.568  1.00  0.00     0.036 C 
HETATM    7  C7  UNL     1      -0.460   4.936   9.316  1.00  0.00     0.233 C 
HETATM    8  N3  UNL     1       0.327   4.949  10.528  1.00  0.00    -0.073 N 
ATOM      9  H31 UNL     1       0.757   5.862  10.672  1.00  0.00     0.277 HD
ATOM     10  H32 UNL     1       1.169   4.383  10.421  1.00  0.00     0.277 HD
HETATM   11  C8  UNL     1      -0.420   4.543  11.693  1.00  0.00     0.257 C 
HETATM   12  C9  UNL     1      -1.103   3.231  11.544  1.00  0.00     0.118 C 
ENDROOT
BRANCH   1  13
HETATM   13  C2  UNL     1      -4.566   3.292  13.481  1.00  0.00     0.374 C 
BRANCH  13  14
HETATM   14  N1  UNL     1      -5.020   3.596  14.802  1.00  0.00     0.097 N 
HETATM   15  C1  UNL     1      -5.960   4.699  14.830  1.00  0.00     0.310 C 
BRANCH  14  16
HETATM   16  C10 UNL     1      -5.671   2.431  15.358  1.00  0.00     0.225 C 
HETATM   17  C11 UNL     1      -6.706   2.811  16.416  1.00  0.00     0.038 C 
HETATM   18  C12 UNL     1      -6.996   1.409  16.978  1.00  0.00     0.034 C 
HETATM   19  C13 UNL     1      -5.600   0.902  17.219  1.00  0.00     0.120 C 
HETATM   20  C14 UNL     1      -4.704   1.634  16.235  1.00  0.00     0.067 C 
BRANCH  19  21
HETATM   21  O2  UNL     1      -5.583  -0.467  16.984  1.00  0.00    -0.396 OA
ATOM     22  H2  UNL     1      -5.154  -0.892  17.717  1.00  0.00     0.210 HD
ENDBRANCH  19  21
ENDBRANCH  14  16
ENDBRANCH  13  14
ENDBRANCH   1  13
TORSDOF 4
ENDMDL
MODEL 3
REMARK VINA RESULT: -6.409712540      1.909      2.309
REMARK  4 active torsions:
REMARK  status: ('A' for Active; 'I' for Inactive)
REMARK    1  A    between atoms: N1_2  and  C2_3 
REMARK    2  A    between atoms: N1_2  and  C10_16 
REMARK    3  A    between atoms: C2_3  and  C3_4 
REMARK       I    between atoms: C3_4  and  N2_6 
REMARK    4  A    between atoms: C13_19  and  O2_20 
ROOT
HETATM    1  C3  UNL     1      -2.966   4.061  13.561  1.00  0.00     0.248 C 
HETATM    2  O1  UNL     1      -2.031   4.121  14.398  1.00  0.00    -0.271 OA
HETATM    3  N2  UNL     1      -2.888   4.889  12.422  1.00  0.00    -0.344 N 
HETATM    4  C4  UNL     1      -3.770   5.082  11.275  1.00  0.00     0.133 C 
HETATM    5  C5  UNL     1      -3.154   6.420  11.034  1.00  0.00     0.030 C 
HETATM    6  C6  UNL     1      -3.713   7.576  11.829  1.00  0.00     0.036 C 
HETATM    7  C7  UNL     1      -2.648   8.675  11.781  1.00  0.00     0.233 C 
HETATM    8  N3  UNL     1      -1.380   8.205  12.292  1.00  0.00    -0.073 N 
ATOM      9  H31 UNL     1      -1.011   8.846  12.994  1.00  0.00     0.277 HD
ATOM     10  H32 UNL     1      -0.648   8.293  11.586  1.00  0.00     0.277 HD
HETATM   11  C8  UNL     1      -1.439   6.859  12.806  1.00  0.00     0.257 C 
HETATM   12  C9  UNL     1      -1.998   5.871  11.846  1.00  0.00     0.118 C 
ENDROOT
BRANCH   1  13
HETATM   13  C2  UNL     1      -4.098   3.131  13.803  1.00  0.00     0.374 C 
BRANCH  13  14
HETATM   14  N1  UNL     1      -5.004   3.576  14.815  1.00  0.00     0.097 N 
HETATM   15  C1  UNL     1      -6.012   4.483  14.304  1.00  0.00     0.310 C 
BRANCH  14  16
HETATM   16  C10 UNL     1      -5.673   2.429  15.387  1.00  0.00     0.225 C 
HETATM   17  C11 UNL     1      -6.672   2.837  16.469  1.00  0.00     0.038 C 
HETATM   18  C12 UNL     1      -6.987   1.444  17.038  1.00  0.00     0.034 C 
HETATM   19  C13 UNL     1      -5.601   0.897  17.246  1.00  0.00     0.120 C 
HETATM   20  C14 UNL     1      -4.708   1.605  16.241  1.00  0.00     0.067 C 
BRANCH  19  21
HETATM   21  O2  UNL     1      -5.628  -0.471  17.011  1.00  0.00    -0.396 OA
ATOM     22  H2  UNL     1      -5.438  -0.920  17.827  1.00  0.00     0.210 HD
ENDBRANCH  19  21
ENDBRANCH  14  16
ENDBRANCH  13  14
ENDBRANCH   1  13
TORSDOF 4
ENDMDL
MODEL 4
REMARK VINA RESULT: -6.333119139      2.638      3.279
REMARK  4 active torsions:
REMARK  status: ('A' for Active; 'I' for Inactive)
REMARK    1  A    between atoms: N1_2  and  C2_3 
REMARK    2  A    between atoms: N1_2  and  C10_16 
REMARK    3  A    between atoms: C2_3  and  C3_4 
REMARK       I    between atoms: C3_4  and  N2_6 
REMARK    4  A    between atoms: C13_19  and  O2_20 
ROOT
HETATM    1  C3  UNL     1      -5.888   5.409  13.661  1.00  0.00     0.248 C 
HETATM    2  O1  UNL     1      -7.045   5.364  13.174  1.00  0.00    -0.271 OA
HETATM    3  N2  UNL     1      -4.929   6.214  13.012  1.00  0.00    -0.344 N 
HETATM    4  C4  UNL     1      -3.523   6.496  13.287  1.00  0.00     0.133 C 
HETATM    5  C5  UNL     1      -3.332   6.896  11.862  1.00  0.00     0.030 C 
HETATM    6  C6  UNL     1      -3.056   5.784  10.877  1.00  0.00     0.036 C 
HETATM    7  C7  UNL     1      -3.379   6.357   9.494  1.00  0.00     0.233 C 
HETATM    8  N3  UNL     1      -4.740   6.841   9.426  1.00  0.00    -0.073 N 
ATOM      9  H31 UNL     1      -5.221   6.459   8.612  1.00  0.00     0.277 HD
ATOM     10  H32 UNL     1      -4.761   7.832   9.184  1.00  0.00     0.277 HD
HETATM   11  C8  UNL     1      -5.491   6.590  10.631  1.00  0.00     0.257 C 
HETATM   12  C9  UNL     1      -4.834   7.091  11.867  1.00  0.00     0.118 C 
ENDROOT
BRANCH   1  13
HETATM   13  C2  UNL     1      -5.585   4.625  14.885  1.00  0.00     0.374 C 
BRANCH  13  14
HETATM   14  N1  UNL     1      -4.881   3.408  14.631  1.00  0.00     0.097 N 
HETATM   15  C1  UNL     1      -3.513   3.444  15.107  1.00  0.00     0.310 C 
BRANCH  14  16
HETATM   16  C10 UNL     1      -5.564   2.320  15.293  1.00  0.00     0.225 C 
HETATM   17  C11 UNL     1      -6.635   2.826  16.258  1.00  0.00     0.038 C 
HETATM   18  C12 UNL     1      -6.960   1.502  16.968  1.00  0.00     0.034 C 
HETATM   19  C13 UNL     1      -5.579   1.018  17.321  1.00  0.00     0.120 C 
HETATM   20  C14 UNL     1      -4.639   1.625  16.295  1.00  0.00     0.067 C 
BRANCH  19  21
HETATM   21  O2  UNL     1      -5.567  -0.368  17.249  1.00  0.00    -0.396 OA
ATOM     22  H2  UNL     1      -5.672  -0.716  18.127  1.00  0.00     0.210 HD
ENDBRANCH  19  21
ENDBRANCH  14  16
ENDBRANCH  13  14
ENDBRANCH   1  13
TORSDOF 4
ENDMDL
MODEL 5
REMARK VINA RESULT: -6.300184827      1.286      1.647
REMARK  4 active torsions:
REMARK  status: ('A' for Active; 'I' for Inactive)
REMARK    1  A    between atoms: N1_2  and  C2_3 
REMARK    2  A    between atoms: N1_2  and  C10_16 
REMARK    3  A    between atoms: C2_3  and  C3_4 
REMARK       I    between atoms: C3_4  and  N2_6 
REMARK    4  A    between atoms: C13_19  and  O2_20 
ROOT
HETATM    1  C3  UNL     1      -4.115   3.724  12.328  1.00  0.00     0.248 C 
HETATM    2  O1  UNL     1      -4.834   3.925  11.317  1.00  0.00    -0.271 OA
HETATM    3  N2  UNL     1      -2.946   4.498  12.471  1.00  0.00    -0.344 N 
HETATM    4  C4  UNL     1      -1.899   4.534  13.488  1.00  0.00     0.133 C 
HETATM    5  C5  UNL     1      -0.971   5.160  12.502  1.00  0.00     0.030 C 
HETATM    6  C6  UNL     1      -0.229   4.223  11.578  1.00  0.00     0.036 C 
HETATM    7  C7  UNL     1       0.244   5.079  10.401  1.00  0.00     0.233 C 
HETATM    8  N3  UNL     1      -0.863   5.745   9.752  1.00  0.00    -0.073 N 
ATOM      9  H31 UNL     1      -0.841   5.589   8.744  1.00  0.00     0.277 HD
ATOM     10  H32 UNL     1      -0.737   6.757   9.766  1.00  0.00     0.277 HD
HETATM   11  C8  UNL     1      -2.145   5.379  10.301  1.00  0.00     0.257 C 
HETATM   12  C9  UNL     1      -2.241   5.551  11.775  1.00  0.00     0.118 C 
ENDROOT
BRANCH   1  13
HETATM   13  C2  UNL     1      -4.524   2.694  13.316  1.00  0.00     0.374 C 
BRANCH  13  14
HETATM   14  N1  UNL     1      -4.975   3.234  14.560  1.00  0.00     0.097 N 
HETATM   15  C1  UNL     1      -5.894   4.340  14.389  1.00  0.00     0.310 C 
BRANCH  14  16
HETATM   16  C10 UNL     1      -5.647   2.196  15.309  1.00  0.00     0.225 C 
HETATM   17  C11 UNL     1      -6.642   2.777  16.314  1.00  0.00     0.038 C 
HETATM   18  C12 UNL     1      -6.961   1.493  17.099  1.00  0.00     0.034 C 
HETATM   19  C13 UNL     1      -5.577   0.981  17.389  1.00  0.00     0.120 C 
HETATM   20  C14 UNL     1      -4.684   1.515  16.282  1.00  0.00     0.067 C 
BRANCH  19  21
HETATM   21  O2  UNL     1      -5.610  -0.407  17.376  1.00  0.00    -0.396 OA
ATOM     22  H2  UNL     1      -5.503  -0.718  18.267  1.00  0.00     0.210 HD
ENDBRANCH  19  21
ENDBRANCH  14  16
ENDBRANCH  13  14
ENDBRANCH   1  13
TORSDOF 4
ENDMDL
