MODEL 1
REMARK VINA RESULT: -6.402335033      0.000      0.000
REMARK  3 active torsions:
REMARK  status: ('A' for Active; 'I' for Inactive)
REMARK    1  A    between atoms: C4_4  and  C5_5 
REMARK    2  A    between atoms: C5_5  and  N1_6 
REMARK    3  A    between atoms: N3_10  and  O1_11 
ROOT
HETATM    1  C1  UNL     1       1.011   9.001  31.308  1.00  0.00     0.027 C 
HETATM    2  C2  UNL     1       0.666   9.859  32.084  1.00  0.00    -0.026 C 
HETATM    3  C3  UNL     1       0.282  10.863  33.004  1.00  0.00    -0.014 C 
HETATM    4  C4  UNL     1      -0.025  11.716  33.793  1.00  0.00    -0.072 C 
ENDROOT
BRANCH   4   5
HETATM    5  C5  UNL     1      -0.376  12.752  34.764  1.00  0.00     0.225 C 
BRANCH   5   6
HETATM    6  N1  UNL     1       0.496  13.900  34.595  1.00  0.00    -0.317 N 
HETATM    7  C6  UNL     1       0.955  14.325  33.398  1.00  0.00     0.204 A 
HETATM    8  N2  UNL     1       1.720  15.400  33.673  1.00  0.00    -0.269 N 
HETATM    9  N3  UNL     1       1.719  15.609  34.978  1.00  0.00    -0.150 N 
ATOM     10  H2  UNL     1       2.220  15.962  32.985  1.00  0.00     0.190 HD
HETATM   11  C7  UNL     1       0.956  14.679  35.583  1.00  0.00     0.128 A 
HETATM   12  C8  UNL     1       0.671  14.527  37.022  1.00  0.00     0.093 C 
BRANCH   9  13
HETATM   13  O1  UNL     1       2.370  16.596  35.667  1.00  0.00    -0.267 OA
ATOM     14  H1  UNL     1       2.124  16.983  36.499  1.00  0.00     0.247 HD
ENDBRANCH   9  13
ENDBRANCH   5   6
ENDBRANCH   4   5
TORSDOF 3
ENDMDL
MODEL 2
REMARK VINA RESULT: -6.033371598      1.517      2.130
REMARK  3 active torsions:
REMARK  status: ('A' for Active; 'I' for Inactive)
REMARK    1  A    between atoms: C4_4  and  C5_5 
REMARK    2  A    between atoms: C5_5  and  N1_6 
REMARK    3  A    between atoms: N3_10  and  O1_11 
ROOT
HETATM    1  C1  UNL     1       1.407   9.208  31.421  1.00  0.00     0.027 C 
HETATM    2  C2  UNL     1       1.382  10.338  31.843  1.00  0.00    -0.026 C 
HETATM    3  C3  UNL     1       1.345  11.671  32.317  1.00  0.00    -0.014 C 
HETATM    4  C4  UNL     1       1.304  12.809  32.701  1.00  0.00    -0.072 C 
ENDROOT
BRANCH   4   5
HETATM    5  C5  UNL     1       1.247  14.201  33.147  1.00  0.00     0.225 C 
BRANCH   5   6
HETATM    6  N1  UNL     1       0.918  14.251  34.560  1.00  0.00    -0.317 N 
HETATM    7  C6  UNL     1       0.221  13.288  35.203  1.00  0.00     0.204 A 
HETATM    8  N2  UNL     1       0.133  13.710  36.481  1.00  0.00    -0.269 N 
HETATM    9  N3  UNL     1       0.750  14.872  36.597  1.00  0.00    -0.150 N 
ATOM     10  H2  UNL     1      -0.335  13.211  37.237  1.00  0.00     0.190 HD
HETATM   11  C7  UNL     1       1.253  15.237  35.402  1.00  0.00     0.128 A 
HETATM   12  C8  UNL     1       2.015  16.455  35.066  1.00  0.00     0.093 C 
BRANCH   9  13
HETATM   13  O1  UNL     1       0.889  15.636  37.724  1.00  0.00    -0.267 OA
ATOM     14  H1  UNL     1       1.514  15.521  38.430  1.00  0.00     0.247 HD
ENDBRANCH   9  13
ENDBRANCH   5   6
ENDBRANCH   4   5
TORSDOF 3
ENDMDL
MODEL 3
REMARK VINA RESULT: -5.751821803      3.672      5.757
REMARK  3 active torsions:
REMARK  status: ('A' for Active; 'I' for Inactive)
REMARK    1  A    between atoms: C4_4  and  C5_5 
REMARK    2  A    between atoms: C5_5  and  N1_6 
REMARK    3  A    between atoms: N3_10  and  O1_11 
ROOT
HETATM    1  C1  UNL     1       1.655  16.113  35.117  1.00  0.00     0.027 C 
HETATM    2  C2  UNL     1       1.094  15.197  34.567  1.00  0.00    -0.026 C 
HETATM    3  C3  UNL     1       0.450  14.107  33.934  1.00  0.00    -0.014 C 
HETATM    4  C4  UNL     1      -0.087  13.169  33.410  1.00  0.00    -0.072 C 
ENDROOT
BRANCH   4   5
HETATM    5  C5  UNL     1      -0.728  12.011  32.784  1.00  0.00     0.225 C 
BRANCH   5   6
HETATM    6  N1  UNL     1      -0.303  10.795  33.452  1.00  0.00    -0.317 N 
HETATM    7  C6  UNL     1      -0.793  10.381  34.641  1.00  0.00     0.204 A 
HETATM    8  N2  UNL     1      -0.147   9.227  34.906  1.00  0.00    -0.269 N 
HETATM    9  N3  UNL     1       0.691   8.963  33.920  1.00  0.00    -0.150 N 
ATOM     10  H2  UNL     1      -0.284   8.650  35.736  1.00  0.00     0.190 HD
HETATM   11  C7  UNL     1       0.614   9.935  32.991  1.00  0.00     0.128 A 
HETATM   12  C8  UNL     1       1.366  10.050  31.727  1.00  0.00     0.093 C 
BRANCH   9  13
HETATM   13  O1  UNL     1       1.533   7.891  33.803  1.00  0.00    -0.267 OA
ATOM     14  H1  UNL     1       2.358   7.849  33.334  1.00  0.00     0.247 HD
ENDBRANCH   9  13
ENDBRANCH   5   6
ENDBRANCH   4   5
TORSDOF 3
ENDMDL
MODEL 4
REMARK VINA RESULT: -5.714040884      3.642      5.509
REMARK  3 active torsions:
REMARK  status: ('A' for Active; 'I' for Inactive)
REMARK    1  A    between atoms: C4_4  and  C5_5 
REMARK    2  A    between atoms: C5_5  and  N1_6 
REMARK    3  A    between atoms: N3_10  and  O1_11 
ROOT
HETATM    1  C1  UNL     1       1.503  16.146  35.327  1.00  0.00     0.027 C 
HETATM    2  C2  UNL     1       1.016  15.212  34.738  1.00  0.00    -0.026 C 
HETATM    3  C3  UNL     1       0.452  14.102  34.065  1.00  0.00    -0.014 C 
HETATM    4  C4  UNL     1      -0.023  13.147  33.511  1.00  0.00    -0.072 C 
ENDROOT
BRANCH   4   5
HETATM    5  C5  UNL     1      -0.594  11.971  32.854  1.00  0.00     0.225 C 
BRANCH   5   6
HETATM    6  N1  UNL     1       0.363  10.880  32.881  1.00  0.00    -0.317 N 
HETATM    7  C6  UNL     1       1.407  10.777  32.030  1.00  0.00     0.204 A 
HETATM    8  N2  UNL     1       2.039   9.641  32.384  1.00  0.00    -0.269 N 
HETATM    9  N3  UNL     1       1.402   9.088  33.400  1.00  0.00    -0.150 N 
ATOM     10  H2  UNL     1       2.877   9.266  31.937  1.00  0.00     0.190 HD
HETATM   11  C7  UNL     1       0.342   9.848  33.733  1.00  0.00     0.128 A 
HETATM   12  C8  UNL     1      -0.647   9.617  34.805  1.00  0.00     0.093 C 
BRANCH   9  13
HETATM   13  O1  UNL     1       1.718   7.929  34.055  1.00  0.00    -0.267 OA
ATOM     14  H1  UNL     1       2.213   7.190  33.721  1.00  0.00     0.247 HD
ENDBRANCH   9  13
ENDBRANCH   5   6
ENDBRANCH   4   5
TORSDOF 3
ENDMDL
MODEL 5
REMARK VINA RESULT: -5.710534545      2.183      3.227
REMARK  3 active torsions:
REMARK  status: ('A' for Active; 'I' for Inactive)
REMARK    1  A    between atoms: C4_4  and  C5_5 
REMARK    2  A    between atoms: C5_5  and  N1_6 
REMARK    3  A    between atoms: N3_10  and  O1_11 
ROOT
HETATM    1  C1  UNL     1      -2.219   8.366  36.618  1.00  0.00     0.027 C 
HETATM    2  C2  UNL     1      -1.651   9.063  35.812  1.00  0.00    -0.026 C 
HETATM    3  C3  UNL     1      -1.006   9.891  34.862  1.00  0.00    -0.014 C 
HETATM    4  C4  UNL     1      -0.476  10.606  34.056  1.00  0.00    -0.072 C 
ENDROOT
BRANCH   4   5
HETATM    5  C5  UNL     1       0.150  11.489  33.072  1.00  0.00     0.225 C 
BRANCH   5   6
HETATM    6  N1  UNL     1       0.425  12.781  33.675  1.00  0.00    -0.317 N 
HETATM    7  C6  UNL     1      -0.023  13.150  34.895  1.00  0.00     0.204 A 
HETATM    8  N2  UNL     1       0.444  14.401  35.078  1.00  0.00    -0.269 N 
HETATM    9  N3  UNL     1       1.141  14.764  34.016  1.00  0.00    -0.150 N 
ATOM     10  H2  UNL     1       0.285  14.976  35.906  1.00  0.00     0.190 HD
HETATM   11  C7  UNL     1       1.144  13.762  33.117  1.00  0.00     0.128 A 
HETATM   12  C8  UNL     1       1.795  13.727  31.793  1.00  0.00     0.093 C 
BRANCH   9  13
HETATM   13  O1  UNL     1       1.780  15.955  33.803  1.00  0.00    -0.267 OA
ATOM     14  H1  UNL     1       1.387  16.802  33.626  1.00  0.00     0.247 HD
ENDBRANCH   9  13
ENDBRANCH   5   6
ENDBRANCH   4   5
TORSDOF 3
ENDMDL
