MODEL 1
REMARK VINA RESULT: -6.792896915      0.000      0.000
REMARK  3 active torsions:
REMARK  status: ('A' for Active; 'I' for Inactive)
REMARK    1  A    between atoms: C1_1  and  C6_14 
REMARK    2  A    between atoms: N1_2  and  N2_4 
REMARK    3  A    between atoms: N2_4  and  C2_6 
ROOT
HETATM    1  C1  UNL     1      -9.493  38.925  23.169  1.00  0.00     0.120 C 
HETATM    2  N1  UNL     1      -9.426  37.671  22.977  1.00  0.00    -0.297 N 
ATOM      3  H1  UNL     1     -10.085  37.045  23.442  1.00  0.00     0.186 HD
ENDROOT
BRANCH   2   4
HETATM    4  N2  UNL     1      -8.456  37.156  22.131  1.00  0.00    -0.132 N 
ATOM      5  H2  UNL     1      -8.688  36.917  21.167  1.00  0.00     0.205 HD
BRANCH   4   6
HETATM    6  C2  UNL     1      -7.248  36.979  22.575  1.00  0.00     0.696 A 
HETATM    7  N3  UNL     1      -7.023  36.339  23.738  1.00  0.00    -0.200 N 
HETATM    8  C3  UNL     1      -5.784  36.142  24.223  1.00  0.00     0.107 A 
ATOM      9  H3  UNL     1      -7.821  35.992  24.270  1.00  0.00     0.183 HD
HETATM   10  C4  UNL     1      -4.678  36.597  23.532  1.00  0.00     0.035 A 
HETATM   11  C5  UNL     1      -4.918  37.251  22.341  1.00  0.00     0.107 A 
HETATM   12  N4  UNL     1      -6.183  37.429  21.889  1.00  0.00    -0.200 N 
ATOM     13  H4  UNL     1      -6.331  37.916  21.006  1.00  0.00     0.183 HD
ENDBRANCH   4   6
ENDBRANCH   2   4
BRANCH   1  14
HETATM   14  C6  UNL     1     -10.542  39.436  24.078  1.00  0.00    -0.004 A 
HETATM   15  C7  UNL     1     -11.288  40.523  23.677  1.00  0.00     0.015 A 
HETATM   16  C8  UNL     1     -12.275  40.999  24.540  1.00  0.00     0.018 A 
HETATM   17  C9  UNL     1     -12.476  40.375  25.758  1.00  0.00     0.087 A 
HETATM   18  N5  UNL     1     -11.729  39.302  26.136  1.00  0.00    -0.374 N 
HETATM   19  C10 UNL     1     -10.773  38.841  25.300  1.00  0.00     0.100 A 
ATOM     20  H5  UNL     1     -11.889  38.853  27.037  1.00  0.00     0.164 HD
ENDBRANCH   1  14
TORSDOF 3
ENDMDL
MODEL 2
REMARK VINA RESULT: -6.773087259      0.155      1.211
REMARK  3 active torsions:
REMARK  status: ('A' for Active; 'I' for Inactive)
REMARK    1  A    between atoms: C1_1  and  C6_14 
REMARK    2  A    between atoms: N1_2  and  N2_4 
REMARK    3  A    between atoms: N2_4  and  C2_6 
ROOT
HETATM    1  C1  UNL     1      -9.406  38.795  23.198  1.00  0.00     0.120 C 
HETATM    2  N1  UNL     1      -9.326  37.534  23.059  1.00  0.00    -0.297 N 
ATOM      3  H1  UNL     1      -9.969  36.921  23.561  1.00  0.00     0.186 HD
ENDROOT
BRANCH   2   4
HETATM    4  N2  UNL     1      -8.360  36.996  22.223  1.00  0.00    -0.132 N 
ATOM      5  H2  UNL     1      -8.607  36.692  21.281  1.00  0.00     0.205 HD
BRANCH   4   6
HETATM    6  C2  UNL     1      -7.137  36.881  22.647  1.00  0.00     0.696 A 
HETATM    7  N3  UNL     1      -6.105  37.356  21.926  1.00  0.00    -0.200 N 
HETATM    8  C3  UNL     1      -4.830  37.251  22.339  1.00  0.00     0.107 A 
ATOM      9  H3  UNL     1      -6.298  37.811  21.034  1.00  0.00     0.183 HD
HETATM   10  C4  UNL     1      -4.528  36.642  23.541  1.00  0.00     0.035 A 
HETATM   11  C5  UNL     1      -5.592  36.159  24.274  1.00  0.00     0.107 A 
HETATM   12  N4  UNL     1      -6.862  36.285  23.820  1.00  0.00    -0.200 N 
ATOM     13  H4  UNL     1      -7.629  35.918  24.383  1.00  0.00     0.183 HD
ENDBRANCH   4   6
ENDBRANCH   2   4
BRANCH   1  14
HETATM   14  C6  UNL     1     -10.450  39.331  24.099  1.00  0.00    -0.004 A 
HETATM   15  C7  UNL     1     -11.148  40.452  23.704  1.00  0.00     0.015 A 
HETATM   16  C8  UNL     1     -12.131  40.952  24.559  1.00  0.00     0.018 A 
HETATM   17  C9  UNL     1     -12.373  40.318  25.764  1.00  0.00     0.087 A 
HETATM   18  N5  UNL     1     -11.673  39.212  26.136  1.00  0.00    -0.374 N 
HETATM   19  C10 UNL     1     -10.722  38.728  25.308  1.00  0.00     0.100 A 
ATOM     20  H5  UNL     1     -11.864  38.756  27.028  1.00  0.00     0.164 HD
ENDBRANCH   1  14
TORSDOF 3
ENDMDL
MODEL 3
REMARK VINA RESULT: -6.746007314      0.801      1.260
REMARK  3 active torsions:
REMARK  status: ('A' for Active; 'I' for Inactive)
REMARK    1  A    between atoms: C1_1  and  C6_14 
REMARK    2  A    between atoms: N1_2  and  N2_4 
REMARK    3  A    between atoms: N2_4  and  C2_6 
ROOT
HETATM    1  C1  UNL     1      -9.549  38.998  22.967  1.00  0.00     0.120 C 
HETATM    2  N1  UNL     1      -9.473  37.730  22.932  1.00  0.00    -0.297 N 
ATOM      3  H1  UNL     1     -10.113  37.162  23.488  1.00  0.00     0.186 HD
ENDROOT
BRANCH   2   4
HETATM    4  N2  UNL     1      -8.516  37.122  22.134  1.00  0.00    -0.132 N 
ATOM      5  H2  UNL     1      -8.761  36.786  21.202  1.00  0.00     0.205 HD
BRANCH   4   6
HETATM    6  C2  UNL     1      -7.304  36.981  22.581  1.00  0.00     0.696 A 
HETATM    7  N3  UNL     1      -7.067  36.399  23.771  1.00  0.00    -0.200 N 
HETATM    8  C3  UNL     1      -5.824  36.241  24.259  1.00  0.00     0.107 A 
ATOM      9  H3  UNL     1      -7.858  36.065  24.321  1.00  0.00     0.183 HD
HETATM   10  C4  UNL     1      -4.726  36.678  23.544  1.00  0.00     0.035 A 
HETATM   11  C5  UNL     1      -4.979  37.274  22.326  1.00  0.00     0.107 A 
HETATM   12  N4  UNL     1      -6.247  37.414  21.871  1.00  0.00    -0.200 N 
ATOM     13  H4  UNL     1      -6.405  37.859  20.967  1.00  0.00     0.183 HD
ENDBRANCH   4   6
ENDBRANCH   2   4
BRANCH   1  14
HETATM   14  C6  UNL     1     -10.583  39.610  23.831  1.00  0.00    -0.004 A 
HETATM   15  C7  UNL     1     -10.719  39.147  25.122  1.00  0.00     0.015 A 
HETATM   16  C8  UNL     1     -11.696  39.728  25.931  1.00  0.00     0.018 A 
HETATM   17  C9  UNL     1     -12.490  40.740  25.422  1.00  0.00     0.087 A 
HETATM   18  N5  UNL     1     -12.339  41.184  24.145  1.00  0.00    -0.374 N 
HETATM   19  C10 UNL     1     -11.393  40.621  23.361  1.00  0.00     0.100 A 
ATOM     20  H5  UNL     1     -12.933  41.931  23.784  1.00  0.00     0.164 HD
ENDBRANCH   1  14
TORSDOF 3
ENDMDL
MODEL 4
REMARK VINA RESULT: -6.719393310      0.843      1.754
REMARK  3 active torsions:
REMARK  status: ('A' for Active; 'I' for Inactive)
REMARK    1  A    between atoms: C1_1  and  C6_14 
REMARK    2  A    between atoms: N1_2  and  N2_4 
REMARK    3  A    between atoms: N2_4  and  C2_6 
ROOT
HETATM    1  C1  UNL     1      -9.440  38.912  22.876  1.00  0.00     0.120 C 
HETATM    2  N1  UNL     1      -9.351  37.644  22.893  1.00  0.00    -0.297 N 
ATOM      3  H1  UNL     1      -9.989  37.093  23.468  1.00  0.00     0.186 HD
ENDROOT
BRANCH   2   4
HETATM    4  N2  UNL     1      -8.383  37.014  22.126  1.00  0.00    -0.132 N 
ATOM      5  H2  UNL     1      -8.619  36.635  21.209  1.00  0.00     0.205 HD
BRANCH   4   6
HETATM    6  C2  UNL     1      -7.172  36.908  22.584  1.00  0.00     0.696 A 
HETATM    7  N3  UNL     1      -6.123  37.381  21.886  1.00  0.00    -0.200 N 
HETATM    8  C3  UNL     1      -4.858  37.286  22.335  1.00  0.00     0.107 A 
ATOM      9  H3  UNL     1      -6.293  37.828  20.986  1.00  0.00     0.183 HD
HETATM   10  C4  UNL     1      -4.587  36.688  23.551  1.00  0.00     0.035 A 
HETATM   11  C5  UNL     1      -5.668  36.207  24.259  1.00  0.00     0.107 A 
HETATM   12  N4  UNL     1      -6.926  36.323  23.770  1.00  0.00    -0.200 N 
ATOM     13  H4  UNL     1      -7.707  35.958  24.315  1.00  0.00     0.183 HD
ENDBRANCH   4   6
ENDBRANCH   2   4
BRANCH   1  14
HETATM   14  C6  UNL     1     -10.486  39.547  23.708  1.00  0.00    -0.004 A 
HETATM   15  C7  UNL     1     -10.661  39.100  25.000  1.00  0.00     0.015 A 
HETATM   16  C8  UNL     1     -11.649  39.704  25.778  1.00  0.00     0.018 A 
HETATM   17  C9  UNL     1     -12.415  40.721  25.239  1.00  0.00     0.087 A 
HETATM   18  N5  UNL     1     -12.227  41.149  23.961  1.00  0.00    -0.374 N 
HETATM   19  C10 UNL     1     -11.270  40.564  23.208  1.00  0.00     0.100 A 
ATOM     20  H5  UNL     1     -12.801  41.900  23.578  1.00  0.00     0.164 HD
ENDBRANCH   1  14
TORSDOF 3
ENDMDL
MODEL 5
REMARK VINA RESULT: -6.701190396      3.131      6.262
REMARK  3 active torsions:
REMARK  status: ('A' for Active; 'I' for Inactive)
REMARK    1  A    between atoms: C1_1  and  C6_14 
REMARK    2  A    between atoms: N1_2  and  N2_4 
REMARK    3  A    between atoms: N2_4  and  C2_6 
ROOT
HETATM    1  C1  UNL     1      -8.469  37.033  22.578  1.00  0.00     0.120 C 
HETATM    2  N1  UNL     1      -8.650  37.958  21.725  1.00  0.00    -0.297 N 
ATOM      3  H1  UNL     1      -7.873  38.556  21.444  1.00  0.00     0.186 HD
ENDROOT
BRANCH   2   4
HETATM    4  N2  UNL     1      -9.909  38.149  21.176  1.00  0.00    -0.132 N 
ATOM      5  H2  UNL     1     -10.650  37.467  21.338  1.00  0.00     0.205 HD
BRANCH   4   6
HETATM    6  C2  UNL     1     -10.140  39.205  20.455  1.00  0.00     0.696 A 
HETATM    7  N3  UNL     1      -9.423  39.455  19.344  1.00  0.00    -0.200 N 
HETATM    8  C3  UNL     1      -9.639  40.540  18.578  1.00  0.00     0.107 A 
ATOM      9  H3  UNL     1      -8.691  38.799  19.072  1.00  0.00     0.183 HD
HETATM   10  C4  UNL     1     -10.621  41.452  18.911  1.00  0.00     0.035 A 
HETATM   11  C5  UNL     1     -11.350  41.187  20.051  1.00  0.00     0.107 A 
HETATM   12  N4  UNL     1     -11.100  40.083  20.795  1.00  0.00    -0.200 N 
ATOM     13  H4  UNL     1     -11.654  39.912  21.634  1.00  0.00     0.183 HD
ENDBRANCH   4   6
ENDBRANCH   2   4
BRANCH   1  14
HETATM   14  C6  UNL     1      -7.112  36.861  23.140  1.00  0.00    -0.004 A 
HETATM   15  C7  UNL     1      -6.027  37.052  22.312  1.00  0.00     0.015 A 
HETATM   16  C8  UNL     1      -4.750  36.888  22.849  1.00  0.00     0.018 A 
HETATM   17  C9  UNL     1      -4.610  36.541  24.180  1.00  0.00     0.087 A 
HETATM   18  N5  UNL     1      -5.693  36.357  24.983  1.00  0.00    -0.374 N 
HETATM   19  C10 UNL     1      -6.930  36.517  24.462  1.00  0.00     0.100 A 
ATOM     20  H5  UNL     1      -5.573  36.102  25.963  1.00  0.00     0.164 HD
ENDBRANCH   1  14
TORSDOF 3
ENDMDL
