MODEL 1
REMARK VINA RESULT: -7.165861089      0.000      0.000
REMARK  3 active torsions:
REMARK  status: ('A' for Active; 'I' for Inactive)
REMARK    1  A    between atoms: C1_2  and  C2_3 
REMARK       I    between atoms: C1_2  and  N1_8 
REMARK    2  A    between atoms: C2_3  and  C3_4 
REMARK    3  A    between atoms: C14_17  and  O3_18 
ROOT
HETATM    1  O1  UNL     1     -10.924  19.766  77.397  1.00  0.00    -0.273 OA
HETATM    2  C1  UNL     1      -9.983  19.924  78.195  1.00  0.00     0.220 C 
HETATM    3  N1  UNL     1      -9.439  18.822  78.868  1.00  0.00    -0.352 N 
HETATM    4  C7  UNL     1      -8.351  18.950  79.800  1.00  0.00     0.126 C 
HETATM    5  C8  UNL     1      -8.069  17.670  80.518  1.00  0.00     0.031 C 
HETATM    6  C9  UNL     1      -9.282  16.915  80.944  1.00  0.00    -0.013 C 
HETATM    7  C10 UNL     1     -10.384  16.888  79.936  1.00  0.00     0.031 C 
HETATM    8  C11 UNL     1      -9.984  17.509  78.619  1.00  0.00     0.126 C 
HETATM    9  C12 UNL     1      -9.787  17.484  82.262  1.00  0.00     0.177 C 
HETATM   10  O2  UNL     1     -10.413  16.459  82.994  1.00  0.00    -0.388 OA
HETATM   11  C13 UNL     1      -9.414  15.756  83.667  1.00  0.00     0.199 C 
HETATM   12  C14 UNL     1      -8.410  15.301  82.651  1.00  0.00     0.142 C 
HETATM   13  C15 UNL     1      -8.877  15.476  81.227  1.00  0.00     0.045 C 
ENDROOT
BRANCH   2  14
HETATM   14  C2  UNL     1      -9.424  21.265  78.451  1.00  0.00     0.107 C 
BRANCH  14  15
HETATM   15  C3  UNL     1      -8.380  21.667  77.445  1.00  0.00    -0.006 C 
HETATM   16  C4  UNL     1      -8.209  20.671  76.321  1.00  0.00     0.005 C 
HETATM   17  C5  UNL     1      -6.709  20.894  76.424  1.00  0.00     0.001 C 
HETATM   18  C6  UNL     1      -6.959  21.422  77.836  1.00  0.00     0.005 C 
ENDBRANCH  14  15
ENDBRANCH   2  14
BRANCH  12  19
HETATM   19  O3  UNL     1      -7.174  15.922  82.837  1.00  0.00    -0.393 OA
ATOM     20  H3  UNL     1      -6.997  16.079  83.757  1.00  0.00     0.210 HD
ENDBRANCH  12  19
TORSDOF 3
ENDMDL
MODEL 2
REMARK VINA RESULT: -7.103373168      1.608      2.339
REMARK  3 active torsions:
REMARK  status: ('A' for Active; 'I' for Inactive)
REMARK    1  A    between atoms: C1_2  and  C2_3 
REMARK       I    between atoms: C1_2  and  N1_8 
REMARK    2  A    between atoms: C2_3  and  C3_4 
REMARK    3  A    between atoms: C14_17  and  O3_18 
ROOT
HETATM    1  O1  UNL     1     -12.441  17.605  77.558  1.00  0.00    -0.273 OA
HETATM    2  C1  UNL     1     -11.236  17.554  77.858  1.00  0.00     0.220 C 
HETATM    3  N1  UNL     1     -10.838  17.002  79.082  1.00  0.00    -0.352 N 
HETATM    4  C7  UNL     1      -9.458  16.918  79.477  1.00  0.00     0.126 C 
HETATM    5  C8  UNL     1      -9.301  16.460  80.891  1.00  0.00     0.031 C 
HETATM    6  C9  UNL     1     -10.278  17.052  81.849  1.00  0.00    -0.013 C 
HETATM    7  C10 UNL     1     -11.674  17.155  81.330  1.00  0.00     0.031 C 
HETATM    8  C11 UNL     1     -11.846  16.495  79.983  1.00  0.00     0.126 C 
HETATM    9  C12 UNL     1      -9.777  18.419  82.291  1.00  0.00     0.177 C 
HETATM   10  O2  UNL     1     -10.230  18.673  83.599  1.00  0.00    -0.388 OA
HETATM   11  C13 UNL     1      -9.341  18.051  84.476  1.00  0.00     0.199 C 
HETATM   12  C14 UNL     1      -9.256  16.604  84.093  1.00  0.00     0.142 C 
HETATM   13  C15 UNL     1     -10.311  16.184  83.098  1.00  0.00     0.045 C 
ENDROOT
BRANCH   2  14
HETATM   14  C2  UNL     1     -10.204  18.071  76.939  1.00  0.00     0.107 C 
BRANCH  14  15
HETATM   15  C3  UNL     1     -10.152  19.574  76.902  1.00  0.00    -0.006 C 
HETATM   16  C4  UNL     1      -8.781  20.125  76.586  1.00  0.00     0.005 C 
HETATM   17  C5  UNL     1      -9.024  21.190  77.642  1.00  0.00     0.001 C 
HETATM   18  C6  UNL     1     -10.089  20.265  78.227  1.00  0.00     0.005 C 
ENDBRANCH  14  15
ENDBRANCH   2  14
BRANCH  12  19
HETATM   19  O3  UNL     1      -7.985  16.271  83.623  1.00  0.00    -0.393 OA
ATOM     20  H3  UNL     1      -8.019  15.932  82.736  1.00  0.00     0.210 HD
ENDBRANCH  12  19
TORSDOF 3
ENDMDL
MODEL 3
REMARK VINA RESULT: -7.092917164      2.045      2.823
REMARK  3 active torsions:
REMARK  status: ('A' for Active; 'I' for Inactive)
REMARK    1  A    between atoms: C1_2  and  C2_3 
REMARK       I    between atoms: C1_2  and  N1_8 
REMARK    2  A    between atoms: C2_3  and  C3_4 
REMARK    3  A    between atoms: C14_17  and  O3_18 
ROOT
HETATM    1  O1  UNL     1     -11.247  15.778  78.542  1.00  0.00    -0.273 OA
HETATM    2  C1  UNL     1     -10.639  16.817  78.851  1.00  0.00     0.220 C 
HETATM    3  N1  UNL     1      -9.658  16.788  79.850  1.00  0.00    -0.352 N 
HETATM    4  C7  UNL     1      -8.925  17.960  80.245  1.00  0.00     0.126 C 
HETATM    5  C8  UNL     1      -8.070  17.715  81.446  1.00  0.00     0.031 C 
HETATM    6  C9  UNL     1      -8.712  16.889  82.509  1.00  0.00    -0.013 C 
HETATM    7  C10 UNL     1      -9.503  15.729  82.003  1.00  0.00     0.031 C 
HETATM    8  C11 UNL     1      -9.368  15.538  80.511  1.00  0.00     0.126 C 
HETATM    9  C12 UNL     1      -9.585  17.785  83.376  1.00  0.00     0.177 C 
HETATM   10  O2  UNL     1      -9.625  17.260  84.682  1.00  0.00    -0.388 OA
HETATM   11  C13 UNL     1      -8.484  17.708  85.346  1.00  0.00     0.199 C 
HETATM   12  C14 UNL     1      -7.291  17.312  84.529  1.00  0.00     0.142 C 
HETATM   13  C15 UNL     1      -7.621  16.345  83.418  1.00  0.00     0.045 C 
ENDROOT
BRANCH   2  14
HETATM   14  C2  UNL     1     -10.934  18.096  78.177  1.00  0.00     0.107 C 
BRANCH  14  15
HETATM   15  C3  UNL     1     -10.068  18.337  76.971  1.00  0.00    -0.006 C 
HETATM   16  C4  UNL     1      -9.123  19.506  77.129  1.00  0.00     0.005 C 
HETATM   17  C5  UNL     1      -9.440  19.887  75.693  1.00  0.00     0.001 C 
HETATM   18  C6  UNL     1     -10.713  19.055  75.829  1.00  0.00     0.005 C 
ENDBRANCH  14  15
ENDBRANCH   2  14
BRANCH  12  19
HETATM   19  O3  UNL     1      -6.624  18.427  84.022  1.00  0.00    -0.393 OA
ATOM     20  H3  UNL     1      -6.848  18.584  83.112  1.00  0.00     0.210 HD
ENDBRANCH  12  19
TORSDOF 3
ENDMDL
MODEL 4
REMARK VINA RESULT: -6.957504474      1.498      1.956
REMARK  3 active torsions:
REMARK  status: ('A' for Active; 'I' for Inactive)
REMARK    1  A    between atoms: C1_2  and  C2_3 
REMARK       I    between atoms: C1_2  and  N1_8 
REMARK    2  A    between atoms: C2_3  and  C3_4 
REMARK    3  A    between atoms: C14_17  and  O3_18 
ROOT
HETATM    1  O1  UNL     1      -9.553  20.455  76.635  1.00  0.00    -0.273 OA
HETATM    2  C1  UNL     1      -8.822  20.327  77.632  1.00  0.00     0.220 C 
HETATM    3  N1  UNL     1      -9.016  19.255  78.513  1.00  0.00    -0.352 N 
HETATM    4  C7  UNL     1      -8.199  19.060  79.681  1.00  0.00     0.126 C 
HETATM    5  C8  UNL     1      -8.712  17.960  80.552  1.00  0.00     0.031 C 
HETATM    6  C9  UNL     1     -10.195  17.932  80.711  1.00  0.00    -0.013 C 
HETATM    7  C10 UNL     1     -10.960  18.206  79.459  1.00  0.00     0.031 C 
HETATM    8  C11 UNL     1     -10.071  18.308  78.243  1.00  0.00     0.126 C 
HETATM    9  C12 UNL     1     -10.598  18.915  81.801  1.00  0.00     0.177 C 
HETATM   10  O2  UNL     1     -11.767  18.448  82.430  1.00  0.00    -0.388 OA
HETATM   11  C13 UNL     1     -11.379  17.519  83.395  1.00  0.00     0.199 C 
HETATM   12  C14 UNL     1     -10.551  16.471  82.715  1.00  0.00     0.142 C 
HETATM   13  C15 UNL     1     -10.598  16.553  81.209  1.00  0.00     0.045 C 
ENDROOT
BRANCH   2  14
HETATM   14  C2  UNL     1      -7.743  21.294  77.910  1.00  0.00     0.107 C 
BRANCH  14  15
HETATM   15  C3  UNL     1      -6.397  20.826  77.427  1.00  0.00    -0.006 C 
HETATM   16  C4  UNL     1      -5.370  20.701  78.528  1.00  0.00     0.005 C 
HETATM   17  C5  UNL     1      -4.352  21.301  77.573  1.00  0.00     0.001 C 
HETATM   18  C6  UNL     1      -5.533  21.860  76.781  1.00  0.00     0.005 C 
ENDBRANCH  14  15
ENDBRANCH   2  14
BRANCH  12  19
HETATM   19  O3  UNL     1      -9.229  16.492  83.161  1.00  0.00    -0.393 OA
ATOM     20  H3  UNL     1      -8.617  16.359  82.447  1.00  0.00     0.210 HD
ENDBRANCH  12  19
TORSDOF 3
ENDMDL
MODEL 5
REMARK VINA RESULT: -6.845807103      1.637      2.120
REMARK  3 active torsions:
REMARK  status: ('A' for Active; 'I' for Inactive)
REMARK    1  A    between atoms: C1_2  and  C2_3 
REMARK       I    between atoms: C1_2  and  N1_8 
REMARK    2  A    between atoms: C2_3  and  C3_4 
REMARK    3  A    between atoms: C14_17  and  O3_18 
ROOT
HETATM    1  O1  UNL     1      -9.442  21.216  79.083  1.00  0.00    -0.273 OA
HETATM    2  C1  UNL     1      -8.862  20.116  79.048  1.00  0.00     0.220 C 
HETATM    3  N1  UNL     1      -9.332  19.050  79.826  1.00  0.00    -0.352 N 
HETATM    4  C7  UNL     1      -8.699  17.758  79.823  1.00  0.00     0.126 C 
HETATM    5  C8  UNL     1      -9.269  16.847  80.861  1.00  0.00     0.031 C 
HETATM    6  C9  UNL     1      -9.547  17.497  82.175  1.00  0.00    -0.013 C 
HETATM    7  C10 UNL     1     -10.147  18.861  82.079  1.00  0.00     0.031 C 
HETATM    8  C11 UNL     1     -10.492  19.248  80.660  1.00  0.00     0.126 C 
HETATM    9  C12 UNL     1      -8.264  17.541  82.990  1.00  0.00     0.177 C 
HETATM   10  O2  UNL     1      -8.588  17.480  84.358  1.00  0.00    -0.388 OA
HETATM   11  C13 UNL     1      -8.763  16.135  84.685  1.00  0.00     0.199 C 
HETATM   12  C14 UNL     1      -9.791  15.567  83.754  1.00  0.00     0.142 C 
HETATM   13  C15 UNL     1     -10.516  16.617  82.949  1.00  0.00     0.045 C 
ENDROOT
BRANCH   2  14
HETATM   14  C2  UNL     1      -7.676  19.912  78.196  1.00  0.00     0.107 C 
BRANCH  14  15
HETATM   15  C3  UNL     1      -6.616  20.958  78.406  1.00  0.00    -0.006 C 
HETATM   16  C4  UNL     1      -6.020  21.482  77.120  1.00  0.00     0.005 C 
HETATM   17  C5  UNL     1      -4.661  21.451  77.799  1.00  0.00     0.001 C 
HETATM   18  C6  UNL     1      -5.261  20.457  78.792  1.00  0.00     0.005 C 
ENDBRANCH  14  15
ENDBRANCH   2  14
BRANCH  12  19
HETATM   19  O3  UNL     1      -9.240  14.603  82.909  1.00  0.00    -0.393 OA
ATOM     20  H3  UNL     1      -9.188  13.755  83.335  1.00  0.00     0.210 HD
ENDBRANCH  12  19
TORSDOF 3
ENDMDL
