MODEL 1
REMARK VINA RESULT: -6.286516987      0.000      0.000
REMARK  5 active torsions:
REMARK  status: ('A' for Active; 'I' for Inactive)
REMARK    1  A    between atoms: C2_2  and  O1_3 
REMARK    2  A    between atoms: O1_3  and  C3_4 
REMARK    3  A    between atoms: C3_4  and  C4_6 
REMARK    4  A    between atoms: C5_7  and  C6_8 
REMARK    5  A    between atoms: N1_10  and  O3_12 
ROOT
HETATM    1  C4  UNL     1      -4.692   2.132  14.299  1.00  0.00     0.138 A 
HETATM    2  C5  UNL     1      -3.777   3.285  14.115  1.00  0.00     0.090 A 
HETATM    3  C8  UNL     1      -5.080   3.567  14.703  1.00  0.00     0.123 A 
HETATM    4  C9  UNL     1      -6.289   4.056  13.979  1.00  0.00     0.053 C 
HETATM    5  F1  UNL     1      -5.160   3.810  16.085  1.00  0.00    -0.242 F 
ENDROOT
BRANCH   2   6
HETATM    6  C6  UNL     1      -3.344   3.602  12.765  1.00  0.00     0.014 C 
HETATM    7  C7  UNL     1      -4.223   3.269  11.617  1.00  0.00     0.066 C 
HETATM    8  N1  UNL     1      -2.215   4.136  12.538  1.00  0.00    -0.277 N 
ATOM      9  H1  UNL     1      -1.967   4.337  11.569  1.00  0.00     0.193 HD
BRANCH   8  10
HETATM   10  O3  UNL     1      -1.312   4.459  13.508  1.00  0.00    -0.290 OA
ATOM     11  H3  UNL     1      -0.887   3.825  14.073  1.00  0.00     0.244 HD
ENDBRANCH   8  10
ENDBRANCH   2   6
BRANCH   1  12
HETATM   12  C3  UNL     1      -4.497   1.201  15.440  1.00  0.00     0.267 C 
HETATM   13  O2  UNL     1      -3.372   1.033  15.972  1.00  0.00    -0.265 OA
BRANCH  12  14
HETATM   14  O1  UNL     1      -5.596   0.508  15.914  1.00  0.00    -0.321 OA
BRANCH  14  15
HETATM   15  C2  UNL     1      -6.218   0.796  17.156  1.00  0.00     0.174 C 
HETATM   16  C1  UNL     1      -7.480   1.562  16.873  1.00  0.00     0.034 C 
ENDBRANCH  14  15
ENDBRANCH  12  14
ENDBRANCH   1  12
TORSDOF 5
ENDMDL
MODEL 2
REMARK VINA RESULT: -6.217594565      1.067      1.119
REMARK  5 active torsions:
REMARK  status: ('A' for Active; 'I' for Inactive)
REMARK    1  A    between atoms: C2_2  and  O1_3 
REMARK    2  A    between atoms: O1_3  and  C3_4 
REMARK    3  A    between atoms: C3_4  and  C4_6 
REMARK    4  A    between atoms: C5_7  and  C6_8 
REMARK    5  A    between atoms: N1_10  and  O3_12 
ROOT
HETATM    1  C4  UNL     1      -4.945   1.825  14.330  1.00  0.00     0.138 A 
HETATM    2  C5  UNL     1      -3.904   2.573  13.583  1.00  0.00     0.090 A 
HETATM    3  C8  UNL     1      -4.815   3.358  14.406  1.00  0.00     0.123 A 
HETATM    4  C9  UNL     1      -6.045   4.060  13.939  1.00  0.00     0.053 C 
HETATM    5  F1  UNL     1      -4.349   3.870  15.629  1.00  0.00    -0.242 F 
ENDROOT
BRANCH   2   6
HETATM    6  C6  UNL     1      -3.904   2.476  12.133  1.00  0.00     0.014 C 
HETATM    7  C7  UNL     1      -5.046   1.827  11.443  1.00  0.00     0.066 C 
HETATM    8  N1  UNL     1      -2.935   2.912  11.439  1.00  0.00    -0.277 N 
ATOM      9  H1  UNL     1      -2.993   2.817  10.425  1.00  0.00     0.193 HD
BRANCH   8  10
HETATM   10  O3  UNL     1      -1.821   3.498  11.962  1.00  0.00    -0.290 OA
ATOM     11  H3  UNL     1      -0.987   3.056  12.074  1.00  0.00     0.244 HD
ENDBRANCH   8  10
ENDBRANCH   2   6
BRANCH   1  12
HETATM   12  C3  UNL     1      -4.594   1.113  15.585  1.00  0.00     0.267 C 
HETATM   13  O2  UNL     1      -3.409   1.029  15.989  1.00  0.00    -0.265 OA
BRANCH  12  14
HETATM   14  O1  UNL     1      -5.616   0.531  16.314  1.00  0.00    -0.321 OA
BRANCH  14  15
HETATM   15  C2  UNL     1      -6.717   1.263  16.829  1.00  0.00     0.174 C 
HETATM   16  C1  UNL     1      -6.196   2.196  17.886  1.00  0.00     0.034 C 
ENDBRANCH  14  15
ENDBRANCH  12  14
ENDBRANCH   1  12
TORSDOF 5
ENDMDL
MODEL 3
REMARK VINA RESULT: -6.101686295      1.815      2.110
REMARK  5 active torsions:
REMARK  status: ('A' for Active; 'I' for Inactive)
REMARK    1  A    between atoms: C2_2  and  O1_3 
REMARK    2  A    between atoms: O1_3  and  C3_4 
REMARK    3  A    between atoms: C3_4  and  C4_6 
REMARK    4  A    between atoms: C5_7  and  C6_8 
REMARK    5  A    between atoms: N1_10  and  O3_12 
ROOT
HETATM    1  C4  UNL     1      -5.049   1.852  14.713  1.00  0.00     0.138 A 
HETATM    2  C5  UNL     1      -4.241   2.453  13.623  1.00  0.00     0.090 A 
HETATM    3  C8  UNL     1      -4.953   3.375  14.499  1.00  0.00     0.123 A 
HETATM    4  C9  UNL     1      -6.282   3.999  14.233  1.00  0.00     0.053 C 
HETATM    5  F1  UNL     1      -4.225   4.081  15.471  1.00  0.00    -0.242 F 
ENDROOT
BRANCH   2   6
HETATM    6  C6  UNL     1      -4.585   2.113  12.253  1.00  0.00     0.014 C 
HETATM    7  C7  UNL     1      -4.842   3.197  11.273  1.00  0.00     0.066 C 
HETATM    8  N1  UNL     1      -4.697   0.907  11.876  1.00  0.00    -0.277 N 
ATOM      9  H1  UNL     1      -4.939   0.731  10.901  1.00  0.00     0.193 HD
BRANCH   8  10
HETATM   10  O3  UNL     1      -4.515  -0.171  12.693  1.00  0.00    -0.290 OA
ATOM     11  H3  UNL     1      -5.109  -0.911  12.739  1.00  0.00     0.244 HD
ENDBRANCH   8  10
ENDBRANCH   2   6
BRANCH   1  12
HETATM   12  C3  UNL     1      -4.386   1.359  15.947  1.00  0.00     0.267 C 
HETATM   13  O2  UNL     1      -3.139   1.385  16.083  1.00  0.00    -0.265 OA
BRANCH  12  14
HETATM   14  O1  UNL     1      -5.181   0.858  16.961  1.00  0.00    -0.321 OA
BRANCH  14  15
HETATM   15  C2  UNL     1      -6.524   1.268  17.168  1.00  0.00     0.174 C 
HETATM   16  C1  UNL     1      -6.505   2.471  18.070  1.00  0.00     0.034 C 
ENDBRANCH  14  15
ENDBRANCH  12  14
ENDBRANCH   1  12
TORSDOF 5
ENDMDL
MODEL 4
REMARK VINA RESULT: -6.101066042      2.470      2.891
REMARK  5 active torsions:
REMARK  status: ('A' for Active; 'I' for Inactive)
REMARK    1  A    between atoms: C2_2  and  O1_3 
REMARK    2  A    between atoms: O1_3  and  C3_4 
REMARK    3  A    between atoms: C3_4  and  C4_6 
REMARK    4  A    between atoms: C5_7  and  C6_8 
REMARK    5  A    between atoms: N1_10  and  O3_12 
ROOT
HETATM    1  C4  UNL     1      -3.916   3.312  15.021  1.00  0.00     0.138 A 
HETATM    2  C5  UNL     1      -5.107   4.004  14.470  1.00  0.00     0.090 A 
HETATM    3  C8  UNL     1      -4.485   2.992  13.626  1.00  0.00     0.123 A 
HETATM    4  C9  UNL     1      -3.496   3.235  12.536  1.00  0.00     0.053 C 
HETATM    5  F1  UNL     1      -5.114   1.742  13.497  1.00  0.00    -0.242 F 
ENDROOT
BRANCH   2   6
HETATM    6  C6  UNL     1      -5.037   5.446  14.295  1.00  0.00     0.014 C 
HETATM    7  C7  UNL     1      -3.817   6.176  14.721  1.00  0.00     0.066 C 
HETATM    8  N1  UNL     1      -6.007   6.103  13.810  1.00  0.00    -0.277 N 
ATOM      9  H1  UNL     1      -5.899   7.112  13.710  1.00  0.00     0.193 HD
BRANCH   8  10
HETATM   10  O3  UNL     1      -7.188   5.546  13.413  1.00  0.00    -0.290 OA
ATOM     11  H3  UNL     1      -7.398   5.328  12.512  1.00  0.00     0.244 HD
ENDBRANCH   8  10
ENDBRANCH   2   6
BRANCH   1  12
HETATM   12  C3  UNL     1      -4.083   2.226  16.020  1.00  0.00     0.267 C 
HETATM   13  O2  UNL     1      -3.288   1.256  16.081  1.00  0.00    -0.265 OA
BRANCH  12  14
HETATM   14  O1  UNL     1      -5.149   2.302  16.898  1.00  0.00    -0.321 OA
BRANCH  14  15
HETATM   15  C2  UNL     1      -5.976   1.193  17.212  1.00  0.00     0.174 C 
HETATM   16  C1  UNL     1      -7.388   1.551  16.839  1.00  0.00     0.034 C 
ENDBRANCH  14  15
ENDBRANCH  12  14
ENDBRANCH   1  12
TORSDOF 5
ENDMDL
MODEL 5
REMARK VINA RESULT: -6.093226865      1.779      1.858
REMARK  5 active torsions:
REMARK  status: ('A' for Active; 'I' for Inactive)
REMARK    1  A    between atoms: C2_2  and  O1_3 
REMARK    2  A    between atoms: O1_3  and  C3_4 
REMARK    3  A    between atoms: C3_4  and  C4_6 
REMARK    4  A    between atoms: C5_7  and  C6_8 
REMARK    5  A    between atoms: N1_10  and  O3_12 
ROOT
HETATM    1  C4  UNL     1      -4.676   1.295  13.854  1.00  0.00     0.138 A 
HETATM    2  C5  UNL     1      -3.483   1.701  13.071  1.00  0.00     0.090 A 
HETATM    3  C8  UNL     1      -4.330   2.771  13.581  1.00  0.00     0.123 A 
HETATM    4  C9  UNL     1      -5.407   3.480  12.831  1.00  0.00     0.053 C 
HETATM    5  F1  UNL     1      -3.890   3.509  14.693  1.00  0.00    -0.242 F 
ENDROOT
BRANCH   2   6
HETATM    6  C6  UNL     1      -3.387   1.249  11.693  1.00  0.00     0.014 C 
HETATM    7  C7  UNL     1      -4.507   0.481  11.094  1.00  0.00     0.066 C 
HETATM    8  N1  UNL     1      -2.353   1.473  10.992  1.00  0.00    -0.277 N 
ATOM      9  H1  UNL     1      -2.345   1.132  10.031  1.00  0.00     0.193 HD
BRANCH   8  10
HETATM   10  O3  UNL     1      -1.252   2.140  11.442  1.00  0.00    -0.290 OA
ATOM     11  H3  UNL     1      -0.374   1.776  11.450  1.00  0.00     0.244 HD
ENDBRANCH   8  10
ENDBRANCH   2   6
BRANCH   1  12
HETATM   12  C3  UNL     1      -4.529   0.878  15.272  1.00  0.00     0.267 C 
HETATM   13  O2  UNL     1      -3.425   0.932  15.867  1.00  0.00    -0.265 OA
BRANCH  12  14
HETATM   14  O1  UNL     1      -5.651   0.419  15.938  1.00  0.00    -0.321 OA
BRANCH  14  15
HETATM   15  C2  UNL     1      -6.172   1.042  17.102  1.00  0.00     0.174 C 
HETATM   16  C1  UNL     1      -6.833   2.325  16.681  1.00  0.00     0.034 C 
ENDBRANCH  14  15
ENDBRANCH  12  14
ENDBRANCH   1  12
TORSDOF 5
ENDMDL
