MODEL 1
REMARK VINA RESULT: -7.199767226      0.000      0.000
REMARK  5 active torsions:
REMARK  status: ('A' for Active; 'I' for Inactive)
REMARK    1  A    between atoms: C2_2  and  C3_3 
REMARK    2  A    between atoms: C3_3  and  C4_4 
REMARK    3  A    between atoms: N1_6  and  N2_8 
REMARK    4  A    between atoms: N2_8  and  C6_10 
REMARK    5  A    between atoms: C7_13  and  O1_14 
ROOT
HETATM    1  C6  UNL     1       9.142  14.454  25.877  1.00  0.00     0.166 A 
HETATM    2  N3  UNL     1       9.073  13.656  26.938  1.00  0.00    -0.315 N 
ATOM      3  H3  UNL     1       8.208  13.166  27.162  1.00  0.00     0.170 HD
HETATM    4  C7  UNL     1      10.131  13.511  27.688  1.00  0.00     0.170 A 
HETATM    5  C8  UNL     1      11.263  14.194  27.335  1.00  0.00     0.139 A 
HETATM    6  C9  UNL     1      12.564  14.211  27.989  1.00  0.00     0.111 C 
HETATM    7  N4  UNL     1      13.604  14.228  28.495  1.00  0.00    -0.191 NA
HETATM    8  S1  UNL     1      10.749  15.021  25.932  1.00  0.00    -0.037 SA
ENDROOT
BRANCH   4   9
HETATM    9  O1  UNL     1      10.164  12.681  28.845  1.00  0.00    -0.344 OA
ATOM     10  H1  UNL     1       9.683  11.865  28.917  1.00  0.00     0.219 HD
ENDBRANCH   4   9
BRANCH   1  11
HETATM   11  N2  UNL     1       8.241  14.762  24.986  1.00  0.00    -0.280 N 
ATOM     12  H2  UNL     1       8.315  15.669  24.524  1.00  0.00     0.189 HD
BRANCH  11  13
HETATM   13  N1  UNL     1       7.200  13.943  24.632  1.00  0.00    -0.307 N 
HETATM   14  C4  UNL     1       5.950  14.210  24.738  1.00  0.00    -0.000 C 
HETATM   15  C5  UNL     1       5.546  15.514  25.290  1.00  0.00     0.065 C 
ATOM     16  H1  UNL     1       7.444  13.031  24.246  1.00  0.00     0.186 HD
BRANCH  14  17
HETATM   17  C3  UNL     1       4.953  13.212  24.308  1.00  0.00     0.053 C 
BRANCH  17  18
HETATM   18  C2  UNL     1       3.539  13.676  24.524  1.00  0.00     0.001 C 
HETATM   19  C1  UNL     1       2.620  12.577  24.018  1.00  0.00     0.005 C 
ENDBRANCH  17  18
ENDBRANCH  14  17
ENDBRANCH  11  13
ENDBRANCH   1  11
TORSDOF 5
ENDMDL
MODEL 2
REMARK VINA RESULT: -6.970937707      4.123      6.070
REMARK  5 active torsions:
REMARK  status: ('A' for Active; 'I' for Inactive)
REMARK    1  A    between atoms: C2_2  and  C3_3 
REMARK    2  A    between atoms: C3_3  and  C4_4 
REMARK    3  A    between atoms: N1_6  and  N2_8 
REMARK    4  A    between atoms: N2_8  and  C6_10 
REMARK    5  A    between atoms: C7_13  and  O1_14 
ROOT
HETATM    1  C6  UNL     1       7.786  11.653  24.116  1.00  0.00     0.166 A 
HETATM    2  N3  UNL     1       8.434  10.586  23.656  1.00  0.00    -0.315 N 
ATOM      3  H3  UNL     1       9.350  10.336  24.026  1.00  0.00     0.170 HD
HETATM    4  C7  UNL     1       7.876   9.864  22.722  1.00  0.00     0.170 A 
HETATM    5  C8  UNL     1       6.645  10.250  22.266  1.00  0.00     0.139 A 
HETATM    6  C9  UNL     1       5.812   9.632  21.244  1.00  0.00     0.111 C 
HETATM    7  N4  UNL     1       5.139   9.147  20.438  1.00  0.00    -0.191 NA
HETATM    8  S1  UNL     1       6.344  11.643  23.206  1.00  0.00    -0.037 SA
ENDROOT
BRANCH   4   9
HETATM    9  O1  UNL     1       8.483   8.705  22.161  1.00  0.00    -0.344 OA
ATOM     10  H1  UNL     1       8.723   8.632  21.245  1.00  0.00     0.219 HD
ENDBRANCH   4   9
BRANCH   1  11
HETATM   11  N2  UNL     1       8.122  12.521  25.029  1.00  0.00    -0.280 N 
ATOM     12  H2  UNL     1       9.112  12.616  25.258  1.00  0.00     0.189 HD
BRANCH  11  13
HETATM   13  N1  UNL     1       7.228  13.314  25.701  1.00  0.00    -0.307 N 
HETATM   14  C4  UNL     1       6.936  14.533  25.429  1.00  0.00    -0.000 C 
HETATM   15  C5  UNL     1       7.604  15.187  24.291  1.00  0.00     0.065 C 
ATOM     16  H1  UNL     1       6.747  12.893  26.495  1.00  0.00     0.186 HD
BRANCH  14  17
HETATM   17  C3  UNL     1       5.946  15.247  26.256  1.00  0.00     0.053 C 
BRANCH  17  18
HETATM   18  C2  UNL     1       4.870  15.901  25.436  1.00  0.00     0.001 C 
HETATM   19  C1  UNL     1       3.864  14.824  25.066  1.00  0.00     0.005 C 
ENDBRANCH  17  18
ENDBRANCH  14  17
ENDBRANCH  11  13
ENDBRANCH   1  11
TORSDOF 5
ENDMDL
MODEL 3
REMARK VINA RESULT: -6.520153063      6.746     10.072
REMARK  5 active torsions:
REMARK  status: ('A' for Active; 'I' for Inactive)
REMARK    1  A    between atoms: C2_2  and  C3_3 
REMARK    2  A    between atoms: C3_3  and  C4_4 
REMARK    3  A    between atoms: N1_6  and  N2_8 
REMARK    4  A    between atoms: N2_8  and  C6_10 
REMARK    5  A    between atoms: C7_13  and  O1_14 
ROOT
HETATM    1  C6  UNL     1       1.011  11.514  23.853  1.00  0.00     0.166 A 
HETATM    2  N3  UNL     1      -0.144  10.933  24.163  1.00  0.00    -0.315 N 
ATOM      3  H3  UNL     1      -0.176  10.173  24.842  1.00  0.00     0.170 HD
HETATM    4  C7  UNL     1      -1.236  11.351  23.584  1.00  0.00     0.170 A 
HETATM    5  C8  UNL     1      -1.129  12.375  22.682  1.00  0.00     0.139 A 
HETATM    6  C9  UNL     1      -2.176  13.024  21.904  1.00  0.00     0.111 C 
HETATM    7  N4  UNL     1      -2.998  13.550  21.285  1.00  0.00    -0.191 NA
HETATM    8  S1  UNL     1       0.549  12.690  22.707  1.00  0.00    -0.037 SA
ENDROOT
BRANCH   4   9
HETATM    9  O1  UNL     1      -2.522  10.799  23.844  1.00  0.00    -0.344 OA
ATOM     10  H1  UNL     1      -2.897  10.086  23.340  1.00  0.00     0.219 HD
ENDBRANCH   4   9
BRANCH   1  11
HETATM   11  N2  UNL     1       2.220  11.283  24.283  1.00  0.00    -0.280 N 
ATOM     12  H2  UNL     1       2.480  10.317  24.484  1.00  0.00     0.189 HD
BRANCH  11  13
HETATM   13  N1  UNL     1       3.163  12.258  24.484  1.00  0.00    -0.307 N 
HETATM   14  C4  UNL     1       4.383  12.231  24.090  1.00  0.00    -0.000 C 
HETATM   15  C5  UNL     1       4.863  11.055  23.344  1.00  0.00     0.065 C 
ATOM     16  H1  UNL     1       2.865  13.087  24.997  1.00  0.00     0.186 HD
BRANCH  14  17
HETATM   17  C3  UNL     1       5.271  13.369  24.390  1.00  0.00     0.053 C 
BRANCH  17  18
HETATM   18  C2  UNL     1       4.521  14.576  24.878  1.00  0.00     0.001 C 
HETATM   19  C1  UNL     1       5.552  15.622  25.271  1.00  0.00     0.005 C 
ENDBRANCH  17  18
ENDBRANCH  14  17
ENDBRANCH  11  13
ENDBRANCH   1  11
TORSDOF 5
ENDMDL
MODEL 4
REMARK VINA RESULT: -6.435025051      4.064      7.116
REMARK  5 active torsions:
REMARK  status: ('A' for Active; 'I' for Inactive)
REMARK    1  A    between atoms: C2_2  and  C3_3 
REMARK    2  A    between atoms: C3_3  and  C4_4 
REMARK    3  A    between atoms: N1_6  and  N2_8 
REMARK    4  A    between atoms: N2_8  and  C6_10 
REMARK    5  A    between atoms: C7_13  and  O1_14 
ROOT
HETATM    1  C6  UNL     1       7.210  11.716  24.085  1.00  0.00     0.166 A 
HETATM    2  N3  UNL     1       8.036  10.845  23.513  1.00  0.00    -0.315 N 
ATOM      3  H3  UNL     1       9.004  10.768  23.824  1.00  0.00     0.170 HD
HETATM    4  C7  UNL     1       7.587  10.090  22.548  1.00  0.00     0.170 A 
HETATM    5  C8  UNL     1       6.279  10.240  22.175  1.00  0.00     0.139 A 
HETATM    6  C9  UNL     1       5.534   9.534  21.142  1.00  0.00     0.111 C 
HETATM    7  N4  UNL     1       4.931   8.977  20.328  1.00  0.00    -0.191 NA
HETATM    8  S1  UNL     1       5.751  11.468  23.238  1.00  0.00    -0.037 SA
ENDROOT
BRANCH   4   9
HETATM    9  O1  UNL     1       8.387   9.126  21.870  1.00  0.00    -0.344 OA
ATOM     10  H1  UNL     1       8.207   8.826  20.987  1.00  0.00     0.219 HD
ENDBRANCH   4   9
BRANCH   1  11
HETATM   11  N2  UNL     1       7.411  12.568  25.051  1.00  0.00    -0.280 N 
ATOM     12  H2  UNL     1       6.696  12.649  25.775  1.00  0.00     0.189 HD
BRANCH  11  13
HETATM   13  N1  UNL     1       8.524  13.363  25.155  1.00  0.00    -0.307 N 
HETATM   14  C4  UNL     1       8.677  14.360  25.947  1.00  0.00    -0.000 C 
HETATM   15  C5  UNL     1       7.575  14.723  26.854  1.00  0.00     0.065 C 
ATOM     16  H1  UNL     1       9.307  13.139  24.541  1.00  0.00     0.186 HD
BRANCH  14  17
HETATM   17  C3  UNL     1       9.944  15.114  25.933  1.00  0.00     0.053 C 
BRANCH  17  18
HETATM   18  C2  UNL     1      11.002  14.484  26.795  1.00  0.00     0.001 C 
HETATM   19  C1  UNL     1      12.237  14.294  25.930  1.00  0.00     0.005 C 
ENDBRANCH  17  18
ENDBRANCH  14  17
ENDBRANCH  11  13
ENDBRANCH   1  11
TORSDOF 5
ENDMDL
MODEL 5
REMARK VINA RESULT: -6.416937304      3.790      7.250
REMARK  5 active torsions:
REMARK  status: ('A' for Active; 'I' for Inactive)
REMARK    1  A    between atoms: C2_2  and  C3_3 
REMARK    2  A    between atoms: C3_3  and  C4_4 
REMARK    3  A    between atoms: N1_6  and  N2_8 
REMARK    4  A    between atoms: N2_8  and  C6_10 
REMARK    5  A    between atoms: C7_13  and  O1_14 
ROOT
HETATM    1  C6  UNL     1       7.936  12.058  24.365  1.00  0.00     0.166 A 
HETATM    2  N3  UNL     1       8.537  10.951  23.939  1.00  0.00    -0.315 N 
ATOM      3  H3  UNL     1       9.500  10.749  24.204  1.00  0.00     0.170 HD
HETATM    4  C7  UNL     1       7.872  10.127  23.175  1.00  0.00     0.170 A 
HETATM    5  C8  UNL     1       6.582  10.453  22.854  1.00  0.00     0.139 A 
HETATM    6  C9  UNL     1       5.630   9.720  22.031  1.00  0.00     0.111 C 
HETATM    7  N4  UNL     1       4.863   9.146  21.384  1.00  0.00    -0.191 NA
HETATM    8  S1  UNL     1       6.383  11.940  23.670  1.00  0.00    -0.037 SA
ENDROOT
BRANCH   4   9
HETATM    9  O1  UNL     1       8.420   8.916  22.666  1.00  0.00    -0.344 OA
ATOM     10  H1  UNL     1       8.206   8.565  21.809  1.00  0.00     0.219 HD
ENDBRANCH   4   9
BRANCH   1  11
HETATM   11  N2  UNL     1       8.376  13.024  25.122  1.00  0.00    -0.280 N 
ATOM     12  H2  UNL     1       7.750  13.809  25.309  1.00  0.00     0.189 HD
BRANCH  11  13
HETATM   13  N1  UNL     1       9.626  13.052  25.684  1.00  0.00    -0.307 N 
HETATM   14  C4  UNL     1      10.289  14.098  26.017  1.00  0.00    -0.000 C 
HETATM   15  C5  UNL     1       9.687  15.423  25.793  1.00  0.00     0.065 C 
ATOM     16  H1  UNL     1      10.073  12.151  25.853  1.00  0.00     0.186 HD
BRANCH  14  17
HETATM   17  C3  UNL     1      11.630  13.951  26.613  1.00  0.00     0.053 C 
BRANCH  17  18
HETATM   18  C2  UNL     1      12.734  14.154  25.613  1.00  0.00     0.001 C 
HETATM   19  C1  UNL     1      14.005  14.445  26.394  1.00  0.00     0.005 C 
ENDBRANCH  17  18
ENDBRANCH  14  17
ENDBRANCH  11  13
ENDBRANCH   1  11
TORSDOF 5
ENDMDL
