MODEL 1
REMARK VINA RESULT: -6.954043772      0.000      0.000
REMARK  2 active torsions:
REMARK  status: ('A' for Active; 'I' for Inactive)
REMARK    1  A    between atoms: C2_2  and  O1_5 
REMARK    2  A    between atoms: O1_5  and  C5_6 
ROOT
HETATM    1  C5  UNL     1      31.407  10.254  24.779  1.00  0.00     0.122 C 
HETATM    2  C6  UNL     1      32.062  10.948  23.582  1.00  0.00     0.037 C 
HETATM    3  C7  UNL     1      31.409  12.338  23.512  1.00  0.00     0.066 C 
HETATM    4  C8  UNL     1      30.050  12.131  22.894  1.00  0.00     0.163 C 
HETATM    5  C9  UNL     1      29.530  10.743  23.182  1.00  0.00     0.066 C 
HETATM    6  C10 UNL     1      29.908  10.326  24.611  1.00  0.00     0.037 C 
HETATM    7  N1  UNL     1      29.073  13.078  23.369  1.00  0.00    -0.327 N 
ATOM      8  H1  UNL     1      29.038  13.498  24.298  1.00  0.00     0.165 HD
HETATM    9  C11 UNL     1      28.171  13.317  22.298  1.00  0.00     0.195 C 
HETATM   10  N2  UNL     1      27.035  13.937  22.317  1.00  0.00    -0.370 N 
ATOM     11  H21 UNL     1      26.387  14.109  21.548  1.00  0.00     0.159 HD
ATOM     12  H22 UNL     1      26.580  14.370  23.121  1.00  0.00     0.159 HD
HETATM   13  N3  UNL     1      28.814  12.705  21.160  1.00  0.00    -0.234 N 
ATOM     14  H3  UNL     1      28.402  12.579  20.236  1.00  0.00     0.197 HD
HETATM   15  O2  UNL     1      30.071  12.324  21.534  1.00  0.00    -0.244 OA
ENDROOT
BRANCH   1  16
HETATM   16  O1  UNL     1      31.928   9.109  25.147  1.00  0.00    -0.376 OA
BRANCH  16  17
HETATM   17  C2  UNL     1      31.697   8.445  26.268  1.00  0.00     0.050 C 
HETATM   18  C1  UNL     1      33.070   8.235  26.941  1.00  0.00     0.045 C 
HETATM   19  C3  UNL     1      30.794   8.977  27.298  1.00  0.00     0.045 C 
HETATM   20  C4  UNL     1      31.214   7.035  25.926  1.00  0.00     0.045 C 
ENDBRANCH  16  17
ENDBRANCH   1  16
TORSDOF 2
ENDMDL
MODEL 2
REMARK VINA RESULT: -6.819526253      5.076      7.191
REMARK  2 active torsions:
REMARK  status: ('A' for Active; 'I' for Inactive)
REMARK    1  A    between atoms: C2_2  and  O1_5 
REMARK    2  A    between atoms: O1_5  and  C5_6 
ROOT
HETATM    1  C5  UNL     1      33.124   9.512  23.829  1.00  0.00     0.122 C 
HETATM    2  C6  UNL     1      32.093   8.420  24.126  1.00  0.00     0.037 C 
HETATM    3  C7  UNL     1      32.755   7.512  25.176  1.00  0.00     0.066 C 
HETATM    4  C8  UNL     1      33.737   6.651  24.424  1.00  0.00     0.163 C 
HETATM    5  C9  UNL     1      34.236   7.353  23.184  1.00  0.00     0.066 C 
HETATM    6  C10 UNL     1      34.433   8.849  23.470  1.00  0.00     0.037 C 
HETATM    7  N1  UNL     1      34.883   6.290  25.221  1.00  0.00    -0.327 N 
ATOM      8  H1  UNL     1      35.315   6.855  25.952  1.00  0.00     0.165 HD
HETATM    9  C11 UNL     1      35.297   5.000  24.794  1.00  0.00     0.195 C 
HETATM   10  N2  UNL     1      36.384   4.360  25.082  1.00  0.00    -0.370 N 
ATOM     11  H21 UNL     1      36.681   3.433  24.776  1.00  0.00     0.159 HD
ATOM     12  H22 UNL     1      37.150   4.678  25.676  1.00  0.00     0.159 HD
HETATM   13  N3  UNL     1      34.213   4.549  23.953  1.00  0.00    -0.234 N 
ATOM     14  H3  UNL     1      34.213   3.708  23.378  1.00  0.00     0.197 HD
HETATM   15  O2  UNL     1      33.188   5.444  24.062  1.00  0.00    -0.244 OA
ENDROOT
BRANCH   1  16
HETATM   16  O1  UNL     1      32.718  10.510  23.082  1.00  0.00    -0.376 OA
BRANCH  16  17
HETATM   17  C2  UNL     1      32.295  11.696  23.489  1.00  0.00     0.050 C 
HETATM   18  C1  UNL     1      31.891  12.473  22.219  1.00  0.00     0.045 C 
HETATM   19  C3  UNL     1      31.184  11.825  24.441  1.00  0.00     0.045 C 
HETATM   20  C4  UNL     1      33.476  12.480  24.062  1.00  0.00     0.045 C 
ENDBRANCH  16  17
ENDBRANCH   1  16
TORSDOF 2
ENDMDL
MODEL 3
REMARK VINA RESULT: -6.765516564      5.257      7.281
REMARK  2 active torsions:
REMARK  status: ('A' for Active; 'I' for Inactive)
REMARK    1  A    between atoms: C2_2  and  O1_5 
REMARK    2  A    between atoms: O1_5  and  C5_6 
ROOT
HETATM    1  C5  UNL     1      32.393   8.346  24.745  1.00  0.00     0.122 C 
HETATM    2  C6  UNL     1      32.495   7.213  25.769  1.00  0.00     0.037 C 
HETATM    3  C7  UNL     1      34.002   6.976  25.962  1.00  0.00     0.066 C 
HETATM    4  C8  UNL     1      34.459   6.191  24.759  1.00  0.00     0.163 C 
HETATM    5  C9  UNL     1      33.591   6.483  23.559  1.00  0.00     0.066 C 
HETATM    6  C10 UNL     1      33.213   7.971  23.534  1.00  0.00     0.037 C 
HETATM    7  N1  UNL     1      35.825   6.473  24.397  1.00  0.00    -0.327 N 
ATOM      8  H1  UNL     1      36.310   7.364  24.509  1.00  0.00     0.165 HD
HETATM    9  C11 UNL     1      36.368   5.278  23.856  1.00  0.00     0.195 C 
HETATM   10  N2  UNL     1      37.485   5.106  23.225  1.00  0.00    -0.370 N 
ATOM     11  H21 UNL     1      37.875   4.248  22.837  1.00  0.00     0.159 HD
ATOM     12  H22 UNL     1      38.184   5.815  23.002  1.00  0.00     0.159 HD
HETATM   13  N3  UNL     1      35.380   4.274  24.172  1.00  0.00    -0.234 N 
ATOM     14  H3  UNL     1      35.377   3.311  23.837  1.00  0.00     0.197 HD
HETATM   15  O2  UNL     1      34.449   4.838  24.998  1.00  0.00    -0.244 OA
ENDROOT
BRANCH   1  16
HETATM   16  O1  UNL     1      31.197   8.845  24.544  1.00  0.00    -0.376 OA
BRANCH  16  17
HETATM   17  C2  UNL     1      30.805  10.093  24.745  1.00  0.00     0.050 C 
HETATM   18  C1  UNL     1      30.454  10.205  26.243  1.00  0.00     0.045 C 
HETATM   19  C3  UNL     1      31.679  11.229  24.425  1.00  0.00     0.045 C 
HETATM   20  C4  UNL     1      29.478  10.324  24.019  1.00  0.00     0.045 C 
ENDBRANCH  16  17
ENDBRANCH   1  16
TORSDOF 2
ENDMDL
MODEL 4
REMARK VINA RESULT: -6.564172438      3.222      4.659
REMARK  2 active torsions:
REMARK  status: ('A' for Active; 'I' for Inactive)
REMARK    1  A    between atoms: C2_2  and  O1_5 
REMARK    2  A    between atoms: O1_5  and  C5_6 
ROOT
HETATM    1  C5  UNL     1      33.480   7.046  24.493  1.00  0.00     0.122 C 
HETATM    2  C6  UNL     1      32.702   7.100  25.810  1.00  0.00     0.037 C 
HETATM    3  C7  UNL     1      31.256   7.443  25.413  1.00  0.00     0.066 C 
HETATM    4  C8  UNL     1      31.244   8.922  25.121  1.00  0.00     0.163 C 
HETATM    5  C9  UNL     1      32.599   9.394  24.651  1.00  0.00     0.066 C 
HETATM    6  C10 UNL     1      33.238   8.334  23.742  1.00  0.00     0.037 C 
HETATM    7  N1  UNL     1      30.276   9.281  24.116  1.00  0.00    -0.327 N 
ATOM      8  H1  UNL     1      29.983   8.709  23.324  1.00  0.00     0.165 HD
HETATM    9  C11 UNL     1      29.807  10.584  24.436  1.00  0.00     0.195 C 
HETATM   10  N2  UNL     1      29.086  11.385  23.721  1.00  0.00    -0.370 N 
ATOM     11  H21 UNL     1      28.750  12.320  23.951  1.00  0.00     0.159 HD
ATOM     12  H22 UNL     1      28.721  11.218  22.783  1.00  0.00     0.159 HD
HETATM   13  N3  UNL     1      30.323  10.820  25.763  1.00  0.00    -0.234 N 
ATOM     14  H3  UNL     1      30.283  11.703  26.272  1.00  0.00     0.197 HD
HETATM   15  O2  UNL     1      30.873   9.658  26.221  1.00  0.00    -0.244 OA
ENDROOT
BRANCH   1  16
HETATM   16  O1  UNL     1      34.711   6.599  24.561  1.00  0.00    -0.376 OA
BRANCH  16  17
HETATM   17  C2  UNL     1      35.147   5.397  24.222  1.00  0.00     0.050 C 
HETATM   18  C1  UNL     1      36.518   5.605  23.545  1.00  0.00     0.045 C 
HETATM   19  C3  UNL     1      35.322   4.337  25.224  1.00  0.00     0.045 C 
HETATM   20  C4  UNL     1      34.253   4.832  23.117  1.00  0.00     0.045 C 
ENDBRANCH  16  17
ENDBRANCH   1  16
TORSDOF 2
ENDMDL
MODEL 5
REMARK VINA RESULT: -6.511138837      3.909      6.436
REMARK  2 active torsions:
REMARK  status: ('A' for Active; 'I' for Inactive)
REMARK    1  A    between atoms: C2_2  and  O1_5 
REMARK    2  A    between atoms: O1_5  and  C5_6 
ROOT
HETATM    1  C5  UNL     1      31.616   9.864  24.106  1.00  0.00     0.122 C 
HETATM    2  C6  UNL     1      32.021   8.413  23.827  1.00  0.00     0.037 C 
HETATM    3  C7  UNL     1      31.302   7.579  24.901  1.00  0.00     0.066 C 
HETATM    4  C8  UNL     1      32.095   7.760  26.170  1.00  0.00     0.163 C 
HETATM    5  C9  UNL     1      32.804   9.093  26.181  1.00  0.00     0.066 C 
HETATM    6  C10 UNL     1      31.907  10.171  25.555  1.00  0.00     0.037 C 
HETATM    7  N1  UNL     1      31.275   7.685  27.353  1.00  0.00    -0.327 N 
ATOM      8  H1  UNL     1      30.302   7.980  27.436  1.00  0.00     0.165 HD
HETATM    9  C11 UNL     1      32.077   7.121  28.381  1.00  0.00     0.195 C 
HETATM   10  N2  UNL     1      31.834   7.043  29.649  1.00  0.00    -0.370 N 
ATOM     11  H21 UNL     1      32.410   6.637  30.387  1.00  0.00     0.159 HD
ATOM     12  H22 UNL     1      31.007   7.380  30.142  1.00  0.00     0.159 HD
HETATM   13  N3  UNL     1      33.247   6.643  27.683  1.00  0.00    -0.234 N 
ATOM     14  H3  UNL     1      34.096   6.281  28.117  1.00  0.00     0.197 HD
HETATM   15  O2  UNL     1      33.022   6.761  26.342  1.00  0.00    -0.244 OA
ENDROOT
BRANCH   1  16
HETATM   16  O1  UNL     1      31.972  10.751  23.208  1.00  0.00    -0.376 OA
BRANCH  16  17
HETATM   17  C2  UNL     1      31.502  11.979  23.065  1.00  0.00     0.050 C 
HETATM   18  C1  UNL     1      29.975  11.888  23.261  1.00  0.00     0.045 C 
HETATM   19  C3  UNL     1      31.976  13.082  23.911  1.00  0.00     0.045 C 
HETATM   20  C4  UNL     1      31.679  12.417  21.610  1.00  0.00     0.045 C 
ENDBRANCH  16  17
ENDBRANCH   1  16
TORSDOF 2
ENDMDL
