MODEL 1
REMARK VINA RESULT: -5.351959814      0.000      0.000
REMARK  5 active torsions:
REMARK  status: ('A' for Active; 'I' for Inactive)
REMARK    1  A    between atoms: S1_2  and  C2_3 
REMARK    2  A    between atoms: C2_3  and  C3_7 
REMARK    3  A    between atoms: C3_7  and  S2_8 
REMARK    4  A    between atoms: S2_8  and  C4_9 
REMARK    5  A    between atoms: C5_12  and  N3_13 
ROOT
HETATM    1  C4  UNL     1       0.473   8.548  24.936  1.00  0.00     0.085 A 
HETATM    2  N2  UNL     1       0.721   8.167  23.710  1.00  0.00    -0.331 N 
ATOM      3  H2  UNL     1       0.748   8.849  22.952  1.00  0.00     0.168 HD
HETATM    4  C5  UNL     1       0.937   6.878  23.466  1.00  0.00     0.143 A 
HETATM    5  S3  UNL     1       0.789   6.170  25.009  1.00  0.00    -0.057 SA
HETATM    6  C6  UNL     1       0.451   7.580  25.906  1.00  0.00     0.016 A 
HETATM    7  C7  UNL     1       0.199   7.706  27.380  1.00  0.00     0.059 C 
ENDROOT
BRANCH   1   8
HETATM    8  S2  UNL     1       0.156  10.282  25.425  1.00  0.00    -0.105 SA
BRANCH   8   9
HETATM    9  C3  UNL     1      -1.307  10.827  24.496  1.00  0.00     0.144 C 
BRANCH   9  10
HETATM   10  C2  UNL     1      -0.888  11.746  23.409  1.00  0.00     0.049 C 
HETATM   11  N1  UNL     1      -1.766  12.331  22.698  1.00  0.00    -0.396 N 
ATOM     12  H12 UNL     1      -1.478  12.963  21.950  1.00  0.00     0.156 HD
ATOM     13  H11 UNL     1      -2.756  12.165  22.879  1.00  0.00     0.156 HD
BRANCH  10  14
HETATM   14  S1  UNL     1       0.850  12.038  23.089  1.00  0.00    -0.121 SA
HETATM   15  C1  UNL     1       1.336  13.626  23.787  1.00  0.00     0.097 C 
ENDBRANCH  10  14
ENDBRANCH   9  10
ENDBRANCH   8   9
ENDBRANCH   1   8
BRANCH   4  16
HETATM   16  N3  UNL     1       1.203   6.304  22.307  1.00  0.00    -0.380 N 
ATOM     17  H32 UNL     1       1.716   6.674  21.508  1.00  0.00     0.158 HD
ATOM     18  H31 UNL     1       0.938   5.370  21.994  1.00  0.00     0.158 HD
ENDBRANCH   4  16
TORSDOF 5
ENDMDL
MODEL 2
REMARK VINA RESULT: -5.332685990      2.701      5.637
REMARK  5 active torsions:
REMARK  status: ('A' for Active; 'I' for Inactive)
REMARK    1  A    between atoms: S1_2  and  C2_3 
REMARK    2  A    between atoms: C2_3  and  C3_7 
REMARK    3  A    between atoms: C3_7  and  S2_8 
REMARK    4  A    between atoms: S2_8  and  C4_9 
REMARK    5  A    between atoms: C5_12  and  N3_13 
ROOT
HETATM    1  C4  UNL     1      -0.582  12.042  23.736  1.00  0.00     0.085 A 
HETATM    2  N2  UNL     1      -1.582  12.384  22.967  1.00  0.00    -0.331 N 
ATOM      3  H2  UNL     1      -2.543  12.214  23.262  1.00  0.00     0.168 HD
HETATM    4  C5  UNL     1      -1.328  12.956  21.793  1.00  0.00     0.143 A 
HETATM    5  S3  UNL     1       0.375  13.019  21.762  1.00  0.00    -0.057 SA
HETATM    6  C6  UNL     1       0.684  12.299  23.277  1.00  0.00     0.016 A 
HETATM    7  C7  UNL     1       2.011  12.026  23.921  1.00  0.00     0.059 C 
ENDROOT
BRANCH   1   8
HETATM    8  S2  UNL     1      -0.773  11.250  25.373  1.00  0.00    -0.105 SA
BRANCH   8   9
HETATM    9  C3  UNL     1      -0.038   9.593  25.238  1.00  0.00     0.144 C 
BRANCH   9  10
HETATM   10  C2  UNL     1       0.389   9.131  26.582  1.00  0.00     0.049 C 
HETATM   11  N1  UNL     1      -0.346   9.360  27.596  1.00  0.00    -0.396 N 
ATOM     12  H12 UNL     1      -0.052   9.043  28.520  1.00  0.00     0.156 HD
ATOM     13  H11 UNL     1      -1.227   9.860  27.479  1.00  0.00     0.156 HD
BRANCH  10  14
HETATM   14  S1  UNL     1       1.935   8.252  26.788  1.00  0.00    -0.121 SA
HETATM   15  C1  UNL     1       2.121   7.747  28.507  1.00  0.00     0.097 C 
ENDBRANCH  10  14
ENDBRANCH   9  10
ENDBRANCH   8   9
ENDBRANCH   1   8
BRANCH   4  16
HETATM   16  N3  UNL     1      -2.194  13.369  20.886  1.00  0.00    -0.380 N 
ATOM     17  H32 UNL     1      -2.125  13.338  19.869  1.00  0.00     0.158 HD
ATOM     18  H31 UNL     1      -3.104  13.804  21.039  1.00  0.00     0.158 HD
ENDBRANCH   4  16
TORSDOF 5
ENDMDL
MODEL 3
REMARK VINA RESULT: -5.330367656      2.523      5.678
REMARK  5 active torsions:
REMARK  status: ('A' for Active; 'I' for Inactive)
REMARK    1  A    between atoms: S1_2  and  C2_3 
REMARK    2  A    between atoms: C2_3  and  C3_7 
REMARK    3  A    between atoms: C3_7  and  S2_8 
REMARK    4  A    between atoms: S2_8  and  C4_9 
REMARK    5  A    between atoms: C5_12  and  N3_13 
ROOT
HETATM    1  C4  UNL     1      -0.542  12.027  23.727  1.00  0.00     0.085 A 
HETATM    2  N2  UNL     1      -1.550  12.362  22.965  1.00  0.00    -0.331 N 
ATOM      3  H2  UNL     1      -2.507  12.179  23.265  1.00  0.00     0.168 HD
HETATM    4  C5  UNL     1      -1.310  12.944  21.794  1.00  0.00     0.143 A 
HETATM    5  S3  UNL     1       0.392  13.028  21.754  1.00  0.00    -0.057 SA
HETATM    6  C6  UNL     1       0.719  12.302  23.263  1.00  0.00     0.016 A 
HETATM    7  C7  UNL     1       2.052  12.041  23.899  1.00  0.00     0.059 C 
ENDROOT
BRANCH   1   8
HETATM    8  S2  UNL     1      -0.714  11.222  25.360  1.00  0.00    -0.105 SA
BRANCH   8   9
HETATM    9  C3  UNL     1       0.020   9.568  25.205  1.00  0.00     0.144 C 
BRANCH   9  10
HETATM   10  C2  UNL     1       0.053   8.915  26.537  1.00  0.00     0.049 C 
HETATM   11  N1  UNL     1      -0.330   9.555  27.568  1.00  0.00    -0.396 N 
ATOM     12  H12 UNL     1      -0.307   9.106  28.484  1.00  0.00     0.156 HD
ATOM     13  H11 UNL     1      -0.658  10.516  27.473  1.00  0.00     0.156 HD
BRANCH  10  14
HETATM   14  S1  UNL     1       0.628   7.227  26.705  1.00  0.00    -0.121 SA
HETATM   15  C1  UNL     1       0.097   6.262  25.280  1.00  0.00     0.097 C 
ENDBRANCH  10  14
ENDBRANCH   9  10
ENDBRANCH   8   9
ENDBRANCH   1   8
BRANCH   4  16
HETATM   16  N3  UNL     1      -2.185  13.352  20.894  1.00  0.00    -0.380 N 
ATOM     17  H32 UNL     1      -2.982  13.978  21.009  1.00  0.00     0.158 HD
ATOM     18  H31 UNL     1      -2.226  13.112  19.903  1.00  0.00     0.158 HD
ENDBRANCH   4  16
TORSDOF 5
ENDMDL
MODEL 4
REMARK VINA RESULT: -5.275802068      2.934      4.835
REMARK  5 active torsions:
REMARK  status: ('A' for Active; 'I' for Inactive)
REMARK    1  A    between atoms: S1_2  and  C2_3 
REMARK    2  A    between atoms: C2_3  and  C3_7 
REMARK    3  A    between atoms: C3_7  and  S2_8 
REMARK    4  A    between atoms: S2_8  and  C4_9 
REMARK    5  A    between atoms: C5_12  and  N3_13 
ROOT
HETATM    1  C4  UNL     1       3.053  12.489  23.730  1.00  0.00     0.085 A 
HETATM    2  N2  UNL     1       3.131  11.298  23.197  1.00  0.00    -0.331 N 
ATOM      3  H2  UNL     1       2.301  10.848  22.813  1.00  0.00     0.168 HD
HETATM    4  C5  UNL     1       4.309  10.681  23.165  1.00  0.00     0.143 A 
HETATM    5  S3  UNL     1       5.349  11.810  23.907  1.00  0.00    -0.057 SA
HETATM    6  C6  UNL     1       4.207  13.036  24.229  1.00  0.00     0.016 A 
HETATM    7  C7  UNL     1       4.432  14.364  24.889  1.00  0.00     0.059 C 
ENDROOT
BRANCH   1   8
HETATM    8  S2  UNL     1       1.507  13.460  23.846  1.00  0.00    -0.105 SA
BRANCH   8   9
HETATM    9  C3  UNL     1       0.401  12.836  22.546  1.00  0.00     0.144 C 
BRANCH   9  10
HETATM   10  C2  UNL     1      -0.829  12.286  23.166  1.00  0.00     0.049 C 
HETATM   11  N1  UNL     1      -1.954  12.438  22.590  1.00  0.00    -0.396 N 
ATOM     12  H12 UNL     1      -2.800  12.060  23.017  1.00  0.00     0.156 HD
ATOM     13  H11 UNL     1      -2.003  12.939  21.703  1.00  0.00     0.156 HD
BRANCH  10  14
HETATM   14  S1  UNL     1      -0.743  11.407  24.725  1.00  0.00    -0.121 SA
HETATM   15  C1  UNL     1       0.066   9.817  24.479  1.00  0.00     0.097 C 
ENDBRANCH  10  14
ENDBRANCH   9  10
ENDBRANCH   8   9
ENDBRANCH   1   8
BRANCH   4  16
HETATM   16  N3  UNL     1       4.589   9.489  22.673  1.00  0.00    -0.380 N 
ATOM     17  H32 UNL     1       4.573   9.172  21.704  1.00  0.00     0.158 HD
ATOM     18  H31 UNL     1       4.875   8.651  23.181  1.00  0.00     0.158 HD
ENDBRANCH   4  16
TORSDOF 5
ENDMDL
MODEL 5
REMARK VINA RESULT: -5.086251659      3.765      5.741
REMARK  5 active torsions:
REMARK  status: ('A' for Active; 'I' for Inactive)
REMARK    1  A    between atoms: S1_2  and  C2_3 
REMARK    2  A    between atoms: C2_3  and  C3_7 
REMARK    3  A    between atoms: C3_7  and  S2_8 
REMARK    4  A    between atoms: S2_8  and  C4_9 
REMARK    5  A    between atoms: C5_12  and  N3_13 
ROOT
HETATM    1  C4  UNL     1       3.431  12.377  23.853  1.00  0.00     0.085 A 
HETATM    2  N2  UNL     1       3.518  13.567  24.387  1.00  0.00    -0.331 N 
ATOM      3  H2  UNL     1       2.679  14.121  24.554  1.00  0.00     0.168 HD
HETATM    4  C5  UNL     1       4.717  14.044  24.709  1.00  0.00     0.143 A 
HETATM    5  S3  UNL     1       5.764  12.781  24.249  1.00  0.00    -0.057 SA
HETATM    6  C6  UNL     1       4.598  11.686  23.656  1.00  0.00     0.016 A 
HETATM    7  C7  UNL     1       4.818  10.321  23.073  1.00  0.00     0.059 C 
ENDROOT
BRANCH   1   8
HETATM    8  S2  UNL     1       1.857  11.589  23.359  1.00  0.00    -0.105 SA
BRANCH   8   9
HETATM    9  C3  UNL     1       0.569  12.863  23.500  1.00  0.00     0.144 C 
BRANCH   9  10
HETATM   10  C2  UNL     1      -0.765  12.215  23.540  1.00  0.00     0.049 C 
HETATM   11  N1  UNL     1      -1.753  12.757  22.949  1.00  0.00    -0.396 N 
ATOM     12  H12 UNL     1      -2.671  12.312  22.977  1.00  0.00     0.156 HD
ATOM     13  H11 UNL     1      -1.622  13.636  22.449  1.00  0.00     0.156 HD
BRANCH  10  14
HETATM   14  S1  UNL     1      -0.996  10.671  24.419  1.00  0.00    -0.121 SA
HETATM   15  C1  UNL     1      -0.604  10.901  26.161  1.00  0.00     0.097 C 
ENDBRANCH  10  14
ENDBRANCH   9  10
ENDBRANCH   8   9
ENDBRANCH   1   8
BRANCH   4  16
HETATM   16  N3  UNL     1       5.008  15.211  25.254  1.00  0.00    -0.380 N 
ATOM     17  H32 UNL     1       4.433  16.050  25.322  1.00  0.00     0.158 HD
ATOM     18  H31 UNL     1       5.875  15.491  25.712  1.00  0.00     0.158 HD
ENDBRANCH   4  16
TORSDOF 5
ENDMDL
