MODEL 1
REMARK VINA RESULT: -10.270940045      0.000      0.000
REMARK  9 active torsions:
REMARK  status: ('A' for Active; 'I' for Inactive)
REMARK    1  A    between atoms: C11_11  and  C12_12 
REMARK    2  A    between atoms: C11_11  and  N2_29 
REMARK    3  A    between atoms: C12_12  and  O1_13 
REMARK    4  A    between atoms: O1_13  and  C13_14 
REMARK    5  A    between atoms: C13_14  and  C14_16 
REMARK    6  A    between atoms: C15_17  and  C16_18 
REMARK    7  A    between atoms: N1_24  and  C20_25 
REMARK    8  A    between atoms: C20_25  and  C21_26 
REMARK    9  A    between atoms: C31_39  and  O7_40 
ROOT
HETATM    1  C1  UNL     1      24.509  60.145  36.663  1.00  0.00     0.018 C 
HETATM    2  C2  UNL     1      23.296  60.972  37.119  1.00  0.00    -0.014 C 
HETATM    3  C3  UNL     1      23.495  62.346  36.561  1.00  0.00     0.012 C 
HETATM    4  C4  UNL     1      23.110  62.245  35.075  1.00  0.00     0.007 C 
HETATM    5  C5  UNL     1      21.599  62.194  35.129  1.00  0.00    -0.002 C 
HETATM    6  C6  UNL     1      21.134  60.919  35.792  1.00  0.00    -0.005 C 
HETATM    7  C7  UNL     1      19.726  61.227  36.282  1.00  0.00     0.006 C 
HETATM    8  C8  UNL     1      19.013  62.137  35.291  1.00  0.00     0.006 C 
HETATM    9  C9  UNL     1      19.525  61.948  33.882  1.00  0.00    -0.003 C 
HETATM   10  C10 UNL     1      18.625  62.581  32.881  1.00  0.00     0.045 C 
HETATM   11  C11 UNL     1      18.709  64.111  32.819  1.00  0.00     0.118 C 
HETATM   12  C24 UNL     1      19.977  64.636  33.394  1.00  0.00     0.041 C 
HETATM   13  C25 UNL     1      21.163  63.760  33.321  1.00  0.00     0.012 C 
HETATM   14  C26 UNL     1      20.965  62.353  33.769  1.00  0.00    -0.036 C 
HETATM   15  C27 UNL     1      21.679  61.369  32.838  1.00  0.00     0.016 C 
HETATM   16  C28 UNL     1      22.011  60.317  36.793  1.00  0.00     0.001 C 
HETATM   17  C29 UNL     1      21.356  60.117  38.166  1.00  0.00     0.008 C 
HETATM   18  C30 UNL     1      21.950  61.207  39.025  1.00  0.00     0.033 C 
HETATM   19  C31 UNL     1      23.427  61.073  38.631  1.00  0.00     0.126 C 
ENDROOT
BRANCH  11  20
HETATM   20  C12 UNL     1      18.543  64.533  31.384  1.00  0.00     0.216 C 
BRANCH  20  21
HETATM   21  O1  UNL     1      17.594  63.932  30.598  1.00  0.00    -0.314 OA
BRANCH  21  22
HETATM   22  C13 UNL     1      16.869  64.328  29.532  1.00  0.00     0.311 C 
HETATM   23  O2  UNL     1      17.541  64.977  28.667  1.00  0.00    -0.258 OA
BRANCH  22  24
HETATM   24  C14 UNL     1      15.451  64.047  29.370  1.00  0.00     0.127 A 
HETATM   25  C15 UNL     1      15.016  62.921  28.654  1.00  0.00     0.085 A 
HETATM   26  C17 UNL     1      13.636  62.680  28.532  1.00  0.00     0.189 A 
HETATM   27  O4  UNL     1      13.238  61.680  27.897  1.00  0.00    -0.287 OA
HETATM   28  C18 UNL     1      12.722  63.522  29.098  1.00  0.00     0.073 A 
HETATM   29  C19 UNL     1      13.162  64.608  29.788  1.00  0.00     0.095 A 
HETATM   30  N1  UNL     1      14.516  64.858  29.915  1.00  0.00    -0.351 N 
BRANCH  25  31
HETATM   31  C16 UNL     1      15.897  61.988  28.029  1.00  0.00     0.276 C 
HETATM   32  O3  UNL     1      16.462  61.097  28.778  1.00  0.00    -0.301 OA
ENDBRANCH  25  31
BRANCH  30  33
HETATM   33  C20 UNL     1      14.857  66.052  30.650  1.00  0.00     0.133 C 
BRANCH  33  34
HETATM   34  C21 UNL     1      13.618  66.576  31.330  1.00  0.00     0.004 A 
HETATM   35  C22 UNL     1      13.520  66.598  32.806  1.00  0.00     0.007 A 
HETATM   36  C23 UNL     1      13.787  67.880  32.078  1.00  0.00     0.007 A 
ENDBRANCH  33  34
ENDBRANCH  30  33
ENDBRANCH  22  24
ENDBRANCH  21  22
ENDBRANCH  20  21
ENDBRANCH  11  20
BRANCH  11  37
HETATM   37  N2  UNL     1      17.637  64.586  33.644  1.00  0.00    -0.143 N 
HETATM   38  O5  UNL     1      17.793  64.979  34.817  1.00  0.00    -0.536 OA
HETATM   39  O6  UNL     1      16.366  64.620  33.099  1.00  0.00    -0.536 OA
ENDBRANCH  11  37
BRANCH  19  40
HETATM   40  O7  UNL     1      23.861  59.871  39.167  1.00  0.00    -0.395 OA
ATOM     41  H7  UNL     1      23.215  59.517  39.766  1.00  0.00     0.210 HD
ENDBRANCH  19  40
TORSDOF 9
ENDMDL
MODEL 2
REMARK VINA RESULT: -9.987292387      1.928      3.969
REMARK  9 active torsions:
REMARK  status: ('A' for Active; 'I' for Inactive)
REMARK    1  A    between atoms: C11_11  and  C12_12 
REMARK    2  A    between atoms: C11_11  and  N2_29 
REMARK    3  A    between atoms: C12_12  and  O1_13 
REMARK    4  A    between atoms: O1_13  and  C13_14 
REMARK    5  A    between atoms: C13_14  and  C14_16 
REMARK    6  A    between atoms: C15_17  and  C16_18 
REMARK    7  A    between atoms: N1_24  and  C20_25 
REMARK    8  A    between atoms: C20_25  and  C21_26 
REMARK    9  A    between atoms: C31_39  and  O7_40 
ROOT
HETATM    1  C1  UNL     1      22.832  61.841  38.705  1.00  0.00     0.018 C 
HETATM    2  C2  UNL     1      22.373  61.176  37.397  1.00  0.00    -0.014 C 
HETATM    3  C3  UNL     1      20.880  61.108  37.467  1.00  0.00     0.012 C 
HETATM    4  C4  UNL     1      20.388  62.528  37.142  1.00  0.00     0.007 C 
HETATM    5  C5  UNL     1      20.583  62.610  35.644  1.00  0.00    -0.002 C 
HETATM    6  C6  UNL     1      22.051  62.561  35.296  1.00  0.00    -0.005 C 
HETATM    7  C7  UNL     1      22.093  62.091  33.848  1.00  0.00     0.006 C 
HETATM    8  C8  UNL     1      20.917  62.672  33.075  1.00  0.00     0.006 C 
HETATM    9  C9  UNL     1      20.463  63.994  33.648  1.00  0.00    -0.003 C 
HETATM   10  C10 UNL     1      19.550  64.711  32.717  1.00  0.00     0.045 C 
HETATM   11  C11 UNL     1      18.130  64.136  32.641  1.00  0.00     0.118 C 
HETATM   12  C24 UNL     1      17.787  63.307  33.828  1.00  0.00     0.041 C 
HETATM   13  C25 UNL     1      18.452  63.646  35.102  1.00  0.00     0.012 C 
HETATM   14  C26 UNL     1      19.929  63.828  35.039  1.00  0.00    -0.036 C 
HETATM   15  C27 UNL     1      20.376  65.025  35.882  1.00  0.00     0.016 C 
HETATM   16  C28 UNL     1      22.939  61.833  36.200  1.00  0.00     0.001 C 
HETATM   17  C29 UNL     1      23.744  60.713  35.527  1.00  0.00     0.008 C 
HETATM   18  C30 UNL     1      23.061  59.443  35.975  1.00  0.00     0.033 C 
HETATM   19  C31 UNL     1      22.897  59.750  37.469  1.00  0.00     0.126 C 
ENDROOT
BRANCH  11  20
HETATM   20  C12 UNL     1      17.168  65.282  32.477  1.00  0.00     0.216 C 
BRANCH  20  21
HETATM   21  O1  UNL     1      15.864  65.037  32.129  1.00  0.00    -0.314 OA
BRANCH  21  22
HETATM   22  C13 UNL     1      15.060  65.470  31.137  1.00  0.00     0.311 C 
HETATM   23  O2  UNL     1      15.600  65.434  29.985  1.00  0.00    -0.258 OA
BRANCH  22  24
HETATM   24  C14 UNL     1      13.699  65.939  31.347  1.00  0.00     0.127 A 
HETATM   25  C15 UNL     1      13.448  67.231  31.835  1.00  0.00     0.085 A 
HETATM   26  C17 UNL     1      12.116  67.648  32.012  1.00  0.00     0.189 A 
HETATM   27  O4  UNL     1      11.882  68.796  32.445  1.00  0.00    -0.287 OA
HETATM   28  C18 UNL     1      11.074  66.817  31.716  1.00  0.00     0.073 A 
HETATM   29  C19 UNL     1      11.336  65.568  31.245  1.00  0.00     0.095 A 
HETATM   30  N1  UNL     1      12.641  65.145  31.067  1.00  0.00    -0.351 N 
BRANCH  25  31
HETATM   31  C16 UNL     1      14.472  68.166  32.171  1.00  0.00     0.276 C 
HETATM   32  O3  UNL     1      14.782  69.062  31.292  1.00  0.00    -0.301 OA
ENDBRANCH  25  31
BRANCH  30  33
HETATM   33  C20 UNL     1      12.790  63.794  30.583  1.00  0.00     0.133 C 
BRANCH  33  34
HETATM   34  C21 UNL     1      12.234  63.712  29.184  1.00  0.00     0.004 A 
HETATM   35  C22 UNL     1      13.123  63.435  28.035  1.00  0.00     0.007 A 
HETATM   36  C23 UNL     1      12.247  62.336  28.557  1.00  0.00     0.007 A 
ENDBRANCH  33  34
ENDBRANCH  30  33
ENDBRANCH  22  24
ENDBRANCH  21  22
ENDBRANCH  20  21
ENDBRANCH  11  20
BRANCH  11  37
HETATM   37  N2  UNL     1      18.131  63.269  31.499  1.00  0.00    -0.143 N 
HETATM   38  O5  UNL     1      17.979  62.033  31.574  1.00  0.00    -0.536 OA
HETATM   39  O6  UNL     1      18.295  63.841  30.251  1.00  0.00    -0.536 OA
ENDBRANCH  11  37
BRANCH  19  40
HETATM   40  O7  UNL     1      24.171  59.722  38.011  1.00  0.00    -0.395 OA
ATOM     41  H7  UNL     1      24.828  59.700  37.326  1.00  0.00     0.210 HD
ENDBRANCH  19  40
TORSDOF 9
ENDMDL
MODEL 3
REMARK VINA RESULT: -9.755738212      1.633      2.230
REMARK  9 active torsions:
REMARK  status: ('A' for Active; 'I' for Inactive)
REMARK    1  A    between atoms: C11_11  and  C12_12 
REMARK    2  A    between atoms: C11_11  and  N2_29 
REMARK    3  A    between atoms: C12_12  and  O1_13 
REMARK    4  A    between atoms: O1_13  and  C13_14 
REMARK    5  A    between atoms: C13_14  and  C14_16 
REMARK    6  A    between atoms: C15_17  and  C16_18 
REMARK    7  A    between atoms: N1_24  and  C20_25 
REMARK    8  A    between atoms: C20_25  and  C21_26 
REMARK    9  A    between atoms: C31_39  and  O7_40 
ROOT
HETATM    1  C1  UNL     1      24.508  60.332  36.698  1.00  0.00     0.018 C 
HETATM    2  C2  UNL     1      23.292  61.153  37.159  1.00  0.00    -0.014 C 
HETATM    3  C3  UNL     1      23.459  62.514  36.559  1.00  0.00     0.012 C 
HETATM    4  C4  UNL     1      23.042  62.368  35.086  1.00  0.00     0.007 C 
HETATM    5  C5  UNL     1      21.534  62.296  35.174  1.00  0.00    -0.002 C 
HETATM    6  C6  UNL     1      21.103  61.033  35.881  1.00  0.00    -0.005 C 
HETATM    7  C7  UNL     1      19.702  61.333  36.395  1.00  0.00     0.006 C 
HETATM    8  C8  UNL     1      18.954  62.205  35.396  1.00  0.00     0.006 C 
HETATM    9  C9  UNL     1      19.437  61.985  33.982  1.00  0.00    -0.003 C 
HETATM   10  C10 UNL     1      18.505  62.578  32.984  1.00  0.00     0.045 C 
HETATM   11  C11 UNL     1      18.565  64.107  32.880  1.00  0.00     0.118 C 
HETATM   12  C24 UNL     1      19.837  64.665  33.412  1.00  0.00     0.041 C 
HETATM   13  C25 UNL     1      21.034  63.805  33.336  1.00  0.00     0.012 C 
HETATM   14  C26 UNL     1      20.868  62.408  33.825  1.00  0.00    -0.036 C 
HETATM   15  C27 UNL     1      21.576  61.410  32.905  1.00  0.00     0.016 C 
HETATM   16  C28 UNL     1      22.011  60.471  36.879  1.00  0.00     0.001 C 
HETATM   17  C29 UNL     1      21.389  60.298  38.271  1.00  0.00     0.008 C 
HETATM   18  C30 UNL     1      21.985  61.419  39.087  1.00  0.00     0.033 C 
HETATM   19  C31 UNL     1      23.455  61.296  38.664  1.00  0.00     0.126 C 
ENDROOT
BRANCH  11  20
HETATM   20  C12 UNL     1      18.361  64.487  31.438  1.00  0.00     0.216 C 
BRANCH  20  21
HETATM   21  O1  UNL     1      17.382  63.874  30.699  1.00  0.00    -0.314 OA
BRANCH  21  22
HETATM   22  C13 UNL     1      16.387  64.320  29.906  1.00  0.00     0.311 C 
HETATM   23  O2  UNL     1      15.742  65.304  30.393  1.00  0.00    -0.258 OA
BRANCH  22  24
HETATM   24  C14 UNL     1      16.067  63.742  28.610  1.00  0.00     0.127 A 
HETATM   25  C15 UNL     1      16.888  63.972  27.494  1.00  0.00     0.085 A 
HETATM   26  C17 UNL     1      16.549  63.384  26.263  1.00  0.00     0.189 A 
HETATM   27  O4  UNL     1      17.273  63.583  25.265  1.00  0.00    -0.287 OA
HETATM   28  C18 UNL     1      15.439  62.597  26.141  1.00  0.00     0.073 A 
HETATM   29  C19 UNL     1      14.655  62.385  27.232  1.00  0.00     0.095 A 
HETATM   30  N1  UNL     1      14.977  62.959  28.449  1.00  0.00    -0.351 N 
BRANCH  25  31
HETATM   31  C16 UNL     1      18.064  64.780  27.528  1.00  0.00     0.276 C 
HETATM   32  O3  UNL     1      19.169  64.221  27.902  1.00  0.00    -0.301 OA
ENDBRANCH  25  31
BRANCH  30  33
HETATM   33  C20 UNL     1      14.057  62.678  29.525  1.00  0.00     0.133 C 
BRANCH  33  34
HETATM   34  C21 UNL     1      12.691  63.190  29.145  1.00  0.00     0.004 A 
HETATM   35  C22 UNL     1      11.512  62.889  29.986  1.00  0.00     0.007 A 
HETATM   36  C23 UNL     1      12.119  64.257  30.051  1.00  0.00     0.007 A 
ENDBRANCH  33  34
ENDBRANCH  30  33
ENDBRANCH  22  24
ENDBRANCH  21  22
ENDBRANCH  20  21
ENDBRANCH  11  20
BRANCH  11  37
HETATM   37  N2  UNL     1      17.504  64.588  33.715  1.00  0.00    -0.143 N 
HETATM   38  O5  UNL     1      17.663  64.920  34.907  1.00  0.00    -0.536 OA
HETATM   39  O6  UNL     1      16.242  64.700  33.161  1.00  0.00    -0.536 OA
ENDBRANCH  11  37
BRANCH  19  40
HETATM   40  O7  UNL     1      23.920  60.117  39.222  1.00  0.00    -0.395 OA
ATOM     41  H7  UNL     1      23.494  59.366  38.826  1.00  0.00     0.210 HD
ENDBRANCH  19  40
TORSDOF 9
ENDMDL
MODEL 4
REMARK VINA RESULT: -9.665406837      1.672      2.765
REMARK  9 active torsions:
REMARK  status: ('A' for Active; 'I' for Inactive)
REMARK    1  A    between atoms: C11_11  and  C12_12 
REMARK    2  A    between atoms: C11_11  and  N2_29 
REMARK    3  A    between atoms: C12_12  and  O1_13 
REMARK    4  A    between atoms: O1_13  and  C13_14 
REMARK    5  A    between atoms: C13_14  and  C14_16 
REMARK    6  A    between atoms: C15_17  and  C16_18 
REMARK    7  A    between atoms: N1_24  and  C20_25 
REMARK    8  A    between atoms: C20_25  and  C21_26 
REMARK    9  A    between atoms: C31_39  and  O7_40 
ROOT
HETATM    1  C1  UNL     1      22.398  62.068  38.371  1.00  0.00     0.018 C 
HETATM    2  C2  UNL     1      22.014  61.389  37.046  1.00  0.00    -0.014 C 
HETATM    3  C3  UNL     1      20.523  61.253  37.067  1.00  0.00     0.012 C 
HETATM    4  C4  UNL     1      19.978  62.651  36.730  1.00  0.00     0.007 C 
HETATM    5  C5  UNL     1      20.218  62.749  35.240  1.00  0.00    -0.002 C 
HETATM    6  C6  UNL     1      21.698  62.769  34.940  1.00  0.00    -0.005 C 
HETATM    7  C7  UNL     1      21.809  62.308  33.493  1.00  0.00     0.006 C 
HETATM    8  C8  UNL     1      20.634  62.838  32.683  1.00  0.00     0.006 C 
HETATM    9  C9  UNL     1      20.102  64.136  33.245  1.00  0.00    -0.003 C 
HETATM   10  C10 UNL     1      19.187  64.815  32.287  1.00  0.00     0.045 C 
HETATM   11  C11 UNL     1      17.799  64.176  32.162  1.00  0.00     0.118 C 
HETATM   12  C24 UNL     1      17.455  63.327  33.334  1.00  0.00     0.041 C 
HETATM   13  C25 UNL     1      18.061  63.689  34.630  1.00  0.00     0.012 C 
HETATM   14  C26 UNL     1      19.530  63.939  34.618  1.00  0.00    -0.036 C 
HETATM   15  C27 UNL     1      19.894  65.151  35.479  1.00  0.00     0.016 C 
HETATM   16  C28 UNL     1      22.588  62.077  35.871  1.00  0.00     0.001 C 
HETATM   17  C29 UNL     1      23.464  60.998  35.221  1.00  0.00     0.008 C 
HETATM   18  C30 UNL     1      22.826  59.697  35.642  1.00  0.00     0.033 C 
HETATM   19  C31 UNL     1      22.599  59.989  37.131  1.00  0.00     0.126 C 
ENDROOT
BRANCH  11  20
HETATM   20  C12 UNL     1      16.791  65.278  31.970  1.00  0.00     0.216 C 
BRANCH  20  21
HETATM   21  O1  UNL     1      15.492  64.971  31.656  1.00  0.00    -0.314 OA
BRANCH  21  22
HETATM   22  C13 UNL     1      14.704  65.207  30.588  1.00  0.00     0.311 C 
HETATM   23  O2  UNL     1      15.069  66.208  29.891  1.00  0.00    -0.258 OA
BRANCH  22  24
HETATM   24  C14 UNL     1      13.540  64.402  30.249  1.00  0.00     0.127 A 
HETATM   25  C15 UNL     1      13.646  63.317  29.365  1.00  0.00     0.085 A 
HETATM   26  C17 UNL     1      12.499  62.557  29.075  1.00  0.00     0.189 A 
HETATM   27  O4  UNL     1      12.583  61.589  28.290  1.00  0.00    -0.287 OA
HETATM   28  C18 UNL     1      11.293  62.861  29.639  1.00  0.00     0.073 A 
HETATM   29  C19 UNL     1      11.209  63.916  30.493  1.00  0.00     0.095 A 
HETATM   30  N1  UNL     1      12.329  64.673  30.786  1.00  0.00    -0.351 N 
BRANCH  25  31
HETATM   31  C16 UNL     1      14.863  62.927  28.730  1.00  0.00     0.276 C 
HETATM   32  O3  UNL     1      15.175  63.507  27.617  1.00  0.00    -0.301 OA
ENDBRANCH  25  31
BRANCH  30  33
HETATM   33  C20 UNL     1      12.108  65.778  31.687  1.00  0.00     0.133 C 
BRANCH  33  34
HETATM   34  C21 UNL     1      11.739  66.997  30.882  1.00  0.00     0.004 A 
HETATM   35  C22 UNL     1      10.331  67.444  30.792  1.00  0.00     0.007 A 
HETATM   36  C23 UNL     1      11.276  68.193  31.684  1.00  0.00     0.007 A 
ENDBRANCH  33  34
ENDBRANCH  30  33
ENDBRANCH  22  24
ENDBRANCH  21  22
ENDBRANCH  20  21
ENDBRANCH  11  20
BRANCH  11  37
HETATM   37  N2  UNL     1      17.877  63.316  31.018  1.00  0.00    -0.143 N 
HETATM   38  O5  UNL     1      17.756  62.076  31.080  1.00  0.00    -0.536 OA
HETATM   39  O6  UNL     1      18.083  63.898  29.781  1.00  0.00    -0.536 OA
ENDBRANCH  11  37
BRANCH  19  40
HETATM   40  O7  UNL     1      23.855  60.016  37.715  1.00  0.00    -0.395 OA
ATOM     41  H7  UNL     1      24.475  59.513  37.202  1.00  0.00     0.210 HD
ENDBRANCH  19  40
TORSDOF 9
ENDMDL
MODEL 5
REMARK VINA RESULT: -9.511862749      6.874     11.870
REMARK  9 active torsions:
REMARK  status: ('A' for Active; 'I' for Inactive)
REMARK    1  A    between atoms: C11_11  and  C12_12 
REMARK    2  A    between atoms: C11_11  and  N2_29 
REMARK    3  A    between atoms: C12_12  and  O1_13 
REMARK    4  A    between atoms: O1_13  and  C13_14 
REMARK    5  A    between atoms: C13_14  and  C14_16 
REMARK    6  A    between atoms: C15_17  and  C16_18 
REMARK    7  A    between atoms: N1_24  and  C20_25 
REMARK    8  A    between atoms: C20_25  and  C21_26 
REMARK    9  A    between atoms: C31_39  and  O7_40 
ROOT
HETATM    1  C1  UNL     1       6.350  64.564  25.883  1.00  0.00     0.018 C 
HETATM    2  C2  UNL     1       6.546  64.816  27.387  1.00  0.00    -0.014 C 
HETATM    3  C3  UNL     1       7.230  63.599  27.926  1.00  0.00     0.012 C 
HETATM    4  C4  UNL     1       8.705  63.740  27.515  1.00  0.00     0.007 C 
HETATM    5  C5  UNL     1       9.219  64.785  28.479  1.00  0.00    -0.002 C 
HETATM    6  C6  UNL     1       8.559  66.118  28.218  1.00  0.00    -0.005 C 
HETATM    7  C7  UNL     1       8.703  66.887  29.525  1.00  0.00     0.006 C 
HETATM    8  C8  UNL     1      10.038  66.561  30.179  1.00  0.00     0.006 C 
HETATM    9  C9  UNL     1      11.088  66.184  29.161  1.00  0.00    -0.003 C 
HETATM   10  C10 UNL     1      12.454  66.186  29.754  1.00  0.00     0.045 C 
HETATM   11  C11 UNL     1      12.759  64.993  30.667  1.00  0.00     0.118 C 
HETATM   12  C24 UNL     1      11.854  63.838  30.418  1.00  0.00     0.041 C 
HETATM   13  C25 UNL     1      11.311  63.689  29.054  1.00  0.00     0.012 C 
HETATM   14  C26 UNL     1      10.721  64.916  28.448  1.00  0.00    -0.036 C 
HETATM   15  C27 UNL     1      11.116  65.051  26.975  1.00  0.00     0.016 C 
HETATM   16  C28 UNL     1       7.208  66.109  27.662  1.00  0.00     0.001 C 
HETATM   17  C29 UNL     1       6.173  66.865  28.505  1.00  0.00     0.008 C 
HETATM   18  C30 UNL     1       5.369  65.776  29.173  1.00  0.00     0.033 C 
HETATM   19  C31 UNL     1       5.144  64.846  27.973  1.00  0.00     0.126 C 
ENDROOT
BRANCH  11  20
HETATM   20  C12 UNL     1      14.201  64.609  30.473  1.00  0.00     0.216 C 
BRANCH  20  21
HETATM   21  O1  UNL     1      14.759  64.652  29.222  1.00  0.00    -0.314 OA
BRANCH  21  22
HETATM   22  C13 UNL     1      15.137  63.714  28.330  1.00  0.00     0.311 C 
HETATM   23  O2  UNL     1      15.008  62.520  28.753  1.00  0.00    -0.258 OA
BRANCH  22  24
HETATM   24  C14 UNL     1      15.648  64.021  27.002  1.00  0.00     0.127 A 
HETATM   25  C15 UNL     1      16.989  64.390  26.813  1.00  0.00     0.085 A 
HETATM   26  C17 UNL     1      17.444  64.666  25.511  1.00  0.00     0.189 A 
HETATM   27  O4  UNL     1      18.636  64.995  25.332  1.00  0.00    -0.287 OA
HETATM   28  C18 UNL     1      16.604  64.579  24.439  1.00  0.00     0.073 A 
HETATM   29  C19 UNL     1      15.307  64.220  24.641  1.00  0.00     0.095 A 
HETATM   30  N1  UNL     1      14.846  63.947  25.917  1.00  0.00    -0.351 N 
BRANCH  25  31
HETATM   31  C16 UNL     1      17.937  64.507  27.873  1.00  0.00     0.276 C 
HETATM   32  O3  UNL     1      18.659  63.472  28.153  1.00  0.00    -0.301 OA
ENDBRANCH  25  31
BRANCH  30  33
HETATM   33  C20 UNL     1      13.449  63.599  26.005  1.00  0.00     0.133 C 
BRANCH  33  34
HETATM   34  C21 UNL     1      13.249  62.226  25.415  1.00  0.00     0.004 A 
HETATM   35  C22 UNL     1      12.505  61.186  26.158  1.00  0.00     0.007 A 
HETATM   36  C23 UNL     1      11.829  61.887  25.018  1.00  0.00     0.007 A 
ENDBRANCH  33  34
ENDBRANCH  30  33
ENDBRANCH  22  24
ENDBRANCH  21  22
ENDBRANCH  20  21
ENDBRANCH  11  20
BRANCH  11  37
HETATM   37  N2  UNL     1      12.503  65.457  31.999  1.00  0.00    -0.143 N 
HETATM   38  O5  UNL     1      12.049  64.731  32.906  1.00  0.00    -0.536 OA
HETATM   39  O6  UNL     1      12.789  66.778  32.291  1.00  0.00    -0.536 OA
ENDBRANCH  11  37
BRANCH  19  40
HETATM   40  O7  UNL     1       4.273  65.513  27.127  1.00  0.00    -0.395 OA
ATOM     41  H7  UNL     1       3.621  65.992  27.624  1.00  0.00     0.210 HD
ENDBRANCH  19  40
TORSDOF 9
ENDMDL
