MODEL 1
REMARK VINA RESULT: -11.981017023      0.000      0.000
REMARK  8 active torsions:
REMARK  status: ('A' for Active; 'I' for Inactive)
REMARK    1  A    between atoms: O1_2  and  C2_3 
REMARK    2  A    between atoms: C3_4  and  C4_5 
REMARK    3  A    between atoms: C5_6  and  C6_7 
REMARK    4  A    between atoms: N4_25  and  C19_26 
REMARK    5  A    between atoms: C19_26  and  C20_27 
REMARK    6  A    between atoms: C20_27  and  C21_28 
REMARK    7  A    between atoms: C21_28  and  C22_29 
REMARK    8  A    between atoms: C25_32  and  N5_33 
ROOT
HETATM    1  C6  UNL     1       5.126  -5.103  -1.491  1.00  0.00     0.019 A 
HETATM    2  C7  UNL     1       3.931  -5.414  -2.133  1.00  0.00     0.021 A 
HETATM    3  C8  UNL     1       2.893  -4.522  -2.145  1.00  0.00     0.003 A 
HETATM    4  C9  UNL     1       2.996  -3.298  -1.528  1.00  0.00     0.023 A 
HETATM    5  C10 UNL     1       4.175  -2.993  -0.895  1.00  0.00     0.046 A 
HETATM    6  C11 UNL     1       4.373  -1.738  -0.223  1.00  0.00     0.099 C 
HETATM    7  N1  UNL     1       4.532  -0.718   0.301  1.00  0.00    -0.191 NA
HETATM    8  C12 UNL     1       5.244  -3.886  -0.870  1.00  0.00     0.043 A 
ENDROOT
BRANCH   1   9
HETATM    9  C5  UNL     1       6.207  -6.035  -1.479  1.00  0.00    -0.061 C 
HETATM   10  C4  UNL     1       7.135  -6.842  -1.490  1.00  0.00    -0.059 C 
BRANCH  10  11
HETATM   11  C3  UNL     1       8.241  -7.759  -1.513  1.00  0.00     0.052 A 
HETATM   12  C2  UNL     1       8.710  -8.236  -2.750  1.00  0.00     0.101 A 
HETATM   13  C31 UNL     1       9.765  -9.076  -2.738  1.00  0.00     0.055 A 
HETATM   14  C15 UNL     1      10.354  -9.483  -1.536  1.00  0.00     0.047 A 
HETATM   15  C30 UNL     1      10.286  -9.607  -3.900  1.00  0.00     0.079 A 
HETATM   16  C14 UNL     1       9.866  -9.002  -0.333  1.00  0.00     0.032 A 
HETATM   17  N2  UNL     1      11.358 -10.378  -1.504  1.00  0.00    -0.363 N 
HETATM   18  C13 UNL     1       8.820  -8.143  -0.340  1.00  0.00     0.026 A 
HETATM   19  C16 UNL     1      11.862 -10.923  -2.599  1.00  0.00     0.120 A 
ATOM     20  H2  UNL     1      11.746 -10.647  -0.599  1.00  0.00     0.165 HD
HETATM   21  C17 UNL     1      11.335 -10.540  -3.819  1.00  0.00     0.076 A 
HETATM   22  N3  UNL     1      11.703 -10.834  -5.061  1.00  0.00    -0.349 N 
HETATM   23  C18 UNL     1      10.964 -10.127  -5.878  1.00  0.00     0.183 A 
ATOM     24  H3  UNL     1      12.433 -11.494  -5.330  1.00  0.00     0.166 HD
HETATM   25  N4  UNL     1      10.059  -9.322  -5.165  1.00  0.00    -0.340 N 
BRANCH  12  26
HETATM   26  O1  UNL     1       7.954  -7.764  -3.783  1.00  0.00    -0.353 OA
HETATM   27  C1  UNL     1       6.741  -8.567  -4.106  1.00  0.00     0.210 C 
ENDBRANCH  12  26
BRANCH  25  28
HETATM   28  C19 UNL     1       9.463  -8.297  -5.940  1.00  0.00     0.130 C 
BRANCH  28  29
HETATM   29  C20 UNL     1      10.526  -7.088  -5.980  1.00  0.00     0.026 C 
BRANCH  29  30
HETATM   30  C21 UNL     1      10.101  -6.171  -7.057  1.00  0.00     0.058 C 
BRANCH  30  31
HETATM   31  C22 UNL     1      10.931  -6.209  -8.286  1.00  0.00     0.009 A 
HETATM   32  C23 UNL     1      11.132  -7.414  -8.973  1.00  0.00     0.041 A 
HETATM   33  C24 UNL     1      11.895  -7.504 -10.104  1.00  0.00     0.021 A 
HETATM   34  C25 UNL     1      12.112  -8.669 -10.802  1.00  0.00     0.110 A 
HETATM   35  C28 UNL     1      12.493  -6.348 -10.589  1.00  0.00    -0.005 A 
HETATM   36  N6  UNL     1      12.890  -8.681 -11.929  1.00  0.00    -0.352 N 
HETATM   37  C26 UNL     1      13.474  -7.578 -12.410  1.00  0.00     0.090 A 
ATOM     38  H6  UNL     1      13.030  -9.564 -12.420  1.00  0.00     0.166 HD
HETATM   39  C27 UNL     1      13.278  -6.395 -11.738  1.00  0.00     0.031 A 
HETATM   40  C29 UNL     1      12.285  -5.177  -9.903  1.00  0.00     0.100 A 
HETATM   41  N7  UNL     1      11.535  -5.123  -8.800  1.00  0.00    -0.368 N 
ATOM     42  H7  UNL     1      11.415  -4.225  -8.331  1.00  0.00     0.165 HD
BRANCH  34  43
HETATM   43  N5  UNL     1      11.598  -9.753 -10.414  1.00  0.00    -0.385 N 
ATOM     44  H52 UNL     1      10.857 -10.170 -10.978  1.00  0.00     0.157 HD
ATOM     45  H51 UNL     1      11.920 -10.200  -9.555  1.00  0.00     0.157 HD
ENDBRANCH  34  43
ENDBRANCH  30  31
ENDBRANCH  29  30
ENDBRANCH  28  29
ENDBRANCH  25  28
ENDBRANCH  10  11
ENDBRANCH   1   9
TORSDOF 8
ENDMDL
MODEL 2
REMARK VINA RESULT: -11.756311337      3.009      5.051
REMARK  8 active torsions:
REMARK  status: ('A' for Active; 'I' for Inactive)
REMARK    1  A    between atoms: O1_2  and  C2_3 
REMARK    2  A    between atoms: C3_4  and  C4_5 
REMARK    3  A    between atoms: C5_6  and  C6_7 
REMARK    4  A    between atoms: N4_25  and  C19_26 
REMARK    5  A    between atoms: C19_26  and  C20_27 
REMARK    6  A    between atoms: C20_27  and  C21_28 
REMARK    7  A    between atoms: C21_28  and  C22_29 
REMARK    8  A    between atoms: C25_32  and  N5_33 
ROOT
HETATM    1  C6  UNL     1       5.107  -4.927  -1.501  1.00  0.00     0.019 A 
HETATM    2  C7  UNL     1       3.962  -5.220  -2.235  1.00  0.00     0.021 A 
HETATM    3  C8  UNL     1       2.925  -4.328  -2.293  1.00  0.00     0.003 A 
HETATM    4  C9  UNL     1       2.980  -3.124  -1.633  1.00  0.00     0.023 A 
HETATM    5  C10 UNL     1       4.112  -2.837  -0.911  1.00  0.00     0.046 A 
HETATM    6  C11 UNL     1       4.259  -1.602  -0.190  1.00  0.00     0.099 C 
HETATM    7  N1  UNL     1       4.377  -0.598   0.374  1.00  0.00    -0.191 NA
HETATM    8  C12 UNL     1       5.179  -3.729  -0.838  1.00  0.00     0.043 A 
ENDROOT
BRANCH   1   9
HETATM    9  C5  UNL     1       6.188  -5.858  -1.442  1.00  0.00    -0.061 C 
HETATM   10  C4  UNL     1       7.107  -6.676  -1.397  1.00  0.00    -0.059 C 
BRANCH  10  11
HETATM   11  C3  UNL     1       8.187  -7.623  -1.379  1.00  0.00     0.052 A 
HETATM   12  C2  UNL     1       8.908  -7.862  -2.562  1.00  0.00     0.101 A 
HETATM   13  C31 UNL     1       9.931  -8.738  -2.506  1.00  0.00     0.055 A 
HETATM   14  C15 UNL     1      10.247  -9.409  -1.319  1.00  0.00     0.047 A 
HETATM   15  C30 UNL     1      10.688  -9.047  -3.618  1.00  0.00     0.079 A 
HETATM   16  C14 UNL     1       9.514  -9.158  -0.171  1.00  0.00     0.032 A 
HETATM   17  N2  UNL     1      11.215 -10.341  -1.265  1.00  0.00    -0.363 N 
HETATM   18  C13 UNL     1       8.497  -8.265  -0.217  1.00  0.00     0.026 A 
HETATM   19  C16 UNL     1      11.940 -10.677  -2.319  1.00  0.00     0.120 A 
ATOM     20  H2  UNL     1      11.398 -10.807  -0.375  1.00  0.00     0.165 HD
HETATM   21  C17 UNL     1      11.690 -10.029  -3.515  1.00  0.00     0.076 A 
HETATM   22  N3  UNL     1      12.315 -10.083  -4.686  1.00  0.00    -0.349 N 
HETATM   23  C18 UNL     1      11.773  -9.189  -5.473  1.00  0.00     0.183 A 
ATOM     24  H3  UNL     1      13.082 -10.710  -4.928  1.00  0.00     0.166 HD
HETATM   25  N4  UNL     1      10.740  -8.501  -4.814  1.00  0.00    -0.340 N 
BRANCH  12  26
HETATM   26  O1  UNL     1       8.395  -7.153  -3.608  1.00  0.00    -0.353 OA
HETATM   27  C1  UNL     1       7.278  -7.813  -4.341  1.00  0.00     0.210 C 
ENDBRANCH  12  26
BRANCH  25  28
HETATM   28  C19 UNL     1      10.330  -7.312  -5.465  1.00  0.00     0.130 C 
BRANCH  28  29
HETATM   29  C20 UNL     1      11.304  -6.147  -4.930  1.00  0.00     0.026 C 
BRANCH  29  30
HETATM   30  C21 UNL     1      10.918  -4.903  -5.626  1.00  0.00     0.058 C 
BRANCH  30  31
HETATM   31  C22 UNL     1       9.897  -4.080  -4.932  1.00  0.00     0.009 A 
HETATM   32  C23 UNL     1       9.392  -2.919  -5.530  1.00  0.00     0.041 A 
HETATM   33  C24 UNL     1       8.457  -2.121  -4.930  1.00  0.00     0.021 A 
HETATM   34  C25 UNL     1       7.940  -0.976  -5.489  1.00  0.00     0.110 A 
HETATM   35  C28 UNL     1       7.991  -2.484  -3.673  1.00  0.00    -0.005 A 
HETATM   36  N6  UNL     1       7.005  -0.228  -4.826  1.00  0.00    -0.352 N 
HETATM   37  C26 UNL     1       6.545  -0.562  -3.615  1.00  0.00     0.090 A 
ATOM     38  H6  UNL     1       6.645   0.617  -5.271  1.00  0.00     0.166 HD
HETATM   39  C27 UNL     1       7.038  -1.702  -3.026  1.00  0.00     0.031 A 
HETATM   40  C29 UNL     1       8.497  -3.626  -3.102  1.00  0.00     0.100 A 
HETATM   41  N7  UNL     1       9.411  -4.383  -3.715  1.00  0.00    -0.368 N 
ATOM     42  H7  UNL     1       9.752  -5.221  -3.243  1.00  0.00     0.165 HD
BRANCH  34  43
HETATM   43  N5  UNL     1       8.322  -0.591  -6.628  1.00  0.00    -0.385 N 
ATOM     44  H52 UNL     1       7.928  -1.045  -7.452  1.00  0.00     0.157 HD
ATOM     45  H51 UNL     1       9.008   0.159  -6.717  1.00  0.00     0.157 HD
ENDBRANCH  34  43
ENDBRANCH  30  31
ENDBRANCH  29  30
ENDBRANCH  28  29
ENDBRANCH  25  28
ENDBRANCH  10  11
ENDBRANCH   1   9
TORSDOF 8
ENDMDL
MODEL 3
REMARK VINA RESULT: -11.459264876      1.253      1.397
REMARK  8 active torsions:
REMARK  status: ('A' for Active; 'I' for Inactive)
REMARK    1  A    between atoms: O1_2  and  C2_3 
REMARK    2  A    between atoms: C3_4  and  C4_5 
REMARK    3  A    between atoms: C5_6  and  C6_7 
REMARK    4  A    between atoms: N4_25  and  C19_26 
REMARK    5  A    between atoms: C19_26  and  C20_27 
REMARK    6  A    between atoms: C20_27  and  C21_28 
REMARK    7  A    between atoms: C21_28  and  C22_29 
REMARK    8  A    between atoms: C25_32  and  N5_33 
ROOT
HETATM    1  C6  UNL     1       5.072  -4.989  -1.391  1.00  0.00     0.019 A 
HETATM    2  C7  UNL     1       3.899  -5.281  -2.081  1.00  0.00     0.021 A 
HETATM    3  C8  UNL     1       2.882  -4.367  -2.146  1.00  0.00     0.003 A 
HETATM    4  C9  UNL     1       2.985  -3.140  -1.536  1.00  0.00     0.023 A 
HETATM    5  C10 UNL     1       4.143  -2.853  -0.856  1.00  0.00     0.046 A 
HETATM    6  C11 UNL     1       4.339  -1.595  -0.188  1.00  0.00     0.099 C 
HETATM    7  N1  UNL     1       4.497  -0.574   0.332  1.00  0.00    -0.191 NA
HETATM    8  C12 UNL     1       5.190  -3.768  -0.778  1.00  0.00     0.043 A 
ENDROOT
BRANCH   1   9
HETATM    9  C5  UNL     1       6.132  -5.943  -1.326  1.00  0.00    -0.061 C 
HETATM   10  C4  UNL     1       7.036  -6.776  -1.285  1.00  0.00    -0.059 C 
BRANCH  10  11
HETATM   11  C3  UNL     1       8.110  -7.730  -1.261  1.00  0.00     0.052 A 
HETATM   12  C2  UNL     1       8.866  -7.939  -2.428  1.00  0.00     0.101 A 
HETATM   13  C31 UNL     1       9.882  -8.823  -2.365  1.00  0.00     0.055 A 
HETATM   14  C15 UNL     1      10.157  -9.530  -1.189  1.00  0.00     0.047 A 
HETATM   15  C30 UNL     1      10.671  -9.105  -3.462  1.00  0.00     0.079 A 
HETATM   16  C14 UNL     1       9.391  -9.308  -0.058  1.00  0.00     0.032 A 
HETATM   17  N2  UNL     1      11.119 -10.469  -1.132  1.00  0.00    -0.363 N 
HETATM   18  C13 UNL     1       8.381  -8.407  -0.109  1.00  0.00     0.026 A 
HETATM   19  C16 UNL     1      11.874 -10.779  -2.173  1.00  0.00     0.120 A 
ATOM     20  H2  UNL     1      11.271 -10.962  -0.252  1.00  0.00     0.165 HD
HETATM   21  C17 UNL     1      11.664 -10.096  -3.358  1.00  0.00     0.076 A 
HETATM   22  N3  UNL     1      12.324 -10.120  -4.510  1.00  0.00    -0.349 N 
HETATM   23  C18 UNL     1      11.812  -9.200  -5.287  1.00  0.00     0.183 A 
ATOM     24  H3  UNL     1      13.095 -10.744  -4.746  1.00  0.00     0.166 HD
HETATM   25  N4  UNL     1      10.762  -8.525  -4.640  1.00  0.00    -0.340 N 
BRANCH  12  26
HETATM   26  O1  UNL     1       8.389  -7.198  -3.468  1.00  0.00    -0.353 OA
HETATM   27  C1  UNL     1       7.286  -7.826  -4.249  1.00  0.00     0.210 C 
ENDBRANCH  12  26
BRANCH  25  28
HETATM   28  C19 UNL     1      10.379  -7.315  -5.269  1.00  0.00     0.130 C 
BRANCH  28  29
HETATM   29  C20 UNL     1      11.401  -6.189  -4.738  1.00  0.00     0.026 C 
BRANCH  29  30
HETATM   30  C21 UNL     1      11.701  -5.302  -5.881  1.00  0.00     0.058 C 
BRANCH  30  31
HETATM   31  C22 UNL     1      12.370  -5.956  -7.031  1.00  0.00     0.009 A 
HETATM   32  C23 UNL     1      11.723  -6.052  -8.271  1.00  0.00     0.041 A 
HETATM   33  C24 UNL     1      12.292  -6.651  -9.360  1.00  0.00     0.021 A 
HETATM   34  C25 UNL     1      11.686  -6.762 -10.590  1.00  0.00     0.110 A 
HETATM   35  C28 UNL     1      13.568  -7.186  -9.227  1.00  0.00    -0.005 A 
HETATM   36  N6  UNL     1      12.320  -7.378 -11.635  1.00  0.00    -0.352 N 
HETATM   37  C26 UNL     1      13.547  -7.898 -11.525  1.00  0.00     0.090 A 
ATOM     38  H6  UNL     1      11.839  -7.442 -12.533  1.00  0.00     0.166 HD
HETATM   39  C27 UNL     1      14.185  -7.804 -10.311  1.00  0.00     0.031 A 
HETATM   40  C29 UNL     1      14.186  -7.082  -8.005  1.00  0.00     0.100 A 
HETATM   41  N7  UNL     1      13.602  -6.491  -6.960  1.00  0.00    -0.368 N 
ATOM     42  H7  UNL     1      14.109  -6.443  -6.076  1.00  0.00     0.165 HD
BRANCH  34  43
HETATM   43  N5  UNL     1      10.529  -6.298 -10.777  1.00  0.00    -0.385 N 
ATOM     44  H52 UNL     1       9.735  -6.788 -10.364  1.00  0.00     0.157 HD
ATOM     45  H51 UNL     1      10.394  -5.450 -11.327  1.00  0.00     0.157 HD
ENDBRANCH  34  43
ENDBRANCH  30  31
ENDBRANCH  29  30
ENDBRANCH  28  29
ENDBRANCH  25  28
ENDBRANCH  10  11
ENDBRANCH   1   9
TORSDOF 8
ENDMDL
MODEL 4
REMARK VINA RESULT: -11.387847959      3.237      4.792
REMARK  8 active torsions:
REMARK  status: ('A' for Active; 'I' for Inactive)
REMARK    1  A    between atoms: O1_2  and  C2_3 
REMARK    2  A    between atoms: C3_4  and  C4_5 
REMARK    3  A    between atoms: C5_6  and  C6_7 
REMARK    4  A    between atoms: N4_25  and  C19_26 
REMARK    5  A    between atoms: C19_26  and  C20_27 
REMARK    6  A    between atoms: C20_27  and  C21_28 
REMARK    7  A    between atoms: C21_28  and  C22_29 
REMARK    8  A    between atoms: C25_32  and  N5_33 
ROOT
HETATM    1  C6  UNL     1       7.454  -2.935  -3.280  1.00  0.00     0.019 A 
HETATM    2  C7  UNL     1       7.476  -2.019  -4.328  1.00  0.00     0.021 A 
HETATM    3  C8  UNL     1       6.747  -0.863  -4.258  1.00  0.00     0.003 A 
HETATM    4  C9  UNL     1       5.975  -0.570  -3.159  1.00  0.00     0.023 A 
HETATM    5  C10 UNL     1       5.956  -1.475  -2.126  1.00  0.00     0.046 A 
HETATM    6  C11 UNL     1       5.178  -1.253  -0.937  1.00  0.00     0.099 C 
HETATM    7  N1  UNL     1       4.563  -1.059   0.024  1.00  0.00    -0.191 NA
HETATM    8  C12 UNL     1       6.689  -2.657  -2.176  1.00  0.00     0.043 A 
ENDROOT
BRANCH   1   9
HETATM    9  C5  UNL     1       8.215  -4.141  -3.355  1.00  0.00    -0.061 C 
HETATM   10  C4  UNL     1       8.853  -5.191  -3.418  1.00  0.00    -0.059 C 
BRANCH  10  11
HETATM   11  C3  UNL     1       9.595  -6.417  -3.527  1.00  0.00     0.052 A 
HETATM   12  C2  UNL     1       9.860  -6.946  -4.802  1.00  0.00     0.101 A 
HETATM   13  C31 UNL     1      10.579  -8.084  -4.870  1.00  0.00     0.055 A 
HETATM   14  C15 UNL     1      11.022  -8.733  -3.712  1.00  0.00     0.047 A 
HETATM   15  C30 UNL     1      10.878  -8.686  -6.076  1.00  0.00     0.079 A 
HETATM   16  C14 UNL     1      10.740  -8.191  -2.469  1.00  0.00     0.032 A 
HETATM   17  N2  UNL     1      11.675  -9.908  -3.761  1.00  0.00    -0.363 N 
HETATM   18  C13 UNL     1      10.034  -7.039  -2.395  1.00  0.00     0.026 A 
HETATM   19  C16 UNL     1      11.953 -10.521  -4.899  1.00  0.00     0.120 A 
ATOM     20  H2  UNL     1      11.967 -10.343  -2.885  1.00  0.00     0.165 HD
HETATM   21  C17 UNL     1      11.561  -9.915  -6.079  1.00  0.00     0.076 A 
HETATM   22  N3  UNL     1      11.792 -10.238  -7.347  1.00  0.00    -0.349 N 
HETATM   23  C18 UNL     1      11.314  -9.281  -8.100  1.00  0.00     0.183 A 
ATOM     24  H3  UNL     1      12.259 -11.083  -7.675  1.00  0.00     0.166 HD
HETATM   25  N4  UNL     1      10.736  -8.268  -7.315  1.00  0.00    -0.340 N 
BRANCH  12  26
HETATM   26  O1  UNL     1       9.285  -6.191  -5.782  1.00  0.00    -0.353 OA
HETATM   27  C1  UNL     1       7.875  -6.540  -6.113  1.00  0.00     0.210 C 
ENDBRANCH  12  26
BRANCH  25  28
HETATM   28  C19 UNL     1      10.498  -7.060  -8.016  1.00  0.00     0.130 C 
BRANCH  28  29
HETATM   29  C20 UNL     1      11.944  -6.502  -8.455  1.00  0.00     0.026 C 
BRANCH  29  30
HETATM   30  C21 UNL     1      12.581  -5.945  -7.245  1.00  0.00     0.058 C 
BRANCH  30  31
HETATM   31  C22 UNL     1      12.097  -4.604  -6.835  1.00  0.00     0.009 A 
HETATM   32  C23 UNL     1      12.129  -4.216  -5.489  1.00  0.00     0.041 A 
HETATM   33  C24 UNL     1      11.687  -2.996  -5.058  1.00  0.00     0.021 A 
HETATM   34  C25 UNL     1      11.705  -2.583  -3.746  1.00  0.00     0.110 A 
HETATM   35  C28 UNL     1      11.188  -2.105  -6.001  1.00  0.00    -0.005 A 
HETATM   36  N6  UNL     1      11.245  -1.343  -3.391  1.00  0.00    -0.352 N 
HETATM   37  C26 UNL     1      10.760  -0.474  -4.285  1.00  0.00     0.090 A 
ATOM     38  H6  UNL     1      11.272  -1.072  -2.408  1.00  0.00     0.166 HD
HETATM   39  C27 UNL     1      10.729  -0.852  -5.606  1.00  0.00     0.031 A 
HETATM   40  C29 UNL     1      11.165  -2.502  -7.315  1.00  0.00     0.100 A 
HETATM   41  N7  UNL     1      11.603  -3.703  -7.703  1.00  0.00    -0.368 N 
ATOM     42  H7  UNL     1      11.561  -3.945  -8.693  1.00  0.00     0.165 HD
BRANCH  34  43
HETATM   43  N5  UNL     1      12.145  -3.344  -2.842  1.00  0.00    -0.385 N 
ATOM     44  H52 UNL     1      12.295  -2.957  -1.911  1.00  0.00     0.157 HD
ATOM     45  H51 UNL     1      12.345  -4.324  -3.043  1.00  0.00     0.157 HD
ENDBRANCH  34  43
ENDBRANCH  30  31
ENDBRANCH  29  30
ENDBRANCH  28  29
ENDBRANCH  25  28
ENDBRANCH  10  11
ENDBRANCH   1   9
TORSDOF 8
ENDMDL
MODEL 5
REMARK VINA RESULT: -11.372229863      3.478      5.036
REMARK  8 active torsions:
REMARK  status: ('A' for Active; 'I' for Inactive)
REMARK    1  A    between atoms: O1_2  and  C2_3 
REMARK    2  A    between atoms: C3_4  and  C4_5 
REMARK    3  A    between atoms: C5_6  and  C6_7 
REMARK    4  A    between atoms: N4_25  and  C19_26 
REMARK    5  A    between atoms: C19_26  and  C20_27 
REMARK    6  A    between atoms: C20_27  and  C21_28 
REMARK    7  A    between atoms: C21_28  and  C22_29 
REMARK    8  A    between atoms: C25_32  and  N5_33 
ROOT
HETATM    1  C6  UNL     1       7.376  -3.004  -3.141  1.00  0.00     0.019 A 
HETATM    2  C7  UNL     1       6.740  -2.746  -1.931  1.00  0.00     0.021 A 
HETATM    3  C8  UNL     1       5.972  -1.624  -1.772  1.00  0.00     0.003 A 
HETATM    4  C9  UNL     1       5.806  -0.721  -2.795  1.00  0.00     0.023 A 
HETATM    5  C10 UNL     1       6.435  -0.978  -3.988  1.00  0.00     0.046 A 
HETATM    6  C11 UNL     1       6.318  -0.090  -5.113  1.00  0.00     0.099 C 
HETATM    7  N1  UNL     1       6.205   0.620  -6.020  1.00  0.00    -0.191 NA
HETATM    8  C12 UNL     1       7.220  -2.113  -4.172  1.00  0.00     0.043 A 
ENDROOT
BRANCH   1   9
HETATM    9  C5  UNL     1       8.176  -4.175  -3.305  1.00  0.00    -0.061 C 
HETATM   10  C4  UNL     1       8.853  -5.195  -3.434  1.00  0.00    -0.059 C 
BRANCH  10  11
HETATM   11  C3  UNL     1       9.621  -6.396  -3.610  1.00  0.00     0.052 A 
HETATM   12  C2  UNL     1       9.871  -6.864  -4.912  1.00  0.00     0.101 A 
HETATM   13  C31 UNL     1      10.616  -7.980  -5.044  1.00  0.00     0.055 A 
HETATM   14  C15 UNL     1      11.100  -8.665  -3.924  1.00  0.00     0.047 A 
HETATM   15  C30 UNL     1      10.902  -8.523  -6.280  1.00  0.00     0.079 A 
HETATM   16  C14 UNL     1      10.832  -8.183  -2.654  1.00  0.00     0.032 A 
HETATM   17  N2  UNL     1      11.781  -9.820  -4.037  1.00  0.00    -0.363 N 
HETATM   18  C13 UNL     1      10.100  -7.053  -2.516  1.00  0.00     0.026 A 
HETATM   19  C16 UNL     1      12.048 -10.378  -5.206  1.00  0.00     0.120 A 
ATOM     20  H2  UNL     1      12.103 -10.284  -3.187  1.00  0.00     0.165 HD
HETATM   21  C17 UNL     1      11.616  -9.733  -6.350  1.00  0.00     0.076 A 
HETATM   22  N3  UNL     1      11.825  -9.997  -7.635  1.00  0.00    -0.349 N 
HETATM   23  C18 UNL     1      11.307  -9.021  -8.336  1.00  0.00     0.183 A 
ATOM     24  H3  UNL     1      12.306 -10.815  -8.008  1.00  0.00     0.166 HD
HETATM   25  N4  UNL     1      10.723  -8.057  -7.498  1.00  0.00    -0.340 N 
BRANCH  12  26
HETATM   26  O1  UNL     1       9.256  -6.084  -5.847  1.00  0.00    -0.353 OA
HETATM   27  C1  UNL     1       7.848  -6.455  -6.164  1.00  0.00     0.210 C 
ENDBRANCH  12  26
BRANCH  25  28
HETATM   28  C19 UNL     1      10.440  -6.827  -8.141  1.00  0.00     0.130 C 
BRANCH  28  29
HETATM   29  C20 UNL     1      11.854  -6.253  -8.657  1.00  0.00     0.026 C 
BRANCH  29  30
HETATM   30  C21 UNL     1      12.544  -5.679  -7.484  1.00  0.00     0.058 C 
BRANCH  30  31
HETATM   31  C22 UNL     1      11.984  -4.401  -6.984  1.00  0.00     0.009 A 
HETATM   32  C23 UNL     1      12.052  -4.078  -5.622  1.00  0.00     0.041 A 
HETATM   33  C24 UNL     1      11.545  -2.917  -5.108  1.00  0.00     0.021 A 
HETATM   34  C25 UNL     1      11.596  -2.569  -3.778  1.00  0.00     0.110 A 
HETATM   35  C28 UNL     1      10.937  -2.021  -5.979  1.00  0.00    -0.005 A 
HETATM   36  N6  UNL     1      11.064  -1.386  -3.338  1.00  0.00    -0.352 N 
HETATM   37  C26 UNL     1      10.476  -0.513  -4.162  1.00  0.00     0.090 A 
ATOM     38  H6  UNL     1      11.119  -1.163  -2.344  1.00  0.00     0.166 HD
HETATM   39  C27 UNL     1      10.407  -0.827  -5.499  1.00  0.00     0.031 A 
HETATM   40  C29 UNL     1      10.879  -2.354  -7.310  1.00  0.00     0.100 A 
HETATM   41  N7  UNL     1      11.385  -3.498  -7.779  1.00  0.00    -0.368 N 
ATOM     42  H7  UNL     1      11.313  -3.693  -8.778  1.00  0.00     0.165 HD
BRANCH  34  43
HETATM   43  N5  UNL     1      12.134  -3.338  -2.936  1.00  0.00    -0.385 N 
ATOM     44  H52 UNL     1      12.009  -4.344  -3.046  1.00  0.00     0.157 HD
ATOM     45  H51 UNL     1      12.681  -2.957  -2.164  1.00  0.00     0.157 HD
ENDBRANCH  34  43
ENDBRANCH  30  31
ENDBRANCH  29  30
ENDBRANCH  28  29
ENDBRANCH  25  28
ENDBRANCH  10  11
ENDBRANCH   1   9
TORSDOF 8
ENDMDL
