MODEL 1
REMARK VINA RESULT: -10.893529106      0.000      0.000
REMARK  6 active torsions:
REMARK  status: ('A' for Active; 'I' for Inactive)
REMARK    1  A    between atoms: N1_1  and  S1_4 
REMARK    2  A    between atoms: S1_4  and  C1_7 
REMARK    3  A    between atoms: C4_10  and  N2_11 
REMARK    4  A    between atoms: N2_11  and  C5_13 
REMARK    5  A    between atoms: N4_22  and  C11_23 
REMARK    6  A    between atoms: C11_23  and  C12_24 
ROOT
HETATM    1  C5  UNL     1      10.463  -5.715  -5.340  1.00  0.00     0.119 A 
HETATM    2  N3  UNL     1      10.103  -6.969  -5.019  1.00  0.00    -0.327 N 
ATOM      3  H3  UNL     1       9.821  -7.575  -5.790  1.00  0.00     0.169 HD
HETATM    4  C6  UNL     1      10.078  -7.500  -3.800  1.00  0.00     0.123 A 
HETATM    5  C7  UNL     1      10.474  -6.630  -2.786  1.00  0.00     0.027 A 
HETATM    6  C8  UNL     1      10.535  -7.006  -1.476  1.00  0.00     0.022 A 
HETATM    7  C9  UNL     1      10.192  -8.293  -1.146  1.00  0.00     0.075 A 
HETATM    8  C10 UNL     1       9.805  -9.131  -2.165  1.00  0.00     0.249 A 
HETATM    9  O3  UNL     1       9.491 -10.315  -1.889  1.00  0.00    -0.268 OA
HETATM   10  N4  UNL     1       9.744  -8.754  -3.477  1.00  0.00    -0.295 N 
HETATM   11  C17 UNL     1      10.850  -5.327  -3.091  1.00  0.00     0.034 A 
HETATM   12  S2  UNL     1      11.374  -4.037  -2.110  1.00  0.00    -0.088 SA
HETATM   13  C18 UNL     1      11.605  -2.859  -3.323  1.00  0.00     0.017 A 
HETATM   14  C19 UNL     1      12.029  -1.544  -3.246  1.00  0.00     0.020 A 
HETATM   15  C20 UNL     1      12.133  -0.785  -4.404  1.00  0.00     0.001 A 
HETATM   16  C21 UNL     1      11.798  -1.409  -5.577  1.00  0.00     0.001 A 
HETATM   17  C22 UNL     1      11.379  -2.714  -5.629  1.00  0.00     0.014 A 
HETATM   18  C23 UNL     1      11.262  -3.510  -4.481  1.00  0.00    -0.004 A 
HETATM   19  C24 UNL     1      10.868  -4.798  -4.361  1.00  0.00     0.038 A 
ENDROOT
BRANCH   1  20
HETATM   20  N2  UNL     1      10.419  -5.388  -6.596  1.00  0.00    -0.342 N 
ATOM     21  H2  UNL     1       9.813  -4.612  -6.859  1.00  0.00     0.167 HD
BRANCH  20  22
HETATM   22  C4  UNL     1      11.133  -6.013  -7.608  1.00  0.00     0.033 A 
HETATM   23  C3  UNL     1      10.478  -6.534  -8.699  1.00  0.00     0.031 A 
HETATM   24  C2  UNL     1      11.168  -7.170  -9.734  1.00  0.00     0.027 A 
HETATM   25  C1  UNL     1      12.537  -7.279  -9.665  1.00  0.00     0.079 A 
HETATM   26  C26 UNL     1      13.205  -6.770  -8.593  1.00  0.00     0.027 A 
HETATM   27  C25 UNL     1      12.504  -6.136  -7.560  1.00  0.00     0.031 A 
BRANCH  25  28
HETATM   28  S1  UNL     1      13.365  -8.091 -10.999  1.00  0.00     0.256 S 
HETATM   29  O1  UNL     1      12.723  -9.416 -11.288  1.00  0.00    -0.201 OA
HETATM   30  O2  UNL     1      14.804  -8.331 -10.677  1.00  0.00    -0.201 OA
BRANCH  28  31
HETATM   31  N1  UNL     1      13.284  -7.121 -12.434  1.00  0.00    -0.324 N 
ATOM     32  H12 UNL     1      12.854  -7.409 -13.312  1.00  0.00     0.169 HD
ATOM     33  H11 UNL     1      13.736  -6.227 -12.243  1.00  0.00     0.169 HD
ENDBRANCH  28  31
ENDBRANCH  25  28
ENDBRANCH  20  22
ENDBRANCH   1  20
BRANCH  10  34
HETATM   34  C11 UNL     1       9.299  -9.661  -4.490  1.00  0.00     0.174 C 
BRANCH  34  35
HETATM   35  C12 UNL     1      10.437 -10.433  -5.049  1.00  0.00    -0.024 A 
HETATM   36  C13 UNL     1      10.840 -11.629  -4.431  1.00  0.00     0.011 A 
HETATM   37  C14 UNL     1      11.884 -12.361  -4.938  1.00  0.00     0.018 A 
HETATM   38  C15 UNL     1      12.584 -11.976  -6.054  1.00  0.00     0.087 A 
HETATM   39  N5  UNL     1      12.206 -10.843  -6.638  1.00  0.00    -0.375 N 
HETATM   40  C16 UNL     1      11.170 -10.091  -6.160  1.00  0.00     0.096 A 
ATOM     41  H5  UNL     1      12.704 -10.526  -7.470  1.00  0.00     0.164 HD
ENDBRANCH  34  35
ENDBRANCH  10  34
TORSDOF 6
ENDMDL
MODEL 2
REMARK VINA RESULT: -10.825461212      4.133      6.608
REMARK  6 active torsions:
REMARK  status: ('A' for Active; 'I' for Inactive)
REMARK    1  A    between atoms: N1_1  and  S1_4 
REMARK    2  A    between atoms: S1_4  and  C1_7 
REMARK    3  A    between atoms: C4_10  and  N2_11 
REMARK    4  A    between atoms: N2_11  and  C5_13 
REMARK    5  A    between atoms: N4_22  and  C11_23 
REMARK    6  A    between atoms: C11_23  and  C12_24 
ROOT
HETATM    1  C5  UNL     1       8.218  -4.814  -3.065  1.00  0.00     0.119 A 
HETATM    2  N3  UNL     1       9.292  -4.075  -3.389  1.00  0.00    -0.327 N 
ATOM      3  H3  UNL     1      10.150  -4.584  -3.604  1.00  0.00     0.169 HD
HETATM    4  C6  UNL     1       9.350  -2.748  -3.459  1.00  0.00     0.123 A 
HETATM    5  C7  UNL     1       8.152  -2.104  -3.158  1.00  0.00     0.027 A 
HETATM    6  C8  UNL     1       8.014  -0.747  -3.202  1.00  0.00     0.022 A 
HETATM    7  C9  UNL     1       9.101   0.011  -3.556  1.00  0.00     0.075 A 
HETATM    8  C10 UNL     1      10.271  -0.649  -3.848  1.00  0.00     0.249 A 
HETATM    9  O3  UNL     1      11.279   0.023  -4.179  1.00  0.00    -0.268 OA
HETATM   10  N4  UNL     1      10.409  -2.007  -3.804  1.00  0.00    -0.295 N 
HETATM   11  C17 UNL     1       7.025  -2.846  -2.819  1.00  0.00     0.034 A 
HETATM   12  S2  UNL     1       5.441  -2.380  -2.404  1.00  0.00    -0.088 SA
HETATM   13  C18 UNL     1       4.766  -3.927  -2.156  1.00  0.00     0.017 A 
HETATM   14  C19 UNL     1       3.489  -4.316  -1.789  1.00  0.00     0.020 A 
HETATM   15  C20 UNL     1       3.193  -5.665  -1.652  1.00  0.00     0.001 A 
HETATM   16  C21 UNL     1       4.215  -6.545  -1.897  1.00  0.00     0.001 A 
HETATM   17  C22 UNL     1       5.474  -6.136  -2.259  1.00  0.00     0.014 A 
HETATM   18  C23 UNL     1       5.809  -4.783  -2.406  1.00  0.00    -0.004 A 
HETATM   19  C24 UNL     1       6.989  -4.220  -2.753  1.00  0.00     0.038 A 
ENDROOT
BRANCH   1  20
HETATM   20  N2  UNL     1       8.368  -6.105  -3.054  1.00  0.00    -0.342 N 
ATOM     21  H2  UNL     1       7.889  -6.627  -2.321  1.00  0.00     0.167 HD
BRANCH  20  22
HETATM   22  C4  UNL     1       9.129  -6.827  -3.961  1.00  0.00     0.033 A 
HETATM   23  C3  UNL     1       8.675  -7.024  -5.244  1.00  0.00     0.031 A 
HETATM   24  C2  UNL     1       9.417  -7.747  -6.181  1.00  0.00     0.027 A 
HETATM   25  C1  UNL     1      10.634  -8.275  -5.816  1.00  0.00     0.079 A 
HETATM   26  C26 UNL     1      11.102  -8.091  -4.551  1.00  0.00     0.027 A 
HETATM   27  C25 UNL     1      10.349  -7.365  -3.619  1.00  0.00     0.031 A 
BRANCH  25  28
HETATM   28  S1  UNL     1      11.535  -9.181  -7.038  1.00  0.00     0.256 S 
HETATM   29  O1  UNL     1      11.319  -8.587  -8.398  1.00  0.00    -0.201 OA
HETATM   30  O2  UNL     1      11.104 -10.610  -7.079  1.00  0.00    -0.201 OA
BRANCH  28  31
HETATM   31  N1  UNL     1      13.232  -9.136  -6.685  1.00  0.00    -0.324 N 
ATOM     32  H12 UNL     1      13.968  -9.479  -7.304  1.00  0.00     0.169 HD
ATOM     33  H11 UNL     1      13.359  -8.714  -5.766  1.00  0.00     0.169 HD
ENDBRANCH  28  31
ENDBRANCH  25  28
ENDBRANCH  20  22
ENDBRANCH   1  20
BRANCH  10  34
HETATM   34  C11 UNL     1      11.663  -2.636  -4.084  1.00  0.00     0.174 C 
BRANCH  34  35
HETATM   35  C12 UNL     1      11.669  -3.225  -5.447  1.00  0.00    -0.024 A 
HETATM   36  C13 UNL     1      12.145  -4.533  -5.640  1.00  0.00     0.011 A 
HETATM   37  C14 UNL     1      12.151  -5.097  -6.890  1.00  0.00     0.018 A 
HETATM   38  C15 UNL     1      11.703  -4.432  -8.005  1.00  0.00     0.087 A 
HETATM   39  N5  UNL     1      11.255  -3.193  -7.823  1.00  0.00    -0.375 N 
HETATM   40  C16 UNL     1      11.235  -2.602  -6.591  1.00  0.00     0.096 A 
ATOM     41  H5  UNL     1      10.915  -2.668  -8.629  1.00  0.00     0.164 HD
ENDBRANCH  34  35
ENDBRANCH  10  34
TORSDOF 6
ENDMDL
MODEL 3
REMARK VINA RESULT: -10.707866649      4.141      7.118
REMARK  6 active torsions:
REMARK  status: ('A' for Active; 'I' for Inactive)
REMARK    1  A    between atoms: N1_1  and  S1_4 
REMARK    2  A    between atoms: S1_4  and  C1_7 
REMARK    3  A    between atoms: C4_10  and  N2_11 
REMARK    4  A    between atoms: N2_11  and  C5_13 
REMARK    5  A    between atoms: N4_22  and  C11_23 
REMARK    6  A    between atoms: C11_23  and  C12_24 
ROOT
HETATM    1  C5  UNL     1       7.644  -4.819  -2.782  1.00  0.00     0.119 A 
HETATM    2  N3  UNL     1       8.849  -4.689  -3.362  1.00  0.00    -0.327 N 
ATOM      3  H3  UNL     1       9.323  -5.551  -3.630  1.00  0.00     0.169 HD
HETATM    4  C6  UNL     1       9.485  -3.550  -3.622  1.00  0.00     0.123 A 
HETATM    5  C7  UNL     1       8.793  -2.404  -3.236  1.00  0.00     0.027 A 
HETATM    6  C8  UNL     1       9.278  -1.145  -3.445  1.00  0.00     0.022 A 
HETATM    7  C9  UNL     1      10.497  -1.006  -4.059  1.00  0.00     0.075 A 
HETATM    8  C10 UNL     1      11.159  -2.153  -4.429  1.00  0.00     0.249 A 
HETATM    9  O3  UNL     1      12.275  -2.051  -4.997  1.00  0.00    -0.268 OA
HETATM   10  N4  UNL     1      10.674  -3.412  -4.220  1.00  0.00    -0.295 N 
HETATM   11  C17 UNL     1       7.544  -2.511  -2.633  1.00  0.00     0.034 A 
HETATM   12  S2  UNL     1       6.458  -1.335  -2.055  1.00  0.00    -0.088 SA
HETATM   13  C18 UNL     1       5.221  -2.369  -1.497  1.00  0.00     0.017 A 
HETATM   14  C19 UNL     1       4.006  -2.093  -0.894  1.00  0.00     0.020 A 
HETATM   15  C20 UNL     1       3.165  -3.135  -0.529  1.00  0.00     0.001 A 
HETATM   16  C21 UNL     1       3.609  -4.404  -0.801  1.00  0.00     0.001 A 
HETATM   17  C22 UNL     1       4.817  -4.653  -1.400  1.00  0.00     0.014 A 
HETATM   18  C23 UNL     1       5.692  -3.626  -1.780  1.00  0.00    -0.004 A 
HETATM   19  C24 UNL     1       6.904  -3.701  -2.374  1.00  0.00     0.038 A 
ENDROOT
BRANCH   1  20
HETATM   20  N2  UNL     1       7.194  -6.026  -2.616  1.00  0.00    -0.342 N 
ATOM     21  H2  UNL     1       6.183  -6.147  -2.557  1.00  0.00     0.167 HD
BRANCH  20  22
HETATM   22  C4  UNL     1       7.981  -7.163  -2.511  1.00  0.00     0.033 A 
HETATM   23  C3  UNL     1       8.068  -8.045  -3.562  1.00  0.00     0.031 A 
HETATM   24  C2  UNL     1       8.851  -9.199  -3.489  1.00  0.00     0.027 A 
HETATM   25  C1  UNL     1       9.557  -9.463  -2.338  1.00  0.00     0.079 A 
HETATM   26  C26 UNL     1       9.485  -8.603  -1.285  1.00  0.00     0.027 A 
HETATM   27  C25 UNL     1       8.696  -7.449  -1.369  1.00  0.00     0.031 A 
BRANCH  25  28
HETATM   28  S1  UNL     1      10.534 -10.935  -2.293  1.00  0.00     0.256 S 
HETATM   29  O1  UNL     1      11.988 -10.606  -2.463  1.00  0.00    -0.201 OA
HETATM   30  O2  UNL     1      10.140 -11.879  -3.382  1.00  0.00    -0.201 OA
BRANCH  28  31
HETATM   31  N1  UNL     1      10.331 -11.744  -0.773  1.00  0.00    -0.324 N 
ATOM     32  H12 UNL     1      10.699 -12.669  -0.548  1.00  0.00     0.169 HD
ATOM     33  H11 UNL     1       9.788 -11.140  -0.158  1.00  0.00     0.169 HD
ENDBRANCH  28  31
ENDBRANCH  25  28
ENDBRANCH  20  22
ENDBRANCH   1  20
BRANCH  10  34
HETATM   34  C11 UNL     1      11.426  -4.570  -4.595  1.00  0.00     0.174 C 
BRANCH  34  35
HETATM   35  C12 UNL     1      10.883  -5.177  -5.836  1.00  0.00    -0.024 A 
HETATM   36  C13 UNL     1      10.509  -6.532  -5.845  1.00  0.00     0.011 A 
HETATM   37  C14 UNL     1       9.997  -7.108  -6.980  1.00  0.00     0.018 A 
HETATM   38  C15 UNL     1       9.824  -6.411  -8.151  1.00  0.00     0.087 A 
HETATM   39  N5  UNL     1      10.179  -5.129  -8.143  1.00  0.00    -0.375 N 
HETATM   40  C16 UNL     1      10.692  -4.525  -7.030  1.00  0.00     0.096 A 
ATOM     41  H5  UNL     1      10.065  -4.581  -8.996  1.00  0.00     0.164 HD
ENDBRANCH  34  35
ENDBRANCH  10  34
TORSDOF 6
ENDMDL
MODEL 4
REMARK VINA RESULT: -10.642642865      2.573      3.306
REMARK  6 active torsions:
REMARK  status: ('A' for Active; 'I' for Inactive)
REMARK    1  A    between atoms: N1_1  and  S1_4 
REMARK    2  A    between atoms: S1_4  and  C1_7 
REMARK    3  A    between atoms: C4_10  and  N2_11 
REMARK    4  A    between atoms: N2_11  and  C5_13 
REMARK    5  A    between atoms: N4_22  and  C11_23 
REMARK    6  A    between atoms: C11_23  and  C12_24 
ROOT
HETATM    1  C5  UNL     1       9.795  -5.943  -4.076  1.00  0.00     0.119 A 
HETATM    2  N3  UNL     1       8.964  -6.981  -3.885  1.00  0.00    -0.327 N 
ATOM      3  H3  UNL     1       9.317  -7.903  -4.144  1.00  0.00     0.169 HD
HETATM    4  C6  UNL     1       7.730  -6.930  -3.392  1.00  0.00     0.123 A 
HETATM    5  C7  UNL     1       7.299  -5.649  -3.054  1.00  0.00     0.027 A 
HETATM    6  C8  UNL     1       6.071  -5.404  -2.511  1.00  0.00     0.022 A 
HETATM    7  C9  UNL     1       5.229  -6.465  -2.291  1.00  0.00     0.075 A 
HETATM    8  C10 UNL     1       5.678  -7.719  -2.634  1.00  0.00     0.249 A 
HETATM    9  O3  UNL     1       4.927  -8.705  -2.438  1.00  0.00    -0.268 OA
HETATM   10  N4  UNL     1       6.907  -7.963  -3.177  1.00  0.00    -0.295 N 
HETATM   11  C17 UNL     1       8.139  -4.557  -3.242  1.00  0.00     0.034 A 
HETATM   12  S2  UNL     1       7.925  -2.895  -2.940  1.00  0.00    -0.088 SA
HETATM   13  C18 UNL     1       9.448  -2.332  -3.467  1.00  0.00     0.017 A 
HETATM   14  C19 UNL     1       9.982  -1.056  -3.512  1.00  0.00     0.020 A 
HETATM   15  C20 UNL     1      11.269  -0.864  -3.995  1.00  0.00     0.001 A 
HETATM   16  C21 UNL     1      11.942  -1.985  -4.406  1.00  0.00     0.001 A 
HETATM   17  C22 UNL     1      11.392  -3.241  -4.353  1.00  0.00     0.014 A 
HETATM   18  C23 UNL     1      10.096  -3.472  -3.872  1.00  0.00    -0.004 A 
HETATM   19  C24 UNL     1       9.414  -4.633  -3.755  1.00  0.00     0.038 A 
ENDROOT
BRANCH   1  20
HETATM   20  N2  UNL     1      10.967  -6.204  -4.572  1.00  0.00    -0.342 N 
ATOM     21  H2  UNL     1      11.771  -6.103  -3.955  1.00  0.00     0.167 HD
BRANCH  20  22
HETATM   22  C4  UNL     1      11.208  -6.611  -5.875  1.00  0.00     0.033 A 
HETATM   23  C3  UNL     1      11.915  -7.764  -6.123  1.00  0.00     0.031 A 
HETATM   24  C2  UNL     1      12.174  -8.200  -7.424  1.00  0.00     0.027 A 
HETATM   25  C1  UNL     1      11.712  -7.461  -8.489  1.00  0.00     0.079 A 
HETATM   26  C26 UNL     1      11.009  -6.317  -8.266  1.00  0.00     0.027 A 
HETATM   27  C25 UNL     1      10.755  -5.888  -6.957  1.00  0.00     0.031 A 
BRANCH  25  28
HETATM   28  S1  UNL     1      12.065  -8.055 -10.116  1.00  0.00     0.256 S 
HETATM   29  O1  UNL     1      13.541  -8.014 -10.382  1.00  0.00    -0.201 OA
HETATM   30  O2  UNL     1      11.381  -7.227 -11.154  1.00  0.00    -0.201 OA
BRANCH  28  31
HETATM   31  N1  UNL     1      11.525  -9.694 -10.286  1.00  0.00    -0.324 N 
ATOM     32  H12 UNL     1      12.104 -10.520 -10.136  1.00  0.00     0.169 HD
ATOM     33  H11 UNL     1      10.542  -9.681 -10.558  1.00  0.00     0.169 HD
ENDBRANCH  28  31
ENDBRANCH  25  28
ENDBRANCH  20  22
ENDBRANCH   1  20
BRANCH  10  34
HETATM   34  C11 UNL     1       7.306  -9.286  -3.547  1.00  0.00     0.174 C 
BRANCH  34  35
HETATM   35  C12 UNL     1       8.233  -9.862  -2.541  1.00  0.00    -0.024 A 
HETATM   36  C13 UNL     1       9.450 -10.427  -2.957  1.00  0.00     0.011 A 
HETATM   37  C14 UNL     1      10.324 -10.957  -2.041  1.00  0.00     0.018 A 
HETATM   38  C15 UNL     1      10.066 -10.967  -0.692  1.00  0.00     0.087 A 
HETATM   39  N5  UNL     1       8.913 -10.434  -0.298  1.00  0.00    -0.375 N 
HETATM   40  C16 UNL     1       8.021  -9.898  -1.184  1.00  0.00     0.096 A 
ATOM     41  H5  UNL     1       8.688 -10.426   0.697  1.00  0.00     0.164 HD
ENDBRANCH  34  35
ENDBRANCH  10  34
TORSDOF 6
ENDMDL
MODEL 5
REMARK VINA RESULT: -10.599477894      3.642      6.519
REMARK  6 active torsions:
REMARK  status: ('A' for Active; 'I' for Inactive)
REMARK    1  A    between atoms: N1_1  and  S1_4 
REMARK    2  A    between atoms: S1_4  and  C1_7 
REMARK    3  A    between atoms: C4_10  and  N2_11 
REMARK    4  A    between atoms: N2_11  and  C5_13 
REMARK    5  A    between atoms: N4_22  and  C11_23 
REMARK    6  A    between atoms: C11_23  and  C12_24 
ROOT
HETATM    1  C5  UNL     1       8.822  -5.501  -3.421  1.00  0.00     0.119 A 
HETATM    2  N3  UNL     1       9.278  -4.240  -3.497  1.00  0.00    -0.327 N 
ATOM      3  H3  UNL     1      10.243  -4.120  -3.806  1.00  0.00     0.169 HD
HETATM    4  C6  UNL     1       8.600  -3.132  -3.211  1.00  0.00     0.123 A 
HETATM    5  C7  UNL     1       7.289  -3.353  -2.795  1.00  0.00     0.027 A 
HETATM    6  C8  UNL     1       6.434  -2.336  -2.483  1.00  0.00     0.022 A 
HETATM    7  C9  UNL     1       6.888  -1.045  -2.583  1.00  0.00     0.075 A 
HETATM    8  C10 UNL     1       8.186  -0.854  -2.996  1.00  0.00     0.249 A 
HETATM    9  O3  UNL     1       8.622   0.318  -3.099  1.00  0.00    -0.268 OA
HETATM   10  N4  UNL     1       9.040  -1.873  -3.307  1.00  0.00    -0.295 N 
HETATM   11  C17 UNL     1       6.792  -4.649  -2.707  1.00  0.00     0.034 A 
HETATM   12  S2  UNL     1       5.268  -5.252  -2.243  1.00  0.00    -0.088 SA
HETATM   13  C18 UNL     1       5.573  -6.919  -2.438  1.00  0.00     0.017 A 
HETATM   14  C19 UNL     1       4.763  -8.023  -2.236  1.00  0.00     0.020 A 
HETATM   15  C20 UNL     1       5.263  -9.296  -2.472  1.00  0.00     0.001 A 
HETATM   16  C21 UNL     1       6.562  -9.375  -2.902  1.00  0.00     0.001 A 
HETATM   17  C22 UNL     1       7.346  -8.266  -3.096  1.00  0.00     0.014 A 
HETATM   18  C23 UNL     1       6.876  -6.966  -2.867  1.00  0.00    -0.004 A 
HETATM   19  C24 UNL     1       7.513  -5.781  -3.008  1.00  0.00     0.038 A 
ENDROOT
BRANCH   1  20
HETATM   20  N2  UNL     1       9.647  -6.451  -3.746  1.00  0.00    -0.342 N 
ATOM     21  H2  UNL     1       9.920  -7.107  -3.015  1.00  0.00     0.167 HD
BRANCH  20  22
HETATM   22  C4  UNL     1      10.184  -6.642  -5.009  1.00  0.00     0.033 A 
HETATM   23  C3  UNL     1       9.373  -6.614  -6.120  1.00  0.00     0.031 A 
HETATM   24  C2  UNL     1       9.883  -6.802  -7.406  1.00  0.00     0.027 A 
HETATM   25  C1  UNL     1      11.231  -7.022  -7.571  1.00  0.00     0.079 A 
HETATM   26  C26 UNL     1      12.052  -7.054  -6.486  1.00  0.00     0.027 A 
HETATM   27  C25 UNL     1      11.530  -6.864  -5.200  1.00  0.00     0.031 A 
BRANCH  25  28
HETATM   28  S1  UNL     1      11.829  -7.255  -9.219  1.00  0.00     0.256 S 
HETATM   29  O1  UNL     1      11.503  -8.635  -9.706  1.00  0.00    -0.201 OA
HETATM   30  O2  UNL     1      13.311  -7.075  -9.287  1.00  0.00    -0.201 OA
BRANCH  28  31
HETATM   31  N1  UNL     1      11.094  -6.108 -10.291  1.00  0.00    -0.324 N 
ATOM     32  H12 UNL     1      11.594  -5.387 -10.810  1.00  0.00     0.169 HD
ATOM     33  H11 UNL     1      10.089  -6.284 -10.309  1.00  0.00     0.169 HD
ENDBRANCH  28  31
ENDBRANCH  25  28
ENDBRANCH  20  22
ENDBRANCH   1  20
BRANCH  10  34
HETATM   34  C11 UNL     1      10.393  -1.615  -3.697  1.00  0.00     0.174 C 
BRANCH  34  35
HETATM   35  C12 UNL     1      10.658  -2.126  -5.065  1.00  0.00    -0.024 A 
HETATM   36  C13 UNL     1      11.805  -2.901  -5.310  1.00  0.00     0.011 A 
HETATM   37  C14 UNL     1      12.062  -3.389  -6.566  1.00  0.00     0.018 A 
HETATM   38  C15 UNL     1      11.235  -3.154  -7.636  1.00  0.00     0.087 A 
HETATM   39  N5  UNL     1      10.151  -2.419  -7.405  1.00  0.00    -0.375 N 
HETATM   40  C16 UNL     1       9.864  -1.918  -6.167  1.00  0.00     0.096 A 
ATOM     41  H5  UNL     1       9.514  -2.224  -8.178  1.00  0.00     0.164 HD
ENDBRANCH  34  35
ENDBRANCH  10  34
TORSDOF 6
ENDMDL
