MODEL 1
REMARK VINA RESULT: -7.807176653      0.000      0.000
REMARK  11 active torsions:
REMARK  status: ('A' for Active; 'I' for Inactive)
REMARK    1  A    between atoms: N1_2  and  C2_4 
REMARK    2  A    between atoms: C3_7  and  N3_8 
REMARK    3  A    between atoms: N3_8  and  C4_10 
REMARK    4  A    between atoms: C4_10  and  C5_11 
REMARK    5  A    between atoms: C5_11  and  N4_12 
REMARK       I    between atoms: N4_12  and  C6_14 
REMARK    6  A    between atoms: C6_14  and  O2_16 
REMARK    7  A    between atoms: C9_21  and  N6_22 
REMARK    8  A    between atoms: N7_25  and  C10_26 
REMARK    9  A    between atoms: C10_26  and  C11_27 
REMARK   10  A    between atoms: C11_27  and  C12_29 
REMARK   11  A    between atoms: C12_29  and  O5_31 
ROOT
HETATM    1  C2  UNL     1      13.398   2.464  19.041  1.00  0.00     0.681 A 
HETATM    2  N2  UNL     1      13.528   2.747  17.726  1.00  0.00    -0.174 N 
ATOM      3  H2  UNL     1      12.726   2.625  17.108  1.00  0.00     0.186 HD
HETATM    4  C3  UNL     1      14.680   3.181  17.216  1.00  0.00     0.152 A 
HETATM    5  C8  UNL     1      15.752   3.329  18.117  1.00  0.00     0.139 A 
HETATM    6  N5  UNL     1      17.015   3.729  17.971  1.00  0.00    -0.184 N 
ATOM      7  H5  UNL     1      17.438   4.017  17.089  1.00  0.00     0.184 HD
HETATM    8  C9  UNL     1      17.649   3.696  19.154  1.00  0.00     0.680 A 
HETATM    9  N7  UNL     1      16.785   3.268  20.090  1.00  0.00    -0.158 N 
HETATM   10  C14 UNL     1      15.609   3.040  19.449  1.00  0.00     0.170 A 
HETATM   11  N8  UNL     1      14.417   2.606  19.895  1.00  0.00    -0.173 N 
ATOM     12  H8  UNL     1      14.291   2.386  20.884  1.00  0.00     0.186 HD
ENDROOT
BRANCH   4  13
HETATM   13  N3  UNL     1      14.915   3.468  16.043  1.00  0.00    -0.352 N 
ATOM     14  H3  UNL     1      15.906   3.279  15.890  1.00  0.00     0.166 HD
BRANCH  13  15
HETATM   15  C4  UNL     1      14.417   3.931  14.855  1.00  0.00     0.082 C 
BRANCH  15  16
HETATM   16  C5  UNL     1      14.948   3.265  13.600  1.00  0.00     0.169 C 
BRANCH  16  17
HETATM   17  N4  UNL     1      14.570   1.839  13.644  1.00  0.00    -0.332 N 
HETATM   18  C6  UNL     1      15.415   0.931  12.954  1.00  0.00     0.360 C 
HETATM   19  O1  UNL     1      16.432   1.298  12.334  1.00  0.00    -0.239 OA
ATOM     20  H4  UNL     1      13.741   1.521  14.146  1.00  0.00     0.165 HD
BRANCH  18  21
HETATM   21  O2  UNL     1      15.146  -0.441  12.933  1.00  0.00    -0.309 OA
HETATM   22  C7  UNL     1      14.149  -1.044  13.713  1.00  0.00     0.215 C 
ENDBRANCH  18  21
ENDBRANCH  16  17
ENDBRANCH  15  16
ENDBRANCH  13  15
ENDBRANCH   4  13
BRANCH   1  23
HETATM   23  N1  UNL     1      12.273   2.046  19.512  1.00  0.00    -0.230 N 
HETATM   24  C1  UNL     1      11.632   0.920  18.875  1.00  0.00     0.165 C 
ATOM     25  H1  UNL     1      11.844   2.501  20.318  1.00  0.00     0.177 HD
ENDBRANCH   1  23
BRANCH   8  26
HETATM   26  N6  UNL     1      18.890   4.027  19.337  1.00  0.00    -0.234 N 
ATOM     27  H62 UNL     1      19.246   4.714  20.002  1.00  0.00     0.174 HD
ATOM     28  H61 UNL     1      19.678   3.631  18.826  1.00  0.00     0.174 HD
ENDBRANCH   8  26
BRANCH   9  29
HETATM   29  C10 UNL     1      17.097   3.104  21.470  1.00  0.00     0.239 C 
BRANCH  29  30
HETATM   30  C11 UNL     1      16.619   4.223  22.318  1.00  0.00     0.242 C 
HETATM   31  O3  UNL     1      15.435   4.280  22.688  1.00  0.00    -0.285 OA
BRANCH  30  32
HETATM   32  C12 UNL     1      17.571   5.256  22.709  1.00  0.00     0.330 C 
HETATM   33  O4  UNL     1      18.388   5.744  21.886  1.00  0.00    -0.256 OA
BRANCH  32  34
HETATM   34  O5  UNL     1      17.628   5.753  24.007  1.00  0.00    -0.320 OA
HETATM   35  C13 UNL     1      17.986   4.907  25.080  1.00  0.00     0.213 C 
ENDBRANCH  32  34
ENDBRANCH  30  32
ENDBRANCH  29  30
ENDBRANCH   9  29
TORSDOF 11
ENDMDL
MODEL 2
REMARK VINA RESULT: -7.572131672      3.351      7.054
REMARK  11 active torsions:
REMARK  status: ('A' for Active; 'I' for Inactive)
REMARK    1  A    between atoms: N1_2  and  C2_4 
REMARK    2  A    between atoms: C3_7  and  N3_8 
REMARK    3  A    between atoms: N3_8  and  C4_10 
REMARK    4  A    between atoms: C4_10  and  C5_11 
REMARK    5  A    between atoms: C5_11  and  N4_12 
REMARK       I    between atoms: N4_12  and  C6_14 
REMARK    6  A    between atoms: C6_14  and  O2_16 
REMARK    7  A    between atoms: C9_21  and  N6_22 
REMARK    8  A    between atoms: N7_25  and  C10_26 
REMARK    9  A    between atoms: C10_26  and  C11_27 
REMARK   10  A    between atoms: C11_27  and  C12_29 
REMARK   11  A    between atoms: C12_29  and  O5_31 
ROOT
HETATM    1  C2  UNL     1      12.294   4.674  23.349  1.00  0.00     0.681 A 
HETATM    2  N2  UNL     1      13.385   4.991  24.082  1.00  0.00    -0.174 N 
ATOM      3  H2  UNL     1      13.286   5.632  24.870  1.00  0.00     0.186 HD
HETATM    4  C3  UNL     1      14.586   4.487  23.801  1.00  0.00     0.152 A 
HETATM    5  C8  UNL     1      14.659   3.609  22.704  1.00  0.00     0.139 A 
HETATM    6  N5  UNL     1      15.662   2.933  22.145  1.00  0.00    -0.184 N 
ATOM      7  H5  UNL     1      16.630   2.955  22.464  1.00  0.00     0.184 HD
HETATM    8  C9  UNL     1      15.212   2.219  21.100  1.00  0.00     0.680 A 
HETATM    9  N7  UNL     1      13.892   2.432  20.974  1.00  0.00    -0.158 N 
HETATM   10  C14 UNL     1      13.547   3.293  21.967  1.00  0.00     0.170 A 
HETATM   11  N8  UNL     1      12.366   3.838  22.307  1.00  0.00    -0.173 N 
ATOM     12  H8  UNL     1      11.527   3.616  21.771  1.00  0.00     0.186 HD
ENDROOT
BRANCH   4  13
HETATM   13  N3  UNL     1      15.642   4.703  24.394  1.00  0.00    -0.352 N 
ATOM     14  H3  UNL     1      15.642   4.102  25.218  1.00  0.00     0.166 HD
BRANCH  13  15
HETATM   15  C4  UNL     1      16.817   5.404  24.421  1.00  0.00     0.082 C 
BRANCH  15  16
HETATM   16  C5  UNL     1      18.057   4.652  23.976  1.00  0.00     0.169 C 
BRANCH  16  17
HETATM   17  N4  UNL     1      18.461   5.177  22.657  1.00  0.00    -0.332 N 
HETATM   18  C6  UNL     1      18.673   4.225  21.627  1.00  0.00     0.360 C 
HETATM   19  O1  UNL     1      18.530   2.998  21.804  1.00  0.00    -0.239 OA
ATOM     20  H4  UNL     1      18.583   6.177  22.494  1.00  0.00     0.165 HD
BRANCH  18  21
HETATM   21  O2  UNL     1      19.059   4.617  20.342  1.00  0.00    -0.309 OA
HETATM   22  C7  UNL     1      18.758   3.881  19.187  1.00  0.00     0.215 C 
ENDBRANCH  18  21
ENDBRANCH  16  17
ENDBRANCH  15  16
ENDBRANCH  13  15
ENDBRANCH   4  13
BRANCH   1  23
HETATM   23  N1  UNL     1      11.142   5.174  23.641  1.00  0.00    -0.230 N 
HETATM   24  C1  UNL     1      10.125   5.210  22.617  1.00  0.00     0.165 C 
ATOM     25  H1  UNL     1      10.954   5.538  24.575  1.00  0.00     0.177 HD
ENDBRANCH   1  23
BRANCH   8  26
HETATM   26  N6  UNL     1      15.950   1.458  20.352  1.00  0.00    -0.234 N 
ATOM     27  H62 UNL     1      15.866   0.448  20.239  1.00  0.00     0.174 HD
ATOM     28  H61 UNL     1      16.723   1.787  19.773  1.00  0.00     0.174 HD
ENDBRANCH   8  26
BRANCH   9  29
HETATM   29  C10 UNL     1      13.065   1.843  19.975  1.00  0.00     0.239 C 
BRANCH  29  30
HETATM   30  C11 UNL     1      12.887   2.701  18.779  1.00  0.00     0.242 C 
HETATM   31  O3  UNL     1      11.970   3.535  18.725  1.00  0.00    -0.285 OA
BRANCH  30  32
HETATM   32  C12 UNL     1      13.816   2.543  17.666  1.00  0.00     0.330 C 
HETATM   33  O4  UNL     1      13.496   1.914  16.625  1.00  0.00    -0.256 OA
BRANCH  32  34
HETATM   34  O5  UNL     1      15.102   3.076  17.696  1.00  0.00    -0.320 OA
HETATM   35  C13 UNL     1      15.307   4.423  18.070  1.00  0.00     0.213 C 
ENDBRANCH  32  34
ENDBRANCH  30  32
ENDBRANCH  29  30
ENDBRANCH   9  29
TORSDOF 11
ENDMDL
MODEL 3
REMARK VINA RESULT: -7.561922586      3.395      5.176
REMARK  11 active torsions:
REMARK  status: ('A' for Active; 'I' for Inactive)
REMARK    1  A    between atoms: N1_2  and  C2_4 
REMARK    2  A    between atoms: C3_7  and  N3_8 
REMARK    3  A    between atoms: N3_8  and  C4_10 
REMARK    4  A    between atoms: C4_10  and  C5_11 
REMARK    5  A    between atoms: C5_11  and  N4_12 
REMARK       I    between atoms: N4_12  and  C6_14 
REMARK    6  A    between atoms: C6_14  and  O2_16 
REMARK    7  A    between atoms: C9_21  and  N6_22 
REMARK    8  A    between atoms: N7_25  and  C10_26 
REMARK    9  A    between atoms: C10_26  and  C11_27 
REMARK   10  A    between atoms: C11_27  and  C12_29 
REMARK   11  A    between atoms: C12_29  and  O5_31 
ROOT
HETATM    1  C2  UNL     1      14.687   2.748  15.896  1.00  0.00     0.681 A 
HETATM    2  N2  UNL     1      14.083   1.559  15.678  1.00  0.00    -0.174 N 
ATOM      3  H2  UNL     1      13.712   1.352  14.750  1.00  0.00     0.186 HD
HETATM    4  C3  UNL     1      13.962   0.649  16.644  1.00  0.00     0.152 A 
HETATM    5  C8  UNL     1      14.495   0.991  17.901  1.00  0.00     0.139 A 
HETATM    6  N5  UNL     1      14.556   0.350  19.068  1.00  0.00    -0.184 N 
ATOM      7  H5  UNL     1      14.185  -0.584  19.241  1.00  0.00     0.184 HD
HETATM    8  C9  UNL     1      15.176   1.113  19.982  1.00  0.00     0.680 A 
HETATM    9  N7  UNL     1      15.527   2.273  19.403  1.00  0.00    -0.158 N 
HETATM   10  C14 UNL     1      15.106   2.199  18.113  1.00  0.00     0.170 A 
HETATM   11  N8  UNL     1      15.193   3.070  17.092  1.00  0.00    -0.173 N 
ATOM     12  H8  UNL     1      15.644   3.975  17.230  1.00  0.00     0.186 HD
ENDROOT
BRANCH   4  13
HETATM   13  N3  UNL     1      13.435  -0.460  16.561  1.00  0.00    -0.352 N 
ATOM     14  H3  UNL     1      12.452  -0.334  16.801  1.00  0.00     0.166 HD
BRANCH  13  15
HETATM   15  C4  UNL     1      13.604  -1.790  16.286  1.00  0.00     0.082 C 
BRANCH  15  16
HETATM   16  C5  UNL     1      13.675  -2.718  17.483  1.00  0.00     0.169 C 
BRANCH  16  17
HETATM   17  N4  UNL     1      12.301  -3.140  17.819  1.00  0.00    -0.332 N 
HETATM   18  C6  UNL     1      11.584  -2.318  18.727  1.00  0.00     0.360 C 
HETATM   19  O1  UNL     1      12.070  -1.286  19.229  1.00  0.00    -0.239 OA
ATOM     20  H4  UNL     1      11.888  -3.982  17.418  1.00  0.00     0.165 HD
BRANCH  18  21
HETATM   21  O2  UNL     1      10.276  -2.629  19.111  1.00  0.00    -0.309 OA
HETATM   22  C7  UNL     1       9.690  -3.887  18.911  1.00  0.00     0.215 C 
ENDBRANCH  18  21
ENDBRANCH  16  17
ENDBRANCH  15  16
ENDBRANCH  13  15
ENDBRANCH   4  13
BRANCH   1  23
HETATM   23  N1  UNL     1      14.793   3.612  14.946  1.00  0.00    -0.230 N 
HETATM   24  C1  UNL     1      14.667   3.159  13.581  1.00  0.00     0.165 C 
ATOM     25  H1  UNL     1      14.963   4.597  15.154  1.00  0.00     0.177 HD
ENDBRANCH   1  23
BRANCH   8  26
HETATM   26  N6  UNL     1      15.388   0.766  21.214  1.00  0.00    -0.234 N 
ATOM     27  H62 UNL     1      14.702   0.741  21.967  1.00  0.00     0.174 HD
ATOM     28  H61 UNL     1      16.290   0.469  21.587  1.00  0.00     0.174 HD
ENDBRANCH   8  26
BRANCH   9  29
HETATM   29  C10 UNL     1      16.206   3.338  20.060  1.00  0.00     0.239 C 
BRANCH  29  30
HETATM   30  C11 UNL     1      15.291   4.352  20.638  1.00  0.00     0.242 C 
HETATM   31  O3  UNL     1      14.753   4.169  21.741  1.00  0.00    -0.285 OA
BRANCH  30  32
HETATM   32  C12 UNL     1      15.036   5.571  19.879  1.00  0.00     0.330 C 
HETATM   33  O4  UNL     1      15.528   6.676  20.223  1.00  0.00    -0.256 OA
BRANCH  32  34
HETATM   34  O5  UNL     1      14.236   5.577  18.740  1.00  0.00    -0.320 OA
HETATM   35  C13 UNL     1      12.869   5.232  18.826  1.00  0.00     0.213 C 
ENDBRANCH  32  34
ENDBRANCH  30  32
ENDBRANCH  29  30
ENDBRANCH   9  29
TORSDOF 11
ENDMDL
MODEL 4
REMARK VINA RESULT: -7.507000135      2.375      7.863
REMARK  11 active torsions:
REMARK  status: ('A' for Active; 'I' for Inactive)
REMARK    1  A    between atoms: N1_2  and  C2_4 
REMARK    2  A    between atoms: C3_7  and  N3_8 
REMARK    3  A    between atoms: N3_8  and  C4_10 
REMARK    4  A    between atoms: C4_10  and  C5_11 
REMARK    5  A    between atoms: C5_11  and  N4_12 
REMARK       I    between atoms: N4_12  and  C6_14 
REMARK    6  A    between atoms: C6_14  and  O2_16 
REMARK    7  A    between atoms: C9_21  and  N6_22 
REMARK    8  A    between atoms: N7_25  and  C10_26 
REMARK    9  A    between atoms: C10_26  and  C11_27 
REMARK   10  A    between atoms: C11_27  and  C12_29 
REMARK   11  A    between atoms: C12_29  and  O5_31 
ROOT
HETATM    1  C2  UNL     1      15.684   1.192  20.631  1.00  0.00     0.681 A 
HETATM    2  N2  UNL     1      16.474   2.098  21.249  1.00  0.00    -0.174 N 
ATOM      3  H2  UNL     1      16.989   1.821  22.085  1.00  0.00     0.186 HD
HETATM    4  C3  UNL     1      16.599   3.343  20.792  1.00  0.00     0.152 A 
HETATM    5  C8  UNL     1      15.866   3.666  19.634  1.00  0.00     0.139 A 
HETATM    6  N5  UNL     1      15.748   4.779  18.912  1.00  0.00    -0.184 N 
ATOM      7  H5  UNL     1      16.223   5.659  19.115  1.00  0.00     0.184 HD
HETATM    8  C9  UNL     1      14.913   4.575  17.881  1.00  0.00     0.680 A 
HETATM    9  N7  UNL     1      14.478   3.306  17.928  1.00  0.00    -0.158 N 
HETATM   10  C14 UNL     1      15.067   2.740  19.014  1.00  0.00     0.170 A 
HETATM   11  N8  UNL     1      14.989   1.501  19.530  1.00  0.00    -0.173 N 
ATOM     12  H8  UNL     1      14.400   0.797  19.084  1.00  0.00     0.186 HD
ENDROOT
BRANCH   4  13
HETATM   13  N3  UNL     1      17.285   4.247  21.268  1.00  0.00    -0.352 N 
ATOM     14  H3  UNL     1      17.946   4.524  20.543  1.00  0.00     0.166 HD
BRANCH  13  15
HETATM   15  C4  UNL     1      17.539   5.040  22.354  1.00  0.00     0.082 C 
BRANCH  15  16
HETATM   16  C5  UNL     1      17.445   4.370  23.711  1.00  0.00     0.169 C 
BRANCH  16  17
HETATM   17  N4  UNL     1      16.368   5.031  24.474  1.00  0.00    -0.332 N 
HETATM   18  C6  UNL     1      15.043   4.586  24.229  1.00  0.00     0.360 C 
HETATM   19  O1  UNL     1      14.777   3.682  23.413  1.00  0.00    -0.239 OA
ATOM     20  H4  UNL     1      16.568   5.773  25.146  1.00  0.00     0.165 HD
BRANCH  18  21
HETATM   21  O2  UNL     1      13.952   5.147  24.900  1.00  0.00    -0.309 OA
HETATM   22  C7  UNL     1      12.664   5.223  24.351  1.00  0.00     0.215 C 
ENDBRANCH  18  21
ENDBRANCH  16  17
ENDBRANCH  15  16
ENDBRANCH  13  15
ENDBRANCH   4  13
BRANCH   1  23
HETATM   23  N1  UNL     1      15.580  -0.007  21.092  1.00  0.00    -0.230 N 
HETATM   24  C1  UNL     1      15.290  -1.080  20.170  1.00  0.00     0.165 C 
ATOM     25  H1  UNL     1      15.698  -0.195  22.087  1.00  0.00     0.177 HD
ENDBRANCH   1  23
BRANCH   8  26
HETATM   26  N6  UNL     1      14.595   5.472  16.999  1.00  0.00    -0.234 N 
ATOM     27  H62 UNL     1      14.429   6.463  17.170  1.00  0.00     0.174 HD
ATOM     28  H61 UNL     1      14.468   5.288  16.003  1.00  0.00     0.174 HD
ENDBRANCH   8  26
BRANCH   9  29
HETATM   29  C10 UNL     1      13.575   2.720  16.996  1.00  0.00     0.239 C 
BRANCH  29  30
HETATM   30  C11 UNL     1      14.233   1.799  16.038  1.00  0.00     0.242 C 
HETATM   31  O3  UNL     1      14.471   0.621  16.349  1.00  0.00    -0.285 OA
BRANCH  30  32
HETATM   32  C12 UNL     1      14.596   2.309  14.721  1.00  0.00     0.330 C 
HETATM   33  O4  UNL     1      14.580   3.540  14.464  1.00  0.00    -0.256 OA
BRANCH  32  34
HETATM   34  O5  UNL     1      14.977   1.464  13.682  1.00  0.00    -0.320 OA
HETATM   35  C13 UNL     1      16.112   1.765  12.898  1.00  0.00     0.213 C 
ENDBRANCH  32  34
ENDBRANCH  30  32
ENDBRANCH  29  30
ENDBRANCH   9  29
TORSDOF 11
ENDMDL
MODEL 5
REMARK VINA RESULT: -7.464921470      1.139      1.649
REMARK  11 active torsions:
REMARK  status: ('A' for Active; 'I' for Inactive)
REMARK    1  A    between atoms: N1_2  and  C2_4 
REMARK    2  A    between atoms: C3_7  and  N3_8 
REMARK    3  A    between atoms: N3_8  and  C4_10 
REMARK    4  A    between atoms: C4_10  and  C5_11 
REMARK    5  A    between atoms: C5_11  and  N4_12 
REMARK       I    between atoms: N4_12  and  C6_14 
REMARK    6  A    between atoms: C6_14  and  O2_16 
REMARK    7  A    between atoms: C9_21  and  N6_22 
REMARK    8  A    between atoms: N7_25  and  C10_26 
REMARK    9  A    between atoms: C10_26  and  C11_27 
REMARK   10  A    between atoms: C11_27  and  C12_29 
REMARK   11  A    between atoms: C12_29  and  O5_31 
ROOT
HETATM    1  C2  UNL     1      13.387   3.452  19.674  1.00  0.00     0.681 A 
HETATM    2  N2  UNL     1      13.443   3.676  18.342  1.00  0.00    -0.174 N 
ATOM      3  H2  UNL     1      12.576   3.700  17.805  1.00  0.00     0.186 HD
HETATM    4  C3  UNL     1      14.602   3.865  17.713  1.00  0.00     0.152 A 
HETATM    5  C8  UNL     1      15.764   3.821  18.507  1.00  0.00     0.139 A 
HETATM    6  N5  UNL     1      17.060   3.963  18.232  1.00  0.00    -0.184 N 
ATOM      7  H5  UNL     1      17.443   4.145  17.305  1.00  0.00     0.184 HD
HETATM    8  C9  UNL     1      17.787   3.833  19.353  1.00  0.00     0.680 A 
HETATM    9  N7  UNL     1      16.951   3.602  20.379  1.00  0.00    -0.158 N 
HETATM   10  C14 UNL     1      15.697   3.594  19.858  1.00  0.00     0.170 A 
HETATM   11  N8  UNL     1      14.493   3.411  20.426  1.00  0.00    -0.173 N 
ATOM     12  H8  UNL     1      14.422   3.241  21.430  1.00  0.00     0.186 HD
ENDROOT
BRANCH   4  13
HETATM   13  N3  UNL     1      14.774   4.076  16.513  1.00  0.00    -0.352 N 
ATOM     14  H3  UNL     1      15.678   4.539  16.425  1.00  0.00     0.166 HD
BRANCH  13  15
HETATM   15  C4  UNL     1      14.271   3.954  15.246  1.00  0.00     0.082 C 
BRANCH  15  16
HETATM   16  C5  UNL     1      15.157   3.247  14.239  1.00  0.00     0.169 C 
BRANCH  16  17
HETATM   17  N4  UNL     1      14.670   1.861  14.093  1.00  0.00    -0.332 N 
HETATM   18  C6  UNL     1      15.322   1.051  13.128  1.00  0.00     0.360 C 
HETATM   19  O1  UNL     1      16.265   1.469  12.425  1.00  0.00    -0.239 OA
ATOM     20  H4  UNL     1      13.900   1.504  14.659  1.00  0.00     0.165 HD
BRANCH  18  21
HETATM   21  O2  UNL     1      14.937  -0.275  12.911  1.00  0.00    -0.309 OA
HETATM   22  C7  UNL     1      14.037  -0.962  13.737  1.00  0.00     0.215 C 
ENDBRANCH  18  21
ENDBRANCH  16  17
ENDBRANCH  15  16
ENDBRANCH  13  15
ENDBRANCH   4  13
BRANCH   1  23
HETATM   23  N1  UNL     1      12.254   3.272  20.260  1.00  0.00    -0.230 N 
HETATM   24  C1  UNL     1      11.920   4.103  21.392  1.00  0.00     0.165 C 
ATOM     25  H1  UNL     1      11.606   2.555  19.932  1.00  0.00     0.177 HD
ENDBRANCH   1  23
BRANCH   8  26
HETATM   26  N6  UNL     1      19.080   3.920  19.410  1.00  0.00    -0.234 N 
ATOM     27  H62 UNL     1      19.704   4.226  18.664  1.00  0.00     0.174 HD
ATOM     28  H61 UNL     1      19.642   3.685  20.228  1.00  0.00     0.174 HD
ENDBRANCH   8  26
BRANCH   9  29
HETATM   29  C10 UNL     1      17.357   3.410  21.731  1.00  0.00     0.239 C 
BRANCH  29  30
HETATM   30  C11 UNL     1      17.409   4.668  22.514  1.00  0.00     0.242 C 
HETATM   31  O3  UNL     1      18.307   5.503  22.318  1.00  0.00    -0.285 OA
BRANCH  30  32
HETATM   32  C12 UNL     1      16.381   4.904  23.521  1.00  0.00     0.330 C 
HETATM   33  O4  UNL     1      16.649   5.450  24.621  1.00  0.00    -0.256 OA
BRANCH  32  34
HETATM   34  O5  UNL     1      15.053   4.538  23.319  1.00  0.00    -0.320 OA
HETATM   35  C13 UNL     1      14.179   4.390  24.418  1.00  0.00     0.213 C 
ENDBRANCH  32  34
ENDBRANCH  30  32
ENDBRANCH  29  30
ENDBRANCH   9  29
TORSDOF 11
ENDMDL
