MODEL 1
REMARK VINA RESULT: -6.530746471      0.000      0.000
REMARK  6 active torsions:
REMARK  status: ('A' for Active; 'I' for Inactive)
REMARK    1  A    between atoms: C2_2  and  N1_3 
REMARK    2  A    between atoms: N2_6  and  C5_7 
REMARK    3  A    between atoms: C5_7  and  N3_9 
REMARK    4  A    between atoms: N3_9  and  C6_11 
REMARK    5  A    between atoms: C6_11  and  O1_13 
REMARK    6  A    between atoms: O1_13  and  C7_14 
ROOT
HETATM    1  C5  UNL     1      45.128 131.194  19.225  1.00  0.00     0.176 C 
HETATM    2  S1  UNL     1      45.922 130.200  20.244  1.00  0.00    -0.041 SA
ENDROOT
BRANCH   1   3
HETATM    3  N2  UNL     1      45.274 130.980  17.831  1.00  0.00    -0.355 N 
HETATM    4  C4  UNL     1      45.766 129.764  17.239  1.00  0.00     0.144 C 
HETATM    5  C3  UNL     1      46.565 130.173  15.985  1.00  0.00     0.136 C 
HETATM    6  N1  UNL     1      45.622 130.615  15.025  1.00  0.00    -0.410 N 
HETATM    7  C9  UNL     1      44.575 131.438  15.536  1.00  0.00     0.136 C 
HETATM    8  C8  UNL     1      44.905 132.045  16.883  1.00  0.00     0.144 C 
BRANCH   6   9
HETATM    9  C2  UNL     1      46.092 130.906  13.726  1.00  0.00     0.112 C 
HETATM   10  C1  UNL     1      47.560 130.792  13.497  1.00  0.00     0.026 C 
ENDBRANCH   6   9
ENDBRANCH   1   3
BRANCH   1  11
HETATM   11  N3  UNL     1      44.329 132.253  19.705  1.00  0.00    -0.304 N 
ATOM     12  H3  UNL     1      44.785 133.160  19.808  1.00  0.00     0.171 HD
BRANCH  11  13
HETATM   13  C6  UNL     1      42.965 132.184  20.058  1.00  0.00     0.225 C 
HETATM   14  S2  UNL     1      41.866 132.055  18.840  1.00  0.00    -0.032 SA
BRANCH  13  15
HETATM   15  O1  UNL     1      42.516 132.223  21.386  1.00  0.00    -0.235 OA
BRANCH  15  16
HETATM   16  C7  UNL     1      43.039 131.336  22.319  1.00  0.00     0.379 C 
HETATM   17  N4  UNL     1      42.441 130.097  22.672  1.00  0.00    -0.032 NA
HETATM   18  O2  UNL     1      44.122 131.681  22.878  1.00  0.00    -0.242 OA
ENDBRANCH  15  16
ENDBRANCH  13  15
ENDBRANCH  11  13
ENDBRANCH   1  11
TORSDOF 6
ENDMDL
MODEL 2
REMARK VINA RESULT: -6.261340945      3.655      6.801
REMARK  6 active torsions:
REMARK  status: ('A' for Active; 'I' for Inactive)
REMARK    1  A    between atoms: C2_2  and  N1_3 
REMARK    2  A    between atoms: N2_6  and  C5_7 
REMARK    3  A    between atoms: C5_7  and  N3_9 
REMARK    4  A    between atoms: N3_9  and  C6_11 
REMARK    5  A    between atoms: C6_11  and  O1_13 
REMARK    6  A    between atoms: O1_13  and  C7_14 
ROOT
HETATM    1  C5  UNL     1      45.309 131.170  17.595  1.00  0.00     0.176 C 
HETATM    2  S1  UNL     1      45.971 129.693  17.390  1.00  0.00    -0.041 SA
ENDROOT
BRANCH   1   3
HETATM    3  N2  UNL     1      44.698 131.462  18.841  1.00  0.00    -0.355 N 
HETATM    4  C4  UNL     1      45.408 131.607  20.085  1.00  0.00     0.144 C 
HETATM    5  C3  UNL     1      44.485 131.053  21.189  1.00  0.00     0.136 C 
HETATM    6  N1  UNL     1      43.423 131.977  21.338  1.00  0.00    -0.410 N 
HETATM    7  C9  UNL     1      42.890 132.492  20.119  1.00  0.00     0.136 C 
HETATM    8  C8  UNL     1      43.239 131.642  18.917  1.00  0.00     0.144 C 
BRANCH   6   9
HETATM    9  C2  UNL     1      42.515 131.772  22.400  1.00  0.00     0.112 C 
HETATM   10  C1  UNL     1      43.058 131.882  23.783  1.00  0.00     0.026 C 
ENDBRANCH   6   9
ENDBRANCH   1   3
BRANCH   1  11
HETATM   11  N3  UNL     1      45.322 132.130  16.563  1.00  0.00    -0.304 N 
ATOM     12  H3  UNL     1      45.217 133.105  16.844  1.00  0.00     0.171 HD
BRANCH  11  13
HETATM   13  C6  UNL     1      45.467 131.879  15.183  1.00  0.00     0.225 C 
HETATM   14  S2  UNL     1      44.124 131.431  14.343  1.00  0.00    -0.032 SA
BRANCH  13  15
HETATM   15  O1  UNL     1      46.692 131.994  14.509  1.00  0.00    -0.235 OA
BRANCH  15  16
HETATM   16  C7  UNL     1      47.166 130.930  13.752  1.00  0.00     0.379 C 
HETATM   17  N4  UNL     1      47.269 129.593  14.221  1.00  0.00    -0.032 NA
HETATM   18  O2  UNL     1      47.526 131.198  12.568  1.00  0.00    -0.242 OA
ENDBRANCH  15  16
ENDBRANCH  13  15
ENDBRANCH  11  13
ENDBRANCH   1  11
TORSDOF 6
ENDMDL
MODEL 3
REMARK VINA RESULT: -6.216589851      0.983      1.980
REMARK  6 active torsions:
REMARK  status: ('A' for Active; 'I' for Inactive)
REMARK    1  A    between atoms: C2_2  and  N1_3 
REMARK    2  A    between atoms: N2_6  and  C5_7 
REMARK    3  A    between atoms: C5_7  and  N3_9 
REMARK    4  A    between atoms: N3_9  and  C6_11 
REMARK    5  A    between atoms: C6_11  and  O1_13 
REMARK    6  A    between atoms: O1_13  and  C7_14 
ROOT
HETATM    1  C5  UNL     1      44.352 131.616  18.202  1.00  0.00     0.176 C 
HETATM    2  S1  UNL     1      42.739 131.843  18.120  1.00  0.00    -0.041 SA
ENDROOT
BRANCH   1   3
HETATM    3  N2  UNL     1      45.012 131.082  17.066  1.00  0.00    -0.355 N 
HETATM    4  C4  UNL     1      45.377 129.698  16.909  1.00  0.00     0.144 C 
HETATM    5  C3  UNL     1      46.705 129.677  16.125  1.00  0.00     0.136 C 
HETATM    6  N1  UNL     1      46.402 130.061  14.796  1.00  0.00    -0.410 N 
HETATM    7  C9  UNL     1      45.488 131.148  14.672  1.00  0.00     0.136 C 
HETATM    8  C8  UNL     1      45.363 131.964  15.940  1.00  0.00     0.144 C 
BRANCH   6   9
HETATM    9  C2  UNL     1      47.433 129.974  13.835  1.00  0.00     0.112 C 
HETATM   10  C1  UNL     1      47.624 131.152  12.942  1.00  0.00     0.026 C 
ENDBRANCH   6   9
ENDBRANCH   1   3
BRANCH   1  11
HETATM   11  N3  UNL     1      45.078 131.922  19.371  1.00  0.00    -0.304 N 
ATOM     12  H3  UNL     1      45.729 132.706  19.315  1.00  0.00     0.171 HD
BRANCH  11  13
HETATM   13  C6  UNL     1      44.996 131.253  20.611  1.00  0.00     0.225 C 
HETATM   14  S2  UNL     1      45.718 129.779  20.733  1.00  0.00    -0.032 SA
BRANCH  13  15
HETATM   15  O1  UNL     1      44.333 131.788  21.725  1.00  0.00    -0.235 OA
BRANCH  15  16
HETATM   16  C7  UNL     1      43.002 131.463  21.959  1.00  0.00     0.379 C 
HETATM   17  N4  UNL     1      42.564 130.243  22.540  1.00  0.00    -0.032 NA
HETATM   18  O2  UNL     1      42.144 132.330  21.620  1.00  0.00    -0.242 OA
ENDBRANCH  15  16
ENDBRANCH  13  15
ENDBRANCH  11  13
ENDBRANCH   1  11
TORSDOF 6
ENDMDL
MODEL 4
REMARK VINA RESULT: -6.079381285      0.909      2.215
REMARK  6 active torsions:
REMARK  status: ('A' for Active; 'I' for Inactive)
REMARK    1  A    between atoms: C2_2  and  N1_3 
REMARK    2  A    between atoms: N2_6  and  C5_7 
REMARK    3  A    between atoms: C5_7  and  N3_9 
REMARK    4  A    between atoms: N3_9  and  C6_11 
REMARK    5  A    between atoms: C6_11  and  O1_13 
REMARK    6  A    between atoms: O1_13  and  C7_14 
ROOT
HETATM    1  C5  UNL     1      44.239 131.750  18.529  1.00  0.00     0.176 C 
HETATM    2  S1  UNL     1      42.617 131.726  18.360  1.00  0.00    -0.041 SA
ENDROOT
BRANCH   1   3
HETATM    3  N2  UNL     1      45.035 131.434  17.398  1.00  0.00    -0.355 N 
HETATM    4  C4  UNL     1      45.576 132.406  16.484  1.00  0.00     0.144 C 
HETATM    5  C3  UNL     1      45.566 131.753  15.087  1.00  0.00     0.136 C 
HETATM    6  N1  UNL     1      46.569 130.753  15.094  1.00  0.00    -0.410 N 
HETATM    7  C9  UNL     1      46.630 129.962  16.279  1.00  0.00     0.136 C 
HETATM    8  C8  UNL     1      45.360 130.030  17.100  1.00  0.00     0.144 C 
BRANCH   6   9
HETATM    9  C2  UNL     1      46.863 130.107  13.874  1.00  0.00     0.112 C 
HETATM   10  C1  UNL     1      47.660 130.876  12.877  1.00  0.00     0.026 C 
ENDBRANCH   6   9
ENDBRANCH   1   3
BRANCH   1  11
HETATM   11  N3  UNL     1      44.844 132.056  19.765  1.00  0.00    -0.304 N 
ATOM     12  H3  UNL     1      45.289 132.971  19.844  1.00  0.00     0.171 HD
BRANCH  11  13
HETATM   13  C6  UNL     1      44.897 131.225  20.904  1.00  0.00     0.225 C 
HETATM   14  S2  UNL     1      45.668 129.778  20.759  1.00  0.00    -0.032 SA
BRANCH  13  15
HETATM   15  O1  UNL     1      44.326 131.578  22.135  1.00  0.00    -0.235 OA
BRANCH  15  16
HETATM   16  C7  UNL     1      42.959 131.426  22.332  1.00  0.00     0.379 C 
HETATM   17  N4  UNL     1      42.370 130.402  23.121  1.00  0.00    -0.032 NA
HETATM   18  O2  UNL     1      42.210 132.270  21.756  1.00  0.00    -0.242 OA
ENDBRANCH  15  16
ENDBRANCH  13  15
ENDBRANCH  11  13
ENDBRANCH   1  11
TORSDOF 6
ENDMDL
MODEL 5
REMARK VINA RESULT: -5.768162547      1.754      2.225
REMARK  6 active torsions:
REMARK  status: ('A' for Active; 'I' for Inactive)
REMARK    1  A    between atoms: C2_2  and  N1_3 
REMARK    2  A    between atoms: N2_6  and  C5_7 
REMARK    3  A    between atoms: C5_7  and  N3_9 
REMARK    4  A    between atoms: N3_9  and  C6_11 
REMARK    5  A    between atoms: C6_11  and  O1_13 
REMARK    6  A    between atoms: O1_13  and  C7_14 
ROOT
HETATM    1  C5  UNL     1      45.319 130.996  19.213  1.00  0.00     0.176 C 
HETATM    2  S1  UNL     1      45.929 129.812  20.152  1.00  0.00    -0.041 SA
ENDROOT
BRANCH   1   3
HETATM    3  N2  UNL     1      45.419 130.852  17.805  1.00  0.00    -0.355 N 
HETATM    4  C4  UNL     1      45.875 129.662  17.136  1.00  0.00     0.144 C 
HETATM    5  C3  UNL     1      46.640 130.126  15.880  1.00  0.00     0.136 C 
HETATM    6  N1  UNL     1      45.673 130.629  14.974  1.00  0.00    -0.410 N 
HETATM    7  C9  UNL     1      44.655 131.437  15.561  1.00  0.00     0.136 C 
HETATM    8  C8  UNL     1      45.035 131.969  16.925  1.00  0.00     0.144 C 
BRANCH   6   9
HETATM    9  C2  UNL     1      46.106 130.980  13.678  1.00  0.00     0.112 C 
HETATM   10  C1  UNL     1      47.542 130.744  13.358  1.00  0.00     0.026 C 
ENDBRANCH   6   9
ENDBRANCH   1   3
BRANCH   1  11
HETATM   11  N3  UNL     1      44.724 132.146  19.773  1.00  0.00    -0.304 N 
ATOM     12  H3  UNL     1      45.278 133.002  19.758  1.00  0.00     0.171 HD
BRANCH  11  13
HETATM   13  C6  UNL     1      43.440 132.230  20.351  1.00  0.00     0.225 C 
HETATM   14  S2  UNL     1      43.237 131.597  21.857  1.00  0.00    -0.032 SA
BRANCH  13  15
HETATM   15  O1  UNL     1      42.347 132.824  19.703  1.00  0.00    -0.235 OA
BRANCH  15  16
HETATM   16  C7  UNL     1      41.718 132.157  18.659  1.00  0.00     0.379 C 
HETATM   17  N4  UNL     1      41.075 130.897  18.782  1.00  0.00    -0.032 NA
HETATM   18  O2  UNL     1      41.737 132.734  17.532  1.00  0.00    -0.242 OA
ENDBRANCH  15  16
ENDBRANCH  13  15
ENDBRANCH  11  13
ENDBRANCH   1  11
TORSDOF 6
ENDMDL
