MODEL 1
REMARK VINA RESULT: -6.816132420      0.000      0.000
REMARK  14 active torsions:
REMARK  status: ('A' for Active; 'I' for Inactive)
REMARK    1  A    between atoms: C1_2  and  C2_4 
REMARK    2  A    between atoms: C3_7  and  O2_8 
REMARK    3  A    between atoms: N5_20  and  N6_21 
REMARK    4  A    between atoms: C8_24  and  O6_25 
REMARK    5  A    between atoms: O6_25  and  C9_26 
REMARK    6  A    between atoms: C9_26  and  O7_27 
REMARK    7  A    between atoms: C9_26  and  C10_29 
REMARK    8  A    between atoms: C10_29  and  O8_30 
REMARK    9  A    between atoms: C10_29  and  C11_32 
REMARK   10  A    between atoms: C11_32  and  O9_33 
REMARK   11  A    between atoms: C11_32  and  C12_35 
REMARK   12  A    between atoms: C12_35  and  O10_36 
REMARK   13  A    between atoms: C12_35  and  C13_38 
REMARK   14  A    between atoms: C13_38  and  O11_39 
ROOT
HETATM    1  C2  UNL     1     -16.113  72.110  29.539  1.00  0.00     0.150 C 
HETATM    2  N2  UNL     1     -16.887  73.153  29.403  1.00  0.00    -0.308 N 
ATOM      3  H2  UNL     1     -17.698  73.181  30.022  1.00  0.00     0.166 HD
HETATM    4  C3  UNL     1     -16.759  74.243  28.522  1.00  0.00     0.413 C 
HETATM    5  N3  UNL     1     -15.341  74.107  28.132  1.00  0.00     0.035 N 
ATOM      6  H31 UNL     1     -14.689  74.204  28.910  1.00  0.00     0.289 HD
ATOM      7  H32 UNL     1     -14.987  74.891  27.584  1.00  0.00     0.289 HD
HETATM    8  C4  UNL     1     -15.260  72.854  27.466  1.00  0.00     0.301 C 
HETATM    9  N4  UNL     1     -16.369  72.123  26.875  1.00  0.00    -0.319 N 
ATOM     10  H4  UNL     1     -17.001  71.522  27.403  1.00  0.00     0.165 HD
HETATM   11  C5  UNL     1     -16.467  72.345  25.477  1.00  0.00     0.228 C 
HETATM   12  O3  UNL     1     -16.953  71.775  24.513  1.00  0.00    -0.273 OA
HETATM   13  C6  UNL     1     -15.717  73.664  25.388  1.00  0.00     0.131 C 
HETATM   14  C7  UNL     1     -16.687  74.616  25.908  1.00  0.00     0.173 C 
HETATM   15  N5  UNL     1     -17.336  74.306  27.205  1.00  0.00    -0.190 N 
HETATM   16  C8  UNL     1     -14.548  73.175  26.268  1.00  0.00     0.205 C 
HETATM   17  C14 UNL     1     -14.943  72.043  28.618  1.00  0.00     0.240 C 
HETATM   18  O12 UNL     1     -13.971  71.378  28.930  1.00  0.00    -0.286 OA
ENDROOT
BRANCH  16  19
HETATM   19  O6  UNL     1     -13.541  74.099  26.325  1.00  0.00    -0.348 OA
BRANCH  19  20
HETATM   20  C9  UNL     1     -12.338  73.605  25.751  1.00  0.00     0.288 C 
BRANCH  20  21
HETATM   21  O7  UNL     1     -11.354  74.586  25.891  1.00  0.00    -0.369 OA
ATOM     22  H7  UNL     1     -11.508  75.255  25.235  1.00  0.00     0.212 HD
ENDBRANCH  20  21
BRANCH  20  23
HETATM   23  C10 UNL     1     -11.934  72.317  26.387  1.00  0.00     0.204 C 
BRANCH  23  24
HETATM   24  O8  UNL     1     -11.520  72.483  27.701  1.00  0.00    -0.388 OA
ATOM     25  H8  UNL     1     -11.183  71.679  28.079  1.00  0.00     0.210 HD
ENDBRANCH  23  24
BRANCH  23  26
HETATM   26  C11 UNL     1     -11.065  71.417  25.606  1.00  0.00     0.182 C 
BRANCH  26  27
HETATM   27  O9  UNL     1      -9.912  72.087  25.162  1.00  0.00    -0.390 OA
ATOM     28  H9  UNL     1     -10.139  72.869  24.672  1.00  0.00     0.210 HD
ENDBRANCH  26  27
BRANCH  26  29
HETATM   29  C12 UNL     1     -10.661  70.128  26.213  1.00  0.00     0.173 C 
BRANCH  29  30
HETATM   30  O10 UNL     1      -9.853  70.197  27.321  1.00  0.00    -0.391 OA
ATOM     31  H10 UNL     1      -9.736  69.393  27.813  1.00  0.00     0.210 HD
ENDBRANCH  29  30
BRANCH  29  32
HETATM   32  C13 UNL     1     -11.823  69.195  26.481  1.00  0.00     0.198 C 
BRANCH  32  33
HETATM   33  O11 UNL     1     -12.397  69.454  27.709  1.00  0.00    -0.398 OA
ATOM     34  H11 UNL     1     -13.303  69.171  27.730  1.00  0.00     0.209 HD
ENDBRANCH  32  33
ENDBRANCH  29  32
ENDBRANCH  26  29
ENDBRANCH  23  26
ENDBRANCH  20  23
ENDBRANCH  19  20
ENDBRANCH  16  19
BRANCH   4  35
HETATM   35  O2  UNL     1     -16.913  75.484  29.185  1.00  0.00    -0.330 OA
ATOM     36  H2  UNL     1     -17.243  76.160  28.606  1.00  0.00     0.216 HD
ENDBRANCH   4  35
BRANCH   1  37
HETATM   37  C1  UNL     1     -16.393  71.060  30.523  1.00  0.00     0.285 C 
HETATM   38  N1  UNL     1     -16.880  69.795  30.132  1.00  0.00    -0.056 NA
HETATM   39  O1  UNL     1     -16.196  71.294  31.732  1.00  0.00    -0.269 OA
ENDBRANCH   1  37
BRANCH  15  40
HETATM   40  N6  UNL     1     -18.733  74.056  27.160  1.00  0.00    -0.036 N 
HETATM   41  O4  UNL     1     -19.331  73.865  26.082  1.00  0.00    -0.516 OA
HETATM   42  O5  UNL     1     -19.466  74.017  28.320  1.00  0.00    -0.516 OA
ENDBRANCH  15  40
TORSDOF 14
ENDMDL
MODEL 2
REMARK VINA RESULT: -6.612534587      0.631      1.088
REMARK  14 active torsions:
REMARK  status: ('A' for Active; 'I' for Inactive)
REMARK    1  A    between atoms: C1_2  and  C2_4 
REMARK    2  A    between atoms: C3_7  and  O2_8 
REMARK    3  A    between atoms: N5_20  and  N6_21 
REMARK    4  A    between atoms: C8_24  and  O6_25 
REMARK    5  A    between atoms: O6_25  and  C9_26 
REMARK    6  A    between atoms: C9_26  and  O7_27 
REMARK    7  A    between atoms: C9_26  and  C10_29 
REMARK    8  A    between atoms: C10_29  and  O8_30 
REMARK    9  A    between atoms: C10_29  and  C11_32 
REMARK   10  A    between atoms: C11_32  and  O9_33 
REMARK   11  A    between atoms: C11_32  and  C12_35 
REMARK   12  A    between atoms: C12_35  and  O10_36 
REMARK   13  A    between atoms: C12_35  and  C13_38 
REMARK   14  A    between atoms: C13_38  and  O11_39 
ROOT
HETATM    1  C2  UNL     1     -16.076  72.048  29.523  1.00  0.00     0.150 C 
HETATM    2  N2  UNL     1     -16.873  73.073  29.378  1.00  0.00    -0.308 N 
ATOM      3  H2  UNL     1     -17.690  73.083  29.988  1.00  0.00     0.166 HD
HETATM    4  C3  UNL     1     -16.760  74.166  28.498  1.00  0.00     0.413 C 
HETATM    5  N3  UNL     1     -15.335  74.062  28.123  1.00  0.00     0.035 N 
ATOM      6  H31 UNL     1     -14.694  74.175  28.908  1.00  0.00     0.289 HD
ATOM      7  H32 UNL     1     -14.993  74.854  27.578  1.00  0.00     0.289 HD
HETATM    8  C4  UNL     1     -15.218  72.811  27.458  1.00  0.00     0.301 C 
HETATM    9  N4  UNL     1     -16.303  72.055  26.856  1.00  0.00    -0.319 N 
ATOM     10  H4  UNL     1     -16.927  71.440  27.378  1.00  0.00     0.165 HD
HETATM   11  C5  UNL     1     -16.391  72.274  25.457  1.00  0.00     0.228 C 
HETATM   12  O3  UNL     1     -16.854  71.693  24.488  1.00  0.00    -0.273 OA
HETATM   13  C6  UNL     1     -15.671  73.610  25.375  1.00  0.00     0.131 C 
HETATM   14  C7  UNL     1     -16.668  74.539  25.884  1.00  0.00     0.173 C 
HETATM   15  N5  UNL     1     -17.324  74.216  27.175  1.00  0.00    -0.190 N 
HETATM   16  C8  UNL     1     -14.501  73.148  26.268  1.00  0.00     0.205 C 
HETATM   17  C14 UNL     1     -14.895  72.008  28.614  1.00  0.00     0.240 C 
HETATM   18  O12 UNL     1     -13.912  71.366  28.938  1.00  0.00    -0.286 OA
ENDROOT
BRANCH  16  19
HETATM   19  O6  UNL     1     -13.516  74.095  26.336  1.00  0.00    -0.348 OA
BRANCH  19  20
HETATM   20  C9  UNL     1     -12.312  73.648  25.726  1.00  0.00     0.288 C 
BRANCH  20  21
HETATM   21  O7  UNL     1     -11.362  74.665  25.843  1.00  0.00    -0.369 OA
ATOM     22  H7  UNL     1     -10.913  74.749  25.010  1.00  0.00     0.212 HD
ENDBRANCH  20  21
BRANCH  20  23
HETATM   23  C10 UNL     1     -11.842  72.374  26.344  1.00  0.00     0.204 C 
BRANCH  23  24
HETATM   24  O8  UNL     1     -11.519  72.525  27.686  1.00  0.00    -0.388 OA
ATOM     25  H8  UNL     1     -11.232  71.712  28.082  1.00  0.00     0.210 HD
ENDBRANCH  23  24
BRANCH  23  26
HETATM   26  C11 UNL     1     -10.860  71.574  25.589  1.00  0.00     0.182 C 
BRANCH  26  27
HETATM   27  O9  UNL     1      -9.979  72.402  24.870  1.00  0.00    -0.390 OA
ATOM     28  H9  UNL     1      -9.846  72.074  23.989  1.00  0.00     0.210 HD
ENDBRANCH  26  27
BRANCH  26  29
HETATM   29  C12 UNL     1     -10.067  70.561  26.321  1.00  0.00     0.173 C 
BRANCH  29  30
HETATM   30  O10 UNL     1     -10.769  69.677  27.104  1.00  0.00    -0.391 OA
ATOM     31  H10 UNL     1     -10.605  69.712  28.039  1.00  0.00     0.210 HD
ENDBRANCH  29  30
BRANCH  29  32
HETATM   32  C13 UNL     1      -9.092  69.805  25.443  1.00  0.00     0.198 C 
BRANCH  32  33
HETATM   33  O11 UNL     1      -7.842  70.387  25.471  1.00  0.00    -0.398 OA
ATOM     34  H11 UNL     1      -7.261  69.983  24.838  1.00  0.00     0.209 HD
ENDBRANCH  32  33
ENDBRANCH  29  32
ENDBRANCH  26  29
ENDBRANCH  23  26
ENDBRANCH  20  23
ENDBRANCH  19  20
ENDBRANCH  16  19
BRANCH   4  35
HETATM   35  O2  UNL     1     -16.949  75.404  29.159  1.00  0.00    -0.330 OA
ATOM     36  H2  UNL     1     -17.807  75.466  29.560  1.00  0.00     0.216 HD
ENDBRANCH   4  35
BRANCH   1  37
HETATM   37  C1  UNL     1     -16.343  70.993  30.505  1.00  0.00     0.285 C 
HETATM   38  N1  UNL     1     -16.821  69.725  30.111  1.00  0.00    -0.056 NA
HETATM   39  O1  UNL     1     -16.142  71.225  31.713  1.00  0.00    -0.269 OA
ENDBRANCH   1  37
BRANCH  15  40
HETATM   40  N6  UNL     1     -18.714  73.933  27.114  1.00  0.00    -0.036 N 
HETATM   41  O4  UNL     1     -19.249  73.487  26.080  1.00  0.00    -0.516 OA
HETATM   42  O5  UNL     1     -19.511  74.147  28.211  1.00  0.00    -0.516 OA
ENDBRANCH  15  40
TORSDOF 14
ENDMDL
MODEL 3
REMARK VINA RESULT: -6.497272140      3.311      7.164
REMARK  14 active torsions:
REMARK  status: ('A' for Active; 'I' for Inactive)
REMARK    1  A    between atoms: C1_2  and  C2_4 
REMARK    2  A    between atoms: C3_7  and  O2_8 
REMARK    3  A    between atoms: N5_20  and  N6_21 
REMARK    4  A    between atoms: C8_24  and  O6_25 
REMARK    5  A    between atoms: O6_25  and  C9_26 
REMARK    6  A    between atoms: C9_26  and  O7_27 
REMARK    7  A    between atoms: C9_26  and  C10_29 
REMARK    8  A    between atoms: C10_29  and  O8_30 
REMARK    9  A    between atoms: C10_29  and  C11_32 
REMARK   10  A    between atoms: C11_32  and  O9_33 
REMARK   11  A    between atoms: C11_32  and  C12_35 
REMARK   12  A    between atoms: C12_35  and  O10_36 
REMARK   13  A    between atoms: C12_35  and  C13_38 
REMARK   14  A    between atoms: C13_38  and  O11_39 
ROOT
HETATM    1  C2  UNL     1     -11.126  73.753  24.827  1.00  0.00     0.150 C 
HETATM    2  N2  UNL     1     -10.162  72.914  24.556  1.00  0.00    -0.308 N 
ATOM      3  H2  UNL     1      -9.433  73.268  23.936  1.00  0.00     0.166 HD
HETATM    4  C3  UNL     1      -9.989  71.590  25.001  1.00  0.00     0.413 C 
HETATM    5  N3  UNL     1     -10.914  71.571  26.152  1.00  0.00     0.035 N 
ATOM      6  H31 UNL     1     -10.665  72.227  26.892  1.00  0.00     0.289 HD
ATOM      7  H32 UNL     1     -10.851  70.725  26.718  1.00  0.00     0.289 HD
HETATM    8  C4  UNL     1     -12.203  71.796  25.594  1.00  0.00     0.301 C 
HETATM    9  N4  UNL     1     -12.582  71.596  24.206  1.00  0.00    -0.319 N 
ATOM     10  H4  UNL     1     -12.414  72.277  23.465  1.00  0.00     0.165 HD
HETATM   11  C5  UNL     1     -13.215  70.342  24.003  1.00  0.00     0.228 C 
HETATM   12  O3  UNL     1     -13.969  69.843  23.183  1.00  0.00    -0.273 OA
HETATM   13  C6  UNL     1     -12.681  69.602  25.218  1.00  0.00     0.131 C 
HETATM   14  C7  UNL     1     -11.309  69.308  24.833  1.00  0.00     0.173 C 
HETATM   15  N5  UNL     1     -10.479  70.423  24.316  1.00  0.00    -0.190 N 
HETATM   16  C8  UNL     1     -12.992  70.762  26.187  1.00  0.00     0.205 C 
HETATM   17  C14 UNL     1     -12.212  73.236  25.706  1.00  0.00     0.240 C 
HETATM   18  O12 UNL     1     -12.896  74.020  26.339  1.00  0.00    -0.286 OA
ENDROOT
BRANCH  16  19
HETATM   19  O6  UNL     1     -12.752  70.410  27.487  1.00  0.00    -0.348 OA
BRANCH  19  20
HETATM   20  C9  UNL     1     -13.917  70.533  28.291  1.00  0.00     0.288 C 
BRANCH  20  21
HETATM   21  O7  UNL     1     -13.679  69.883  29.504  1.00  0.00    -0.369 OA
ATOM     22  H7  UNL     1     -14.257  70.257  30.159  1.00  0.00     0.212 HD
ENDBRANCH  20  21
BRANCH  20  23
HETATM   23  C10 UNL     1     -14.278  71.967  28.490  1.00  0.00     0.204 C 
BRANCH  23  24
HETATM   24  O8  UNL     1     -13.276  72.680  29.133  1.00  0.00    -0.388 OA
ATOM     25  H8  UNL     1     -13.610  73.206  29.850  1.00  0.00     0.210 HD
ENDBRANCH  23  24
BRANCH  23  26
HETATM   26  C11 UNL     1     -15.630  72.263  29.000  1.00  0.00     0.182 C 
BRANCH  26  27
HETATM   27  O9  UNL     1     -15.794  71.778  30.310  1.00  0.00    -0.390 OA
ATOM     28  H9  UNL     1     -15.017  71.938  30.832  1.00  0.00     0.210 HD
ENDBRANCH  26  27
BRANCH  26  29
HETATM   29  C12 UNL     1     -16.111  73.662  28.948  1.00  0.00     0.173 C 
BRANCH  29  30
HETATM   30  O10 UNL     1     -15.290  74.572  28.328  1.00  0.00    -0.391 OA
ATOM     31  H10 UNL     1     -14.938  74.321  27.482  1.00  0.00     0.210 HD
ENDBRANCH  29  30
BRANCH  29  32
HETATM   32  C13 UNL     1     -17.522  73.798  28.415  1.00  0.00     0.198 C 
BRANCH  32  33
HETATM   33  O11 UNL     1     -17.730  75.046  27.867  1.00  0.00    -0.398 OA
ATOM     34  H11 UNL     1     -18.655  75.210  27.729  1.00  0.00     0.209 HD
ENDBRANCH  32  33
ENDBRANCH  29  32
ENDBRANCH  26  29
ENDBRANCH  23  26
ENDBRANCH  20  23
ENDBRANCH  19  20
ENDBRANCH  16  19
BRANCH   4  35
HETATM   35  O2  UNL     1      -8.680  71.359  25.489  1.00  0.00    -0.330 OA
ATOM     36  H2  UNL     1      -8.244  70.656  25.022  1.00  0.00     0.216 HD
ENDBRANCH   4  35
BRANCH   1  37
HETATM   37  C1  UNL     1     -11.145  75.113  24.278  1.00  0.00     0.285 C 
HETATM   38  N1  UNL     1     -10.672  76.213  25.024  1.00  0.00    -0.056 NA
HETATM   39  O1  UNL     1     -11.589  75.296  23.128  1.00  0.00    -0.269 OA
ENDBRANCH   1  37
BRANCH  15  40
HETATM   40  N6  UNL     1     -10.085  70.329  22.955  1.00  0.00    -0.036 N 
HETATM   41  O4  UNL     1     -10.314  71.245  22.140  1.00  0.00    -0.516 OA
HETATM   42  O5  UNL     1      -9.434  69.210  22.500  1.00  0.00    -0.516 OA
ENDBRANCH  15  40
TORSDOF 14
ENDMDL
MODEL 4
REMARK VINA RESULT: -6.368424069      3.415      7.144
REMARK  14 active torsions:
REMARK  status: ('A' for Active; 'I' for Inactive)
REMARK    1  A    between atoms: C1_2  and  C2_4 
REMARK    2  A    between atoms: C3_7  and  O2_8 
REMARK    3  A    between atoms: N5_20  and  N6_21 
REMARK    4  A    between atoms: C8_24  and  O6_25 
REMARK    5  A    between atoms: O6_25  and  C9_26 
REMARK    6  A    between atoms: C9_26  and  O7_27 
REMARK    7  A    between atoms: C9_26  and  C10_29 
REMARK    8  A    between atoms: C10_29  and  O8_30 
REMARK    9  A    between atoms: C10_29  and  C11_32 
REMARK   10  A    between atoms: C11_32  and  O9_33 
REMARK   11  A    between atoms: C11_32  and  C12_35 
REMARK   12  A    between atoms: C12_35  and  O10_36 
REMARK   13  A    between atoms: C12_35  and  C13_38 
REMARK   14  A    between atoms: C13_38  and  O11_39 
ROOT
HETATM    1  C2  UNL     1      -9.771  70.347  24.943  1.00  0.00     0.150 C 
HETATM    2  N2  UNL     1     -10.404  70.526  23.814  1.00  0.00    -0.308 N 
ATOM      3  H2  UNL     1      -9.871  70.305  22.973  1.00  0.00     0.166 HD
HETATM    4  C3  UNL     1     -11.718  70.982  23.597  1.00  0.00     0.413 C 
HETATM    5  N3  UNL     1     -12.296  70.780  24.941  1.00  0.00     0.035 N 
ATOM      6  H31 UNL     1     -12.307  69.806  25.244  1.00  0.00     0.289 HD
ATOM      7  H32 UNL     1     -13.305  70.926  24.982  1.00  0.00     0.289 HD
HETATM    8  C4  UNL     1     -11.554  71.641  25.796  1.00  0.00     0.301 C 
HETATM    9  N4  UNL     1     -10.769  72.791  25.382  1.00  0.00    -0.319 N 
ATOM     10  H4  UNL     1      -9.815  72.732  25.024  1.00  0.00     0.165 HD
HETATM   11  C5  UNL     1     -11.484  74.007  25.535  1.00  0.00     0.228 C 
HETATM   12  O3  UNL     1     -11.218  75.193  25.651  1.00  0.00    -0.273 OA
HETATM   13  C6  UNL     1     -12.901  73.457  25.526  1.00  0.00     0.131 C 
HETATM   14  C7  UNL     1     -13.117  73.161  24.118  1.00  0.00     0.173 C 
HETATM   15  N5  UNL     1     -12.088  72.360  23.411  1.00  0.00    -0.190 N 
HETATM   16  C8  UNL     1     -12.576  72.326  26.524  1.00  0.00     0.205 C 
HETATM   17  C14 UNL     1     -10.530  70.697  26.178  1.00  0.00     0.240 C 
HETATM   18  O12 UNL     1     -10.215  70.189  27.239  1.00  0.00    -0.286 OA
ENDROOT
BRANCH  16  19
HETATM   19  O6  UNL     1     -13.701  71.638  26.889  1.00  0.00    -0.348 OA
BRANCH  19  20
HETATM   20  C9  UNL     1     -14.102  71.950  28.217  1.00  0.00     0.288 C 
BRANCH  20  21
HETATM   21  O7  UNL     1     -13.025  72.558  28.865  1.00  0.00    -0.369 OA
ATOM     22  H7  UNL     1     -12.520  73.034  28.217  1.00  0.00     0.212 HD
ENDBRANCH  20  21
BRANCH  20  23
HETATM   23  C10 UNL     1     -15.315  72.819  28.217  1.00  0.00     0.204 C 
BRANCH  23  24
HETATM   24  O8  UNL     1     -15.001  74.164  28.072  1.00  0.00    -0.388 OA
ATOM     25  H8  UNL     1     -14.067  74.310  27.986  1.00  0.00     0.210 HD
ENDBRANCH  23  24
BRANCH  23  26
HETATM   26  C11 UNL     1     -16.335  72.562  29.250  1.00  0.00     0.182 C 
BRANCH  26  27
HETATM   27  O9  UNL     1     -15.786  71.867  30.342  1.00  0.00    -0.390 OA
ATOM     28  H9  UNL     1     -16.145  72.182  31.163  1.00  0.00     0.210 HD
ENDBRANCH  26  27
BRANCH  26  29
HETATM   29  C12 UNL     1     -17.121  73.707  29.763  1.00  0.00     0.173 C 
BRANCH  29  30
HETATM   30  O10 UNL     1     -17.935  74.348  28.862  1.00  0.00    -0.391 OA
ATOM     31  H10 UNL     1     -17.630  74.385  27.963  1.00  0.00     0.210 HD
ENDBRANCH  29  30
BRANCH  29  32
HETATM   32  C13 UNL     1     -17.899  73.391  31.023  1.00  0.00     0.198 C 
BRANCH  32  33
HETATM   33  O11 UNL     1     -17.226  73.822  32.146  1.00  0.00    -0.398 OA
ATOM     34  H11 UNL     1     -17.494  73.334  32.915  1.00  0.00     0.209 HD
ENDBRANCH  32  33
ENDBRANCH  29  32
ENDBRANCH  26  29
ENDBRANCH  23  26
ENDBRANCH  20  23
ENDBRANCH  19  20
ENDBRANCH  16  19
BRANCH   4  35
HETATM   35  O2  UNL     1     -12.424  70.156  22.689  1.00  0.00    -0.330 OA
ATOM     36  H2  UNL     1     -13.326  70.025  22.953  1.00  0.00     0.216 HD
ENDBRANCH   4  35
BRANCH   1  37
HETATM   37  C1  UNL     1      -8.392  69.852  24.988  1.00  0.00     0.285 C 
HETATM   38  N1  UNL     1      -7.985  68.738  24.224  1.00  0.00    -0.056 NA
HETATM   39  O1  UNL     1      -7.564  70.431  25.718  1.00  0.00    -0.269 OA
ENDBRANCH   1  37
BRANCH  15  40
HETATM   40  N6  UNL     1     -11.372  73.030  22.384  1.00  0.00    -0.036 N 
HETATM   41  O4  UNL     1     -11.954  73.564  21.419  1.00  0.00    -0.516 OA
HETATM   42  O5  UNL     1     -10.003  73.106  22.433  1.00  0.00    -0.516 OA
ENDBRANCH  15  40
TORSDOF 14
ENDMDL
MODEL 5
REMARK VINA RESULT: -6.198163521      3.263      6.793
REMARK  14 active torsions:
REMARK  status: ('A' for Active; 'I' for Inactive)
REMARK    1  A    between atoms: C1_2  and  C2_4 
REMARK    2  A    between atoms: C3_7  and  O2_8 
REMARK    3  A    between atoms: N5_20  and  N6_21 
REMARK    4  A    between atoms: C8_24  and  O6_25 
REMARK    5  A    between atoms: O6_25  and  C9_26 
REMARK    6  A    between atoms: C9_26  and  O7_27 
REMARK    7  A    between atoms: C9_26  and  C10_29 
REMARK    8  A    between atoms: C10_29  and  O8_30 
REMARK    9  A    between atoms: C10_29  and  C11_32 
REMARK   10  A    between atoms: C11_32  and  O9_33 
REMARK   11  A    between atoms: C11_32  and  C12_35 
REMARK   12  A    between atoms: C12_35  and  O10_36 
REMARK   13  A    between atoms: C12_35  and  C13_38 
REMARK   14  A    between atoms: C13_38  and  O11_39 
ROOT
HETATM    1  C2  UNL     1     -13.229  75.557  24.501  1.00  0.00     0.150 C 
HETATM    2  N2  UNL     1     -11.936  75.716  24.402  1.00  0.00    -0.308 N 
ATOM      3  H2  UNL     1     -11.634  76.582  23.956  1.00  0.00     0.166 HD
HETATM    4  C3  UNL     1     -10.903  74.859  24.825  1.00  0.00     0.413 C 
HETATM    5  N3  UNL     1     -11.642  73.991  25.763  1.00  0.00     0.035 N 
ATOM      6  H31 UNL     1     -12.037  74.487  26.561  1.00  0.00     0.289 HD
ATOM      7  H32 UNL     1     -11.046  73.361  26.300  1.00  0.00     0.289 HD
HETATM    8  C4  UNL     1     -12.611  73.324  24.963  1.00  0.00     0.301 C 
HETATM    9  N4  UNL     1     -12.564  73.158  23.520  1.00  0.00    -0.319 N 
ATOM     10  H4  UNL     1     -12.864  73.869  22.854  1.00  0.00     0.165 HD
HETATM   11  C5  UNL     1     -12.051  71.887  23.149  1.00  0.00     0.228 C 
HETATM   12  O3  UNL     1     -12.102  71.153  22.175  1.00  0.00    -0.273 OA
HETATM   13  C6  UNL     1     -11.288  71.553  24.420  1.00  0.00     0.131 C 
HETATM   14  C7  UNL     1     -10.106  72.394  24.311  1.00  0.00     0.173 C 
HETATM   15  N5  UNL     1     -10.303  73.834  24.013  1.00  0.00    -0.190 N 
HETATM   16  C8  UNL     1     -12.454  71.956  25.346  1.00  0.00     0.205 C 
HETATM   17  C14 UNL     1     -13.682  74.280  25.122  1.00  0.00     0.240 C 
HETATM   18  O12 UNL     1     -14.788  74.220  25.630  1.00  0.00    -0.286 OA
ENDROOT
BRANCH  16  19
HETATM   19  O6  UNL     1     -12.183  71.662  26.654  1.00  0.00    -0.348 OA
BRANCH  19  20
HETATM   20  C9  UNL     1     -13.348  71.246  27.355  1.00  0.00     0.288 C 
BRANCH  20  21
HETATM   21  O7  UNL     1     -13.030  70.096  28.081  1.00  0.00    -0.369 OA
ATOM     22  H7  UNL     1     -13.515  70.118  28.898  1.00  0.00     0.212 HD
ENDBRANCH  20  21
BRANCH  20  23
HETATM   23  C10 UNL     1     -13.859  72.337  28.234  1.00  0.00     0.204 C 
BRANCH  23  24
HETATM   24  O8  UNL     1     -12.945  72.697  29.215  1.00  0.00    -0.388 OA
ATOM     25  H8  UNL     1     -12.194  72.116  29.241  1.00  0.00     0.210 HD
ENDBRANCH  23  24
BRANCH  23  26
HETATM   26  C11 UNL     1     -15.241  72.214  28.735  1.00  0.00     0.182 C 
BRANCH  26  27
HETATM   27  O9  UNL     1     -15.289  71.423  29.897  1.00  0.00    -0.390 OA
ATOM     28  H9  UNL     1     -14.496  70.910  29.994  1.00  0.00     0.210 HD
ENDBRANCH  26  27
BRANCH  26  29
HETATM   29  C12 UNL     1     -16.015  73.453  28.972  1.00  0.00     0.173 C 
BRANCH  29  30
HETATM   30  O10 UNL     1     -15.351  74.640  28.781  1.00  0.00    -0.391 OA
ATOM     31  H10 UNL     1     -14.767  74.686  28.033  1.00  0.00     0.210 HD
ENDBRANCH  29  30
BRANCH  29  32
HETATM   32  C13 UNL     1     -17.343  73.485  28.244  1.00  0.00     0.198 C 
BRANCH  32  33
HETATM   33  O11 UNL     1     -17.825  74.773  28.142  1.00  0.00    -0.398 OA
ATOM     34  H11 UNL     1     -17.327  75.370  28.688  1.00  0.00     0.209 HD
ENDBRANCH  32  33
ENDBRANCH  29  32
ENDBRANCH  26  29
ENDBRANCH  23  26
ENDBRANCH  20  23
ENDBRANCH  19  20
ENDBRANCH  16  19
BRANCH   4  35
HETATM   35  O2  UNL     1      -9.908  75.548  25.560  1.00  0.00    -0.330 OA
ATOM     36  H2  UNL     1      -9.457  74.978  26.172  1.00  0.00     0.216 HD
ENDBRANCH   4  35
BRANCH   1  37
HETATM   37  C1  UNL     1     -14.173  76.565  24.009  1.00  0.00     0.285 C 
HETATM   38  N1  UNL     1     -14.385  76.763  22.628  1.00  0.00    -0.056 NA
HETATM   39  O1  UNL     1     -14.800  77.260  24.832  1.00  0.00    -0.269 OA
ENDBRANCH   1  37
BRANCH  15  40
HETATM   40  N6  UNL     1      -9.815  74.284  22.758  1.00  0.00    -0.036 N 
HETATM   41  O4  UNL     1      -9.435  75.459  22.585  1.00  0.00    -0.516 OA
HETATM   42  O5  UNL     1      -9.750  73.422  21.693  1.00  0.00    -0.516 OA
ENDBRANCH  15  40
TORSDOF 14
ENDMDL
