MODEL 1
REMARK VINA RESULT: -6.024214176      0.000      0.000
REMARK  14 active torsions:
REMARK  status: ('A' for Active; 'I' for Inactive)
REMARK    1  A    between atoms: C2_2  and  N1_3 
REMARK    2  A    between atoms: N3_10  and  C5_11 
REMARK    3  A    between atoms: C6_13  and  C7_14 
REMARK    4  A    between atoms: C7_14  and  O4_15 
REMARK    5  A    between atoms: C7_14  and  O5_17 
REMARK    6  A    between atoms: N4_19  and  C8_20 
REMARK    7  A    between atoms: C10_23  and  N5_24 
REMARK    8  A    between atoms: N5_24  and  C11_27 
REMARK    9  A    between atoms: C11_27  and  O7_28 
REMARK   10  A    between atoms: C11_27  and  C12_30 
REMARK   11  A    between atoms: C12_30  and  O8_31 
REMARK   12  A    between atoms: C12_30  and  C13_33 
REMARK   13  A    between atoms: C13_33  and  O9_35 
REMARK   14  A    between atoms: C15_37  and  O10_38 
ROOT
HETATM    1  C5  UNL     1     -13.709  73.926  25.785  1.00  0.00     0.271 C 
HETATM    2  O3  UNL     1     -13.577  73.010  26.779  1.00  0.00    -0.334 OA
HETATM    3  C6  UNL     1     -14.732  72.659  27.451  1.00  0.00     0.283 C 
HETATM    4  N4  UNL     1     -15.678  73.688  27.671  1.00  0.00    -0.326 N 
HETATM    5  C9  UNL     1     -16.145  74.780  26.813  1.00  0.00     0.163 C 
HETATM    6  C10 UNL     1     -16.119  74.467  25.364  1.00  0.00     0.239 C 
HETATM    7  C15 UNL     1     -14.897  73.719  24.895  1.00  0.00     0.200 C 
ENDROOT
BRANCH   6   8
HETATM    8  N5  UNL     1     -16.299  75.689  24.601  1.00  0.00    -0.038 N 
ATOM      9  H52 UNL     1     -15.803  75.632  23.711  1.00  0.00     0.281 HD
ATOM     10  H51 UNL     1     -17.257  75.760  24.259  1.00  0.00     0.281 HD
BRANCH   8  11
HETATM   11  C11 UNL     1     -15.924  76.887  25.314  1.00  0.00     0.350 C 
BRANCH  11  12
HETATM   12  O7  UNL     1     -14.841  77.551  24.681  1.00  0.00    -0.368 OA
ATOM     13  H7  UNL     1     -14.009  77.149  24.902  1.00  0.00     0.212 HD
ENDBRANCH  11  12
BRANCH  11  14
HETATM   14  C12 UNL     1     -17.085  77.867  25.153  1.00  0.00     0.202 C 
BRANCH  14  15
HETATM   15  O8  UNL     1     -18.246  77.413  25.750  1.00  0.00    -0.389 OA
ATOM     16  H8  UNL     1     -18.995  77.454  25.166  1.00  0.00     0.210 HD
ENDBRANCH  14  15
BRANCH  14  17
HETATM   17  C13 UNL     1     -16.749  79.236  25.703  1.00  0.00     0.147 C 
HETATM   18  C14 UNL     1     -18.018  79.969  26.122  1.00  0.00     0.042 C 
BRANCH  17  19
HETATM   19  O9  UNL     1     -16.232  79.965  24.617  1.00  0.00    -0.393 OA
ATOM     20  H9  UNL     1     -15.937  80.792  24.981  1.00  0.00     0.210 HD
ENDBRANCH  17  19
ENDBRANCH  14  17
ENDBRANCH  11  14
ENDBRANCH   8  11
ENDBRANCH   6   8
BRANCH   7  21
HETATM   21  O10 UNL     1     -15.149  72.385  24.598  1.00  0.00    -0.389 OA
ATOM     22  H10 UNL     1     -14.554  72.016  23.955  1.00  0.00     0.210 HD
ENDBRANCH   7  21
BRANCH   4  23
HETATM   23  C8  UNL     1     -16.300  73.687  28.944  1.00  0.00     0.353 C 
HETATM   24  O6  UNL     1     -16.835  74.758  29.394  1.00  0.00    -0.283 OA
ENDBRANCH   4  23
BRANCH   1  25
HETATM   25  N3  UNL     1     -12.481  73.958  25.007  1.00  0.00    -0.220 N 
HETATM   26  C4  UNL     1     -11.834  72.850  24.595  1.00  0.00     0.336 A 
HETATM   27  N2  UNL     1     -10.698  72.892  23.873  1.00  0.00    -0.260 N 
HETATM   28  O2  UNL     1     -12.343  71.734  24.918  1.00  0.00    -0.246 OA
HETATM   29  C3  UNL     1     -10.203  74.102  23.559  1.00  0.00     0.334 A 
ATOM     30  H2  UNL     1     -10.230  72.036  23.575  1.00  0.00     0.175 HD
HETATM   31  N1  UNL     1     -10.794  75.250  23.936  1.00  0.00    -0.251 N 
HETATM   32  O1  UNL     1      -9.147  74.189  22.888  1.00  0.00    -0.246 OA
HETATM   33  C16 UNL     1     -11.925  75.144  24.654  1.00  0.00     0.338 A 
HETATM   34  O11 UNL     1     -12.477  76.230  25.005  1.00  0.00    -0.246 OA
BRANCH  31  35
HETATM   35  C2  UNL     1     -10.240  76.559  23.582  1.00  0.00     0.134 C 
HETATM   36  C1  UNL     1      -9.158  76.996  24.510  1.00  0.00     0.027 C 
ENDBRANCH  31  35
ENDBRANCH   1  25
BRANCH   3  37
HETATM   37  C7  UNL     1     -14.248  72.069  28.772  1.00  0.00     0.303 C 
BRANCH  37  38
HETATM   38  O4  UNL     1     -13.086  72.737  29.115  1.00  0.00    -0.367 OA
ATOM     39  H4  UNL     1     -12.453  72.570  28.426  1.00  0.00     0.212 HD
ENDBRANCH  37  38
BRANCH  37  40
HETATM   40  O5  UNL     1     -13.893  70.738  28.474  1.00  0.00    -0.367 OA
ATOM     41  H5  UNL     1     -12.952  70.755  28.342  1.00  0.00     0.212 HD
ENDBRANCH  37  40
ENDBRANCH   3  37
TORSDOF 14
ENDMDL
MODEL 2
REMARK VINA RESULT: -5.968144189      2.275      6.423
REMARK  14 active torsions:
REMARK  status: ('A' for Active; 'I' for Inactive)
REMARK    1  A    between atoms: C2_2  and  N1_3 
REMARK    2  A    between atoms: N3_10  and  C5_11 
REMARK    3  A    between atoms: C6_13  and  C7_14 
REMARK    4  A    between atoms: C7_14  and  O4_15 
REMARK    5  A    between atoms: C7_14  and  O5_17 
REMARK    6  A    between atoms: N4_19  and  C8_20 
REMARK    7  A    between atoms: C10_23  and  N5_24 
REMARK    8  A    between atoms: N5_24  and  C11_27 
REMARK    9  A    between atoms: C11_27  and  O7_28 
REMARK   10  A    between atoms: C11_27  and  C12_30 
REMARK   11  A    between atoms: C12_30  and  O8_31 
REMARK   12  A    between atoms: C12_30  and  C13_33 
REMARK   13  A    between atoms: C13_33  and  O9_35 
REMARK   14  A    between atoms: C15_37  and  O10_38 
ROOT
HETATM    1  C5  UNL     1     -13.402  72.115  26.388  1.00  0.00     0.271 C 
HETATM    2  O3  UNL     1     -13.456  70.815  26.777  1.00  0.00    -0.334 OA
HETATM    3  C6  UNL     1     -12.418  70.003  26.360  1.00  0.00     0.283 C 
HETATM    4  N4  UNL     1     -11.900  70.247  25.066  1.00  0.00    -0.326 N 
HETATM    5  C9  UNL     1     -11.617  71.493  24.350  1.00  0.00     0.163 C 
HETATM    6  C10 UNL     1     -11.239  72.626  25.230  1.00  0.00     0.239 C 
HETATM    7  C15 UNL     1     -12.048  72.746  26.497  1.00  0.00     0.200 C 
ENDROOT
BRANCH   6   8
HETATM    8  N5  UNL     1     -11.283  73.864  24.472  1.00  0.00    -0.038 N 
ATOM      9  H52 UNL     1     -11.743  73.718  23.574  1.00  0.00     0.281 HD
ATOM     10  H51 UNL     1     -11.938  74.520  24.897  1.00  0.00     0.281 HD
BRANCH   8  11
HETATM   11  C11 UNL     1      -9.992  74.484  24.286  1.00  0.00     0.350 C 
BRANCH  11  12
HETATM   12  O7  UNL     1      -9.503  74.280  22.969  1.00  0.00    -0.368 OA
ATOM     13  H7  UNL     1      -8.774  74.858  22.775  1.00  0.00     0.212 HD
ENDBRANCH  11  12
BRANCH  11  14
HETATM   14  C12 UNL     1     -10.224  75.992  24.350  1.00  0.00     0.202 C 
BRANCH  14  15
HETATM   15  O8  UNL     1     -11.371  76.321  25.046  1.00  0.00    -0.389 OA
ATOM     16  H8  UNL     1     -11.911  76.949  24.581  1.00  0.00     0.210 HD
ENDBRANCH  14  15
BRANCH  14  17
HETATM   17  C13 UNL     1      -9.047  76.719  24.964  1.00  0.00     0.147 C 
HETATM   18  C14 UNL     1      -8.291  77.506  23.901  1.00  0.00     0.042 C 
BRANCH  17  19
HETATM   19  O9  UNL     1      -8.161  75.715  25.393  1.00  0.00    -0.393 OA
ATOM     20  H9  UNL     1      -7.449  76.169  25.828  1.00  0.00     0.210 HD
ENDBRANCH  17  19
ENDBRANCH  14  17
ENDBRANCH  11  14
ENDBRANCH   8  11
ENDBRANCH   6   8
BRANCH   7  21
HETATM   21  O10 UNL     1     -11.345  72.371  27.636  1.00  0.00    -0.389 OA
ATOM     22  H10 UNL     1     -10.654  72.977  27.877  1.00  0.00     0.210 HD
ENDBRANCH   7  21
BRANCH   4  23
HETATM   23  C8  UNL     1     -11.591  69.095  24.302  1.00  0.00     0.353 C 
HETATM   24  O6  UNL     1     -10.424  68.956  23.799  1.00  0.00    -0.283 OA
ENDBRANCH   4  23
BRANCH   1  25
HETATM   25  N3  UNL     1     -14.388  72.873  27.140  1.00  0.00    -0.220 N 
HETATM   26  C4  UNL     1     -14.594  72.716  28.462  1.00  0.00     0.336 A 
HETATM   27  N2  UNL     1     -15.510  73.427  29.150  1.00  0.00    -0.260 N 
HETATM   28  O2  UNL     1     -13.880  71.853  29.057  1.00  0.00    -0.246 OA
HETATM   29  C3  UNL     1     -16.239  74.328  28.469  1.00  0.00     0.334 A 
ATOM     30  H2  UNL     1     -15.644  73.285  30.151  1.00  0.00     0.175 HD
HETATM   31  N1  UNL     1     -16.088  74.539  27.150  1.00  0.00    -0.251 N 
HETATM   32  O1  UNL     1     -17.102  75.012  29.068  1.00  0.00    -0.246 OA
HETATM   33  C16 UNL     1     -15.159  73.801  26.518  1.00  0.00     0.338 A 
HETATM   34  O11 UNL     1     -15.022  74.005  25.275  1.00  0.00    -0.246 OA
BRANCH  31  35
HETATM   35  C2  UNL     1     -16.890  75.528  26.426  1.00  0.00     0.134 C 
HETATM   36  C1  UNL     1     -18.199  74.980  25.963  1.00  0.00     0.027 C 
ENDBRANCH  31  35
ENDBRANCH   1  25
BRANCH   3  37
HETATM   37  C7  UNL     1     -12.968  68.585  26.470  1.00  0.00     0.303 C 
BRANCH  37  38
HETATM   38  O4  UNL     1     -14.327  68.691  26.703  1.00  0.00    -0.367 OA
ATOM     39  H4  UNL     1     -14.717  67.855  26.475  1.00  0.00     0.212 HD
ENDBRANCH  37  38
BRANCH  37  40
HETATM   40  O5  UNL     1     -12.384  68.052  27.638  1.00  0.00    -0.367 OA
ATOM     41  H5  UNL     1     -12.552  67.118  27.597  1.00  0.00     0.212 HD
ENDBRANCH  37  40
ENDBRANCH   3  37
TORSDOF 14
ENDMDL
MODEL 3
REMARK VINA RESULT: -5.961838300      3.922      7.071
REMARK  14 active torsions:
REMARK  status: ('A' for Active; 'I' for Inactive)
REMARK    1  A    between atoms: C2_2  and  N1_3 
REMARK    2  A    between atoms: N3_10  and  C5_11 
REMARK    3  A    between atoms: C6_13  and  C7_14 
REMARK    4  A    between atoms: C7_14  and  O4_15 
REMARK    5  A    between atoms: C7_14  and  O5_17 
REMARK    6  A    between atoms: N4_19  and  C8_20 
REMARK    7  A    between atoms: C10_23  and  N5_24 
REMARK    8  A    between atoms: N5_24  and  C11_27 
REMARK    9  A    between atoms: C11_27  and  O7_28 
REMARK   10  A    between atoms: C11_27  and  C12_30 
REMARK   11  A    between atoms: C12_30  and  O8_31 
REMARK   12  A    between atoms: C12_30  and  C13_33 
REMARK   13  A    between atoms: C13_33  and  O9_35 
REMARK   14  A    between atoms: C15_37  and  O10_38 
ROOT
HETATM    1  C5  UNL     1     -15.263  71.548  27.898  1.00  0.00     0.271 C 
HETATM    2  O3  UNL     1     -15.556  72.822  28.265  1.00  0.00    -0.334 OA
HETATM    3  C6  UNL     1     -16.684  72.995  29.045  1.00  0.00     0.283 C 
HETATM    4  N4  UNL     1     -17.788  72.156  28.761  1.00  0.00    -0.326 N 
HETATM    5  C9  UNL     1     -17.867  70.733  28.424  1.00  0.00     0.163 C 
HETATM    6  C10 UNL     1     -16.789  69.906  29.019  1.00  0.00     0.239 C 
HETATM    7  C15 UNL     1     -15.417  70.531  28.987  1.00  0.00     0.200 C 
ENDROOT
BRANCH   6   8
HETATM    8  N5  UNL     1     -16.775  68.599  28.387  1.00  0.00    -0.038 N 
ATOM      9  H52 UNL     1     -17.606  68.067  28.645  1.00  0.00     0.281 HD
ATOM     10  H51 UNL     1     -16.930  68.685  27.383  1.00  0.00     0.281 HD
BRANCH   8  11
HETATM   11  C11 UNL     1     -15.580  67.833  28.652  1.00  0.00     0.350 C 
BRANCH  11  12
HETATM   12  O7  UNL     1     -15.859  66.696  29.455  1.00  0.00    -0.368 OA
ATOM     13  H7  UNL     1     -15.985  66.935  30.366  1.00  0.00     0.212 HD
ENDBRANCH  11  12
BRANCH  11  14
HETATM   14  C12 UNL     1     -15.149  67.229  27.317  1.00  0.00     0.202 C 
BRANCH  14  15
HETATM   15  O8  UNL     1     -15.750  67.849  26.238  1.00  0.00    -0.389 OA
ATOM     16  H8  UNL     1     -16.687  67.694  26.205  1.00  0.00     0.210 HD
ENDBRANCH  14  15
BRANCH  14  17
HETATM   17  C13 UNL     1     -13.647  67.269  27.137  1.00  0.00     0.147 C 
HETATM   18  C14 UNL     1     -13.068  65.860  27.166  1.00  0.00     0.042 C 
BRANCH  17  19
HETATM   19  O9  UNL     1     -13.144  67.908  28.284  1.00  0.00    -0.393 OA
ATOM     20  H9  UNL     1     -12.306  67.496  28.461  1.00  0.00     0.210 HD
ENDBRANCH  17  19
ENDBRANCH  14  17
ENDBRANCH  11  14
ENDBRANCH   8  11
ENDBRANCH   6   8
BRANCH   7  21
HETATM   21  O10 UNL     1     -14.985  70.972  30.232  1.00  0.00    -0.389 OA
ATOM     22  H10 UNL     1     -14.155  71.434  30.209  1.00  0.00     0.210 HD
ENDBRANCH   7  21
BRANCH   4  23
HETATM   23  C8  UNL     1     -19.059  72.780  28.803  1.00  0.00     0.353 C 
HETATM   24  O6  UNL     1     -19.664  72.923  29.922  1.00  0.00    -0.283 OA
ENDBRANCH   4  23
BRANCH   1  25
HETATM   25  N3  UNL     1     -13.918  71.514  27.347  1.00  0.00    -0.220 N 
HETATM   26  C4  UNL     1     -12.854  72.080  27.949  1.00  0.00     0.336 A 
HETATM   27  N2  UNL     1     -11.612  72.041  27.429  1.00  0.00    -0.260 N 
HETATM   28  O2  UNL     1     -13.064  72.669  29.052  1.00  0.00    -0.246 OA
HETATM   29  C3  UNL     1     -11.446  71.403  26.257  1.00  0.00     0.334 A 
ATOM     30  H2  UNL     1     -10.825  72.479  27.908  1.00  0.00     0.175 HD
HETATM   31  N1  UNL     1     -12.461  70.815  25.599  1.00  0.00    -0.251 N 
HETATM   32  O1  UNL     1     -10.308  71.341  25.736  1.00  0.00    -0.246 OA
HETATM   33  C16 UNL     1     -13.677  70.887  26.167  1.00  0.00     0.338 A 
HETATM   34  O11 UNL     1     -14.629  70.331  25.542  1.00  0.00    -0.246 OA
BRANCH  31  35
HETATM   35  C2  UNL     1     -12.261  70.123  24.323  1.00  0.00     0.134 C 
HETATM   36  C1  UNL     1     -11.757  68.729  24.498  1.00  0.00     0.027 C 
ENDBRANCH  31  35
ENDBRANCH   1  25
BRANCH   3  37
HETATM   37  C7  UNL     1     -17.055  74.464  28.870  1.00  0.00     0.303 C 
BRANCH  37  38
HETATM   38  O4  UNL     1     -15.966  75.093  28.292  1.00  0.00    -0.367 OA
ATOM     39  H4  UNL     1     -16.167  75.211  27.371  1.00  0.00     0.212 HD
ENDBRANCH  37  38
BRANCH  37  40
HETATM   40  O5  UNL     1     -17.184  74.971  30.179  1.00  0.00    -0.367 OA
ATOM     41  H5  UNL     1     -18.091  74.818  30.417  1.00  0.00     0.212 HD
ENDBRANCH  37  40
ENDBRANCH   3  37
TORSDOF 14
ENDMDL
MODEL 4
REMARK VINA RESULT: -5.909723811      2.928      6.961
REMARK  14 active torsions:
REMARK  status: ('A' for Active; 'I' for Inactive)
REMARK    1  A    between atoms: C2_2  and  N1_3 
REMARK    2  A    between atoms: N3_10  and  C5_11 
REMARK    3  A    between atoms: C6_13  and  C7_14 
REMARK    4  A    between atoms: C7_14  and  O4_15 
REMARK    5  A    between atoms: C7_14  and  O5_17 
REMARK    6  A    between atoms: N4_19  and  C8_20 
REMARK    7  A    between atoms: C10_23  and  N5_24 
REMARK    8  A    between atoms: N5_24  and  C11_27 
REMARK    9  A    between atoms: C11_27  and  O7_28 
REMARK   10  A    between atoms: C11_27  and  C12_30 
REMARK   11  A    between atoms: C12_30  and  O8_31 
REMARK   12  A    between atoms: C12_30  and  C13_33 
REMARK   13  A    between atoms: C13_33  and  O9_35 
REMARK   14  A    between atoms: C15_37  and  O10_38 
ROOT
HETATM    1  C5  UNL     1     -15.392  72.162  27.637  1.00  0.00     0.271 C 
HETATM    2  O3  UNL     1     -16.101  71.772  28.728  1.00  0.00    -0.334 OA
HETATM    3  C6  UNL     1     -15.624  70.671  29.412  1.00  0.00     0.283 C 
HETATM    4  N4  UNL     1     -15.056  69.635  28.634  1.00  0.00    -0.326 N 
HETATM    5  C9  UNL     1     -14.177  69.669  27.461  1.00  0.00     0.163 C 
HETATM    6  C10 UNL     1     -13.273  70.843  27.414  1.00  0.00     0.239 C 
HETATM    7  C15 UNL     1     -13.905  72.151  27.820  1.00  0.00     0.200 C 
ENDROOT
BRANCH   6   8
HETATM    8  N5  UNL     1     -12.680  70.946  26.093  1.00  0.00    -0.038 N 
ATOM      9  H52 UNL     1     -12.801  70.075  25.577  1.00  0.00     0.281 HD
ATOM     10  H51 UNL     1     -13.227  71.573  25.503  1.00  0.00     0.281 HD
BRANCH   8  11
HETATM   11  C11 UNL     1     -11.291  71.340  26.103  1.00  0.00     0.350 C 
BRANCH  11  12
HETATM   12  O7  UNL     1     -10.861  71.697  27.408  1.00  0.00    -0.368 OA
ATOM     13  H7  UNL     1     -10.650  72.622  27.464  1.00  0.00     0.212 HD
ENDBRANCH  11  12
BRANCH  11  14
HETATM   14  C12 UNL     1     -10.482  70.082  25.794  1.00  0.00     0.202 C 
BRANCH  14  15
HETATM   15  O8  UNL     1     -11.217  69.139  25.100  1.00  0.00    -0.389 OA
ATOM     16  H8  UNL     1     -11.851  68.695  25.652  1.00  0.00     0.210 HD
ENDBRANCH  14  15
BRANCH  14  17
HETATM   17  C13 UNL     1      -9.223  70.396  25.016  1.00  0.00     0.147 C 
HETATM   18  C14 UNL     1      -7.993  69.909  25.771  1.00  0.00     0.042 C 
BRANCH  17  19
HETATM   19  O9  UNL     1      -9.126  71.799  24.999  1.00  0.00    -0.393 OA
ATOM     20  H9  UNL     1      -8.346  71.997  24.494  1.00  0.00     0.210 HD
ENDBRANCH  17  19
ENDBRANCH  14  17
ENDBRANCH  11  14
ENDBRANCH   8  11
ENDBRANCH   6   8
BRANCH   7  21
HETATM   21  O10 UNL     1     -13.490  72.598  29.068  1.00  0.00    -0.389 OA
ATOM     22  H10 UNL     1     -13.463  73.545  29.147  1.00  0.00     0.210 HD
ENDBRANCH   7  21
BRANCH   4  23
HETATM   23  C8  UNL     1     -15.380  68.317  29.037  1.00  0.00     0.353 C 
HETATM   24  O6  UNL     1     -14.654  67.335  28.655  1.00  0.00    -0.283 OA
ENDBRANCH   4  23
BRANCH   1  25
HETATM   25  N3  UNL     1     -15.851  73.477  27.222  1.00  0.00    -0.220 N 
HETATM   26  C4  UNL     1     -16.125  74.475  28.085  1.00  0.00     0.336 A 
HETATM   27  N2  UNL     1     -16.548  75.691  27.688  1.00  0.00    -0.260 N 
HETATM   28  O2  UNL     1     -15.969  74.227  29.319  1.00  0.00    -0.246 OA
HETATM   29  C3  UNL     1     -16.697  75.899  26.369  1.00  0.00     0.334 A 
ATOM     30  H2  UNL     1     -16.748  76.427  28.366  1.00  0.00     0.175 HD
HETATM   31  N1  UNL     1     -16.442  74.951  25.449  1.00  0.00    -0.251 N 
HETATM   32  O1  UNL     1     -17.088  77.016  25.954  1.00  0.00    -0.246 OA
HETATM   33  C16 UNL     1     -16.023  73.759  25.905  1.00  0.00     0.338 A 
HETATM   34  O11 UNL     1     -15.785  72.870  25.034  1.00  0.00    -0.246 OA
BRANCH  31  35
HETATM   35  C2  UNL     1     -16.608  75.198  24.014  1.00  0.00     0.134 C 
HETATM   36  C1  UNL     1     -15.374  75.745  23.378  1.00  0.00     0.027 C 
ENDBRANCH  31  35
ENDBRANCH   1  25
BRANCH   3  37
HETATM   37  C7  UNL     1     -16.820  70.162  30.210  1.00  0.00     0.303 C 
BRANCH  37  38
HETATM   38  O4  UNL     1     -17.954  70.714  29.641  1.00  0.00    -0.367 OA
ATOM     39  H4  UNL     1     -17.925  70.518  28.711  1.00  0.00     0.212 HD
ENDBRANCH  37  38
BRANCH  37  40
HETATM   40  O5  UNL     1     -16.677  70.729  31.493  1.00  0.00    -0.367 OA
ATOM     41  H5  UNL     1     -15.942  70.273  31.886  1.00  0.00     0.212 HD
ENDBRANCH  37  40
ENDBRANCH   3  37
TORSDOF 14
ENDMDL
MODEL 5
REMARK VINA RESULT: -5.779131923      2.160      5.992
REMARK  14 active torsions:
REMARK  status: ('A' for Active; 'I' for Inactive)
REMARK    1  A    between atoms: C2_2  and  N1_3 
REMARK    2  A    between atoms: N3_10  and  C5_11 
REMARK    3  A    between atoms: C6_13  and  C7_14 
REMARK    4  A    between atoms: C7_14  and  O4_15 
REMARK    5  A    between atoms: C7_14  and  O5_17 
REMARK    6  A    between atoms: N4_19  and  C8_20 
REMARK    7  A    between atoms: C10_23  and  N5_24 
REMARK    8  A    between atoms: N5_24  and  C11_27 
REMARK    9  A    between atoms: C11_27  and  O7_28 
REMARK   10  A    between atoms: C11_27  and  C12_30 
REMARK   11  A    between atoms: C12_30  and  O8_31 
REMARK   12  A    between atoms: C12_30  and  C13_33 
REMARK   13  A    between atoms: C13_33  and  O9_35 
REMARK   14  A    between atoms: C15_37  and  O10_38 
ROOT
HETATM    1  C5  UNL     1     -13.411  71.932  26.451  1.00  0.00     0.271 C 
HETATM    2  O3  UNL     1     -13.484  70.668  26.942  1.00  0.00    -0.334 OA
HETATM    3  C6  UNL     1     -12.469  69.804  26.576  1.00  0.00     0.283 C 
HETATM    4  N4  UNL     1     -11.968  69.935  25.259  1.00  0.00    -0.326 N 
HETATM    5  C9  UNL     1     -11.672  71.115  24.442  1.00  0.00     0.163 C 
HETATM    6  C10 UNL     1     -11.258  72.306  25.223  1.00  0.00     0.239 C 
HETATM    7  C15 UNL     1     -12.043  72.542  26.490  1.00  0.00     0.200 C 
ENDROOT
BRANCH   6   8
HETATM    8  N5  UNL     1     -11.291  73.480  24.371  1.00  0.00    -0.038 N 
ATOM      9  H52 UNL     1     -10.431  73.552  23.827  1.00  0.00     0.281 HD
ATOM     10  H51 UNL     1     -11.963  73.355  23.615  1.00  0.00     0.281 HD
BRANCH   8  11
HETATM   11  C11 UNL     1     -11.547  74.712  25.080  1.00  0.00     0.350 C 
BRANCH  11  12
HETATM   12  O7  UNL     1     -10.339  75.373  25.427  1.00  0.00    -0.368 OA
ATOM     13  H7  UNL     1     -10.166  76.108  24.850  1.00  0.00     0.212 HD
ENDBRANCH  11  12
BRANCH  11  14
HETATM   14  C12 UNL     1     -12.195  75.662  24.075  1.00  0.00     0.202 C 
BRANCH  14  15
HETATM   15  O8  UNL     1     -13.089  76.531  24.670  1.00  0.00    -0.389 OA
ATOM     16  H8  UNL     1     -13.470  77.142  24.050  1.00  0.00     0.210 HD
ENDBRANCH  14  15
BRANCH  14  17
HETATM   17  C13 UNL     1     -11.166  76.462  23.306  1.00  0.00     0.147 C 
HETATM   18  C14 UNL     1     -11.825  77.225  22.164  1.00  0.00     0.042 C 
BRANCH  17  19
HETATM   19  O9  UNL     1     -10.328  75.513  22.693  1.00  0.00    -0.393 OA
ATOM     20  H9  UNL     1     -10.909  74.861  22.319  1.00  0.00     0.210 HD
ENDBRANCH  17  19
ENDBRANCH  14  17
ENDBRANCH  11  14
ENDBRANCH   8  11
ENDBRANCH   6   8
BRANCH   7  21
HETATM   21  O10 UNL     1     -11.329  72.243  27.643  1.00  0.00    -0.389 OA
ATOM     22  H10 UNL     1     -10.389  72.201  27.512  1.00  0.00     0.210 HD
ENDBRANCH   7  21
BRANCH   4  23
HETATM   23  C8  UNL     1     -11.694  68.720  24.584  1.00  0.00     0.353 C 
HETATM   24  O6  UNL     1     -10.673  68.630  23.819  1.00  0.00    -0.283 OA
ENDBRANCH   4  23
BRANCH   1  25
HETATM   25  N3  UNL     1     -14.369  72.767  27.155  1.00  0.00    -0.220 N 
HETATM   26  C4  UNL     1     -14.605  72.673  28.478  1.00  0.00     0.336 A 
HETATM   27  N2  UNL     1     -15.494  73.454  29.122  1.00  0.00    -0.260 N 
HETATM   28  O2  UNL     1     -13.945  71.799  29.119  1.00  0.00    -0.246 OA
HETATM   29  C3  UNL     1     -16.166  74.363  28.394  1.00  0.00     0.334 A 
ATOM     30  H2  UNL     1     -15.652  73.359  30.125  1.00  0.00     0.175 HD
HETATM   31  N1  UNL     1     -15.983  74.515  27.071  1.00  0.00    -0.251 N 
HETATM   32  O1  UNL     1     -17.003  75.112  28.951  1.00  0.00    -0.246 OA
HETATM   33  C16 UNL     1     -15.083  73.707  26.484  1.00  0.00     0.338 A 
HETATM   34  O11 UNL     1     -14.915  73.855  25.237  1.00  0.00    -0.246 OA
BRANCH  31  35
HETATM   35  C2  UNL     1     -16.723  75.514  26.295  1.00  0.00     0.134 C 
HETATM   36  C1  UNL     1     -18.037  75.004  25.806  1.00  0.00     0.027 C 
ENDBRANCH  31  35
ENDBRANCH   1  25
BRANCH   3  37
HETATM   37  C7  UNL     1     -13.044  68.411  26.806  1.00  0.00     0.303 C 
BRANCH  37  38
HETATM   38  O4  UNL     1     -14.405  68.488  26.572  1.00  0.00    -0.367 OA
ATOM     39  H4  UNL     1     -14.529  69.062  25.825  1.00  0.00     0.212 HD
ENDBRANCH  37  38
BRANCH  37  40
HETATM   40  O5  UNL     1     -12.870  68.162  28.183  1.00  0.00    -0.367 OA
ATOM     41  H5  UNL     1     -13.718  67.866  28.492  1.00  0.00     0.212 HD
ENDBRANCH  37  40
ENDBRANCH   3  37
TORSDOF 14
ENDMDL
