MODEL 1
REMARK VINA RESULT: -4.854647753      0.000      0.000
REMARK  5 active torsions:
REMARK  status: ('A' for Active; 'I' for Inactive)
REMARK    1  A    between atoms: C2_7  and  N4_8 
REMARK    2  A    between atoms: N4_8  and  C3_10 
REMARK    3  A    between atoms: C3_10  and  C4_11 
REMARK    4  A    between atoms: C4_11  and  C5_12 
REMARK    5  A    between atoms: C5_12  and  N5_13 
ROOT
HETATM    1  N1  UNL     1     -27.166 -16.308  28.330  1.00  0.00    -0.075 NA
HETATM    2  C1  UNL     1     -26.769 -15.978  27.006  1.00  0.00     0.200 A 
HETATM    3  N2  UNL     1     -27.050 -16.766  25.956  1.00  0.00    -0.269 N 
ATOM      4  H2  UNL     1     -27.567 -17.628  26.132  1.00  0.00     0.189 HD
HETATM    5  N3  UNL     1     -26.701 -16.498  24.712  1.00  0.00    -0.131 N 
ATOM      6  H3  UNL     1     -26.942 -17.135  23.953  1.00  0.00     0.205 HD
HETATM    7  C2  UNL     1     -26.025 -15.373  24.470  1.00  0.00     0.695 A 
HETATM    8  N7  UNL     1     -25.714 -14.546  25.469  1.00  0.00    -0.152 N 
ATOM      9  H7  UNL     1     -25.197 -13.691  25.264  1.00  0.00     0.187 HD
HETATM   10  C9  UNL     1     -26.068 -14.812  26.752  1.00  0.00     0.302 A 
HETATM   11  O1  UNL     1     -25.797 -14.065  27.708  1.00  0.00    -0.264 OA
ENDROOT
BRANCH   7  12
HETATM   12  N4  UNL     1     -25.678 -15.095  23.268  1.00  0.00    -0.225 N 
ATOM     13  H4  UNL     1     -26.240 -15.435  22.488  1.00  0.00     0.177 HD
BRANCH  12  14
HETATM   14  C3  UNL     1     -24.500 -14.307  23.010  1.00  0.00     0.139 C 
BRANCH  14  15
HETATM   15  C4  UNL     1     -24.848 -13.315  21.920  1.00  0.00     0.040 C 
BRANCH  15  16
HETATM   16  C5  UNL     1     -24.886 -11.900  22.443  1.00  0.00     0.131 C 
BRANCH  16  17
HETATM   17  N5  UNL     1     -26.297 -11.595  22.699  1.00  0.00    -0.352 N 
HETATM   18  C6  UNL     1     -27.270 -11.442  21.782  1.00  0.00     0.108 A 
HETATM   19  C7  UNL     1     -28.468 -11.162  22.407  1.00  0.00     0.106 A 
HETATM   20  N6  UNL     1     -28.203 -11.147  23.721  1.00  0.00    -0.361 N 
HETATM   21  C8  UNL     1     -26.890 -11.409  23.891  1.00  0.00     0.182 A 
ATOM     22  H6  UNL     1     -28.878 -10.968  24.464  1.00  0.00     0.166 HD
ENDBRANCH  16  17
ENDBRANCH  15  16
ENDBRANCH  14  15
ENDBRANCH  12  14
ENDBRANCH   7  12
TORSDOF 5
ENDMDL
MODEL 2
REMARK VINA RESULT: -4.691705104      2.920      6.110
REMARK  5 active torsions:
REMARK  status: ('A' for Active; 'I' for Inactive)
REMARK    1  A    between atoms: C2_7  and  N4_8 
REMARK    2  A    between atoms: N4_8  and  C3_10 
REMARK    3  A    between atoms: C3_10  and  C4_11 
REMARK    4  A    between atoms: C4_11  and  C5_12 
REMARK    5  A    between atoms: C5_12  and  N5_13 
ROOT
HETATM    1  N1  UNL     1     -26.746  -9.984  20.008  1.00  0.00    -0.075 NA
HETATM    2  C1  UNL     1     -26.060 -11.178  20.360  1.00  0.00     0.200 A 
HETATM    3  N2  UNL     1     -24.841 -11.165  20.925  1.00  0.00    -0.269 N 
ATOM      4  H2  UNL     1     -24.407 -10.259  21.100  1.00  0.00     0.189 HD
HETATM    5  N3  UNL     1     -24.170 -12.249  21.267  1.00  0.00    -0.131 N 
ATOM      6  H3  UNL     1     -23.246 -12.178  21.693  1.00  0.00     0.205 HD
HETATM    7  C2  UNL     1     -24.728 -13.440  21.042  1.00  0.00     0.695 A 
HETATM    8  N7  UNL     1     -25.937 -13.522  20.483  1.00  0.00    -0.152 N 
ATOM      9  H7  UNL     1     -26.347 -14.442  20.319  1.00  0.00     0.187 HD
HETATM   10  C9  UNL     1     -26.636 -12.415  20.128  1.00  0.00     0.302 A 
HETATM   11  O1  UNL     1     -27.764 -12.452  19.607  1.00  0.00    -0.264 OA
ENDROOT
BRANCH   7  12
HETATM   12  N4  UNL     1     -24.093 -14.503  21.367  1.00  0.00    -0.225 N 
ATOM     13  H4  UNL     1     -23.148 -14.655  21.014  1.00  0.00     0.177 HD
BRANCH  12  14
HETATM   14  C3  UNL     1     -24.700 -15.487  22.226  1.00  0.00     0.139 C 
BRANCH  14  15
HETATM   15  C4  UNL     1     -24.858 -14.859  23.594  1.00  0.00     0.040 C 
BRANCH  15  16
HETATM   16  C5  UNL     1     -26.197 -15.190  24.210  1.00  0.00     0.131 C 
BRANCH  16  17
HETATM   17  N5  UNL     1     -26.028 -15.045  25.659  1.00  0.00    -0.352 N 
HETATM   18  C6  UNL     1     -25.178 -14.217  26.295  1.00  0.00     0.108 A 
HETATM   19  C7  UNL     1     -25.308 -14.365  27.660  1.00  0.00     0.106 A 
HETATM   20  N6  UNL     1     -26.253 -15.299  27.841  1.00  0.00    -0.361 N 
HETATM   21  C8  UNL     1     -26.684 -15.706  26.628  1.00  0.00     0.182 A 
ATOM     22  H6  UNL     1     -26.588 -15.643  28.741  1.00  0.00     0.166 HD
ENDBRANCH  16  17
ENDBRANCH  15  16
ENDBRANCH  14  15
ENDBRANCH  12  14
ENDBRANCH   7  12
TORSDOF 5
ENDMDL
MODEL 3
REMARK VINA RESULT: -4.587017776      1.887      2.946
REMARK  5 active torsions:
REMARK  status: ('A' for Active; 'I' for Inactive)
REMARK    1  A    between atoms: C2_7  and  N4_8 
REMARK    2  A    between atoms: N4_8  and  C3_10 
REMARK    3  A    between atoms: C3_10  and  C4_11 
REMARK    4  A    between atoms: C4_11  and  C5_12 
REMARK    5  A    between atoms: C5_12  and  N5_13 
ROOT
HETATM    1  N1  UNL     1     -28.822 -18.689  27.423  1.00  0.00    -0.075 NA
HETATM    2  C1  UNL     1     -28.022 -17.552  27.127  1.00  0.00     0.200 A 
HETATM    3  N2  UNL     1     -27.475 -17.356  25.917  1.00  0.00    -0.269 N 
ATOM      4  H2  UNL     1     -27.648 -18.056  25.196  1.00  0.00     0.189 HD
HETATM    5  N3  UNL     1     -26.727 -16.316  25.600  1.00  0.00    -0.131 N 
ATOM      6  H3  UNL     1     -26.336 -16.219  24.663  1.00  0.00     0.205 HD
HETATM    7  C2  UNL     1     -26.493 -15.392  26.535  1.00  0.00     0.695 A 
HETATM    8  N7  UNL     1     -27.008 -15.527  27.759  1.00  0.00    -0.152 N 
ATOM      9  H7  UNL     1     -26.818 -14.811  28.459  1.00  0.00     0.187 HD
HETATM   10  C9  UNL     1     -27.778 -16.592  28.094  1.00  0.00     0.302 A 
HETATM   11  O1  UNL     1     -28.275 -16.752  29.223  1.00  0.00    -0.264 OA
ENDROOT
BRANCH   7  12
HETATM   12  N4  UNL     1     -25.769 -14.375  26.247  1.00  0.00    -0.225 N 
ATOM     13  H4  UNL     1     -25.401 -13.789  26.996  1.00  0.00     0.177 HD
BRANCH  12  14
HETATM   14  C3  UNL     1     -25.471 -14.052  24.875  1.00  0.00     0.139 C 
BRANCH  14  15
HETATM   15  C4  UNL     1     -26.300 -12.841  24.503  1.00  0.00     0.040 C 
BRANCH  15  16
HETATM   16  C5  UNL     1     -26.927 -12.990  23.138  1.00  0.00     0.131 C 
BRANCH  16  17
HETATM   17  N5  UNL     1     -25.830 -12.888  22.170  1.00  0.00    -0.352 N 
HETATM   18  C6  UNL     1     -25.548 -13.749  21.175  1.00  0.00     0.108 A 
HETATM   19  C7  UNL     1     -24.440 -13.316  20.476  1.00  0.00     0.106 A 
HETATM   20  N6  UNL     1     -24.054 -12.176  21.067  1.00  0.00    -0.361 N 
HETATM   21  C8  UNL     1     -24.898 -11.923  22.090  1.00  0.00     0.182 A 
ATOM     22  H6  UNL     1     -23.260 -11.600  20.791  1.00  0.00     0.166 HD
ENDBRANCH  16  17
ENDBRANCH  15  16
ENDBRANCH  14  15
ENDBRANCH  12  14
ENDBRANCH   7  12
TORSDOF 5
ENDMDL
MODEL 4
REMARK VINA RESULT: -4.578383068      2.828      6.080
REMARK  5 active torsions:
REMARK  status: ('A' for Active; 'I' for Inactive)
REMARK    1  A    between atoms: C2_7  and  N4_8 
REMARK    2  A    between atoms: N4_8  and  C3_10 
REMARK    3  A    between atoms: C3_10  and  C4_11 
REMARK    4  A    between atoms: C4_11  and  C5_12 
REMARK    5  A    between atoms: C5_12  and  N5_13 
ROOT
HETATM    1  N1  UNL     1     -26.749 -10.017  19.894  1.00  0.00    -0.075 NA
HETATM    2  C1  UNL     1     -26.084 -11.168  20.399  1.00  0.00     0.200 A 
HETATM    3  N2  UNL     1     -24.846 -11.111  20.916  1.00  0.00    -0.269 N 
ATOM      4  H2  UNL     1     -24.380 -10.204  20.940  1.00  0.00     0.189 HD
HETATM    5  N3  UNL     1     -24.194 -12.154  21.395  1.00  0.00    -0.131 N 
ATOM      6  H3  UNL     1     -23.253 -12.051  21.776  1.00  0.00     0.205 HD
HETATM    7  C2  UNL     1     -24.793 -13.346  21.369  1.00  0.00     0.695 A 
HETATM    8  N7  UNL     1     -26.024 -13.470  20.868  1.00  0.00    -0.152 N 
ATOM      9  H7  UNL     1     -26.465 -14.390  20.856  1.00  0.00     0.187 HD
HETATM   10  C9  UNL     1     -26.703 -12.405  20.373  1.00  0.00     0.302 A 
HETATM   11  O1  UNL     1     -27.850 -12.482  19.899  1.00  0.00    -0.264 OA
ENDROOT
BRANCH   7  12
HETATM   12  N4  UNL     1     -24.176 -14.370  21.829  1.00  0.00    -0.225 N 
ATOM     13  H4  UNL     1     -23.232 -14.579  21.505  1.00  0.00     0.177 HD
BRANCH  12  14
HETATM   14  C3  UNL     1     -24.804 -15.229  22.800  1.00  0.00     0.139 C 
BRANCH  14  15
HETATM   15  C4  UNL     1     -24.844 -14.476  24.113  1.00  0.00     0.040 C 
BRANCH  15  16
HETATM   16  C5  UNL     1     -26.261 -14.244  24.581  1.00  0.00     0.131 C 
BRANCH  16  17
HETATM   17  N5  UNL     1     -26.345 -14.811  25.930  1.00  0.00    -0.352 N 
HETATM   18  C6  UNL     1     -27.195 -15.765  26.355  1.00  0.00     0.108 A 
HETATM   19  C7  UNL     1     -26.971 -16.037  27.689  1.00  0.00     0.106 A 
HETATM   20  N6  UNL     1     -25.969 -15.230  28.066  1.00  0.00    -0.361 N 
HETATM   21  C8  UNL     1     -25.595 -14.492  26.999  1.00  0.00     0.182 A 
ATOM     22  H6  UNL     1     -25.560 -15.181  28.999  1.00  0.00     0.166 HD
ENDBRANCH  16  17
ENDBRANCH  15  16
ENDBRANCH  14  15
ENDBRANCH  12  14
ENDBRANCH   7  12
TORSDOF 5
ENDMDL
MODEL 5
REMARK VINA RESULT: -4.567332886      1.450      1.907
REMARK  5 active torsions:
REMARK  status: ('A' for Active; 'I' for Inactive)
REMARK    1  A    between atoms: C2_7  and  N4_8 
REMARK    2  A    between atoms: N4_8  and  C3_10 
REMARK    3  A    between atoms: C3_10  and  C4_11 
REMARK    4  A    between atoms: C4_11  and  C5_12 
REMARK    5  A    between atoms: C5_12  and  N5_13 
ROOT
HETATM    1  N1  UNL     1     -27.773 -16.656  28.501  1.00  0.00    -0.075 NA
HETATM    2  C1  UNL     1     -27.041 -15.987  27.483  1.00  0.00     0.200 A 
HETATM    3  N2  UNL     1     -26.092 -15.078  27.762  1.00  0.00    -0.269 N 
ATOM      4  H2  UNL     1     -25.904 -14.872  28.743  1.00  0.00     0.189 HD
HETATM    5  N3  UNL     1     -25.389 -14.435  26.849  1.00  0.00    -0.131 N 
ATOM      6  H3  UNL     1     -24.680 -13.754  27.120  1.00  0.00     0.205 HD
HETATM    7  C2  UNL     1     -25.627 -14.697  25.562  1.00  0.00     0.695 A 
HETATM    8  N7  UNL     1     -26.557 -15.590  25.217  1.00  0.00    -0.152 N 
ATOM      9  H7  UNL     1     -26.725 -15.776  24.228  1.00  0.00     0.187 HD
HETATM   10  C9  UNL     1     -27.285 -16.257  26.148  1.00  0.00     0.302 A 
HETATM   11  O1  UNL     1     -28.159 -17.096  25.864  1.00  0.00    -0.264 OA
ENDROOT
BRANCH   7  12
HETATM   12  N4  UNL     1     -24.955 -14.083  24.661  1.00  0.00    -0.225 N 
ATOM     13  H4  UNL     1     -24.591 -13.149  24.850  1.00  0.00     0.177 HD
BRANCH  12  14
HETATM   14  C3  UNL     1     -24.709 -14.699  23.382  1.00  0.00     0.139 C 
BRANCH  14  15
HETATM   15  C4  UNL     1     -25.123 -13.709  22.314  1.00  0.00     0.040 C 
BRANCH  15  16
HETATM   16  C5  UNL     1     -25.089 -12.289  22.825  1.00  0.00     0.131 C 
BRANCH  16  17
HETATM   17  N5  UNL     1     -26.472 -11.804  22.778  1.00  0.00    -0.352 N 
HETATM   18  C6  UNL     1     -27.250 -11.477  23.826  1.00  0.00     0.108 A 
HETATM   19  C7  UNL     1     -28.490 -11.062  23.384  1.00  0.00     0.106 A 
HETATM   20  N6  UNL     1     -28.449 -11.146  22.046  1.00  0.00    -0.361 N 
HETATM   21  C8  UNL     1     -27.228 -11.594  21.686  1.00  0.00     0.182 A 
ATOM     22  H6  UNL     1     -29.211 -10.910  21.410  1.00  0.00     0.166 HD
ENDBRANCH  16  17
ENDBRANCH  15  16
ENDBRANCH  14  15
ENDBRANCH  12  14
ENDBRANCH   7  12
TORSDOF 5
ENDMDL
