MODEL 1
REMARK VINA RESULT: -5.022699900      0.000      0.000
REMARK  2 active torsions:
REMARK  status: ('A' for Active; 'I' for Inactive)
REMARK    1  A    between atoms: O1_1  and  C1_3 
REMARK    2  A    between atoms: C6_9  and  O3_10 
ROOT
HETATM    1  C1  UNL     1      13.654  21.541   3.424  1.00  0.00     0.176 C 
HETATM    2  C2  UNL     1      13.171  21.262   4.793  1.00  0.00     0.203 C 
HETATM    3  O2  UNL     1      13.502  22.156   5.757  1.00  0.00    -0.383 OA
HETATM    4  C3  UNL     1      14.730  22.739   5.661  1.00  0.00     0.124 C 
HETATM    5  C4  UNL     1      15.867  21.755   5.523  1.00  0.00     0.035 C 
HETATM    6  C5  UNL     1      16.012  21.493   4.021  1.00  0.00     0.043 C 
HETATM    7  C6  UNL     1      14.926  22.346   3.376  1.00  0.00     0.088 C 
HETATM    8  C7  UNL     1      14.863  23.512   4.348  1.00  0.00     0.072 C 
ENDROOT
BRANCH   1   9
HETATM    9  O1  UNL     1      13.954  20.301   2.813  1.00  0.00    -0.390 OA
ATOM     10  H1  UNL     1      14.562  20.469   2.102  1.00  0.00     0.210 HD
ENDBRANCH   1   9
BRANCH   7  11
HETATM   11  O3  UNL     1      15.239  22.761   2.117  1.00  0.00    -0.387 OA
ATOM     12  H3  UNL     1      15.667  22.087   1.603  1.00  0.00     0.210 HD
ENDBRANCH   7  11
TORSDOF 2
ENDMDL
MODEL 2
REMARK VINA RESULT: -5.001888689      1.432      3.035
REMARK  2 active torsions:
REMARK  status: ('A' for Active; 'I' for Inactive)
REMARK    1  A    between atoms: O1_1  and  C1_3 
REMARK    2  A    between atoms: C6_9  and  O3_10 
ROOT
HETATM    1  C1  UNL     1      15.951  21.439   5.160  1.00  0.00     0.176 C 
HETATM    2  C2  UNL     1      17.025  21.637   4.164  1.00  0.00     0.203 C 
HETATM    3  O2  UNL     1      16.935  22.734   3.371  1.00  0.00    -0.383 OA
HETATM    4  C3  UNL     1      15.684  23.118   2.991  1.00  0.00     0.124 C 
HETATM    5  C4  UNL     1      14.868  22.015   2.359  1.00  0.00     0.035 C 
HETATM    6  C5  UNL     1      14.163  21.303   3.517  1.00  0.00     0.043 C 
HETATM    7  C6  UNL     1      14.630  22.044   4.765  1.00  0.00     0.088 C 
HETATM    8  C7  UNL     1      14.822  23.445   4.211  1.00  0.00     0.072 C 
ENDROOT
BRANCH   1   9
HETATM    9  O1  UNL     1      15.725  20.049   5.278  1.00  0.00    -0.390 OA
ATOM     10  H1  UNL     1      14.787  19.904   5.235  1.00  0.00     0.210 HD
ENDBRANCH   1   9
BRANCH   7  11
HETATM   11  O3  UNL     1      13.719  22.028   5.778  1.00  0.00    -0.387 OA
ATOM     12  H3  UNL     1      12.823  22.089   5.468  1.00  0.00     0.210 HD
ENDBRANCH   7  11
TORSDOF 2
ENDMDL
MODEL 3
REMARK VINA RESULT: -4.981190519      1.275      1.931
REMARK  2 active torsions:
REMARK  status: ('A' for Active; 'I' for Inactive)
REMARK    1  A    between atoms: O1_1  and  C1_3 
REMARK    2  A    between atoms: C6_9  and  O3_10 
ROOT
HETATM    1  C1  UNL     1      13.149  21.735   4.149  1.00  0.00     0.176 C 
HETATM    2  C2  UNL     1      13.562  22.909   4.946  1.00  0.00     0.203 C 
HETATM    3  O2  UNL     1      14.567  23.670   4.445  1.00  0.00    -0.383 OA
HETATM    4  C3  UNL     1      15.559  23.017   3.777  1.00  0.00     0.124 C 
HETATM    5  C4  UNL     1      16.176  21.878   4.554  1.00  0.00     0.035 C 
HETATM    6  C5  UNL     1      15.322  20.647   4.236  1.00  0.00     0.043 C 
HETATM    7  C6  UNL     1      14.244  21.161   3.289  1.00  0.00     0.088 C 
HETATM    8  C7  UNL     1      14.998  22.266   2.569  1.00  0.00     0.072 C 
ENDROOT
BRANCH   1   9
HETATM    9  O1  UNL     1      12.784  20.710   5.052  1.00  0.00    -0.390 OA
ATOM     10  H1  UNL     1      12.510  19.958   4.540  1.00  0.00     0.210 HD
ENDBRANCH   1   9
BRANCH   7  11
HETATM   11  O3  UNL     1      13.791  20.217   2.419  1.00  0.00    -0.387 OA
ATOM     12  H3  UNL     1      14.491  19.798   1.934  1.00  0.00     0.210 HD
ENDBRANCH   7  11
TORSDOF 2
ENDMDL
MODEL 4
REMARK VINA RESULT: -4.960304937      1.547      2.814
REMARK  2 active torsions:
REMARK  status: ('A' for Active; 'I' for Inactive)
REMARK    1  A    between atoms: O1_1  and  C1_3 
REMARK    2  A    between atoms: C6_9  and  O3_10 
ROOT
HETATM    1  C1  UNL     1      16.138  22.403   2.688  1.00  0.00     0.176 C 
HETATM    2  C2  UNL     1      17.303  22.234   3.580  1.00  0.00     0.203 C 
HETATM    3  O2  UNL     1      17.185  21.328   4.583  1.00  0.00    -0.383 OA
HETATM    4  C3  UNL     1      15.959  21.213   5.167  1.00  0.00     0.124 C 
HETATM    5  C4  UNL     1      15.383  22.524   5.648  1.00  0.00     0.035 C 
HETATM    6  C5  UNL     1      14.622  23.108   4.455  1.00  0.00     0.043 C 
HETATM    7  C6  UNL     1      14.817  22.088   3.338  1.00  0.00     0.088 C 
HETATM    8  C7  UNL     1      14.904  20.800   4.139  1.00  0.00     0.072 C 
ENDROOT
BRANCH   1   9
HETATM    9  O1  UNL     1      16.075  23.766   2.318  1.00  0.00    -0.390 OA
ATOM     10  H1  UNL     1      15.611  24.231   3.004  1.00  0.00     0.210 HD
ENDBRANCH   1   9
BRANCH   7  11
HETATM   11  O3  UNL     1      13.786  22.054   2.449  1.00  0.00    -0.387 OA
ATOM     12  H3  UNL     1      13.165  21.358   2.632  1.00  0.00     0.210 HD
ENDBRANCH   7  11
TORSDOF 2
ENDMDL
MODEL 5
REMARK VINA RESULT: -4.881839697      1.264      2.608
REMARK  2 active torsions:
REMARK  status: ('A' for Active; 'I' for Inactive)
REMARK    1  A    between atoms: O1_1  and  C1_3 
REMARK    2  A    between atoms: C6_9  and  O3_10 
ROOT
HETATM    1  C1  UNL     1      14.084  20.754   3.556  1.00  0.00     0.176 C 
HETATM    2  C2  UNL     1      13.859  21.758   2.495  1.00  0.00     0.203 C 
HETATM    3  O2  UNL     1      14.897  22.577   2.192  1.00  0.00    -0.383 OA
HETATM    4  C3  UNL     1      15.698  22.962   3.225  1.00  0.00     0.124 C 
HETATM    5  C4  UNL     1      14.950  23.564   4.391  1.00  0.00     0.035 C 
HETATM    6  C5  UNL     1      14.567  22.387   5.292  1.00  0.00     0.043 C 
HETATM    7  C6  UNL     1      15.116  21.159   4.575  1.00  0.00     0.088 C 
HETATM    8  C7  UNL     1      16.341  21.748   3.896  1.00  0.00     0.072 C 
ENDROOT
BRANCH   1   9
HETATM    9  O1  UNL     1      12.872  20.601   4.267  1.00  0.00    -0.390 OA
ATOM     10  H1  UNL     1      12.499  21.466   4.391  1.00  0.00     0.210 HD
ENDBRANCH   1   9
BRANCH   7  11
HETATM   11  O3  UNL     1      15.451  20.144   5.418  1.00  0.00    -0.387 OA
ATOM     12  H3  UNL     1      15.876  20.449   6.211  1.00  0.00     0.210 HD
ENDBRANCH   7  11
TORSDOF 2
ENDMDL
