MODEL 1
REMARK VINA RESULT: -5.648383866      0.000      0.000
REMARK  2 active torsions:
REMARK  status: ('A' for Active; 'I' for Inactive)
REMARK    1  A    between atoms: N1_1  and  C1_5 
REMARK    2  A    between atoms: C7_12  and  O1_13 
ROOT
HETATM    1  C1  UNL     1      13.737  22.294   4.365  1.00  0.00     0.231 C 
HETATM    2  C2  UNL     1      13.755  22.143   2.847  1.00  0.00     0.158 C 
HETATM    3  N2  UNL     1      15.124  22.413   2.567  1.00  0.00    -0.381 N 
HETATM    4  C3  UNL     1      16.051  23.132   1.799  1.00  0.00     0.082 C 
HETATM    5  C4  UNL     1      17.261  23.083   2.366  1.00  0.00    -0.008 C 
HETATM    6  C5  UNL     1      17.226  22.284   3.621  1.00  0.00     0.056 C 
HETATM    7  C6  UNL     1      15.887  21.582   3.489  1.00  0.00     0.118 C 
HETATM    8  C7  UNL     1      15.046  21.672   4.741  1.00  0.00     0.173 C 
ENDROOT
BRANCH   1   9
HETATM    9  N1  UNL     1      12.605  21.620   4.956  1.00  0.00    -0.071 N 
ATOM     10  H13 UNL     1      11.740  22.135   4.794  1.00  0.00     0.274 HD
ATOM     11  H12 UNL     1      12.378  20.763   4.452  1.00  0.00     0.274 HD
ATOM     12  H11 UNL     1      12.750  21.438   5.949  1.00  0.00     0.274 HD
ENDBRANCH   1   9
BRANCH   8  13
HETATM   13  O1  UNL     1      14.825  20.408   5.313  1.00  0.00    -0.391 OA
ATOM     14  H1  UNL     1      14.807  19.746   4.632  1.00  0.00     0.210 HD
ENDBRANCH   8  13
TORSDOF 2
ENDMDL
MODEL 2
REMARK VINA RESULT: -5.231676946      1.571      2.195
REMARK  2 active torsions:
REMARK  status: ('A' for Active; 'I' for Inactive)
REMARK    1  A    between atoms: N1_1  and  C1_5 
REMARK    2  A    between atoms: C7_12  and  O1_13 
ROOT
HETATM    1  C1  UNL     1      15.173  21.034   4.252  1.00  0.00     0.231 C 
HETATM    2  C2  UNL     1      16.502  21.578   4.770  1.00  0.00     0.158 C 
HETATM    3  N2  UNL     1      16.913  22.375   3.664  1.00  0.00    -0.381 N 
HETATM    4  C3  UNL     1      17.937  22.704   2.764  1.00  0.00     0.082 C 
HETATM    5  C4  UNL     1      17.440  23.379   1.723  1.00  0.00    -0.008 C 
HETATM    6  C5  UNL     1      15.969  23.559   1.861  1.00  0.00     0.056 C 
HETATM    7  C6  UNL     1      15.762  23.198   3.320  1.00  0.00     0.118 C 
HETATM    8  C7  UNL     1      14.623  22.227   3.533  1.00  0.00     0.173 C 
ENDROOT
BRANCH   1   9
HETATM    9  N1  UNL     1      14.322  20.588   5.330  1.00  0.00    -0.071 N 
ATOM     10  H13 UNL     1      14.702  19.757   5.783  1.00  0.00     0.274 HD
ATOM     11  H12 UNL     1      14.357  21.230   6.121  1.00  0.00     0.274 HD
ATOM     12  H11 UNL     1      13.363  20.436   5.016  1.00  0.00     0.274 HD
ENDBRANCH   1   9
BRANCH   8  13
HETATM   13  O1  UNL     1      13.584  22.799   4.285  1.00  0.00    -0.391 OA
ATOM     14  H1  UNL     1      13.633  22.496   5.184  1.00  0.00     0.210 HD
ENDBRANCH   8  13
TORSDOF 2
ENDMDL
MODEL 3
REMARK VINA RESULT: -5.099363151      1.997      2.599
REMARK  2 active torsions:
REMARK  status: ('A' for Active; 'I' for Inactive)
REMARK    1  A    between atoms: N1_1  and  C1_5 
REMARK    2  A    between atoms: C7_12  and  O1_13 
ROOT
HETATM    1  C1  UNL     1      11.340  22.682   4.310  1.00  0.00     0.231 C 
HETATM    2  C2  UNL     1      11.740  21.410   3.567  1.00  0.00     0.158 C 
HETATM    3  N2  UNL     1      13.124  21.656   3.341  1.00  0.00    -0.381 N 
HETATM    4  C3  UNL     1      14.182  21.681   2.420  1.00  0.00     0.082 C 
HETATM    5  C4  UNL     1      15.214  22.368   2.919  1.00  0.00    -0.008 C 
HETATM    6  C5  UNL     1      14.903  22.879   4.281  1.00  0.00     0.056 C 
HETATM    7  C6  UNL     1      13.669  22.067   4.627  1.00  0.00     0.118 C 
HETATM    8  C7  UNL     1      12.541  22.911   5.176  1.00  0.00     0.173 C 
ENDROOT
BRANCH   1   9
HETATM    9  N1  UNL     1      10.127  22.499   5.069  1.00  0.00    -0.071 N 
ATOM     10  H13 UNL     1      10.292  21.933   5.903  1.00  0.00     0.274 HD
ATOM     11  H12 UNL     1       9.836  23.366   5.520  1.00  0.00     0.274 HD
ATOM     12  H11 UNL     1       9.378  22.109   4.497  1.00  0.00     0.274 HD
ENDBRANCH   1   9
BRANCH   8  13
HETATM   13  O1  UNL     1      12.238  22.575   6.506  1.00  0.00    -0.391 OA
ATOM     14  H1  UNL     1      12.981  22.137   6.904  1.00  0.00     0.210 HD
ENDBRANCH   8  13
TORSDOF 2
ENDMDL
MODEL 4
REMARK VINA RESULT: -4.986007677      2.893      3.822
REMARK  2 active torsions:
REMARK  status: ('A' for Active; 'I' for Inactive)
REMARK    1  A    between atoms: N1_1  and  C1_5 
REMARK    2  A    between atoms: C7_12  and  O1_13 
ROOT
HETATM    1  C1  UNL     1      10.903  22.340   3.331  1.00  0.00     0.231 C 
HETATM    2  C2  UNL     1      11.636  21.003   3.265  1.00  0.00     0.158 C 
HETATM    3  N2  UNL     1      12.787  21.290   4.052  1.00  0.00    -0.381 N 
HETATM    4  C3  UNL     1      14.185  21.247   4.154  1.00  0.00     0.082 C 
HETATM    5  C4  UNL     1      14.603  22.050   5.139  1.00  0.00    -0.008 C 
HETATM    6  C5  UNL     1      13.451  22.721   5.799  1.00  0.00     0.056 C 
HETATM    7  C6  UNL     1      12.288  21.899   5.277  1.00  0.00     0.118 C 
HETATM    8  C7  UNL     1      11.153  22.747   4.750  1.00  0.00     0.173 C 
ENDROOT
BRANCH   1   9
HETATM    9  N1  UNL     1       9.499  22.196   3.027  1.00  0.00    -0.071 N 
ATOM     10  H13 UNL     1       9.059  21.498   3.627  1.00  0.00     0.274 HD
ATOM     11  H12 UNL     1       8.969  23.016   3.322  1.00  0.00     0.274 HD
ATOM     12  H11 UNL     1       9.345  21.989   2.040  1.00  0.00     0.274 HD
ENDBRANCH   1   9
BRANCH   8  13
HETATM   13  O1  UNL     1       9.981  22.577   5.507  1.00  0.00    -0.391 OA
ATOM     14  H1  UNL     1      10.194  22.189   6.347  1.00  0.00     0.210 HD
ENDBRANCH   8  13
TORSDOF 2
ENDMDL
MODEL 5
REMARK VINA RESULT: -4.982669227      5.016      6.146
REMARK  2 active torsions:
REMARK  status: ('A' for Active; 'I' for Inactive)
REMARK    1  A    between atoms: N1_1  and  C1_5 
REMARK    2  A    between atoms: C7_12  and  O1_13 
ROOT
HETATM    1  C1  UNL     1       9.942  18.922   3.676  1.00  0.00     0.231 C 
HETATM    2  C2  UNL     1      10.210  20.180   4.498  1.00  0.00     0.158 C 
HETATM    3  N2  UNL     1      10.359  21.148   3.464  1.00  0.00    -0.381 N 
HETATM    4  C3  UNL     1      11.130  22.189   2.928  1.00  0.00     0.082 C 
HETATM    5  C4  UNL     1      10.767  22.431   1.664  1.00  0.00    -0.008 C 
HETATM    6  C5  UNL     1       9.668  21.519   1.245  1.00  0.00     0.056 C 
HETATM    7  C6  UNL     1       9.215  20.965   2.583  1.00  0.00     0.118 C 
HETATM    8  C7  UNL     1       9.072  19.461   2.583  1.00  0.00     0.173 C 
ENDROOT
BRANCH   1   9
HETATM    9  N1  UNL     1       9.290  17.900   4.460  1.00  0.00    -0.071 N 
ATOM     10  H13 UNL     1       9.485  18.014   5.455  1.00  0.00     0.274 HD
ATOM     11  H12 UNL     1       8.280  18.034   4.479  1.00  0.00     0.274 HD
ATOM     12  H11 UNL     1       9.534  16.964   4.138  1.00  0.00     0.274 HD
ENDBRANCH   1   9
BRANCH   8  13
HETATM   13  O1  UNL     1       7.741  19.064   2.795  1.00  0.00    -0.391 OA
ATOM     14  H1  UNL     1       7.160  19.803   2.664  1.00  0.00     0.210 HD
ENDBRANCH   8  13
TORSDOF 2
ENDMDL
