MODEL 1
REMARK VINA RESULT: -8.374000673      0.000      0.000
REMARK  10 active torsions:
REMARK  status: ('A' for Active; 'I' for Inactive)
REMARK    1  A    between atoms: C1_2  and  O2_7 
REMARK    2  A    between atoms: N2_3  and  O1_5 
REMARK    3  A    between atoms: O2_7  and  N3_8 
REMARK       I    between atoms: N3_8  and  C2_10 
REMARK    4  A    between atoms: C2_10  and  C3_12 
REMARK    5  A    between atoms: N6_17  and  C4_18 
REMARK    6  A    between atoms: C5_20  and  C6_21 
REMARK    7  A    between atoms: C7_24  and  O6_25 
REMARK    8  A    between atoms: C8_27  and  N7_28 
REMARK    9  A    between atoms: N7_28  and  N8_30 
REMARK   10  A    between atoms: N8_30  and  C9_32 
ROOT
HETATM    1  C4  UNL     1      64.227   2.972  84.058  1.00  0.00     0.149 A 
HETATM    2  S1  UNL     1      63.742   1.347  83.869  1.00  0.00    -0.057 SA
HETATM    3  C5  UNL     1      64.994   0.581  84.709  1.00  0.00     0.119 A 
HETATM    4  C7  UNL     1      65.782   1.626  85.128  1.00  0.00     0.120 A 
HETATM    5  C8  UNL     1      65.380   2.875  84.789  1.00  0.00     0.121 A 
ENDROOT
BRANCH   1   6
HETATM    6  N6  UNL     1      63.544   4.120  83.547  1.00  0.00    -0.171 N 
HETATM    7  N5  UNL     1      62.456   4.675  83.930  1.00  0.00    -0.219 N 
HETATM    8  N4  UNL     1      62.157   5.755  83.176  1.00  0.00    -0.264 N 
ATOM      9  H5  UNL     1      61.886   4.344  84.709  1.00  0.00     0.210 HD
HETATM   10  C3  UNL     1      63.160   5.860  82.257  1.00  0.00     0.209 A 
ATOM     11  H4  UNL     1      61.347   6.368  83.275  1.00  0.00     0.190 HD
HETATM   12  N13 UNL     1      63.985   4.849  82.513  1.00  0.00    -0.256 N 
ATOM     13  H13 UNL     1      64.840   4.655  81.991  1.00  0.00     0.191 HD
BRANCH  10  14
HETATM   14  C2  UNL     1      63.289   6.878  81.207  1.00  0.00     0.312 C 
HETATM   15  N3  UNL     1      62.890   8.210  81.540  1.00  0.00    -0.219 N 
ATOM     16  H3  UNL     1      62.535   8.413  82.475  1.00  0.00     0.198 HD
HETATM   17  O3  UNL     1      63.728   6.590  80.070  1.00  0.00    -0.262 OA
BRANCH  15  18
HETATM   18  O2  UNL     1      62.982   9.215  80.618  1.00  0.00    -0.199 OA
BRANCH  18  19
HETATM   19  C1  UNL     1      63.749  10.359  80.913  1.00  0.00     0.275 C 
HETATM   20  N1  UNL     1      64.617  10.277  82.015  1.00  0.00    -0.053 NA
HETATM   21  N2  UNL     1      63.603  11.386  80.163  1.00  0.00    -0.234 N 
ATOM     22  H2  UNL     1      62.940  11.324  79.391  1.00  0.00     0.197 HD
BRANCH  21  23
HETATM   23  O1  UNL     1      64.285  12.569  80.335  1.00  0.00    -0.287 OA
ATOM     24  H1  UNL     1      64.208  13.316  79.754  1.00  0.00     0.244 HD
ENDBRANCH  21  23
ENDBRANCH  18  19
ENDBRANCH  15  18
ENDBRANCH  10  14
ENDBRANCH   1   6
BRANCH   5  25
HETATM   25  N7  UNL     1      66.082   4.103  85.145  1.00  0.00    -0.281 N 
ATOM     26  H7  UNL     1      66.807   4.444  84.514  1.00  0.00     0.187 HD
BRANCH  25  27
HETATM   27  N8  UNL     1      65.817   4.833  86.294  1.00  0.00    -0.129 N 
ATOM     28  H8  UNL     1      66.406   4.758  87.123  1.00  0.00     0.205 HD
BRANCH  27  29
HETATM   29  C9  UNL     1      64.768   5.626  86.262  1.00  0.00     0.722 A 
HETATM   30  N9  UNL     1      63.607   5.396  86.891  1.00  0.00    -0.115 N 
HETATM   31  N10 UNL     1      62.772   6.417  86.619  1.00  0.00     0.006 NA
ATOM     32  H9  UNL     1      63.394   4.587  87.475  1.00  0.00     0.202 HD
HETATM   33  N11 UNL     1      63.418   7.282  85.820  1.00  0.00     0.006 NA
HETATM   34  N12 UNL     1      64.626   6.789  85.613  1.00  0.00    -0.115 N 
ATOM     35  H12 UNL     1      65.347   7.230  85.042  1.00  0.00     0.202 HD
ENDBRANCH  27  29
ENDBRANCH  25  27
ENDBRANCH   5  25
BRANCH   3  36
HETATM   36  C6  UNL     1      65.243  -0.865  84.961  1.00  0.00     0.219 C 
HETATM   37  O4  UNL     1      64.482  -1.615  84.276  1.00  0.00    -0.643 OA
HETATM   38  O5  UNL     1      66.194  -1.258  85.842  1.00  0.00    -0.643 OA
ENDBRANCH   3  36
BRANCH   4  39
HETATM   39  O6  UNL     1      66.974   1.408  85.888  1.00  0.00    -0.357 OA
ATOM     40  H6  UNL     1      67.212   0.543  86.203  1.00  0.00     0.218 HD
ENDBRANCH   4  39
TORSDOF 10
ENDMDL
MODEL 2
REMARK VINA RESULT: -8.368826525      1.198      1.319
REMARK  10 active torsions:
REMARK  status: ('A' for Active; 'I' for Inactive)
REMARK    1  A    between atoms: C1_2  and  O2_7 
REMARK    2  A    between atoms: N2_3  and  O1_5 
REMARK    3  A    between atoms: O2_7  and  N3_8 
REMARK       I    between atoms: N3_8  and  C2_10 
REMARK    4  A    between atoms: C2_10  and  C3_12 
REMARK    5  A    between atoms: N6_17  and  C4_18 
REMARK    6  A    between atoms: C5_20  and  C6_21 
REMARK    7  A    between atoms: C7_24  and  O6_25 
REMARK    8  A    between atoms: C8_27  and  N7_28 
REMARK    9  A    between atoms: N7_28  and  N8_30 
REMARK   10  A    between atoms: N8_30  and  C9_32 
ROOT
HETATM    1  C4  UNL     1      64.468   2.457  84.305  1.00  0.00     0.149 A 
HETATM    2  S1  UNL     1      64.084   0.802  84.150  1.00  0.00    -0.057 SA
HETATM    3  C5  UNL     1      65.245   0.146  85.192  1.00  0.00     0.119 A 
HETATM    4  C7  UNL     1      65.922   1.251  85.648  1.00  0.00     0.120 A 
HETATM    5  C8  UNL     1      65.515   2.458  85.186  1.00  0.00     0.121 A 
ENDROOT
BRANCH   1   6
HETATM    6  N6  UNL     1      63.810   3.539  83.641  1.00  0.00    -0.171 N 
HETATM    7  N5  UNL     1      62.563   3.751  83.438  1.00  0.00    -0.219 N 
HETATM    8  N4  UNL     1      62.358   4.908  82.771  1.00  0.00    -0.264 N 
ATOM      9  H5  UNL     1      61.818   3.125  83.741  1.00  0.00     0.210 HD
HETATM   10  C3  UNL     1      63.596   5.442  82.557  1.00  0.00     0.209 A 
ATOM     11  H4  UNL     1      61.461   5.302  82.486  1.00  0.00     0.190 HD
HETATM   12  N13 UNL     1      64.453   4.582  83.101  1.00  0.00    -0.256 N 
ATOM     13  H13 UNL     1      65.466   4.702  83.105  1.00  0.00     0.191 HD
BRANCH  10  14
HETATM   14  C2  UNL     1      63.904   6.700  81.868  1.00  0.00     0.312 C 
HETATM   15  N3  UNL     1      64.438   7.763  82.661  1.00  0.00    -0.219 N 
ATOM     16  H3  UNL     1      64.586   7.623  83.661  1.00  0.00     0.198 HD
HETATM   17  O3  UNL     1      63.707   6.836  80.638  1.00  0.00    -0.262 OA
BRANCH  15  18
HETATM   18  O2  UNL     1      64.753   8.965  82.093  1.00  0.00    -0.199 OA
BRANCH  18  19
HETATM   19  C1  UNL     1      63.807  10.009  82.109  1.00  0.00     0.275 C 
HETATM   20  N1  UNL     1      64.057  11.108  81.271  1.00  0.00    -0.053 NA
HETATM   21  N2  UNL     1      62.793   9.885  82.881  1.00  0.00    -0.234 N 
ATOM     22  H2  UNL     1      62.721   9.038  83.444  1.00  0.00     0.197 HD
BRANCH  21  23
HETATM   23  O1  UNL     1      61.795  10.824  82.998  1.00  0.00    -0.287 OA
ATOM     24  H1  UNL     1      60.924  10.637  83.329  1.00  0.00     0.244 HD
ENDBRANCH  21  23
ENDBRANCH  18  19
ENDBRANCH  15  18
ENDBRANCH  10  14
ENDBRANCH   1   6
BRANCH   5  25
HETATM   25  N7  UNL     1      66.108   3.738  85.557  1.00  0.00    -0.281 N 
ATOM     26  H7  UNL     1      66.850   4.115  84.967  1.00  0.00     0.187 HD
BRANCH  25  27
HETATM   27  N8  UNL     1      65.719   4.470  86.669  1.00  0.00    -0.129 N 
ATOM     28  H8  UNL     1      66.145   4.321  87.584  1.00  0.00     0.205 HD
BRANCH  27  29
HETATM   29  C9  UNL     1      64.773   5.366  86.487  1.00  0.00     0.722 A 
HETATM   30  N9  UNL     1      63.490   5.216  86.842  1.00  0.00    -0.115 N 
HETATM   31  N10 UNL     1      62.822   6.331  86.487  1.00  0.00     0.006 NA
ATOM     32  H9  UNL     1      63.088   4.399  87.303  1.00  0.00     0.202 HD
HETATM   33  N11 UNL     1      63.695   7.173  85.911  1.00  0.00     0.006 NA
HETATM   34  N12 UNL     1      64.873   6.574  85.918  1.00  0.00    -0.115 N 
ATOM     35  H12 UNL     1      65.733   6.975  85.545  1.00  0.00     0.202 HD
ENDBRANCH  27  29
ENDBRANCH  25  27
ENDBRANCH   5  25
BRANCH   3  36
HETATM   36  C6  UNL     1      65.521  -1.270  85.560  1.00  0.00     0.219 C 
HETATM   37  O4  UNL     1      65.410  -2.058  84.571  1.00  0.00    -0.643 OA
HETATM   38  O5  UNL     1      65.847  -1.600  86.832  1.00  0.00    -0.643 OA
ENDBRANCH   3  36
BRANCH   4  39
HETATM   39  O6  UNL     1      67.010   1.135  86.570  1.00  0.00    -0.357 OA
ATOM     40  H6  UNL     1      67.497   1.896  86.863  1.00  0.00     0.218 HD
ENDBRANCH   4  39
TORSDOF 10
ENDMDL
MODEL 3
REMARK VINA RESULT: -8.162861526      3.698      7.788
REMARK  10 active torsions:
REMARK  status: ('A' for Active; 'I' for Inactive)
REMARK    1  A    between atoms: C1_2  and  O2_7 
REMARK    2  A    between atoms: N2_3  and  O1_5 
REMARK    3  A    between atoms: O2_7  and  N3_8 
REMARK       I    between atoms: N3_8  and  C2_10 
REMARK    4  A    between atoms: C2_10  and  C3_12 
REMARK    5  A    between atoms: N6_17  and  C4_18 
REMARK    6  A    between atoms: C5_20  and  C6_21 
REMARK    7  A    between atoms: C7_24  and  O6_25 
REMARK    8  A    between atoms: C8_27  and  N7_28 
REMARK    9  A    between atoms: N7_28  and  N8_30 
REMARK   10  A    between atoms: N8_30  and  C9_32 
ROOT
HETATM    1  C4  UNL     1      64.039   7.759  78.738  1.00  0.00     0.149 A 
HETATM    2  S1  UNL     1      64.722   6.864  77.456  1.00  0.00    -0.057 SA
HETATM    3  C5  UNL     1      65.827   8.006  76.875  1.00  0.00     0.119 A 
HETATM    4  C7  UNL     1      65.639   9.083  77.707  1.00  0.00     0.120 A 
HETATM    5  C8  UNL     1      64.706   8.954  78.681  1.00  0.00     0.121 A 
ENDROOT
BRANCH   1   6
HETATM    6  N6  UNL     1      63.014   7.309  79.627  1.00  0.00    -0.171 N 
HETATM    7  N5  UNL     1      61.745   7.471  79.580  1.00  0.00    -0.219 N 
HETATM    8  N4  UNL     1      61.127   6.873  80.621  1.00  0.00    -0.264 N 
ATOM      9  H5  UNL     1      61.260   7.988  78.845  1.00  0.00     0.210 HD
HETATM   10  C3  UNL     1      62.117   6.295  81.362  1.00  0.00     0.209 A 
ATOM     11  H4  UNL     1      60.125   6.857  80.814  1.00  0.00     0.190 HD
HETATM   12  N13 UNL     1      63.250   6.580  80.727  1.00  0.00    -0.256 N 
ATOM     13  H13 UNL     1      64.176   6.283  81.036  1.00  0.00     0.191 HD
BRANCH  10  14
HETATM   14  C2  UNL     1      61.953   5.524  82.600  1.00  0.00     0.312 C 
HETATM   15  N3  UNL     1      62.945   5.701  83.614  1.00  0.00    -0.219 N 
ATOM     16  H3  UNL     1      63.722   6.342  83.453  1.00  0.00     0.198 HD
HETATM   17  O3  UNL     1      60.985   4.744  82.759  1.00  0.00    -0.262 OA
BRANCH  15  18
HETATM   18  O2  UNL     1      62.862   5.020  84.795  1.00  0.00    -0.199 OA
BRANCH  18  19
HETATM   19  C1  UNL     1      63.544   5.509  85.927  1.00  0.00     0.275 C 
HETATM   20  N1  UNL     1      62.799   6.279  86.836  1.00  0.00    -0.053 NA
HETATM   21  N2  UNL     1      64.785   5.220  86.047  1.00  0.00    -0.234 N 
ATOM     22  H2  UNL     1      65.218   4.651  85.320  1.00  0.00     0.197 HD
BRANCH  21  23
HETATM   23  O1  UNL     1      65.573   5.630  87.099  1.00  0.00    -0.287 OA
ATOM     24  H1  UNL     1      65.957   5.040  87.737  1.00  0.00     0.244 HD
ENDBRANCH  21  23
ENDBRANCH  18  19
ENDBRANCH  15  18
ENDBRANCH  10  14
ENDBRANCH   1   6
BRANCH   5  25
HETATM   25  N7  UNL     1      64.368   9.984  79.657  1.00  0.00    -0.281 N 
ATOM     26  H7  UNL     1      63.773  10.756  79.357  1.00  0.00     0.187 HD
BRANCH  25  27
HETATM   27  N8  UNL     1      64.814   9.971  80.971  1.00  0.00    -0.129 N 
ATOM     28  H8  UNL     1      65.787  10.162  81.207  1.00  0.00     0.205 HD
BRANCH  27  29
HETATM   29  C9  UNL     1      63.919   9.701  81.896  1.00  0.00     0.722 A 
HETATM   30  N9  UNL     1      64.152   8.998  83.013  1.00  0.00    -0.115 N 
HETATM   31  N10 UNL     1      63.001   8.919  83.708  1.00  0.00     0.006 NA
ATOM     32  H9  UNL     1      65.047   8.593  83.289  1.00  0.00     0.202 HD
HETATM   33  N11 UNL     1      62.053   9.575  83.019  1.00  0.00     0.006 NA
HETATM   34  N12 UNL     1      62.624  10.043  81.924  1.00  0.00    -0.115 N 
ATOM     35  H12 UNL     1      62.149  10.587  81.204  1.00  0.00     0.202 HD
ENDBRANCH  27  29
ENDBRANCH  25  27
ENDBRANCH   5  25
BRANCH   3  36
HETATM   36  C6  UNL     1      66.789   7.927  75.741  1.00  0.00     0.219 C 
HETATM   37  O4  UNL     1      66.366   7.190  74.797  1.00  0.00    -0.643 OA
HETATM   38  O5  UNL     1      67.966   8.595  75.788  1.00  0.00    -0.643 OA
ENDBRANCH   3  36
BRANCH   4  39
HETATM   39  O6  UNL     1      66.392  10.289  77.553  1.00  0.00    -0.357 OA
ATOM     40  H6  UNL     1      67.342  10.288  77.569  1.00  0.00     0.218 HD
ENDBRANCH   4  39
TORSDOF 10
ENDMDL
MODEL 4
REMARK VINA RESULT: -8.143448006      0.974      1.112
REMARK  10 active torsions:
REMARK  status: ('A' for Active; 'I' for Inactive)
REMARK    1  A    between atoms: C1_2  and  O2_7 
REMARK    2  A    between atoms: N2_3  and  O1_5 
REMARK    3  A    between atoms: O2_7  and  N3_8 
REMARK       I    between atoms: N3_8  and  C2_10 
REMARK    4  A    between atoms: C2_10  and  C3_12 
REMARK    5  A    between atoms: N6_17  and  C4_18 
REMARK    6  A    between atoms: C5_20  and  C6_21 
REMARK    7  A    between atoms: C7_24  and  O6_25 
REMARK    8  A    between atoms: C8_27  and  N7_28 
REMARK    9  A    between atoms: N7_28  and  N8_30 
REMARK   10  A    between atoms: N8_30  and  C9_32 
ROOT
HETATM    1  C4  UNL     1      64.407   2.754  84.219  1.00  0.00     0.149 A 
HETATM    2  S1  UNL     1      63.979   1.112  84.049  1.00  0.00    -0.057 SA
HETATM    3  C5  UNL     1      65.158   0.410  85.039  1.00  0.00     0.119 A 
HETATM    4  C7  UNL     1      65.876   1.491  85.492  1.00  0.00     0.120 A 
HETATM    5  C8  UNL     1      65.483   2.715  85.065  1.00  0.00     0.121 A 
ENDROOT
BRANCH   1   6
HETATM    6  N6  UNL     1      63.753   3.864  83.597  1.00  0.00    -0.171 N 
HETATM    7  N5  UNL     1      62.507   4.135  83.484  1.00  0.00    -0.219 N 
HETATM    8  N4  UNL     1      62.308   5.296  82.825  1.00  0.00    -0.264 N 
ATOM      9  H5  UNL     1      61.757   3.546  83.848  1.00  0.00     0.210 HD
HETATM   10  C3  UNL     1      63.550   5.769  82.515  1.00  0.00     0.209 A 
ATOM     11  H4  UNL     1      61.412   5.731  82.604  1.00  0.00     0.190 HD
HETATM   12  N13 UNL     1      64.404   4.872  83.001  1.00  0.00    -0.256 N 
ATOM     13  H13 UNL     1      65.419   4.943  82.929  1.00  0.00     0.191 HD
BRANCH  10  14
HETATM   14  C2  UNL     1      63.866   7.007  81.794  1.00  0.00     0.312 C 
HETATM   15  N3  UNL     1      63.440   7.094  80.432  1.00  0.00    -0.219 N 
ATOM     16  H3  UNL     1      62.942   6.312  80.007  1.00  0.00     0.198 HD
HETATM   17  O3  UNL     1      64.482   7.946  82.349  1.00  0.00    -0.262 OA
BRANCH  15  18
HETATM   18  O2  UNL     1      63.694   8.216  79.693  1.00  0.00    -0.199 OA
BRANCH  18  19
HETATM   19  C1  UNL     1      63.113   9.442  80.072  1.00  0.00     0.275 C 
HETATM   20  N1  UNL     1      61.713   9.533  79.994  1.00  0.00    -0.053 NA
HETATM   21  N2  UNL     1      63.894  10.380  80.456  1.00  0.00    -0.234 N 
ATOM     22  H2  UNL     1      64.896  10.194  80.469  1.00  0.00     0.197 HD
BRANCH  21  23
HETATM   23  O1  UNL     1      63.463  11.626  80.852  1.00  0.00    -0.287 OA
ATOM     24  H1  UNL     1      63.336  12.358  80.259  1.00  0.00     0.244 HD
ENDBRANCH  21  23
ENDBRANCH  18  19
ENDBRANCH  15  18
ENDBRANCH  10  14
ENDBRANCH   1   6
BRANCH   5  25
HETATM   25  N7  UNL     1      66.118   3.974  85.438  1.00  0.00    -0.281 N 
ATOM     26  H7  UNL     1      66.861   4.336  84.839  1.00  0.00     0.187 HD
BRANCH  25  27
HETATM   27  N8  UNL     1      65.768   4.706  86.563  1.00  0.00    -0.129 N 
ATOM     28  H8  UNL     1      66.271   4.606  87.445  1.00  0.00     0.205 HD
BRANCH  27  29
HETATM   29  C9  UNL     1      64.755   5.536  86.437  1.00  0.00     0.722 A 
HETATM   30  N9  UNL     1      63.504   5.294  86.852  1.00  0.00    -0.115 N 
HETATM   31  N10 UNL     1      62.744   6.363  86.543  1.00  0.00     0.006 NA
ATOM     32  H9  UNL     1      63.182   4.447  87.321  1.00  0.00     0.202 HD
HETATM   33  N11 UNL     1      63.528   7.269  85.937  1.00  0.00     0.006 NA
HETATM   34  N12 UNL     1      64.743   6.754  85.880  1.00  0.00    -0.115 N 
ATOM     35  H12 UNL     1      65.555   7.216  85.471  1.00  0.00     0.202 HD
ENDBRANCH  27  29
ENDBRANCH  25  27
ENDBRANCH   5  25
BRANCH   3  36
HETATM   36  C6  UNL     1      65.412  -1.018  85.373  1.00  0.00     0.219 C 
HETATM   37  O4  UNL     1      65.167  -1.794  84.400  1.00  0.00    -0.643 OA
HETATM   38  O5  UNL     1      65.854  -1.370  86.604  1.00  0.00    -0.643 OA
ENDBRANCH   3  36
BRANCH   4  39
HETATM   39  O6  UNL     1      66.990   1.333  86.375  1.00  0.00    -0.357 OA
ATOM     40  H6  UNL     1      67.349   2.067  86.860  1.00  0.00     0.218 HD
ENDBRANCH   4  39
TORSDOF 10
ENDMDL
MODEL 5
REMARK VINA RESULT: -8.046733994      2.239      3.042
REMARK  10 active torsions:
REMARK  status: ('A' for Active; 'I' for Inactive)
REMARK    1  A    between atoms: C1_2  and  O2_7 
REMARK    2  A    between atoms: N2_3  and  O1_5 
REMARK    3  A    between atoms: O2_7  and  N3_8 
REMARK       I    between atoms: N3_8  and  C2_10 
REMARK    4  A    between atoms: C2_10  and  C3_12 
REMARK    5  A    between atoms: N6_17  and  C4_18 
REMARK    6  A    between atoms: C5_20  and  C6_21 
REMARK    7  A    between atoms: C7_24  and  O6_25 
REMARK    8  A    between atoms: C8_27  and  N7_28 
REMARK    9  A    between atoms: N7_28  and  N8_30 
REMARK   10  A    between atoms: N8_30  and  C9_32 
ROOT
HETATM    1  C4  UNL     1      63.607   4.992  83.744  1.00  0.00     0.149 A 
HETATM    2  S1  UNL     1      62.405   4.094  82.933  1.00  0.00    -0.057 SA
HETATM    3  C5  UNL     1      62.944   2.528  83.276  1.00  0.00     0.119 A 
HETATM    4  C7  UNL     1      64.073   2.740  84.032  1.00  0.00     0.120 A 
HETATM    5  C8  UNL     1      64.418   4.027  84.277  1.00  0.00     0.121 A 
ENDROOT
BRANCH   1   6
HETATM    6  N6  UNL     1      63.690   6.419  83.814  1.00  0.00    -0.171 N 
HETATM    7  N5  UNL     1      63.963   7.186  84.802  1.00  0.00    -0.219 N 
HETATM    8  N4  UNL     1      63.945   8.487  84.442  1.00  0.00    -0.264 N 
ATOM      9  H5  UNL     1      64.170   6.855  85.745  1.00  0.00     0.210 HD
HETATM   10  C3  UNL     1      63.634   8.503  83.113  1.00  0.00     0.209 A 
ATOM     11  H4  UNL     1      64.127   9.293  85.040  1.00  0.00     0.190 HD
HETATM   12  N13 UNL     1      63.487   7.228  82.766  1.00  0.00    -0.256 N 
ATOM     13  H13 UNL     1      63.250   6.908  81.826  1.00  0.00     0.191 HD
BRANCH  10  14
HETATM   14  C2  UNL     1      63.492   9.687  82.257  1.00  0.00     0.312 C 
HETATM   15  N3  UNL     1      64.626  10.060  81.469  1.00  0.00    -0.219 N 
ATOM     16  H3  UNL     1      65.482   9.509  81.522  1.00  0.00     0.198 HD
HETATM   17  O3  UNL     1      62.424  10.341  82.219  1.00  0.00    -0.262 OA
BRANCH  15  18
HETATM   18  O2  UNL     1      64.572  11.149  80.645  1.00  0.00    -0.199 OA
BRANCH  18  19
HETATM   19  C1  UNL     1      65.103  11.061  79.343  1.00  0.00     0.275 C 
HETATM   20  N1  UNL     1      65.295   9.771  78.821  1.00  0.00    -0.053 NA
HETATM   21  N2  UNL     1      65.372  12.153  78.732  1.00  0.00    -0.234 N 
ATOM     22  H2  UNL     1      65.188  13.031  79.217  1.00  0.00     0.197 HD
BRANCH  21  23
HETATM   23  O1  UNL     1      65.894  12.215  77.460  1.00  0.00    -0.287 OA
ATOM     24  H1  UNL     1      66.173  13.019  77.039  1.00  0.00     0.244 HD
ENDBRANCH  21  23
ENDBRANCH  18  19
ENDBRANCH  15  18
ENDBRANCH  10  14
ENDBRANCH   1   6
BRANCH   5  25
HETATM   25  N7  UNL     1      65.577   4.447  85.057  1.00  0.00    -0.281 N 
ATOM     26  H7  UNL     1      66.284   5.022  84.599  1.00  0.00     0.187 HD
BRANCH  25  27
HETATM   27  N8  UNL     1      65.769   4.107  86.389  1.00  0.00    -0.129 N 
ATOM     28  H8  UNL     1      65.707   3.141  86.708  1.00  0.00     0.205 HD
BRANCH  27  29
HETATM   29  C9  UNL     1      66.034   5.093  87.218  1.00  0.00     0.722 A 
HETATM   30  N9  UNL     1      65.196   6.094  87.519  1.00  0.00    -0.115 N 
HETATM   31  N10 UNL     1      65.817   6.914  88.390  1.00  0.00     0.006 NA
ATOM     32  H9  UNL     1      64.252   6.215  87.153  1.00  0.00     0.202 HD
HETATM   33  N11 UNL     1      67.041   6.417  88.629  1.00  0.00     0.006 NA
HETATM   34  N12 UNL     1      67.158   5.314  87.912  1.00  0.00    -0.115 N 
ATOM     35  H12 UNL     1      67.985   4.717  87.890  1.00  0.00     0.202 HD
ENDBRANCH  27  29
ENDBRANCH  25  27
ENDBRANCH   5  25
BRANCH   3  36
HETATM   36  C6  UNL     1      62.384   1.207  82.882  1.00  0.00     0.219 C 
HETATM   37  O4  UNL     1      61.701   1.269  81.814  1.00  0.00    -0.643 OA
HETATM   38  O5  UNL     1      62.622   0.105  83.634  1.00  0.00    -0.643 OA
ENDBRANCH   3  36
BRANCH   4  39
HETATM   39  O6  UNL     1      64.851   1.651  84.536  1.00  0.00    -0.357 OA
ATOM     40  H6  UNL     1      64.599   0.748  84.386  1.00  0.00     0.218 HD
ENDBRANCH   4  39
TORSDOF 10
ENDMDL
