MODEL 1
REMARK VINA RESULT: -5.329372658      0.000      0.000
REMARK  13 active torsions:
REMARK  status: ('A' for Active; 'I' for Inactive)
REMARK    1  A    between atoms: N1_1  and  C1_4 
REMARK    2  A    between atoms: C4_12  and  N4_13 
REMARK    3  A    between atoms: C7_19  and  C8_20 
REMARK       I    between atoms: C8_20  and  N6_22 
REMARK       I    between atoms: N6_22  and  C9_24 
REMARK    4  A    between atoms: C9_24  and  C10_26 
REMARK    5  A    between atoms: C10_26  and  O4_27 
REMARK    6  A    between atoms: C10_26  and  O5_29 
REMARK    7  A    between atoms: N8_34  and  C12_35 
REMARK    8  A    between atoms: C13_37  and  C14_38 
REMARK    9  A    between atoms: C14_38  and  O7_39 
REMARK   10  A    between atoms: C14_38  and  C15_41 
REMARK   11  A    between atoms: C15_41  and  O8_42 
REMARK   12  A    between atoms: C16_44  and  O9_45 
REMARK   13  A    between atoms: C17_47  and  O10_48 
ROOT
HETATM    1  C1  UNL     1      18.638  -1.845  13.410  1.00  0.00     0.684 A 
HETATM    2  N2  UNL     1      18.981  -2.389  12.241  1.00  0.00    -0.154 N 
ATOM      3  H2  UNL     1      19.300  -1.789  11.481  1.00  0.00     0.187 HD
HETATM    4  C2  UNL     1      18.912  -3.701  12.057  1.00  0.00     0.290 A 
HETATM    5  O1  UNL     1      19.224  -4.239  10.984  1.00  0.00    -0.265 OA
HETATM    6  C3  UNL     1      18.475  -4.476  13.106  1.00  0.00     0.163 A 
HETATM    7  N3  UNL     1      18.252  -5.785  13.213  1.00  0.00    -0.182 N 
ATOM      8  H3  UNL     1      18.419  -6.471  12.477  1.00  0.00     0.184 HD
HETATM    9  C4  UNL     1      17.753  -6.073  14.488  1.00  0.00     0.684 A 
HETATM   10  N7  UNL     1      17.694  -4.903  15.131  1.00  0.00    -0.173 N 
ATOM     11  H7  UNL     1      17.373  -4.783  16.092  1.00  0.00     0.186 HD
HETATM   12  C11 UNL     1      18.123  -3.896  14.324  1.00  0.00     0.174 A 
HETATM   13  N8  UNL     1      18.198  -2.570  14.502  1.00  0.00    -0.136 N 
ENDROOT
BRANCH   9  14
HETATM   14  N4  UNL     1      17.292  -7.308  14.856  1.00  0.00    -0.177 N 
HETATM   15  C5  UNL     1      18.151  -8.266  15.616  1.00  0.00     0.171 C 
HETATM   16  C6  UNL     1      17.272  -8.174  16.898  1.00  0.00     0.255 C 
HETATM   17  N5  UNL     1      15.933  -7.996  16.396  1.00  0.00    -0.043 N 
HETATM   18  C7  UNL     1      16.031  -8.007  14.895  1.00  0.00     0.393 C 
ATOM     19  H52 UNL     1      15.271  -8.681  16.761  1.00  0.00     0.280 HD
ATOM     20  H51 UNL     1      15.472  -7.163  16.763  1.00  0.00     0.280 HD
BRANCH  18  21
HETATM   21  C8  UNL     1      14.953  -7.207  14.330  1.00  0.00     0.275 C 
HETATM   22  O2  UNL     1      14.189  -6.583  15.150  1.00  0.00    -0.269 OA
HETATM   23  N6  UNL     1      14.656  -7.060  12.956  1.00  0.00    -0.290 N 
HETATM   24  C9  UNL     1      15.211  -7.836  11.902  1.00  0.00     0.279 C 
ATOM     25  H6  UNL     1      13.987  -6.335  12.698  1.00  0.00     0.172 HD
HETATM   26  O3  UNL     1      16.178  -8.597  11.994  1.00  0.00    -0.268 OA
BRANCH  24  27
HETATM   27  C10 UNL     1      14.566  -7.731  10.551  1.00  0.00     0.349 C 
BRANCH  27  28
HETATM   28  O4  UNL     1      13.192  -7.614  10.696  1.00  0.00    -0.363 OA
ATOM     29  H4  UNL     1      12.777  -8.449  10.511  1.00  0.00     0.213 HD
ENDBRANCH  27  28
BRANCH  27  30
HETATM   30  O5  UNL     1      14.787  -8.954   9.858  1.00  0.00    -0.363 OA
ATOM     31  H5  UNL     1      14.689  -9.668  10.478  1.00  0.00     0.213 HD
ENDBRANCH  27  30
ENDBRANCH  24  27
ENDBRANCH  18  21
ENDBRANCH   9  14
BRANCH  13  32
HETATM   32  C12 UNL     1      17.881  -1.857  15.711  1.00  0.00     0.279 C 
HETATM   33  O6  UNL     1      16.790  -2.571  16.275  1.00  0.00    -0.352 OA
HETATM   34  C13 UNL     1      16.604  -2.032  17.523  1.00  0.00     0.186 C 
HETATM   35  C16 UNL     1      17.959  -1.686  18.064  1.00  0.00     0.182 C 
HETATM   36  C17 UNL     1      18.868  -1.821  16.809  1.00  0.00     0.199 C 
BRANCH  34  37
HETATM   37  C14 UNL     1      15.898  -3.078  18.353  1.00  0.00     0.173 C 
BRANCH  37  38
HETATM   38  O7  UNL     1      15.531  -2.675  19.608  1.00  0.00    -0.391 OA
ATOM     39  H7  UNL     1      14.600  -2.538  19.733  1.00  0.00     0.210 HD
ENDBRANCH  37  38
BRANCH  37  40
HETATM   40  C15 UNL     1      14.823  -3.761  17.591  1.00  0.00     0.198 C 
BRANCH  40  41
HETATM   41  O8  UNL     1      15.387  -4.979  17.124  1.00  0.00    -0.398 OA
ATOM     42  H8  UNL     1      15.780  -4.780  16.283  1.00  0.00     0.209 HD
ENDBRANCH  40  41
ENDBRANCH  37  40
ENDBRANCH  34  37
BRANCH  35  43
HETATM   43  O9  UNL     1      18.422  -2.552  19.044  1.00  0.00    -0.390 OA
ATOM     44  H9  UNL     1      17.745  -3.069  19.464  1.00  0.00     0.210 HD
ENDBRANCH  35  43
BRANCH  36  45
HETATM   45  O10 UNL     1      19.582  -2.998  16.953  1.00  0.00    -0.388 OA
ATOM     46  H10 UNL     1      19.531  -3.371  17.825  1.00  0.00     0.210 HD
ENDBRANCH  36  45
ENDBRANCH  13  32
BRANCH   1  47
HETATM   47  N1  UNL     1      18.655  -0.590  13.519  1.00  0.00    -0.234 N 
ATOM     48  H12 UNL     1      19.447  -0.174  14.010  1.00  0.00     0.174 HD
ATOM     49  H11 UNL     1      17.863  -0.057  13.159  1.00  0.00     0.174 HD
ENDBRANCH   1  47
TORSDOF 13
ENDMDL
MODEL 2
REMARK VINA RESULT: -5.327982385      2.426      5.050
REMARK  13 active torsions:
REMARK  status: ('A' for Active; 'I' for Inactive)
REMARK    1  A    between atoms: N1_1  and  C1_4 
REMARK    2  A    between atoms: C4_12  and  N4_13 
REMARK    3  A    between atoms: C7_19  and  C8_20 
REMARK       I    between atoms: C8_20  and  N6_22 
REMARK       I    between atoms: N6_22  and  C9_24 
REMARK    4  A    between atoms: C9_24  and  C10_26 
REMARK    5  A    between atoms: C10_26  and  O4_27 
REMARK    6  A    between atoms: C10_26  and  O5_29 
REMARK    7  A    between atoms: N8_34  and  C12_35 
REMARK    8  A    between atoms: C13_37  and  C14_38 
REMARK    9  A    between atoms: C14_38  and  O7_39 
REMARK   10  A    between atoms: C14_38  and  C15_41 
REMARK   11  A    between atoms: C15_41  and  O8_42 
REMARK   12  A    between atoms: C16_44  and  O9_45 
REMARK   13  A    between atoms: C17_47  and  O10_48 
ROOT
HETATM    1  C1  UNL     1      18.572   0.357  15.513  1.00  0.00     0.684 A 
HETATM    2  N2  UNL     1      17.804   0.475  16.597  1.00  0.00    -0.154 N 
ATOM      3  H2  UNL     1      17.530   1.403  16.921  1.00  0.00     0.187 HD
HETATM    4  C2  UNL     1      17.393  -0.599  17.259  1.00  0.00     0.290 A 
HETATM    5  O1  UNL     1      16.678  -0.525  18.269  1.00  0.00    -0.265 OA
HETATM    6  C3  UNL     1      17.785  -1.832  16.792  1.00  0.00     0.163 A 
HETATM    7  N3  UNL     1      17.586  -3.064  17.256  1.00  0.00    -0.182 N 
ATOM      8  H3  UNL     1      17.034  -3.299  18.081  1.00  0.00     0.184 HD
HETATM    9  C4  UNL     1      18.248  -3.987  16.438  1.00  0.00     0.684 A 
HETATM   10  N7  UNL     1      18.838  -3.268  15.478  1.00  0.00    -0.173 N 
ATOM     11  H7  UNL     1      19.397  -3.658  14.720  1.00  0.00     0.186 HD
HETATM   12  C11 UNL     1      18.585  -1.943  15.655  1.00  0.00     0.174 A 
HETATM   13  N8  UNL     1      18.994  -0.853  14.992  1.00  0.00    -0.136 N 
ENDROOT
BRANCH   9  14
HETATM   14  N4  UNL     1      18.352  -5.319  16.735  1.00  0.00    -0.177 N 
HETATM   15  C5  UNL     1      19.191  -5.800  17.874  1.00  0.00     0.171 C 
HETATM   16  C6  UNL     1      17.958  -6.288  18.691  1.00  0.00     0.255 C 
HETATM   17  N5  UNL     1      17.028  -6.743  17.688  1.00  0.00    -0.043 N 
HETATM   18  C7  UNL     1      17.701  -6.549  16.357  1.00  0.00     0.393 C 
ATOM     19  H52 UNL     1      16.706  -7.699  17.841  1.00  0.00     0.280 HD
ATOM     20  H51 UNL     1      16.116  -6.290  17.749  1.00  0.00     0.280 HD
BRANCH  18  21
HETATM   21  C8  UNL     1      16.693  -6.332  15.329  1.00  0.00     0.275 C 
HETATM   22  O2  UNL     1      15.463  -6.352  15.694  1.00  0.00    -0.269 OA
HETATM   23  N6  UNL     1      16.938  -6.111  13.954  1.00  0.00    -0.290 N 
HETATM   24  C9  UNL     1      18.188  -6.283  13.299  1.00  0.00     0.279 C 
ATOM     25  H6  UNL     1      16.152  -5.802  13.384  1.00  0.00     0.172 HD
HETATM   26  O3  UNL     1      19.281  -6.437  13.852  1.00  0.00    -0.268 OA
BRANCH  24  27
HETATM   27  C10 UNL     1      18.189  -6.281  11.799  1.00  0.00     0.349 C 
BRANCH  27  28
HETATM   28  O4  UNL     1      18.210  -4.975  11.332  1.00  0.00    -0.363 OA
ATOM     29  H4  UNL     1      18.192  -4.973  10.382  1.00  0.00     0.213 HD
ENDBRANCH  27  28
BRANCH  27  30
HETATM   30  O5  UNL     1      16.959  -6.840  11.353  1.00  0.00    -0.363 OA
ATOM     31  H5  UNL     1      16.400  -6.130  11.058  1.00  0.00     0.213 HD
ENDBRANCH  27  30
ENDBRANCH  24  27
ENDBRANCH  18  21
ENDBRANCH   9  14
BRANCH  13  32
HETATM   32  C12 UNL     1      19.803  -0.837  13.802  1.00  0.00     0.279 C 
HETATM   33  O6  UNL     1      20.807  -1.814  14.036  1.00  0.00    -0.352 OA
HETATM   34  C13 UNL     1      21.464  -1.959  12.841  1.00  0.00     0.186 C 
HETATM   35  C16 UNL     1      20.444  -1.817  11.752  1.00  0.00     0.182 C 
HETATM   36  C17 UNL     1      19.209  -1.261  12.518  1.00  0.00     0.199 C 
BRANCH  34  37
HETATM   37  C14 UNL     1      22.109  -3.325  12.856  1.00  0.00     0.173 C 
BRANCH  37  38
HETATM   38  O7  UNL     1      23.113  -3.506  11.945  1.00  0.00    -0.391 OA
ATOM     39  H7  UNL     1      23.080  -4.323  11.462  1.00  0.00     0.210 HD
ENDBRANCH  37  38
BRANCH  37  40
HETATM   40  C15 UNL     1      22.445  -3.767  14.233  1.00  0.00     0.198 C 
BRANCH  40  41
HETATM   41  O8  UNL     1      21.350  -4.562  14.667  1.00  0.00    -0.398 OA
ATOM     42  H8  UNL     1      20.573  -4.167  14.288  1.00  0.00     0.209 HD
ENDBRANCH  40  41
ENDBRANCH  37  40
ENDBRANCH  34  37
BRANCH  35  43
HETATM   43  O9  UNL     1      20.088  -3.010  11.141  1.00  0.00    -0.390 OA
ATOM     44  H9  UNL     1      20.822  -3.548  10.872  1.00  0.00     0.210 HD
ENDBRANCH  35  43
BRANCH  36  45
HETATM   45  O10 UNL     1      18.307  -2.305  12.640  1.00  0.00    -0.388 OA
ATOM     46  H10 UNL     1      17.797  -2.276  13.441  1.00  0.00     0.210 HD
ENDBRANCH  36  45
ENDBRANCH  13  32
BRANCH   1  47
HETATM   47  N1  UNL     1      18.994   1.404  14.955  1.00  0.00    -0.234 N 
ATOM     48  H12 UNL     1      19.756   1.903  15.413  1.00  0.00     0.174 HD
ATOM     49  H11 UNL     1      18.528   1.728  14.107  1.00  0.00     0.174 HD
ENDBRANCH   1  47
TORSDOF 13
ENDMDL
MODEL 3
REMARK VINA RESULT: -5.259894133      5.757      9.426
REMARK  13 active torsions:
REMARK  status: ('A' for Active; 'I' for Inactive)
REMARK    1  A    between atoms: N1_1  and  C1_4 
REMARK    2  A    between atoms: C4_12  and  N4_13 
REMARK    3  A    between atoms: C7_19  and  C8_20 
REMARK       I    between atoms: C8_20  and  N6_22 
REMARK       I    between atoms: N6_22  and  C9_24 
REMARK    4  A    between atoms: C9_24  and  C10_26 
REMARK    5  A    between atoms: C10_26  and  O4_27 
REMARK    6  A    between atoms: C10_26  and  O5_29 
REMARK    7  A    between atoms: N8_34  and  C12_35 
REMARK    8  A    between atoms: C13_37  and  C14_38 
REMARK    9  A    between atoms: C14_38  and  O7_39 
REMARK   10  A    between atoms: C14_38  and  C15_41 
REMARK   11  A    between atoms: C15_41  and  O8_42 
REMARK   12  A    between atoms: C16_44  and  O9_45 
REMARK   13  A    between atoms: C17_47  and  O10_48 
ROOT
HETATM    1  C1  UNL     1      21.240  -2.390  11.628  1.00  0.00     0.684 A 
HETATM    2  N2  UNL     1      22.034  -2.194  10.574  1.00  0.00    -0.154 N 
ATOM      3  H2  UNL     1      22.025  -2.865   9.806  1.00  0.00     0.187 HD
HETATM    4  C2  UNL     1      22.834  -1.137  10.513  1.00  0.00     0.290 A 
HETATM    5  O1  UNL     1      23.583  -0.925   9.548  1.00  0.00    -0.265 OA
HETATM    6  C3  UNL     1      22.818  -0.256  11.569  1.00  0.00     0.163 A 
HETATM    7  N3  UNL     1      23.526   0.843  11.822  1.00  0.00    -0.182 N 
ATOM      8  H3  UNL     1      24.224   1.248  11.198  1.00  0.00     0.184 HD
HETATM    9  C4  UNL     1      23.168   1.355  13.074  1.00  0.00     0.684 A 
HETATM   10  N7  UNL     1      22.226   0.534  13.549  1.00  0.00    -0.173 N 
ATOM     11  H7  UNL     1      21.758   0.645  14.448  1.00  0.00     0.186 HD
HETATM   12  C11 UNL     1      21.981  -0.469  12.664  1.00  0.00     0.174 A 
HETATM   13  N8  UNL     1      21.175  -1.539  12.716  1.00  0.00    -0.136 N 
ENDROOT
BRANCH   9  14
HETATM   14  N4  UNL     1      23.820   2.395  13.678  1.00  0.00    -0.177 N 
HETATM   15  C5  UNL     1      25.103   2.187  14.417  1.00  0.00     0.171 C 
HETATM   16  C6  UNL     1      25.933   3.002  13.381  1.00  0.00     0.255 C 
HETATM   17  N5  UNL     1      25.029   4.032  12.936  1.00  0.00    -0.043 N 
HETATM   18  C7  UNL     1      23.745   3.835  13.694  1.00  0.00     0.393 C 
ATOM     19  H52 UNL     1      25.412   4.973  13.030  1.00  0.00     0.280 HD
ATOM     20  H51 UNL     1      24.901   4.047  11.924  1.00  0.00     0.280 HD
BRANCH  18  21
HETATM   21  C8  UNL     1      22.629   4.326  12.898  1.00  0.00     0.275 C 
HETATM   22  O2  UNL     1      22.906   4.930  11.801  1.00  0.00    -0.269 OA
HETATM   23  N6  UNL     1      21.258   4.213  13.225  1.00  0.00    -0.290 N 
HETATM   24  C9  UNL     1      20.739   3.803  14.483  1.00  0.00     0.279 C 
ATOM     25  H6  UNL     1      20.584   4.445  12.496  1.00  0.00     0.172 HD
HETATM   26  O3  UNL     1      21.384   3.285  15.400  1.00  0.00    -0.268 OA
BRANCH  24  27
HETATM   27  C10 UNL     1      19.275   4.019  14.732  1.00  0.00     0.349 C 
BRANCH  27  28
HETATM   28  O4  UNL     1      18.676   2.817  15.077  1.00  0.00    -0.363 OA
ATOM     29  H4  UNL     1      18.208   2.465  14.328  1.00  0.00     0.213 HD
ENDBRANCH  27  28
BRANCH  27  30
HETATM   30  O5  UNL     1      18.672   4.425  13.509  1.00  0.00    -0.363 OA
ATOM     31  H5  UNL     1      17.871   4.893  13.714  1.00  0.00     0.213 HD
ENDBRANCH  27  30
ENDBRANCH  24  27
ENDBRANCH  18  21
ENDBRANCH   9  14
BRANCH  13  32
HETATM   32  C12 UNL     1      20.258  -1.858  13.778  1.00  0.00     0.279 C 
HETATM   33  O6  UNL     1      21.035  -1.775  14.963  1.00  0.00    -0.352 OA
HETATM   34  C13 UNL     1      20.140  -1.876  15.998  1.00  0.00     0.186 C 
HETATM   35  C16 UNL     1      18.887  -1.170  15.573  1.00  0.00     0.182 C 
HETATM   36  C17 UNL     1      19.123  -0.952  14.050  1.00  0.00     0.199 C 
BRANCH  34  37
HETATM   37  C14 UNL     1      20.785  -1.235  17.203  1.00  0.00     0.173 C 
BRANCH  37  38
HETATM   38  O7  UNL     1      20.903  -2.043  18.300  1.00  0.00    -0.391 OA
ATOM     39  H7  UNL     1      21.763  -2.424  18.433  1.00  0.00     0.210 HD
ENDBRANCH  37  38
BRANCH  37  40
HETATM   40  C15 UNL     1      22.027  -0.503  16.847  1.00  0.00     0.198 C 
BRANCH  40  41
HETATM   41  O8  UNL     1      21.606   0.729  16.278  1.00  0.00    -0.398 OA
ATOM     42  H8  UNL     1      21.212   0.510  15.442  1.00  0.00     0.209 HD
ENDBRANCH  40  41
ENDBRANCH  37  40
ENDBRANCH  34  37
BRANCH  35  43
HETATM   43  O9  UNL     1      18.694   0.065  16.173  1.00  0.00    -0.390 OA
ATOM     44  H9  UNL     1      18.674   0.797  15.569  1.00  0.00     0.210 HD
ENDBRANCH  35  43
BRANCH  36  45
HETATM   45  O10 UNL     1      19.428   0.387  13.877  1.00  0.00    -0.388 OA
ATOM     46  H10 UNL     1      19.770   0.592  13.016  1.00  0.00     0.210 HD
ENDBRANCH  36  45
ENDBRANCH  13  32
BRANCH   1  47
HETATM   47  N1  UNL     1      20.547  -3.440  11.675  1.00  0.00    -0.234 N 
ATOM     48  H12 UNL     1      20.814  -4.204  11.053  1.00  0.00     0.174 HD
ATOM     49  H11 UNL     1      19.733  -3.461  12.289  1.00  0.00     0.174 HD
ENDBRANCH   1  47
TORSDOF 13
ENDMDL
MODEL 4
REMARK VINA RESULT: -5.245100757      4.291      7.990
REMARK  13 active torsions:
REMARK  status: ('A' for Active; 'I' for Inactive)
REMARK    1  A    between atoms: N1_1  and  C1_4 
REMARK    2  A    between atoms: C4_12  and  N4_13 
REMARK    3  A    between atoms: C7_19  and  C8_20 
REMARK       I    between atoms: C8_20  and  N6_22 
REMARK       I    between atoms: N6_22  and  C9_24 
REMARK    4  A    between atoms: C9_24  and  C10_26 
REMARK    5  A    between atoms: C10_26  and  O4_27 
REMARK    6  A    between atoms: C10_26  and  O5_29 
REMARK    7  A    between atoms: N8_34  and  C12_35 
REMARK    8  A    between atoms: C13_37  and  C14_38 
REMARK    9  A    between atoms: C14_38  and  O7_39 
REMARK   10  A    between atoms: C14_38  and  C15_41 
REMARK   11  A    between atoms: C15_41  and  O8_42 
REMARK   12  A    between atoms: C16_44  and  O9_45 
REMARK   13  A    between atoms: C17_47  and  O10_48 
ROOT
HETATM    1  C1  UNL     1      18.072  -2.736  15.362  1.00  0.00     0.684 A 
HETATM    2  N2  UNL     1      18.013  -3.238  14.128  1.00  0.00    -0.154 N 
ATOM      3  H2  UNL     1      17.521  -4.116  13.965  1.00  0.00     0.187 HD
HETATM    4  C2  UNL     1      18.588  -2.609  13.110  1.00  0.00     0.290 A 
HETATM    5  O1  UNL     1      18.551  -3.047  11.951  1.00  0.00    -0.265 OA
HETATM    6  C3  UNL     1      19.245  -1.429  13.371  1.00  0.00     0.163 A 
HETATM    7  N3  UNL     1      19.948  -0.611  12.591  1.00  0.00    -0.182 N 
ATOM      8  H3  UNL     1      20.088  -0.731  11.588  1.00  0.00     0.184 HD
HETATM    9  C4  UNL     1      20.466   0.439  13.357  1.00  0.00     0.684 A 
HETATM   10  N7  UNL     1      20.045   0.223  14.607  1.00  0.00    -0.173 N 
ATOM     11  H7  UNL     1      20.255   0.823  15.404  1.00  0.00     0.186 HD
HETATM   12  C11 UNL     1      19.296  -0.912  14.665  1.00  0.00     0.174 A 
HETATM   13  N8  UNL     1      18.711  -1.553  15.686  1.00  0.00    -0.136 N 
ENDROOT
BRANCH   9  14
HETATM   14  N4  UNL     1      21.350   1.364  12.871  1.00  0.00    -0.177 N 
HETATM   15  C5  UNL     1      20.907   2.740  12.489  1.00  0.00     0.171 C 
HETATM   16  C6  UNL     1      21.703   3.412  13.646  1.00  0.00     0.255 C 
HETATM   17  N5  UNL     1      22.880   2.593  13.787  1.00  0.00    -0.043 N 
HETATM   18  C7  UNL     1      22.779   1.511  12.747  1.00  0.00     0.393 C 
ATOM     19  H52 UNL     1      23.750   3.123  13.734  1.00  0.00     0.280 HD
ATOM     20  H51 UNL     1      23.009   2.232  14.733  1.00  0.00     0.280 HD
BRANCH  18  21
HETATM   21  C8  UNL     1      23.485   0.324  13.209  1.00  0.00     0.275 C 
HETATM   22  O2  UNL     1      23.890   0.313  14.426  1.00  0.00    -0.269 OA
HETATM   23  N6  UNL     1      23.781  -0.823  12.436  1.00  0.00    -0.290 N 
HETATM   24  C9  UNL     1      23.641  -0.929  11.026  1.00  0.00     0.279 C 
ATOM     25  H6  UNL     1      24.123  -1.645  12.934  1.00  0.00     0.172 HD
HETATM   26  O3  UNL     1      23.049  -0.131  10.294  1.00  0.00    -0.268 OA
BRANCH  24  27
HETATM   27  C10 UNL     1      24.271  -2.114  10.355  1.00  0.00     0.349 C 
BRANCH  27  28
HETATM   28  O4  UNL     1      23.834  -2.195   9.041  1.00  0.00    -0.363 OA
ATOM     29  H4  UNL     1      24.476  -2.661   8.517  1.00  0.00     0.213 HD
ENDBRANCH  27  28
BRANCH  27  30
HETATM   30  O5  UNL     1      23.800  -3.292  11.000  1.00  0.00    -0.363 OA
ATOM     31  H5  UNL     1      22.904  -3.139  11.278  1.00  0.00     0.213 HD
ENDBRANCH  27  30
ENDBRANCH  24  27
ENDBRANCH  18  21
ENDBRANCH   9  14
BRANCH  13  32
HETATM   32  C12 UNL     1      18.680  -1.114  17.056  1.00  0.00     0.279 C 
HETATM   33  O6  UNL     1      19.982  -0.603  17.302  1.00  0.00    -0.352 OA
HETATM   34  C13 UNL     1      19.914   0.002  18.531  1.00  0.00     0.186 C 
HETATM   35  C16 UNL     1      18.557   0.628  18.644  1.00  0.00     0.182 C 
HETATM   36  C17 UNL     1      17.797   0.007  17.437  1.00  0.00     0.199 C 
BRANCH  34  37
HETATM   37  C14 UNL     1      21.029   1.019  18.583  1.00  0.00     0.173 C 
BRANCH  37  38
HETATM   38  O7  UNL     1      21.368   1.449  19.837  1.00  0.00    -0.391 OA
ATOM     39  H7  UNL     1      21.093   2.333  20.050  1.00  0.00     0.210 HD
ENDBRANCH  37  38
BRANCH  37  40
HETATM   40  C15 UNL     1      22.185   0.623  17.739  1.00  0.00     0.198 C 
BRANCH  40  41
HETATM   41  O8  UNL     1      22.012   1.293  16.498  1.00  0.00    -0.398 OA
ATOM     42  H8  UNL     1      21.793   2.192  16.714  1.00  0.00     0.209 HD
ENDBRANCH  40  41
ENDBRANCH  37  40
ENDBRANCH  34  37
BRANCH  35  43
HETATM   43  O9  UNL     1      18.551   2.009  18.509  1.00  0.00    -0.390 OA
ATOM     44  H9  UNL     1      18.406   2.317  17.622  1.00  0.00     0.210 HD
ENDBRANCH  35  43
BRANCH  36  45
HETATM   45  O10 UNL     1      17.702   0.992  16.469  1.00  0.00    -0.388 OA
ATOM     46  H10 UNL     1      18.273   0.851  15.724  1.00  0.00     0.210 HD
ENDBRANCH  36  45
ENDBRANCH  13  32
BRANCH   1  47
HETATM   47  N1  UNL     1      17.571  -3.399  16.308  1.00  0.00    -0.234 N 
ATOM     48  H12 UNL     1      16.923  -4.148  16.061  1.00  0.00     0.174 HD
ATOM     49  H11 UNL     1      17.795  -3.130  17.266  1.00  0.00     0.174 HD
ENDBRANCH   1  47
TORSDOF 13
ENDMDL
MODEL 5
REMARK VINA RESULT: -5.244260734      2.871      6.235
REMARK  13 active torsions:
REMARK  status: ('A' for Active; 'I' for Inactive)
REMARK    1  A    between atoms: N1_1  and  C1_4 
REMARK    2  A    between atoms: C4_12  and  N4_13 
REMARK    3  A    between atoms: C7_19  and  C8_20 
REMARK       I    between atoms: C8_20  and  N6_22 
REMARK       I    between atoms: N6_22  and  C9_24 
REMARK    4  A    between atoms: C9_24  and  C10_26 
REMARK    5  A    between atoms: C10_26  and  O4_27 
REMARK    6  A    between atoms: C10_26  and  O5_29 
REMARK    7  A    between atoms: N8_34  and  C12_35 
REMARK    8  A    between atoms: C13_37  and  C14_38 
REMARK    9  A    between atoms: C14_38  and  O7_39 
REMARK   10  A    between atoms: C14_38  and  C15_41 
REMARK   11  A    between atoms: C15_41  and  O8_42 
REMARK   12  A    between atoms: C16_44  and  O9_45 
REMARK   13  A    between atoms: C17_47  and  O10_48 
ROOT
HETATM    1  C1  UNL     1      12.995  -7.410  17.330  1.00  0.00     0.684 A 
HETATM    2  N2  UNL     1      12.678  -7.255  16.044  1.00  0.00    -0.154 N 
ATOM      3  H2  UNL     1      12.027  -7.905  15.604  1.00  0.00     0.187 HD
HETATM    4  C2  UNL     1      13.199  -6.264  15.331  1.00  0.00     0.290 A 
HETATM    5  O1  UNL     1      12.924  -6.090  14.135  1.00  0.00    -0.265 OA
HETATM    6  C3  UNL     1      14.074  -5.410  15.960  1.00  0.00     0.163 A 
HETATM    7  N3  UNL     1      14.787  -4.378  15.513  1.00  0.00    -0.182 N 
ATOM      8  H3  UNL     1      14.760  -4.015  14.560  1.00  0.00     0.184 HD
HETATM    9  C4  UNL     1      15.577  -3.868  16.549  1.00  0.00     0.684 A 
HETATM   10  N7  UNL     1      15.307  -4.621  17.620  1.00  0.00    -0.173 N 
ATOM     11  H7  UNL     1      15.726  -4.495  18.541  1.00  0.00     0.186 HD
HETATM   12  C11 UNL     1      14.395  -5.581  17.306  1.00  0.00     0.174 A 
HETATM   13  N8  UNL     1      13.862  -6.583  18.019  1.00  0.00    -0.136 N 
ENDROOT
BRANCH   9  14
HETATM   14  N4  UNL     1      16.525  -2.898  16.368  1.00  0.00    -0.177 N 
HETATM   15  C5  UNL     1      16.327  -1.509  16.884  1.00  0.00     0.171 C 
HETATM   16  C6  UNL     1      17.469  -1.642  17.934  1.00  0.00     0.255 C 
HETATM   17  N5  UNL     1      18.441  -2.492  17.292  1.00  0.00    -0.043 N 
HETATM   18  C7  UNL     1      17.896  -2.815  15.928  1.00  0.00     0.393 C 
ATOM     19  H52 UNL     1      19.377  -2.086  17.266  1.00  0.00     0.280 HD
ATOM     20  H51 UNL     1      18.676  -3.320  17.840  1.00  0.00     0.280 HD
BRANCH  18  21
HETATM   21  C8  UNL     1      18.402  -4.111  15.496  1.00  0.00     0.275 C 
HETATM   22  O2  UNL     1      18.660  -4.977  16.406  1.00  0.00    -0.269 OA
HETATM   23  N6  UNL     1      18.651  -4.505  14.162  1.00  0.00    -0.290 N 
HETATM   24  C9  UNL     1      18.664  -3.642  13.033  1.00  0.00     0.279 C 
ATOM     25  H6  UNL     1      18.836  -5.494  13.995  1.00  0.00     0.172 HD
HETATM   26  O3  UNL     1      18.256  -2.477  13.006  1.00  0.00    -0.268 OA
BRANCH  24  27
HETATM   27  C10 UNL     1      19.226  -4.185  11.752  1.00  0.00     0.349 C 
BRANCH  27  28
HETATM   28  O4  UNL     1      20.070  -3.247  11.176  1.00  0.00    -0.363 OA
ATOM     29  H4  UNL     1      19.984  -3.277  10.230  1.00  0.00     0.213 HD
ENDBRANCH  27  28
BRANCH  27  30
HETATM   30  O5  UNL     1      18.152  -4.365  10.836  1.00  0.00    -0.363 OA
ATOM     31  H5  UNL     1      17.999  -5.298  10.738  1.00  0.00     0.213 HD
ENDBRANCH  27  30
ENDBRANCH  24  27
ENDBRANCH  18  21
ENDBRANCH   9  14
BRANCH  13  32
HETATM   32  C12 UNL     1      14.100  -6.852  19.413  1.00  0.00     0.279 C 
HETATM   33  O6  UNL     1      15.487  -6.610  19.596  1.00  0.00    -0.352 OA
HETATM   34  C13 UNL     1      15.695  -6.664  20.950  1.00  0.00     0.186 C 
HETATM   35  C16 UNL     1      14.483  -6.077  21.609  1.00  0.00     0.182 C 
HETATM   36  C17 UNL     1      13.467  -5.993  20.434  1.00  0.00     0.199 C 
BRANCH  34  37
HETATM   37  C14 UNL     1      16.949  -5.873  21.236  1.00  0.00     0.173 C 
BRANCH  37  38
HETATM   38  O7  UNL     1      17.465  -6.031  22.493  1.00  0.00    -0.391 OA
ATOM     39  H7  UNL     1      17.873  -6.873  22.660  1.00  0.00     0.210 HD
ENDBRANCH  37  38
BRANCH  37  40
HETATM   40  C15 UNL     1      17.948  -6.001  20.145  1.00  0.00     0.198 C 
BRANCH  40  41
HETATM   41  O8  UNL     1      17.734  -4.890  19.285  1.00  0.00    -0.398 OA
ATOM     42  H8  UNL     1      18.184  -5.095  18.474  1.00  0.00     0.209 HD
ENDBRANCH  40  41
ENDBRANCH  37  40
ENDBRANCH  34  37
BRANCH  35  43
HETATM   43  O9  UNL     1      14.671  -4.804  22.126  1.00  0.00    -0.390 OA
ATOM     44  H9  UNL     1      14.120  -4.596  22.871  1.00  0.00     0.210 HD
ENDBRANCH  35  43
BRANCH  36  45
HETATM   45  O10 UNL     1      13.386  -4.661  20.066  1.00  0.00    -0.388 OA
ATOM     46  H10 UNL     1      12.913  -4.122  20.689  1.00  0.00     0.210 HD
ENDBRANCH  36  45
ENDBRANCH  13  32
BRANCH   1  47
HETATM   47  N1  UNL     1      12.529  -8.402  17.951  1.00  0.00    -0.234 N 
ATOM     48  H12 UNL     1      12.874  -8.567  18.896  1.00  0.00     0.174 HD
ATOM     49  H11 UNL     1      11.872  -9.016  17.468  1.00  0.00     0.174 HD
ENDBRANCH   1  47
TORSDOF 13
ENDMDL
