MODEL 1
REMARK VINA RESULT: -5.525338116      0.000      0.000
REMARK  15 active torsions:
REMARK  status: ('A' for Active; 'I' for Inactive)
REMARK    1  A    between atoms: C1_2  and  C2_4 
REMARK    2  A    between atoms: C2_4  and  O2_5 
REMARK    3  A    between atoms: C2_4  and  C3_7 
REMARK    4  A    between atoms: C3_7  and  O3_8 
REMARK    5  A    between atoms: C4_10  and  O4_11 
REMARK    6  A    between atoms: C7_15  and  O5_16 
REMARK    7  A    between atoms: C12_25  and  C13_26 
REMARK    8  A    between atoms: C13_26  and  O6_27 
REMARK    9  A    between atoms: C13_26  and  C14_29 
REMARK   10  A    between atoms: C14_29  and  O7_30 
REMARK   11  A    between atoms: C14_29  and  C15_32 
REMARK   12  A    between atoms: C15_32  and  O8_33 
REMARK   13  A    between atoms: C18_42  and  N4_43 
REMARK   14  A    between atoms: N4_43  and  C19_46 
REMARK   15  A    between atoms: C19_46  and  C20_47 
ROOT
HETATM    1  C3  UNL     1      20.764  -1.910  12.559  1.00  0.00     0.152 C 
HETATM    2  C4  UNL     1      19.622  -2.880  12.439  1.00  0.00     0.159 C 
HETATM    3  C5  UNL     1      18.449  -1.930  12.590  1.00  0.00     0.049 C 
HETATM    4  C6  UNL     1      18.822  -1.256  13.921  1.00  0.00     0.086 C 
HETATM    5  C7  UNL     1      18.316  -2.096  14.979  1.00  0.00     0.063 C 
HETATM    6  C8  UNL     1      17.736  -1.540  16.222  1.00  0.00     0.054 C 
HETATM    7  C9  UNL     1      17.747  -0.375  16.752  1.00  0.00     0.048 C 
HETATM    8  C10 UNL     1      18.357   0.891  16.310  1.00  0.00     0.103 C 
HETATM    9  C11 UNL     1      19.743   0.703  15.799  1.00  0.00     0.291 C 
HETATM   10  N2  UNL     1      19.702   1.106  14.405  1.00  0.00    -0.052 N 
ATOM     11  H21 UNL     1      19.787   2.118  14.302  1.00  0.00     0.278 HD
ATOM     12  H22 UNL     1      18.771   0.987  14.006  1.00  0.00     0.278 HD
HETATM   13  C12 UNL     1      20.711   0.402  13.636  1.00  0.00     0.257 C 
HETATM   14  C16 UNL     1      20.309  -1.032  13.699  1.00  0.00     0.147 C 
HETATM   15  O9  UNL     1      20.829  -1.448  14.982  1.00  0.00    -0.302 OA
HETATM   16  C17 UNL     1      20.385  -0.594  16.040  1.00  0.00     0.291 C 
HETATM   17  O10 UNL     1      20.561  -0.973  17.210  1.00  0.00    -0.263 OA
HETATM   18  N3  UNL     1      17.008  -0.492  18.013  1.00  0.00    -0.268 N 
ATOM     19  H3  UNL     1      16.481   0.238  18.492  1.00  0.00     0.194 HD
HETATM   20  O11 UNL     1      17.180  -1.805  18.416  1.00  0.00    -0.241 OA
HETATM   21  C18 UNL     1      16.858  -2.374  17.179  1.00  0.00     0.388 C 
ENDROOT
BRANCH  13  22
HETATM   22  C13 UNL     1      22.023   0.830  14.164  1.00  0.00     0.182 C 
BRANCH  22  23
HETATM   23  O6  UNL     1      23.101  -0.023  13.884  1.00  0.00    -0.391 OA
ATOM     24  H6  UNL     1      23.664  -0.233  14.621  1.00  0.00     0.210 HD
ENDBRANCH  22  23
BRANCH  22  25
HETATM   25  C14 UNL     1      22.395   2.240  13.613  1.00  0.00     0.172 C 
BRANCH  25  26
HETATM   26  O7  UNL     1      21.723   2.495  12.425  1.00  0.00    -0.391 OA
ATOM     27  H7  UNL     1      22.336   2.708  11.732  1.00  0.00     0.210 HD
ENDBRANCH  25  26
BRANCH  25  28
HETATM   28  C15 UNL     1      23.905   2.212  13.381  1.00  0.00     0.198 C 
BRANCH  28  29
HETATM   29  O8  UNL     1      24.132   2.028  12.010  1.00  0.00    -0.398 OA
ATOM     30  H8  UNL     1      24.309   2.878  11.624  1.00  0.00     0.209 HD
ENDBRANCH  28  29
ENDBRANCH  25  28
ENDBRANCH  22  25
ENDBRANCH  13  22
BRANCH   1  31
HETATM   31  C2  UNL     1      20.924  -1.396  11.231  1.00  0.00     0.247 C 
BRANCH  31  32
HETATM   32  C1  UNL     1      22.395  -1.591  10.827  1.00  0.00     0.263 C 
HETATM   33  N1  UNL     1      23.335  -0.538  10.961  1.00  0.00    -0.060 NA
HETATM   34  O1  UNL     1      22.749  -2.674  10.378  1.00  0.00    -0.274 OA
ENDBRANCH  31  32
BRANCH  31  35
HETATM   35  O2  UNL     1      20.781  -0.121  10.804  1.00  0.00    -0.383 OA
ATOM     36  H2  UNL     1      19.946   0.062  11.219  1.00  0.00     0.210 HD
ENDBRANCH  31  35
ENDBRANCH   1  31
BRANCH   1  37
HETATM   37  O3  UNL     1      21.927  -2.497  13.016  1.00  0.00    -0.381 OA
ATOM     38  H3  UNL     1      22.388  -1.929  13.621  1.00  0.00     0.211 HD
ENDBRANCH   1  37
BRANCH   2  39
HETATM   39  O4  UNL     1      19.408  -3.420  11.158  1.00  0.00    -0.392 OA
ATOM     40  H4  UNL     1      20.048  -4.057  10.864  1.00  0.00     0.210 HD
ENDBRANCH   2  39
BRANCH   5  41
HETATM   41  O5  UNL     1      19.055  -3.257  15.307  1.00  0.00    -0.364 OA
ATOM     42  H5  UNL     1      18.614  -3.935  15.805  1.00  0.00     0.217 HD
ENDBRANCH   5  41
BRANCH  21  43
HETATM   43  N4  UNL     1      15.464  -2.041  16.899  1.00  0.00    -0.036 N 
ATOM     44  H42 UNL     1      15.170  -1.174  17.347  1.00  0.00     0.281 HD
ATOM     45  H41 UNL     1      15.317  -1.754  15.931  1.00  0.00     0.281 HD
BRANCH  43  46
HETATM   46  C19 UNL     1      14.646  -3.162  17.274  1.00  0.00     0.304 C 
BRANCH  46  47
HETATM   47  C20 UNL     1      15.048  -4.397  16.518  1.00  0.00     0.258 C 
HETATM   48  O12 UNL     1      14.254  -5.037  15.825  1.00  0.00    -0.305 OA
ENDBRANCH  46  47
ENDBRANCH  43  46
ENDBRANCH  21  43
TORSDOF 15
ENDMDL
MODEL 2
REMARK VINA RESULT: -5.380745504      1.181      1.419
REMARK  15 active torsions:
REMARK  status: ('A' for Active; 'I' for Inactive)
REMARK    1  A    between atoms: C1_2  and  C2_4 
REMARK    2  A    between atoms: C2_4  and  O2_5 
REMARK    3  A    between atoms: C2_4  and  C3_7 
REMARK    4  A    between atoms: C3_7  and  O3_8 
REMARK    5  A    between atoms: C4_10  and  O4_11 
REMARK    6  A    between atoms: C7_15  and  O5_16 
REMARK    7  A    between atoms: C12_25  and  C13_26 
REMARK    8  A    between atoms: C13_26  and  O6_27 
REMARK    9  A    between atoms: C13_26  and  C14_29 
REMARK   10  A    between atoms: C14_29  and  O7_30 
REMARK   11  A    between atoms: C14_29  and  C15_32 
REMARK   12  A    between atoms: C15_32  and  O8_33 
REMARK   13  A    between atoms: C18_42  and  N4_43 
REMARK   14  A    between atoms: N4_43  and  C19_46 
REMARK   15  A    between atoms: C19_46  and  C20_47 
ROOT
HETATM    1  C3  UNL     1      20.478  -2.137  12.773  1.00  0.00     0.152 C 
HETATM    2  C4  UNL     1      19.567  -3.262  12.366  1.00  0.00     0.159 C 
HETATM    3  C5  UNL     1      18.220  -2.581  12.512  1.00  0.00     0.049 C 
HETATM    4  C6  UNL     1      18.326  -2.090  13.965  1.00  0.00     0.086 C 
HETATM    5  C7  UNL     1      17.901  -3.178  14.813  1.00  0.00     0.063 C 
HETATM    6  C8  UNL     1      17.109  -2.959  16.044  1.00  0.00     0.054 C 
HETATM    7  C9  UNL     1      16.839  -1.920  16.742  1.00  0.00     0.048 C 
HETATM    8  C10 UNL     1      17.224  -0.508  16.576  1.00  0.00     0.103 C 
HETATM    9  C11 UNL     1      18.661  -0.351  16.219  1.00  0.00     0.291 C 
HETATM   10  N2  UNL     1      18.671   0.272  14.908  1.00  0.00    -0.052 N 
ATOM     11  H21 UNL     1      18.561   1.285  14.971  1.00  0.00     0.278 HD
ATOM     12  H22 UNL     1      17.823   0.058  14.382  1.00  0.00     0.278 HD
HETATM   13  C12 UNL     1      19.866  -0.095  14.172  1.00  0.00     0.257 C 
HETATM   14  C16 UNL     1      19.753  -1.567  13.967  1.00  0.00     0.147 C 
HETATM   15  O9  UNL     1      20.224  -2.097  15.227  1.00  0.00    -0.302 OA
HETATM   16  C17 UNL     1      19.522  -1.532  16.339  1.00  0.00     0.291 C 
HETATM   17  O10 UNL     1      19.660  -2.070  17.451  1.00  0.00    -0.263 OA
HETATM   18  N3  UNL     1      16.024  -2.385  17.869  1.00  0.00    -0.268 N 
ATOM     19  H3  UNL     1      15.319  -1.856  18.383  1.00  0.00     0.194 HD
HETATM   20  O11 UNL     1      16.415  -3.695  18.086  1.00  0.00    -0.241 OA
HETATM   21  C18 UNL     1      16.329  -4.090  16.747  1.00  0.00     0.388 C 
ENDROOT
BRANCH  13  22
HETATM   22  C13 UNL     1      21.012   0.466  14.919  1.00  0.00     0.182 C 
BRANCH  22  23
HETATM   23  O6  UNL     1      22.262  -0.105  14.636  1.00  0.00    -0.391 OA
ATOM     24  H6  UNL     1      22.345  -1.032  14.826  1.00  0.00     0.210 HD
ENDBRANCH  22  23
BRANCH  22  25
HETATM   25  C14 UNL     1      21.133   1.997  14.655  1.00  0.00     0.172 C 
BRANCH  25  26
HETATM   26  O7  UNL     1      20.096   2.439  13.845  1.00  0.00    -0.391 OA
ATOM     27  H7  UNL     1      20.432   2.771  13.020  1.00  0.00     0.210 HD
ENDBRANCH  25  26
BRANCH  25  28
HETATM   28  C15 UNL     1      22.480   2.196  13.960  1.00  0.00     0.198 C 
BRANCH  28  29
HETATM   29  O8  UNL     1      22.282   2.061  12.579  1.00  0.00    -0.398 OA
ATOM     30  H8  UNL     1      21.766   2.801  12.281  1.00  0.00     0.209 HD
ENDBRANCH  28  29
ENDBRANCH  25  28
ENDBRANCH  22  25
ENDBRANCH  13  22
BRANCH   1  31
HETATM   31  C2  UNL     1      20.655  -1.382  11.569  1.00  0.00     0.247 C 
BRANCH  31  32
HETATM   32  C1  UNL     1      22.130  -1.503  11.152  1.00  0.00     0.263 C 
HETATM   33  N1  UNL     1      23.089  -0.545  11.569  1.00  0.00    -0.060 NA
HETATM   34  O1  UNL     1      22.472  -2.443  10.444  1.00  0.00    -0.274 OA
ENDBRANCH  31  32
BRANCH  31  35
HETATM   35  O2  UNL     1      20.521  -0.048  11.390  1.00  0.00    -0.383 OA
ATOM     36  H2  UNL     1      19.681  -0.060  10.948  1.00  0.00     0.210 HD
ENDBRANCH  31  35
ENDBRANCH   1  31
BRANCH   1  37
HETATM   37  O3  UNL     1      21.687  -2.574  13.276  1.00  0.00    -0.381 OA
ATOM     38  H3  UNL     1      21.563  -3.214  13.967  1.00  0.00     0.211 HD
ENDBRANCH   1  37
BRANCH   2  39
HETATM   39  O4  UNL     1      19.585  -3.602  11.001  1.00  0.00    -0.392 OA
ATOM     40  H4  UNL     1      20.072  -4.386  10.776  1.00  0.00     0.210 HD
ENDBRANCH   2  39
BRANCH   5  41
HETATM   41  O5  UNL     1      18.822  -4.225  15.051  1.00  0.00    -0.364 OA
ATOM     42  H5  UNL     1      19.449  -4.425  14.365  1.00  0.00     0.217 HD
ENDBRANCH   5  41
BRANCH  21  43
HETATM   43  N4  UNL     1      14.929  -3.971  16.348  1.00  0.00    -0.036 N 
ATOM     44  H42 UNL     1      14.445  -3.217  16.834  1.00  0.00     0.281 HD
ATOM     45  H41 UNL     1      14.820  -3.617  15.398  1.00  0.00     0.281 HD
BRANCH  43  46
HETATM   46  C19 UNL     1      14.293  -5.247  16.539  1.00  0.00     0.304 C 
BRANCH  46  47
HETATM   47  C20 UNL     1      14.032  -5.919  15.220  1.00  0.00     0.258 C 
HETATM   48  O12 UNL     1      13.001  -5.728  14.572  1.00  0.00    -0.305 OA
ENDBRANCH  46  47
ENDBRANCH  43  46
ENDBRANCH  21  43
TORSDOF 15
ENDMDL
MODEL 3
REMARK VINA RESULT: -5.370775570      3.023      8.382
REMARK  15 active torsions:
REMARK  status: ('A' for Active; 'I' for Inactive)
REMARK    1  A    between atoms: C1_2  and  C2_4 
REMARK    2  A    between atoms: C2_4  and  O2_5 
REMARK    3  A    between atoms: C2_4  and  C3_7 
REMARK    4  A    between atoms: C3_7  and  O3_8 
REMARK    5  A    between atoms: C4_10  and  O4_11 
REMARK    6  A    between atoms: C7_15  and  O5_16 
REMARK    7  A    between atoms: C12_25  and  C13_26 
REMARK    8  A    between atoms: C13_26  and  O6_27 
REMARK    9  A    between atoms: C13_26  and  C14_29 
REMARK   10  A    between atoms: C14_29  and  O7_30 
REMARK   11  A    between atoms: C14_29  and  C15_32 
REMARK   12  A    between atoms: C15_32  and  O8_33 
REMARK   13  A    between atoms: C18_42  and  N4_43 
REMARK   14  A    between atoms: N4_43  and  C19_46 
REMARK   15  A    between atoms: C19_46  and  C20_47 
ROOT
HETATM    1  C3  UNL     1      14.737  -4.370  17.905  1.00  0.00     0.152 C 
HETATM    2  C4  UNL     1      14.675  -4.504  16.409  1.00  0.00     0.159 C 
HETATM    3  C5  UNL     1      16.111  -4.897  16.117  1.00  0.00     0.049 C 
HETATM    4  C6  UNL     1      16.849  -3.741  16.812  1.00  0.00     0.086 C 
HETATM    5  C7  UNL     1      16.924  -2.655  15.865  1.00  0.00     0.063 C 
HETATM    6  C8  UNL     1      18.113  -1.781  15.755  1.00  0.00     0.054 C 
HETATM    7  C9  UNL     1      19.134  -1.589  16.503  1.00  0.00     0.048 C 
HETATM    8  C10 UNL     1      19.525  -2.186  17.791  1.00  0.00     0.103 C 
HETATM    9  C11 UNL     1      18.382  -2.278  18.742  1.00  0.00     0.291 C 
HETATM   10  N2  UNL     1      18.199  -3.695  18.995  1.00  0.00    -0.052 N 
ATOM     11  H21 UNL     1      18.840  -4.037  19.712  1.00  0.00     0.278 HD
ATOM     12  H22 UNL     1      18.525  -4.263  18.213  1.00  0.00     0.278 HD
HETATM   13  C12 UNL     1      16.816  -3.984  19.329  1.00  0.00     0.257 C 
HETATM   14  C16 UNL     1      16.046  -3.647  18.098  1.00  0.00     0.147 C 
HETATM   15  O9  UNL     1      15.895  -2.212  18.207  1.00  0.00    -0.302 OA
HETATM   16  C17 UNL     1      17.153  -1.556  18.396  1.00  0.00     0.291 C 
HETATM   17  O10 UNL     1      17.193  -0.322  18.266  1.00  0.00    -0.263 OA
HETATM   18  N3  UNL     1      19.940  -0.560  15.839  1.00  0.00    -0.268 N 
ATOM     19  H3  UNL     1      20.951  -0.432  15.895  1.00  0.00     0.194 HD
HETATM   20  O11 UNL     1      19.036   0.203  15.119  1.00  0.00    -0.241 OA
HETATM   21  C18 UNL     1      18.377  -0.881  14.530  1.00  0.00     0.388 C 
ENDROOT
BRANCH  13  22
HETATM   22  C13 UNL     1      16.533  -3.285  20.600  1.00  0.00     0.182 C 
BRANCH  22  23
HETATM   23  O6  UNL     1      15.175  -3.132  20.922  1.00  0.00    -0.391 OA
ATOM     24  H6  UNL     1      14.919  -3.438  21.784  1.00  0.00     0.210 HD
ENDBRANCH  22  23
BRANCH  22  25
HETATM   25  C14 UNL     1      17.209  -4.029  21.791  1.00  0.00     0.172 C 
BRANCH  25  26
HETATM   26  O7  UNL     1      18.581  -3.821  21.784  1.00  0.00    -0.391 OA
ATOM     27  H7  UNL     1      19.047  -4.649  21.770  1.00  0.00     0.210 HD
ENDBRANCH  25  26
BRANCH  25  28
HETATM   28  C15 UNL     1      16.890  -5.511  21.591  1.00  0.00     0.198 C 
BRANCH  28  29
HETATM   29  O8  UNL     1      15.617  -5.758  22.122  1.00  0.00    -0.398 OA
ATOM     30  H8  UNL     1      15.715  -6.339  22.867  1.00  0.00     0.209 HD
ENDBRANCH  28  29
ENDBRANCH  25  28
ENDBRANCH  22  25
ENDBRANCH  13  22
BRANCH   1  31
HETATM   31  C2  UNL     1      14.537  -5.706  18.382  1.00  0.00     0.247 C 
BRANCH  31  32
HETATM   32  C1  UNL     1      13.247  -5.717  19.219  1.00  0.00     0.263 C 
HETATM   33  N1  UNL     1      12.008  -6.102  18.647  1.00  0.00    -0.060 NA
HETATM   34  O1  UNL     1      13.301  -5.382  20.396  1.00  0.00    -0.274 OA
ENDBRANCH  31  32
BRANCH  31  35
HETATM   35  O2  UNL     1      15.315  -6.417  19.229  1.00  0.00    -0.383 OA
ATOM     36  H2  UNL     1      14.953  -7.276  19.048  1.00  0.00     0.210 HD
ENDBRANCH  31  35
ENDBRANCH   1  31
BRANCH   1  37
HETATM   37  O3  UNL     1      13.784  -3.507  18.410  1.00  0.00    -0.381 OA
ATOM     38  H3  UNL     1      14.061  -3.131  19.237  1.00  0.00     0.211 HD
ENDBRANCH   1  37
BRANCH   2  39
HETATM   39  O4  UNL     1      13.957  -5.611  15.921  1.00  0.00    -0.392 OA
ATOM     40  H4  UNL     1      14.431  -6.186  15.332  1.00  0.00     0.210 HD
ENDBRANCH   2  39
BRANCH   5  41
HETATM   41  O5  UNL     1      15.766  -1.864  15.680  1.00  0.00    -0.364 OA
ATOM     42  H5  UNL     1      15.678  -1.395  14.858  1.00  0.00     0.217 HD
ENDBRANCH   5  41
BRANCH  21  43
HETATM   43  N4  UNL     1      19.346  -1.569  13.681  1.00  0.00    -0.036 N 
ATOM     44  H42 UNL     1      20.123  -0.968  13.407  1.00  0.00     0.281 HD
ATOM     45  H41 UNL     1      19.885  -2.270  14.189  1.00  0.00     0.281 HD
BRANCH  43  46
HETATM   46  C19 UNL     1      18.648  -2.119  12.550  1.00  0.00     0.304 C 
BRANCH  46  47
HETATM   47  C20 UNL     1      19.405  -3.279  11.966  1.00  0.00     0.258 C 
HETATM   48  O12 UNL     1      20.425  -3.132  11.290  1.00  0.00    -0.305 OA
ENDBRANCH  46  47
ENDBRANCH  43  46
ENDBRANCH  21  43
TORSDOF 15
ENDMDL
MODEL 4
REMARK VINA RESULT: -5.300389502      2.160      6.810
REMARK  15 active torsions:
REMARK  status: ('A' for Active; 'I' for Inactive)
REMARK    1  A    between atoms: C1_2  and  C2_4 
REMARK    2  A    between atoms: C2_4  and  O2_5 
REMARK    3  A    between atoms: C2_4  and  C3_7 
REMARK    4  A    between atoms: C3_7  and  O3_8 
REMARK    5  A    between atoms: C4_10  and  O4_11 
REMARK    6  A    between atoms: C7_15  and  O5_16 
REMARK    7  A    between atoms: C12_25  and  C13_26 
REMARK    8  A    between atoms: C13_26  and  O6_27 
REMARK    9  A    between atoms: C13_26  and  C14_29 
REMARK   10  A    between atoms: C14_29  and  O7_30 
REMARK   11  A    between atoms: C14_29  and  C15_32 
REMARK   12  A    between atoms: C15_32  and  O8_33 
REMARK   13  A    between atoms: C18_42  and  N4_43 
REMARK   14  A    between atoms: N4_43  and  C19_46 
REMARK   15  A    between atoms: C19_46  and  C20_47 
ROOT
HETATM    1  C3  UNL     1      18.837  -3.205  14.237  1.00  0.00     0.152 C 
HETATM    2  C4  UNL     1      19.465  -4.402  13.578  1.00  0.00     0.159 C 
HETATM    3  C5  UNL     1      20.914  -4.198  13.981  1.00  0.00     0.049 C 
HETATM    4  C6  UNL     1      21.133  -2.765  13.469  1.00  0.00     0.086 C 
HETATM    5  C7  UNL     1      21.503  -2.863  12.078  1.00  0.00     0.063 C 
HETATM    6  C8  UNL     1      22.513  -1.973  11.462  1.00  0.00     0.054 C 
HETATM    7  C9  UNL     1      23.065  -0.880  11.836  1.00  0.00     0.048 C 
HETATM    8  C10 UNL     1      22.901  -0.074  13.058  1.00  0.00     0.103 C 
HETATM    9  C11 UNL     1      21.472   0.081  13.447  1.00  0.00     0.291 C 
HETATM   10  N2  UNL     1      21.351  -0.550  14.748  1.00  0.00    -0.052 N 
ATOM     11  H21 UNL     1      21.638   0.077  15.500  1.00  0.00     0.278 HD
ATOM     12  H22 UNL     1      22.052  -1.280  14.880  1.00  0.00     0.278 HD
HETATM   13  C12 UNL     1      20.006  -1.055  14.953  1.00  0.00     0.257 C 
HETATM   14  C16 UNL     1      19.834  -2.118  13.922  1.00  0.00     0.147 C 
HETATM   15  O9  UNL     1      19.496  -1.357  12.740  1.00  0.00    -0.302 OA
HETATM   16  C17 UNL     1      20.456  -0.331  12.473  1.00  0.00     0.291 C 
HETATM   17  O10 UNL     1      20.415   0.234  11.367  1.00  0.00    -0.263 OA
HETATM   18  N3  UNL     1      23.964  -0.483  10.749  1.00  0.00    -0.268 N 
ATOM     19  H3  UNL     1      24.823   0.063  10.824  1.00  0.00     0.194 HD
HETATM   20  O11 UNL     1      23.400  -1.007   9.599  1.00  0.00    -0.241 OA
HETATM   21  C18 UNL     1      23.196  -2.291  10.116  1.00  0.00     0.388 C 
ENDROOT
BRANCH  13  22
HETATM   22  C13 UNL     1      19.110   0.121  14.965  1.00  0.00     0.182 C 
BRANCH  22  23
HETATM   23  O6  UNL     1      17.779  -0.123  14.592  1.00  0.00    -0.391 OA
ATOM     24  H6  UNL     1      17.276  -0.665  15.188  1.00  0.00     0.210 HD
ENDBRANCH  22  23
BRANCH  22  25
HETATM   25  C14 UNL     1      19.081   0.764  16.385  1.00  0.00     0.172 C 
BRANCH  25  26
HETATM   26  O7  UNL     1      17.801   0.715  16.920  1.00  0.00    -0.391 OA
ATOM     27  H7  UNL     1      17.715  -0.016  17.521  1.00  0.00     0.210 HD
ENDBRANCH  25  26
BRANCH  25  28
HETATM   28  C15 UNL     1      19.528   2.213  16.195  1.00  0.00     0.198 C 
BRANCH  28  29
HETATM   29  O8  UNL     1      18.897   2.719  15.050  1.00  0.00    -0.398 OA
ATOM     30  H8  UNL     1      19.058   3.654  15.013  1.00  0.00     0.209 HD
ENDBRANCH  28  29
ENDBRANCH  25  28
ENDBRANCH  22  25
ENDBRANCH  13  22
BRANCH   1  31
HETATM   31  C2  UNL     1      18.593  -3.637  15.581  1.00  0.00     0.247 C 
BRANCH  31  32
HETATM   32  C1  UNL     1      17.106  -3.397  15.888  1.00  0.00     0.263 C 
HETATM   33  N1  UNL     1      16.653  -2.147  16.381  1.00  0.00    -0.060 NA
HETATM   34  O1  UNL     1      16.307  -4.309  15.706  1.00  0.00    -0.274 OA
ENDBRANCH  31  32
BRANCH  31  35
HETATM   35  O2  UNL     1      19.103  -3.133  16.727  1.00  0.00    -0.383 OA
ATOM     36  H2  UNL     1      18.461  -3.496  17.326  1.00  0.00     0.210 HD
ENDBRANCH  31  35
ENDBRANCH   1  31
BRANCH   1  37
HETATM   37  O3  UNL     1      17.671  -2.798  13.619  1.00  0.00    -0.381 OA
ATOM     38  H3  UNL     1      17.451  -3.363  12.888  1.00  0.00     0.211 HD
ENDBRANCH   1  37
BRANCH   2  39
HETATM   39  O4  UNL     1      19.166  -5.648  14.158  1.00  0.00    -0.392 OA
ATOM     40  H4  UNL     1      19.332  -6.409  13.614  1.00  0.00     0.210 HD
ENDBRANCH   2  39
BRANCH   5  41
HETATM   41  O5  UNL     1      20.471  -3.090  11.137  1.00  0.00    -0.364 OA
ATOM     42  H5  UNL     1      20.551  -2.678  10.285  1.00  0.00     0.217 HD
ENDBRANCH   5  41
BRANCH  21  43
HETATM   43  N4  UNL     1      24.511  -2.853  10.413  1.00  0.00    -0.036 N 
ATOM     44  H42 UNL     1      25.149  -2.167  10.815  1.00  0.00     0.281 HD
ATOM     45  H41 UNL     1      24.491  -3.503  11.198  1.00  0.00     0.281 HD
BRANCH  43  46
HETATM   46  C19 UNL     1      25.030  -3.451   9.212  1.00  0.00     0.304 C 
BRANCH  46  47
HETATM   47  C20 UNL     1      25.321  -4.911   9.423  1.00  0.00     0.258 C 
HETATM   48  O12 UNL     1      24.558  -5.800   9.041  1.00  0.00    -0.305 OA
ENDBRANCH  46  47
ENDBRANCH  43  46
ENDBRANCH  21  43
TORSDOF 15
ENDMDL
MODEL 5
REMARK VINA RESULT: -5.186542529      2.629      3.706
REMARK  15 active torsions:
REMARK  status: ('A' for Active; 'I' for Inactive)
REMARK    1  A    between atoms: C1_2  and  C2_4 
REMARK    2  A    between atoms: C2_4  and  O2_5 
REMARK    3  A    between atoms: C2_4  and  C3_7 
REMARK    4  A    between atoms: C3_7  and  O3_8 
REMARK    5  A    between atoms: C4_10  and  O4_11 
REMARK    6  A    between atoms: C7_15  and  O5_16 
REMARK    7  A    between atoms: C12_25  and  C13_26 
REMARK    8  A    between atoms: C13_26  and  O6_27 
REMARK    9  A    between atoms: C13_26  and  C14_29 
REMARK   10  A    between atoms: C14_29  and  O7_30 
REMARK   11  A    between atoms: C14_29  and  C15_32 
REMARK   12  A    between atoms: C15_32  and  O8_33 
REMARK   13  A    between atoms: C18_42  and  N4_43 
REMARK   14  A    between atoms: N4_43  and  C19_46 
REMARK   15  A    between atoms: C19_46  and  C20_47 
ROOT
HETATM    1  C3  UNL     1      20.705  -1.893  13.212  1.00  0.00     0.152 C 
HETATM    2  C4  UNL     1      20.523  -3.027  12.243  1.00  0.00     0.159 C 
HETATM    3  C5  UNL     1      19.019  -2.977  12.054  1.00  0.00     0.049 C 
HETATM    4  C6  UNL     1      18.564  -3.064  13.520  1.00  0.00     0.086 C 
HETATM    5  C7  UNL     1      18.504  -4.465  13.863  1.00  0.00     0.063 C 
HETATM    6  C8  UNL     1      17.447  -5.020  14.739  1.00  0.00     0.054 C 
HETATM    7  C9  UNL     1      16.587  -4.489  15.523  1.00  0.00     0.048 C 
HETATM    8  C10 UNL     1      16.313  -3.081  15.858  1.00  0.00     0.103 C 
HETATM    9  C11 UNL     1      17.560  -2.302  16.094  1.00  0.00     0.291 C 
HETATM   10  N2  UNL     1      17.576  -1.273  15.071  1.00  0.00    -0.052 N 
ATOM     11  H21 UNL     1      17.007  -0.468  15.335  1.00  0.00     0.278 HD
ATOM     12  H22 UNL     1      17.059  -1.560  14.239  1.00  0.00     0.278 HD
HETATM   13  C12 UNL     1      18.937  -0.886  14.750  1.00  0.00     0.257 C 
HETATM   14  C16 UNL     1      19.555  -2.110  14.164  1.00  0.00     0.147 C 
HETATM   15  O9  UNL     1      19.922  -2.869  15.339  1.00  0.00    -0.302 OA
HETATM   16  C17 UNL     1      18.813  -3.052  16.224  1.00  0.00     0.291 C 
HETATM   17  O10 UNL     1      18.930  -3.880  17.143  1.00  0.00    -0.263 OA
HETATM   18  N3  UNL     1      15.845  -5.599  16.130  1.00  0.00    -0.268 N 
ATOM     19  H3  UNL     1      14.883  -5.589  16.467  1.00  0.00     0.194 HD
HETATM   20  O11 UNL     1      16.730  -6.663  16.146  1.00  0.00    -0.241 OA
HETATM   21  C18 UNL     1      17.134  -6.530  14.813  1.00  0.00     0.388 C 
ENDROOT
BRANCH  13  22
HETATM   22  C13 UNL     1      19.504  -0.279  15.973  1.00  0.00     0.182 C 
BRANCH  22  23
HETATM   23  O6  UNL     1      20.905  -0.206  16.025  1.00  0.00    -0.391 OA
ATOM     24  H6  UNL     1      21.277  -0.033  16.882  1.00  0.00     0.210 HD
ENDBRANCH  22  23
BRANCH  22  25
HETATM   25  C14 UNL     1      18.959   1.169  16.161  1.00  0.00     0.172 C 
BRANCH  25  26
HETATM   26  O7  UNL     1      17.884   1.402  15.314  1.00  0.00    -0.391 OA
ATOM     27  H7  UNL     1      17.837   0.735  14.640  1.00  0.00     0.210 HD
ENDBRANCH  25  26
BRANCH  25  28
HETATM   28  C15 UNL     1      20.122   2.100  15.821  1.00  0.00     0.198 C 
BRANCH  28  29
HETATM   29  O8  UNL     1      20.092   2.350  14.443  1.00  0.00    -0.398 OA
ATOM     30  H8  UNL     1      20.555   3.164  14.280  1.00  0.00     0.209 HD
ENDBRANCH  28  29
ENDBRANCH  25  28
ENDBRANCH  22  25
ENDBRANCH  13  22
BRANCH   1  31
HETATM   31  C2  UNL     1      20.782  -0.731  12.377  1.00  0.00     0.247 C 
BRANCH  31  32
HETATM   32  C1  UNL     1      22.176  -0.110  12.565  1.00  0.00     0.263 C 
HETATM   33  N1  UNL     1      23.259  -0.476  11.724  1.00  0.00    -0.060 NA
HETATM   34  O1  UNL     1      22.347   0.708  13.461  1.00  0.00    -0.274 OA
ENDBRANCH  31  32
BRANCH  31  35
HETATM   35  O2  UNL     1      20.059   0.408  12.460  1.00  0.00    -0.383 OA
ATOM     36  H2  UNL     1      19.541   0.291  11.673  1.00  0.00     0.210 HD
ENDBRANCH  31  35
ENDBRANCH   1  31
BRANCH   1  37
HETATM   37  O3  UNL     1      21.835  -2.027  13.995  1.00  0.00    -0.381 OA
ATOM     38  H3  UNL     1      21.884  -1.343  14.653  1.00  0.00     0.211 HD
ENDBRANCH   1  37
BRANCH   2  39
HETATM   39  O4  UNL     1      20.996  -2.800  10.937  1.00  0.00    -0.392 OA
ATOM     40  H4  UNL     1      21.471  -3.519  10.538  1.00  0.00     0.210 HD
ENDBRANCH   2  39
BRANCH   5  41
HETATM   41  O5  UNL     1      19.721  -5.123  14.154  1.00  0.00    -0.364 OA
ATOM     42  H5  UNL     1      20.471  -4.928  13.604  1.00  0.00     0.217 HD
ENDBRANCH   5  41
BRANCH  21  43
HETATM   43  N4  UNL     1      15.961  -6.776  13.978  1.00  0.00    -0.036 N 
ATOM     44  H42 UNL     1      15.272  -7.373  14.436  1.00  0.00     0.281 HD
ATOM     45  H41 UNL     1      15.376  -5.947  13.869  1.00  0.00     0.281 HD
BRANCH  43  46
HETATM   46  C19 UNL     1      16.405  -7.310  12.719  1.00  0.00     0.304 C 
BRANCH  46  47
HETATM   47  C20 UNL     1      15.284  -7.328  11.718  1.00  0.00     0.258 C 
HETATM   48  O12 UNL     1      15.422  -7.768  10.575  1.00  0.00    -0.305 OA
ENDBRANCH  46  47
ENDBRANCH  43  46
ENDBRANCH  21  43
TORSDOF 15
ENDMDL
