MODEL 1
REMARK VINA RESULT: -7.710735385      0.000      0.000
REMARK  12 active torsions:
REMARK  status: ('A' for Active; 'I' for Inactive)
REMARK    1  A    between atoms: C2_2  and  C3_3 
REMARK    2  A    between atoms: C3_3  and  C4_4 
REMARK    3  A    between atoms: C14_15  and  C15_16 
REMARK    4  A    between atoms: C15_16  and  O3_18 
REMARK    5  A    between atoms: C18_21  and  C20_23 
REMARK    6  A    between atoms: C23_26  and  C24_27 
REMARK    7  A    between atoms: C24_27  and  C25_28 
REMARK    8  A    between atoms: C25_28  and  N1_29 
REMARK    9  A    between atoms: N1_29  and  C26_30 
REMARK       I    between atoms: N1_29  and  C31_35 
REMARK   10  A    between atoms: C26_30  and  C27_31 
REMARK   11  A    between atoms: C27_31  and  C28_32 
REMARK   12  A    between atoms: C28_32  and  C29_33 
ROOT
HETATM    1  C4  UNL     1      11.049 -22.159   3.633  1.00  0.00    -0.012 C 
HETATM    2  C5  UNL     1      12.097 -21.781   2.641  1.00  0.00     0.026 C 
HETATM    3  C6  UNL     1      11.925 -20.537   1.885  1.00  0.00     0.012 C 
HETATM    4  C7  UNL     1      10.605 -20.649   1.132  1.00  0.00     0.033 C 
HETATM    5  C8  UNL     1       9.516 -20.782   2.122  1.00  0.00     0.126 C 
HETATM    6  O1  UNL     1       8.365 -21.389   1.602  1.00  0.00    -0.385 OA
HETATM    7  C9  UNL     1       7.216 -20.851   2.176  1.00  0.00     0.168 C 
HETATM    8  C10 UNL     1       7.456 -20.735   3.658  1.00  0.00     0.027 C 
HETATM    9  C11 UNL     1       8.570 -21.701   4.113  1.00  0.00     0.010 C 
HETATM   10  C12 UNL     1       9.889 -21.285   3.492  1.00  0.00     0.025 C 
HETATM   11  C13 UNL     1      13.163 -21.744   3.633  1.00  0.00    -0.053 C 
HETATM   12  C14 UNL     1      14.404 -21.665   4.079  1.00  0.00     0.022 C 
HETATM   13  C17 UNL     1      14.782 -21.800   5.539  1.00  0.00     0.058 C 
HETATM   14  C18 UNL     1      13.920 -22.846   6.182  1.00  0.00    -0.022 C 
HETATM   15  C19 UNL     1      14.757 -24.159   6.071  1.00  0.00     0.020 C 
HETATM   16  C22 UNL     1      12.626 -23.087   5.427  1.00  0.00     0.028 C 
HETATM   17  C23 UNL     1      12.095 -21.855   4.700  1.00  0.00    -0.004 C 
ENDROOT
BRANCH  17  18
HETATM   18  C24 UNL     1      11.958 -20.733   5.605  1.00  0.00     0.035 C 
BRANCH  18  19
HETATM   19  C25 UNL     1      12.656 -19.453   5.628  1.00  0.00     0.127 C 
BRANCH  19  20
HETATM   20  N1  UNL     1      11.838 -18.512   4.834  1.00  0.00    -0.352 N 
HETATM   21  C31 UNL     1      12.447 -17.710   3.882  1.00  0.00     0.215 C 
HETATM   22  C32 UNL     1      11.801 -16.667   3.037  1.00  0.00     0.117 C 
HETATM   23  O4  UNL     1      13.712 -17.818   3.646  1.00  0.00    -0.274 OA
BRANCH  20  24
HETATM   24  C26 UNL     1      10.419 -18.465   5.059  1.00  0.00     0.125 C 
BRANCH  24  25
HETATM   25  C27 UNL     1       9.992 -17.662   6.254  1.00  0.00     0.020 C 
BRANCH  25  26
HETATM   26  C28 UNL     1       9.239 -18.390   7.305  1.00  0.00     0.001 C 
BRANCH  26  27
HETATM   27  C29 UNL     1       9.215 -17.572   8.615  1.00  0.00    -0.004 C 
HETATM   28  C30 UNL     1       8.442 -18.381   9.612  1.00  0.00     0.005 C 
ENDBRANCH  26  27
ENDBRANCH  25  26
ENDBRANCH  24  25
ENDBRANCH  20  24
ENDBRANCH  19  20
ENDBRANCH  18  19
ENDBRANCH  17  18
BRANCH   1  29
HETATM   29  C3  UNL     1      10.656 -23.624   3.595  1.00  0.00     0.038 C 
BRANCH  29  30
HETATM   30  C2  UNL     1      10.979 -24.376   2.385  1.00  0.00    -0.036 C 
HETATM   31  C1  UNL     1      11.732 -25.445   2.241  1.00  0.00     0.007 C 
ENDBRANCH  29  30
ENDBRANCH   1  29
BRANCH  12  32
HETATM   32  C15 UNL     1      15.457 -21.516   3.068  1.00  0.00     0.289 C 
HETATM   33  O2  UNL     1      15.618 -20.345   2.591  1.00  0.00    -0.260 OA
BRANCH  32  34
HETATM   34  O3  UNL     1      16.268 -22.496   2.598  1.00  0.00    -0.323 OA
HETATM   35  C16 UNL     1      15.810 -23.823   2.366  1.00  0.00     0.213 C 
ENDBRANCH  32  34
ENDBRANCH  12  32
BRANCH  14  36
HETATM   36  C20 UNL     1      13.769 -22.733   7.647  1.00  0.00    -0.027 C 
HETATM   37  C21 UNL     1      14.436 -21.795   8.279  1.00  0.00     0.007 C 
ENDBRANCH  14  36
TORSDOF 12
ENDMDL
MODEL 2
REMARK VINA RESULT: -7.695746425      2.228      4.582
REMARK  12 active torsions:
REMARK  status: ('A' for Active; 'I' for Inactive)
REMARK    1  A    between atoms: C2_2  and  C3_3 
REMARK    2  A    between atoms: C3_3  and  C4_4 
REMARK    3  A    between atoms: C14_15  and  C15_16 
REMARK    4  A    between atoms: C15_16  and  O3_18 
REMARK    5  A    between atoms: C18_21  and  C20_23 
REMARK    6  A    between atoms: C23_26  and  C24_27 
REMARK    7  A    between atoms: C24_27  and  C25_28 
REMARK    8  A    between atoms: C25_28  and  N1_29 
REMARK    9  A    between atoms: N1_29  and  C26_30 
REMARK       I    between atoms: N1_29  and  C31_35 
REMARK   10  A    between atoms: C26_30  and  C27_31 
REMARK   11  A    between atoms: C27_31  and  C28_32 
REMARK   12  A    between atoms: C28_32  and  C29_33 
ROOT
HETATM    1  C4  UNL     1      12.708 -20.361   2.870  1.00  0.00    -0.012 C 
HETATM    2  C5  UNL     1      13.322 -19.762   4.092  1.00  0.00     0.026 C 
HETATM    3  C6  UNL     1      12.628 -18.650   4.747  1.00  0.00     0.012 C 
HETATM    4  C7  UNL     1      12.490 -17.538   3.715  1.00  0.00     0.033 C 
HETATM    5  C8  UNL     1      11.670 -18.042   2.595  1.00  0.00     0.126 C 
HETATM    6  O1  UNL     1      11.883 -17.350   1.395  1.00  0.00    -0.385 OA
HETATM    7  C9  UNL     1      10.706 -17.260   0.657  1.00  0.00     0.168 C 
HETATM    8  C10 UNL     1      10.040 -18.610   0.691  1.00  0.00     0.027 C 
HETATM    9  C11 UNL     1      11.063 -19.721   1.009  1.00  0.00     0.010 C 
HETATM   10  C12 UNL     1      11.593 -19.536   2.416  1.00  0.00     0.025 C 
HETATM   11  C13 UNL     1      13.298 -21.013   4.837  1.00  0.00    -0.053 C 
HETATM   12  C14 UNL     1      13.567 -21.839   5.833  1.00  0.00     0.022 C 
HETATM   13  C17 UNL     1      13.166 -23.299   5.847  1.00  0.00     0.058 C 
HETATM   14  C18 UNL     1      13.312 -23.868   4.466  1.00  0.00    -0.022 C 
HETATM   15  C19 UNL     1      14.744 -24.489   4.454  1.00  0.00     0.020 C 
HETATM   16  C22 UNL     1      13.287 -22.804   3.385  1.00  0.00     0.028 C 
HETATM   17  C23 UNL     1      12.434 -21.587   3.735  1.00  0.00    -0.004 C 
ENDROOT
BRANCH  17  18
HETATM   18  C24 UNL     1      11.088 -21.980   4.097  1.00  0.00     0.035 C 
BRANCH  18  19
HETATM   19  C25 UNL     1      10.105 -22.760   3.354  1.00  0.00     0.127 C 
BRANCH  19  20
HETATM   20  N1  UNL     1       8.787 -22.151   3.630  1.00  0.00    -0.352 N 
HETATM   21  C31 UNL     1       7.713 -22.963   3.958  1.00  0.00     0.215 C 
HETATM   22  C32 UNL     1       6.306 -22.538   4.206  1.00  0.00     0.117 C 
HETATM   23  O4  UNL     1       7.868 -24.239   4.076  1.00  0.00    -0.274 OA
BRANCH  20  24
HETATM   24  C26 UNL     1       8.656 -20.720   3.570  1.00  0.00     0.125 C 
BRANCH  24  25
HETATM   25  C27 UNL     1       8.334 -20.056   4.877  1.00  0.00     0.020 C 
BRANCH  25  26
HETATM   26  C28 UNL     1       9.146 -18.867   5.233  1.00  0.00     0.001 C 
BRANCH  26  27
HETATM   27  C29 UNL     1       9.381 -18.813   6.759  1.00  0.00    -0.004 C 
HETATM   28  C30 UNL     1       9.869 -17.430   7.068  1.00  0.00     0.005 C 
ENDBRANCH  26  27
ENDBRANCH  25  26
ENDBRANCH  24  25
ENDBRANCH  20  24
ENDBRANCH  19  20
ENDBRANCH  18  19
ENDBRANCH  17  18
BRANCH   1  29
HETATM   29  C3  UNL     1      13.694 -20.638   1.752  1.00  0.00     0.038 C 
BRANCH  29  30
HETATM   30  C2  UNL     1      14.898 -19.813   1.697  1.00  0.00    -0.036 C 
HETATM   31  C1  UNL     1      15.110 -18.683   1.057  1.00  0.00     0.007 C 
ENDBRANCH  29  30
ENDBRANCH   1  29
BRANCH  12  32
HETATM   32  C15 UNL     1      14.369 -21.297   6.936  1.00  0.00     0.289 C 
HETATM   33  O2  UNL     1      14.267 -21.899   8.055  1.00  0.00    -0.260 OA
BRANCH  32  34
HETATM   34  O3  UNL     1      15.203 -20.228   6.878  1.00  0.00    -0.323 OA
HETATM   35  C16 UNL     1      15.145 -19.161   7.816  1.00  0.00     0.213 C 
ENDBRANCH  32  34
ENDBRANCH  12  32
BRANCH  14  36
HETATM   36  C20 UNL     1      12.487 -25.059   4.179  1.00  0.00    -0.027 C 
HETATM   37  C21 UNL     1      12.480 -25.543   2.959  1.00  0.00     0.007 C 
ENDBRANCH  14  36
TORSDOF 12
ENDMDL
MODEL 3
REMARK VINA RESULT: -7.659052687      2.303      6.313
REMARK  12 active torsions:
REMARK  status: ('A' for Active; 'I' for Inactive)
REMARK    1  A    between atoms: C2_2  and  C3_3 
REMARK    2  A    between atoms: C3_3  and  C4_4 
REMARK    3  A    between atoms: C14_15  and  C15_16 
REMARK    4  A    between atoms: C15_16  and  O3_18 
REMARK    5  A    between atoms: C18_21  and  C20_23 
REMARK    6  A    between atoms: C23_26  and  C24_27 
REMARK    7  A    between atoms: C24_27  and  C25_28 
REMARK    8  A    between atoms: C25_28  and  N1_29 
REMARK    9  A    between atoms: N1_29  and  C26_30 
REMARK       I    between atoms: N1_29  and  C31_35 
REMARK   10  A    between atoms: C26_30  and  C27_31 
REMARK   11  A    between atoms: C27_31  and  C28_32 
REMARK   12  A    between atoms: C28_32  and  C29_33 
ROOT
HETATM    1  C4  UNL     1      12.008 -23.339   1.367  1.00  0.00    -0.012 C 
HETATM    2  C5  UNL     1      10.985 -24.280   1.910  1.00  0.00     0.026 C 
HETATM    3  C6  UNL     1      11.437 -25.387   2.758  1.00  0.00     0.012 C 
HETATM    4  C7  UNL     1      12.420 -26.210   1.934  1.00  0.00     0.033 C 
HETATM    5  C8  UNL     1      13.570 -25.350   1.588  1.00  0.00     0.126 C 
HETATM    6  O1  UNL     1      14.267 -25.785   0.453  1.00  0.00    -0.385 OA
HETATM    7  C9  UNL     1      15.630 -25.526   0.576  1.00  0.00     0.168 C 
HETATM    8  C10 UNL     1      15.783 -24.130   1.119  1.00  0.00     0.027 C 
HETATM    9  C11 UNL     1      14.519 -23.290   0.841  1.00  0.00     0.010 C 
HETATM   10  C12 UNL     1      13.348 -23.860   1.617  1.00  0.00     0.025 C 
HETATM   11  C13 UNL     1      10.257 -23.236   2.617  1.00  0.00    -0.053 C 
HETATM   12  C14 UNL     1       9.265 -22.702   3.309  1.00  0.00     0.022 C 
HETATM   13  C17 UNL     1       9.195 -21.237   3.684  1.00  0.00     0.058 C 
HETATM   14  C18 UNL     1       9.725 -20.407   2.551  1.00  0.00    -0.022 C 
HETATM   15  C19 UNL     1       8.457 -20.030   1.724  1.00  0.00     0.020 C 
HETATM   16  C22 UNL     1      10.636 -21.190   1.624  1.00  0.00     0.028 C 
HETATM   17  C23 UNL     1      11.413 -22.306   2.318  1.00  0.00    -0.004 C 
ENDROOT
BRANCH  17  18
HETATM   18  C24 UNL     1      12.154 -21.798   3.453  1.00  0.00     0.035 C 
BRANCH  18  19
HETATM   19  C25 UNL     1      13.225 -20.810   3.510  1.00  0.00     0.127 C 
BRANCH  19  20
HETATM   20  N1  UNL     1      14.061 -21.161   4.678  1.00  0.00    -0.352 N 
HETATM   21  C31 UNL     1      13.810 -20.566   5.904  1.00  0.00     0.215 C 
HETATM   22  C32 UNL     1      14.579 -20.746   7.167  1.00  0.00     0.117 C 
HETATM   23  O4  UNL     1      12.819 -19.750   6.045  1.00  0.00    -0.274 OA
BRANCH  20  24
HETATM   24  C26 UNL     1      15.110 -22.131   4.515  1.00  0.00     0.125 C 
BRANCH  24  25
HETATM   25  C27 UNL     1      15.002 -23.337   5.402  1.00  0.00     0.020 C 
BRANCH  25  26
HETATM   26  C28 UNL     1      13.990 -24.351   5.019  1.00  0.00     0.001 C 
BRANCH  26  27
HETATM   27  C29 UNL     1      12.890 -24.449   6.099  1.00  0.00    -0.004 C 
HETATM   28  C30 UNL     1      13.559 -24.199   7.417  1.00  0.00     0.005 C 
ENDBRANCH  26  27
ENDBRANCH  25  26
ENDBRANCH  24  25
ENDBRANCH  20  24
ENDBRANCH  19  20
ENDBRANCH  18  19
ENDBRANCH  17  18
BRANCH   1  29
HETATM   29  C3  UNL     1      11.808 -22.980  -0.093  1.00  0.00     0.038 C 
BRANCH  29  30
HETATM   30  C2  UNL     1      11.123 -23.954  -0.938  1.00  0.00    -0.036 C 
HETATM   31  C1  UNL     1      11.628 -24.853  -1.756  1.00  0.00     0.007 C 
ENDBRANCH  29  30
ENDBRANCH   1  29
BRANCH  12  32
HETATM   32  C15 UNL     1       8.149 -23.592   3.649  1.00  0.00     0.289 C 
HETATM   33  O2  UNL     1       8.351 -24.409   4.607  1.00  0.00    -0.260 OA
BRANCH  32  34
HETATM   34  O3  UNL     1       6.933 -23.625   3.048  1.00  0.00    -0.323 OA
HETATM   35  C16 UNL     1       5.857 -22.786   3.451  1.00  0.00     0.213 C 
ENDBRANCH  32  34
ENDBRANCH  12  32
BRANCH  14  36
HETATM   36  C20 UNL     1      10.226 -19.069   2.924  1.00  0.00    -0.027 C 
HETATM   37  C21 UNL     1      10.051 -18.650   4.156  1.00  0.00     0.007 C 
ENDBRANCH  14  36
TORSDOF 12
ENDMDL
MODEL 4
REMARK VINA RESULT: -7.538395291      2.180      5.351
REMARK  12 active torsions:
REMARK  status: ('A' for Active; 'I' for Inactive)
REMARK    1  A    between atoms: C2_2  and  C3_3 
REMARK    2  A    between atoms: C3_3  and  C4_4 
REMARK    3  A    between atoms: C14_15  and  C15_16 
REMARK    4  A    between atoms: C15_16  and  O3_18 
REMARK    5  A    between atoms: C18_21  and  C20_23 
REMARK    6  A    between atoms: C23_26  and  C24_27 
REMARK    7  A    between atoms: C24_27  and  C25_28 
REMARK    8  A    between atoms: C25_28  and  N1_29 
REMARK    9  A    between atoms: N1_29  and  C26_30 
REMARK       I    between atoms: N1_29  and  C31_35 
REMARK   10  A    between atoms: C26_30  and  C27_31 
REMARK   11  A    between atoms: C27_31  and  C28_32 
REMARK   12  A    between atoms: C28_32  and  C29_33 
ROOT
HETATM    1  C4  UNL     1      11.364 -19.882   4.142  1.00  0.00    -0.012 C 
HETATM    2  C5  UNL     1      10.224 -20.765   3.757  1.00  0.00     0.026 C 
HETATM    3  C6  UNL     1       9.492 -20.461   2.524  1.00  0.00     0.012 C 
HETATM    4  C7  UNL     1       8.944 -19.046   2.666  1.00  0.00     0.033 C 
HETATM    5  C8  UNL     1      10.085 -18.118   2.807  1.00  0.00     0.126 C 
HETATM    6  O1  UNL     1       9.746 -16.914   3.439  1.00  0.00    -0.385 OA
HETATM    7  C9  UNL     1      10.479 -15.853   2.913  1.00  0.00     0.168 C 
HETATM    8  C10 UNL     1      11.908 -16.307   2.777  1.00  0.00     0.027 C 
HETATM    9  C11 UNL     1      12.201 -17.493   3.720  1.00  0.00     0.010 C 
HETATM   10  C12 UNL     1      11.389 -18.698   3.289  1.00  0.00     0.025 C 
HETATM   11  C13 UNL     1      11.048 -21.965   3.692  1.00  0.00    -0.053 C 
HETATM   12  C14 UNL     1      11.305 -23.257   3.587  1.00  0.00     0.022 C 
HETATM   13  C17 UNL     1      12.693 -23.849   3.700  1.00  0.00     0.058 C 
HETATM   14  C18 UNL     1      13.466 -23.110   4.754  1.00  0.00    -0.022 C 
HETATM   15  C19 UNL     1      13.242 -23.945   6.053  1.00  0.00     0.020 C 
HETATM   16  C22 UNL     1      12.913 -21.723   5.025  1.00  0.00     0.028 C 
HETATM   17  C23 UNL     1      12.262 -21.069   3.809  1.00  0.00    -0.004 C 
ENDROOT
BRANCH  17  18
HETATM   18  C24 UNL     1      13.168 -21.046   2.680  1.00  0.00     0.035 C 
BRANCH  18  19
HETATM   19  C25 UNL     1      14.409 -20.305   2.486  1.00  0.00     0.127 C 
BRANCH  19  20
HETATM   20  N1  UNL     1      14.237 -19.510   1.251  1.00  0.00    -0.352 N 
HETATM   21  C31 UNL     1      14.755 -18.227   1.185  1.00  0.00     0.215 C 
HETATM   22  C32 UNL     1      14.628 -17.262   0.057  1.00  0.00     0.117 C 
HETATM   23  O4  UNL     1      15.431 -17.742   2.172  1.00  0.00    -0.274 OA
BRANCH  20  24
HETATM   24  C26 UNL     1      13.548 -20.101   0.136  1.00  0.00     0.125 C 
BRANCH  24  25
HETATM   25  C27 UNL     1      12.187 -19.532  -0.142  1.00  0.00     0.020 C 
BRANCH  25  26
HETATM   26  C28 UNL     1      11.163 -20.482  -0.640  1.00  0.00     0.001 C 
BRANCH  26  27
HETATM   27  C29 UNL     1      11.664 -21.937  -0.499  1.00  0.00    -0.004 C 
HETATM   28  C30 UNL     1      10.473 -22.767  -0.125  1.00  0.00     0.005 C 
ENDBRANCH  26  27
ENDBRANCH  25  26
ENDBRANCH  24  25
ENDBRANCH  20  24
ENDBRANCH  19  20
ENDBRANCH  18  19
ENDBRANCH  17  18
BRANCH   1  29
HETATM   29  C3  UNL     1      11.396 -19.514   5.613  1.00  0.00     0.038 C 
BRANCH  29  30
HETATM   30  C2  UNL     1      10.116 -19.394   6.305  1.00  0.00    -0.036 C 
HETATM   31  C1  UNL     1       9.473 -18.313   6.694  1.00  0.00     0.007 C 
ENDBRANCH  29  30
ENDBRANCH   1  29
BRANCH  12  32
HETATM   32  C15 UNL     1      10.148 -24.146   3.432  1.00  0.00     0.289 C 
HETATM   33  O2  UNL     1      10.241 -25.038   2.526  1.00  0.00    -0.260 OA
BRANCH  32  34
HETATM   34  O3  UNL     1       9.000 -24.110   4.154  1.00  0.00    -0.323 OA
HETATM   35  C16 UNL     1       7.753 -23.723   3.590  1.00  0.00     0.213 C 
ENDBRANCH  32  34
ENDBRANCH  12  32
BRANCH  14  36
HETATM   36  C20 UNL     1      14.935 -23.175   4.628  1.00  0.00    -0.027 C 
HETATM   37  C21 UNL     1      15.462 -24.083   3.838  1.00  0.00     0.007 C 
ENDBRANCH  14  36
TORSDOF 12
ENDMDL
MODEL 5
REMARK VINA RESULT: -7.504556043      2.105      5.899
REMARK  12 active torsions:
REMARK  status: ('A' for Active; 'I' for Inactive)
REMARK    1  A    between atoms: C2_2  and  C3_3 
REMARK    2  A    between atoms: C3_3  and  C4_4 
REMARK    3  A    between atoms: C14_15  and  C15_16 
REMARK    4  A    between atoms: C15_16  and  O3_18 
REMARK    5  A    between atoms: C18_21  and  C20_23 
REMARK    6  A    between atoms: C23_26  and  C24_27 
REMARK    7  A    between atoms: C24_27  and  C25_28 
REMARK    8  A    between atoms: C25_28  and  N1_29 
REMARK    9  A    between atoms: N1_29  and  C26_30 
REMARK       I    between atoms: N1_29  and  C31_35 
REMARK   10  A    between atoms: C26_30  and  C27_31 
REMARK   11  A    between atoms: C27_31  and  C28_32 
REMARK   12  A    between atoms: C28_32  and  C29_33 
ROOT
HETATM    1  C4  UNL     1      11.687 -20.175   4.235  1.00  0.00    -0.012 C 
HETATM    2  C5  UNL     1      10.531 -20.965   3.719  1.00  0.00     0.026 C 
HETATM    3  C6  UNL     1       9.991 -20.630   2.398  1.00  0.00     0.012 C 
HETATM    4  C7  UNL     1       9.559 -19.170   2.448  1.00  0.00     0.033 C 
HETATM    5  C8  UNL     1      10.751 -18.341   2.722  1.00  0.00     0.126 C 
HETATM    6  O1  UNL     1      10.444 -17.096   3.288  1.00  0.00    -0.385 OA
HETATM    7  C9  UNL     1      11.331 -16.117   2.847  1.00  0.00     0.168 C 
HETATM    8  C10 UNL     1      12.719 -16.698   2.903  1.00  0.00     0.027 C 
HETATM    9  C11 UNL     1      12.782 -17.881   3.891  1.00  0.00     0.010 C 
HETATM   10  C12 UNL     1      11.926 -19.021   3.376  1.00  0.00     0.025 C 
HETATM   11  C13 UNL     1      11.244 -22.234   3.776  1.00  0.00    -0.053 C 
HETATM   12  C14 UNL     1      11.395 -23.545   3.724  1.00  0.00     0.022 C 
HETATM   13  C17 UNL     1      12.700 -24.253   4.023  1.00  0.00     0.058 C 
HETATM   14  C18 UNL     1      13.395 -23.558   5.157  1.00  0.00    -0.022 C 
HETATM   15  C19 UNL     1      12.934 -24.338   6.428  1.00  0.00     0.020 C 
HETATM   16  C22 UNL     1      12.939 -22.122   5.335  1.00  0.00     0.028 C 
HETATM   17  C23 UNL     1      12.509 -21.445   4.036  1.00  0.00    -0.004 C 
ENDROOT
BRANCH  17  18
HETATM   18  C24 UNL     1      13.550 -21.530   3.034  1.00  0.00     0.035 C 
BRANCH  18  19
HETATM   19  C25 UNL     1      14.882 -20.935   3.009  1.00  0.00     0.127 C 
BRANCH  19  20
HETATM   20  N1  UNL     1      15.280 -20.851   1.588  1.00  0.00    -0.352 N 
HETATM   21  C31 UNL     1      15.772 -19.657   1.084  1.00  0.00     0.215 C 
HETATM   22  C32 UNL     1      16.162 -19.367  -0.324  1.00  0.00     0.117 C 
HETATM   23  O4  UNL     1      15.934 -18.637   1.858  1.00  0.00    -0.274 OA
BRANCH  20  24
HETATM   24  C26 UNL     1      15.163 -22.023   0.763  1.00  0.00     0.125 C 
BRANCH  24  25
HETATM   25  C27 UNL     1      16.269 -23.025   0.924  1.00  0.00     0.020 C 
BRANCH  25  26
HETATM   26  C28 UNL     1      15.931 -24.437   0.624  1.00  0.00     0.001 C 
BRANCH  26  27
HETATM   27  C29 UNL     1      14.405 -24.658   0.720  1.00  0.00    -0.004 C 
HETATM   28  C30 UNL     1      14.203 -26.083   1.137  1.00  0.00     0.005 C 
ENDBRANCH  26  27
ENDBRANCH  25  26
ENDBRANCH  24  25
ENDBRANCH  20  24
ENDBRANCH  19  20
ENDBRANCH  18  19
ENDBRANCH  17  18
BRANCH   1  29
HETATM   29  C3  UNL     1      11.564 -19.775   5.693  1.00  0.00     0.038 C 
BRANCH  29  30
HETATM   30  C2  UNL     1      10.222 -19.528   6.212  1.00  0.00    -0.036 C 
HETATM   31  C1  UNL     1       9.608 -18.386   6.433  1.00  0.00     0.007 C 
ENDBRANCH  29  30
ENDBRANCH   1  29
BRANCH  12  32
HETATM   32  C15 UNL     1      10.193 -24.334   3.432  1.00  0.00     0.289 C 
HETATM   33  O2  UNL     1      10.275 -25.144   2.452  1.00  0.00    -0.260 OA
BRANCH  32  34
HETATM   34  O3  UNL     1       9.014 -24.283   4.102  1.00  0.00    -0.323 OA
HETATM   35  C16 UNL     1       7.859 -23.644   3.571  1.00  0.00     0.213 C 
ENDBRANCH  32  34
ENDBRANCH  12  32
BRANCH  14  36
HETATM   36  C20 UNL     1      14.857 -23.755   5.222  1.00  0.00    -0.027 C 
HETATM   37  C21 UNL     1      15.452 -24.395   4.242  1.00  0.00     0.007 C 
ENDBRANCH  14  36
TORSDOF 12
ENDMDL
