MODEL 1
REMARK VINA RESULT: -7.066448145      0.000      0.000
REMARK  6 active torsions:
REMARK  status: ('A' for Active; 'I' for Inactive)
REMARK    1  A    between atoms: C2_2  and  C3_3 
REMARK    2  A    between atoms: C3_3  and  C4_4 
REMARK    3  A    between atoms: C4_4  and  C5_5 
REMARK    4  A    between atoms: C5_5  and  C6_6 
REMARK    5  A    between atoms: C10_10  and  C11_11 
REMARK    6  A    between atoms: C11_11  and  C12_12 
ROOT
HETATM    1  C6  UNL     1     -28.665 -12.604 -29.241  1.00  0.00     0.186 C 
HETATM    2  C7  UNL     1     -28.638 -11.216 -29.752  1.00  0.00     0.033 C 
HETATM    3  C8  UNL     1     -27.262 -10.814 -30.249  1.00  0.00     0.004 C 
HETATM    4  C9  UNL     1     -26.621 -11.980 -31.009  1.00  0.00     0.033 C 
HETATM    5  C10 UNL     1     -27.708 -12.890 -31.455  1.00  0.00     0.187 C 
HETATM    6  N3  UNL     1     -28.317 -13.549 -30.329  1.00  0.00    -0.067 N 
ATOM      7  H31 UNL     1     -29.130 -14.093 -30.618  1.00  0.00     0.278 HD
ATOM      8  H32 UNL     1     -27.727 -14.306 -29.984  1.00  0.00     0.278 HD
ENDROOT
BRANCH   5   9
HETATM    9  C11 UNL     1     -27.224 -13.982 -32.383  1.00  0.00     0.046 C 
BRANCH   9  10
HETATM   10  C12 UNL     1     -25.825 -13.839 -32.842  1.00  0.00     0.066 C 
HETATM   11  C13 UNL     1     -25.311 -15.260 -33.122  1.00  0.00     0.188 C 
HETATM   12  O1  UNL     1     -24.560 -15.192 -34.296  1.00  0.00    -0.333 OA
HETATM   13  C14 UNL     1     -24.893 -14.065 -34.996  1.00  0.00     0.168 A 
HETATM   14  N1  UNL     1     -24.621 -13.678 -36.266  1.00  0.00    -0.301 N 
HETATM   15  C17 UNL     1     -25.646 -13.228 -34.175  1.00  0.00     0.067 A 
HETATM   16  C15 UNL     1     -25.054 -12.511 -36.761  1.00  0.00     0.262 A 
ATOM     17  H1  UNL     1     -24.069 -14.294 -36.864  1.00  0.00     0.171 HD
HETATM   18  O2  UNL     1     -24.817 -12.125 -37.933  1.00  0.00    -0.267 OA
HETATM   19  C16 UNL     1     -25.797 -11.681 -35.957  1.00  0.00     0.163 A 
HETATM   20  N2  UNL     1     -26.059 -12.079 -34.701  1.00  0.00    -0.360 N 
ATOM     21  H2  UNL     1     -26.612 -11.457 -34.111  1.00  0.00     0.165 HD
ENDBRANCH   9  10
ENDBRANCH   5   9
BRANCH   1  22
HETATM   22  C5  UNL     1     -27.914 -12.990 -28.045  1.00  0.00     0.033 C 
BRANCH  22  23
HETATM   23  C4  UNL     1     -26.988 -14.112 -27.969  1.00  0.00     0.002 C 
BRANCH  23  24
HETATM   24  C3  UNL     1     -26.086 -14.239 -26.805  1.00  0.00    -0.000 C 
BRANCH  24  25
HETATM   25  C2  UNL     1     -26.129 -12.892 -26.014  1.00  0.00    -0.005 C 
HETATM   26  C1  UNL     1     -25.064 -13.007 -24.946  1.00  0.00     0.005 C 
ENDBRANCH  24  25
ENDBRANCH  23  24
ENDBRANCH  22  23
ENDBRANCH   1  22
TORSDOF 6
ENDMDL
MODEL 2
REMARK VINA RESULT: -6.938882250      1.361      1.599
REMARK  6 active torsions:
REMARK  status: ('A' for Active; 'I' for Inactive)
REMARK    1  A    between atoms: C2_2  and  C3_3 
REMARK    2  A    between atoms: C3_3  and  C4_4 
REMARK    3  A    between atoms: C4_4  and  C5_5 
REMARK    4  A    between atoms: C5_5  and  C6_6 
REMARK    5  A    between atoms: C10_10  and  C11_11 
REMARK    6  A    between atoms: C11_11  and  C12_12 
ROOT
HETATM    1  C6  UNL     1     -28.048 -13.343 -28.534  1.00  0.00     0.186 C 
HETATM    2  C7  UNL     1     -28.579 -11.973 -28.356  1.00  0.00     0.033 C 
HETATM    3  C8  UNL     1     -27.606 -10.913 -28.837  1.00  0.00     0.004 C 
HETATM    4  C9  UNL     1     -26.937 -11.371 -30.137  1.00  0.00     0.033 C 
HETATM    5  C10 UNL     1     -27.804 -12.404 -30.761  1.00  0.00     0.187 C 
HETATM    6  N3  UNL     1     -27.811 -13.609 -29.973  1.00  0.00    -0.067 N 
ATOM      7  H31 UNL     1     -28.485 -14.282 -30.338  1.00  0.00     0.278 HD
ATOM      8  H32 UNL     1     -26.953 -14.143 -30.111  1.00  0.00     0.278 HD
ENDROOT
BRANCH   5   9
HETATM    9  C11 UNL     1     -27.352 -12.799 -32.149  1.00  0.00     0.046 C 
BRANCH   9  10
HETATM   10  C12 UNL     1     -25.885 -12.849 -32.339  1.00  0.00     0.066 C 
HETATM   11  C13 UNL     1     -25.569 -14.232 -32.929  1.00  0.00     0.188 C 
HETATM   12  O1  UNL     1     -24.599 -14.039 -33.913  1.00  0.00    -0.333 OA
HETATM   13  C14 UNL     1     -24.596 -12.729 -34.310  1.00  0.00     0.168 A 
HETATM   14  N1  UNL     1     -24.017 -12.108 -35.365  1.00  0.00    -0.301 N 
HETATM   15  C17 UNL     1     -25.347 -11.980 -33.406  1.00  0.00     0.067 A 
HETATM   16  C15 UNL     1     -24.144 -10.790 -35.570  1.00  0.00     0.262 A 
ATOM     17  H1  UNL     1     -23.467 -12.659 -36.025  1.00  0.00     0.171 HD
HETATM   18  O2  UNL     1     -23.618 -10.186 -36.538  1.00  0.00    -0.267 OA
HETATM   19  C16 UNL     1     -24.883 -10.046 -34.683  1.00  0.00     0.163 A 
HETATM   20  N2  UNL     1     -25.451 -10.676 -33.642  1.00  0.00    -0.360 N 
ATOM     21  H2  UNL     1     -25.999 -10.116 -32.989  1.00  0.00     0.165 HD
ENDBRANCH   9  10
ENDBRANCH   5   9
BRANCH   1  22
HETATM   22  C5  UNL     1     -26.879 -13.809 -27.786  1.00  0.00     0.033 C 
BRANCH  22  23
HETATM   23  C4  UNL     1     -26.346 -13.170 -26.590  1.00  0.00     0.002 C 
BRANCH  23  24
HETATM   24  C3  UNL     1     -25.466 -13.935 -25.682  1.00  0.00    -0.000 C 
BRANCH  24  25
HETATM   25  C2  UNL     1     -24.909 -12.948 -24.607  1.00  0.00    -0.005 C 
HETATM   26  C1  UNL     1     -23.659 -13.600 -24.057  1.00  0.00     0.005 C 
ENDBRANCH  24  25
ENDBRANCH  23  24
ENDBRANCH  22  23
ENDBRANCH   1  22
TORSDOF 6
ENDMDL
MODEL 3
REMARK VINA RESULT: -6.872880735      2.153      3.040
REMARK  6 active torsions:
REMARK  status: ('A' for Active; 'I' for Inactive)
REMARK    1  A    between atoms: C2_2  and  C3_3 
REMARK    2  A    between atoms: C3_3  and  C4_4 
REMARK    3  A    between atoms: C4_4  and  C5_5 
REMARK    4  A    between atoms: C5_5  and  C6_6 
REMARK    5  A    between atoms: C10_10  and  C11_11 
REMARK    6  A    between atoms: C11_11  and  C12_12 
ROOT
HETATM    1  C6  UNL     1     -29.000 -11.930 -29.311  1.00  0.00     0.186 C 
HETATM    2  C7  UNL     1     -29.024 -10.770 -30.231  1.00  0.00     0.033 C 
HETATM    3  C8  UNL     1     -27.630 -10.291 -30.588  1.00  0.00     0.004 C 
HETATM    4  C9  UNL     1     -26.706 -11.494 -30.809  1.00  0.00     0.033 C 
HETATM    5  C10 UNL     1     -27.554 -12.674 -31.116  1.00  0.00     0.187 C 
HETATM    6  N3  UNL     1     -28.313 -13.073 -29.960  1.00  0.00    -0.067 N 
ATOM      7  H31 UNL     1     -28.974 -13.814 -30.192  1.00  0.00     0.278 HD
ATOM      8  H32 UNL     1     -27.729 -13.577 -29.293  1.00  0.00     0.278 HD
ENDROOT
BRANCH   5   9
HETATM    9  C11 UNL     1     -26.755 -13.884 -31.545  1.00  0.00     0.046 C 
BRANCH   9  10
HETATM   10  C12 UNL     1     -26.580 -14.033 -33.007  1.00  0.00     0.066 C 
HETATM   11  C13 UNL     1     -25.069 -13.952 -33.275  1.00  0.00     0.188 C 
HETATM   12  O1  UNL     1     -24.778 -14.920 -34.236  1.00  0.00    -0.333 OA
HETATM   13  C14 UNL     1     -25.777 -15.854 -34.272  1.00  0.00     0.168 A 
HETATM   14  N1  UNL     1     -25.851 -17.076 -34.854  1.00  0.00    -0.301 N 
HETATM   15  C17 UNL     1     -26.872 -15.374 -33.554  1.00  0.00     0.067 A 
HETATM   16  C15 UNL     1     -26.947 -17.841 -34.761  1.00  0.00     0.262 A 
ATOM     17  H1  UNL     1     -25.048 -17.424 -35.378  1.00  0.00     0.171 HD
HETATM   18  O2  UNL     1     -27.045 -18.976 -35.290  1.00  0.00    -0.267 OA
HETATM   19  C16 UNL     1     -28.029 -17.373 -34.056  1.00  0.00     0.163 A 
HETATM   20  N2  UNL     1     -27.941 -16.161 -33.485  1.00  0.00    -0.360 N 
ATOM     21  H2  UNL     1     -28.748 -15.822 -32.962  1.00  0.00     0.165 HD
ENDBRANCH   9  10
ENDBRANCH   5   9
BRANCH   1  22
HETATM   22  C5  UNL     1     -28.488 -11.807 -27.945  1.00  0.00     0.033 C 
BRANCH  22  23
HETATM   23  C4  UNL     1     -27.372 -12.569 -27.402  1.00  0.00     0.002 C 
BRANCH  23  24
HETATM   24  C3  UNL     1     -26.100 -11.882 -27.093  1.00  0.00    -0.000 C 
BRANCH  24  25
HETATM   25  C2  UNL     1     -25.431 -12.625 -25.892  1.00  0.00    -0.005 C 
HETATM   26  C1  UNL     1     -25.753 -14.091 -26.083  1.00  0.00     0.005 C 
ENDBRANCH  24  25
ENDBRANCH  23  24
ENDBRANCH  22  23
ENDBRANCH   1  22
TORSDOF 6
ENDMDL
MODEL 4
REMARK VINA RESULT: -6.864775436      4.894      7.739
REMARK  6 active torsions:
REMARK  status: ('A' for Active; 'I' for Inactive)
REMARK    1  A    between atoms: C2_2  and  C3_3 
REMARK    2  A    between atoms: C3_3  and  C4_4 
REMARK    3  A    between atoms: C4_4  and  C5_5 
REMARK    4  A    between atoms: C5_5  and  C6_6 
REMARK    5  A    between atoms: C10_10  and  C11_11 
REMARK    6  A    between atoms: C11_11  and  C12_12 
ROOT
HETATM    1  C6  UNL     1     -29.722  -9.778 -30.828  1.00  0.00     0.186 C 
HETATM    2  C7  UNL     1     -29.311  -8.485 -30.237  1.00  0.00     0.033 C 
HETATM    3  C8  UNL     1     -29.177  -8.560 -28.727  1.00  0.00     0.004 C 
HETATM    4  C9  UNL     1     -28.526  -9.888 -28.328  1.00  0.00     0.033 C 
HETATM    5  C10 UNL     1     -27.785 -10.409 -29.505  1.00  0.00     0.187 C 
HETATM    6  N3  UNL     1     -28.695 -10.809 -30.546  1.00  0.00    -0.067 N 
ATOM      7  H31 UNL     1     -28.192 -11.068 -31.395  1.00  0.00     0.278 HD
ATOM      8  H32 UNL     1     -29.128 -11.708 -30.331  1.00  0.00     0.278 HD
ENDROOT
BRANCH   5   9
HETATM    9  C11 UNL     1     -26.937 -11.621 -29.185  1.00  0.00     0.046 C 
BRANCH   9  10
HETATM   10  C12 UNL     1     -27.387 -12.407 -28.015  1.00  0.00     0.066 C 
HETATM   11  C13 UNL     1     -27.535 -13.858 -28.497  1.00  0.00     0.188 C 
HETATM   12  O1  UNL     1     -27.030 -14.673 -27.484  1.00  0.00    -0.333 OA
HETATM   13  C14 UNL     1     -26.211 -13.943 -26.666  1.00  0.00     0.168 A 
HETATM   14  N1  UNL     1     -25.329 -14.315 -25.706  1.00  0.00    -0.301 N 
HETATM   15  C17 UNL     1     -26.386 -12.588 -26.943  1.00  0.00     0.067 A 
HETATM   16  C15 UNL     1     -24.616 -13.418 -25.012  1.00  0.00     0.262 A 
ATOM     17  H1  UNL     1     -25.204 -15.307 -25.506  1.00  0.00     0.171 HD
HETATM   18  O2  UNL     1     -23.792 -13.732 -24.117  1.00  0.00    -0.267 OA
HETATM   19  C16 UNL     1     -24.784 -12.081 -25.281  1.00  0.00     0.163 A 
HETATM   20  N2  UNL     1     -25.661 -11.729 -26.234  1.00  0.00    -0.360 N 
ATOM     21  H2  UNL     1     -25.779 -10.734 -26.428  1.00  0.00     0.165 HD
ENDBRANCH   9  10
ENDBRANCH   5   9
BRANCH   1  22
HETATM   22  C5  UNL     1     -31.038 -10.357 -30.552  1.00  0.00     0.033 C 
BRANCH  22  23
HETATM   23  C4  UNL     1     -32.270  -9.593 -30.405  1.00  0.00     0.002 C 
BRANCH  23  24
HETATM   24  C3  UNL     1     -32.945  -9.540 -29.091  1.00  0.00    -0.000 C 
BRANCH  24  25
HETATM   25  C2  UNL     1     -34.069  -8.458 -29.171  1.00  0.00    -0.005 C 
HETATM   26  C1  UNL     1     -33.442  -7.262 -29.855  1.00  0.00     0.005 C 
ENDBRANCH  24  25
ENDBRANCH  23  24
ENDBRANCH  22  23
ENDBRANCH   1  22
TORSDOF 6
ENDMDL
MODEL 5
REMARK VINA RESULT: -6.851731096      2.100      2.944
REMARK  6 active torsions:
REMARK  status: ('A' for Active; 'I' for Inactive)
REMARK    1  A    between atoms: C2_2  and  C3_3 
REMARK    2  A    between atoms: C3_3  and  C4_4 
REMARK    3  A    between atoms: C4_4  and  C5_5 
REMARK    4  A    between atoms: C5_5  and  C6_6 
REMARK    5  A    between atoms: C10_10  and  C11_11 
REMARK    6  A    between atoms: C11_11  and  C12_12 
ROOT
HETATM    1  C6  UNL     1     -28.473 -13.019 -29.542  1.00  0.00     0.186 C 
HETATM    2  C7  UNL     1     -28.768 -11.620 -29.925  1.00  0.00     0.033 C 
HETATM    3  C8  UNL     1     -27.510 -10.782 -30.054  1.00  0.00     0.004 C 
HETATM    4  C9  UNL     1     -26.406 -11.602 -30.730  1.00  0.00     0.033 C 
HETATM    5  C10 UNL     1     -27.051 -12.706 -31.486  1.00  0.00     0.187 C 
HETATM    6  N3  UNL     1     -27.643 -13.662 -30.587  1.00  0.00    -0.067 N 
ATOM      7  H31 UNL     1     -28.176 -14.366 -31.099  1.00  0.00     0.278 HD
ATOM      8  H32 UNL     1     -26.932 -14.266 -30.172  1.00  0.00     0.278 HD
ENDROOT
BRANCH   5   9
HETATM    9  C11 UNL     1     -26.082 -13.475 -32.356  1.00  0.00     0.046 C 
BRANCH   9  10
HETATM   10  C12 UNL     1     -26.533 -13.699 -33.748  1.00  0.00     0.066 C 
HETATM   11  C13 UNL     1     -25.270 -13.674 -34.623  1.00  0.00     0.188 C 
HETATM   12  O1  UNL     1     -25.411 -14.695 -35.563  1.00  0.00    -0.333 OA
HETATM   13  C14 UNL     1     -26.339 -15.601 -35.128  1.00  0.00     0.168 A 
HETATM   14  N1  UNL     1     -26.655 -16.847 -35.558  1.00  0.00    -0.301 N 
HETATM   15  C17 UNL     1     -27.032 -15.056 -34.049  1.00  0.00     0.067 A 
HETATM   16  C15 UNL     1     -27.616 -17.576 -34.976  1.00  0.00     0.262 A 
ATOM     17  H1  UNL     1     -26.145 -17.242 -36.348  1.00  0.00     0.171 HD
HETATM   18  O2  UNL     1     -27.932 -18.733 -35.352  1.00  0.00    -0.267 OA
HETATM   19  C16 UNL     1     -28.304 -17.045 -33.912  1.00  0.00     0.163 A 
HETATM   20  N2  UNL     1     -27.979 -15.810 -33.498  1.00  0.00    -0.360 N 
ATOM     21  H2  UNL     1     -28.494 -15.423 -32.706  1.00  0.00     0.165 HD
ENDBRANCH   9  10
ENDBRANCH   5   9
BRANCH   1  22
HETATM   22  C5  UNL     1     -27.896 -13.345 -28.236  1.00  0.00     0.033 C 
BRANCH  22  23
HETATM   23  C4  UNL     1     -26.858 -14.341 -28.010  1.00  0.00     0.002 C 
BRANCH  23  24
HETATM   24  C3  UNL     1     -26.073 -14.309 -26.758  1.00  0.00    -0.000 C 
BRANCH  24  25
HETATM   25  C2  UNL     1     -26.047 -12.834 -26.244  1.00  0.00    -0.005 C 
HETATM   26  C1  UNL     1     -25.172 -12.843 -25.010  1.00  0.00     0.005 C 
ENDBRANCH  24  25
ENDBRANCH  23  24
ENDBRANCH  22  23
ENDBRANCH   1  22
TORSDOF 6
ENDMDL
