MODEL 1
REMARK VINA RESULT: -5.868547268      0.000      0.000
REMARK  7 active torsions:
REMARK  status: ('A' for Active; 'I' for Inactive)
REMARK    1  A    between atoms: N4_12  and  C6_14 
REMARK    2  A    between atoms: C6_14  and  C7_15 
REMARK    3  A    between atoms: C7_15  and  C8_16 
REMARK    4  A    between atoms: C8_16  and  C9_17 
REMARK    5  A    between atoms: C9_17  and  N5_18 
REMARK    6  A    between atoms: N5_18  and  N6_19 
REMARK    7  A    between atoms: N5_18  and  C10_22 
ROOT
HETATM    1  C1  UNL     1     -85.212 -47.952 107.804  1.00  0.00     0.064 C 
HETATM    2  C2  UNL     1     -85.137 -47.951 109.124  1.00  0.00     0.127 A 
HETATM    3  N1  UNL     1     -86.321 -48.109 109.897  1.00  0.00    -0.177 N 
ATOM      4  H1  UNL     1     -87.218 -48.222 109.426  1.00  0.00     0.185 HD
HETATM    5  C3  UNL     1     -86.271 -48.112 111.316  1.00  0.00     0.693 A 
HETATM    6  N2  UNL     1     -87.346 -48.255 111.992  1.00  0.00    -0.230 N 
ATOM      7  H2  UNL     1     -87.286 -48.254 113.010  1.00  0.00     0.177 HD
HETATM    8  C4  UNL     1     -88.644 -48.417 111.377  1.00  0.00     0.165 C 
HETATM    9  N3  UNL     1     -84.997 -47.951 111.970  1.00  0.00    -0.022 N 
ATOM     10  H3  UNL     1     -84.951 -47.952 112.989  1.00  0.00     0.203 HD
HETATM   11  C5  UNL     1     -83.807 -47.793 111.215  1.00  0.00     0.694 A 
HETATM   12  N4  UNL     1     -82.689 -47.652 111.817  1.00  0.00    -0.226 N 
ATOM     13  H4  UNL     1     -82.713 -47.661 112.836  1.00  0.00     0.177 HD
HETATM   14  N8  UNL     1     -83.889 -47.795 109.802  1.00  0.00    -0.177 N 
ATOM     15  H8  UNL     1     -83.035 -47.682 109.255  1.00  0.00     0.185 HD
ENDROOT
BRANCH  12  16
HETATM   16  C6  UNL     1     -81.398 -47.482 111.200  1.00  0.00     0.138 C 
BRANCH  16  17
HETATM   17  C7  UNL     1     -81.054 -46.028 111.214  1.00  0.00     0.022 C 
BRANCH  17  18
HETATM   18  C8  UNL     1     -81.288 -45.296 109.936  1.00  0.00     0.023 C 
BRANCH  18  19
HETATM   19  C9  UNL     1     -81.306 -43.806 110.058  1.00  0.00     0.149 C 
BRANCH  19  20
HETATM   20  N5  UNL     1     -80.619 -43.278 108.871  1.00  0.00    -0.295 N 
BRANCH  20  21
HETATM   21  N6  UNL     1     -81.084 -42.165 108.190  1.00  0.00    -0.342 N 
ATOM     22  H62 UNL     1     -82.060 -41.891 108.307  1.00  0.00     0.177 HD
ATOM     23  H61 UNL     1     -80.481 -41.616 107.578  1.00  0.00     0.177 HD
ENDBRANCH  20  21
BRANCH  20  24
HETATM   24  C10 UNL     1     -79.442 -43.923 108.402  1.00  0.00     0.192 C 
HETATM   25  N7  UNL     1     -78.324 -43.629 108.987  1.00  0.00    -0.394 N 
ATOM     26  H72 UNL     1     -78.306 -42.957 109.755  1.00  0.00     0.156 HD
ATOM     27  H71 UNL     1     -77.479 -44.091 108.650  1.00  0.00     0.156 HD
ENDBRANCH  20  24
ENDBRANCH  19  20
ENDBRANCH  18  19
ENDBRANCH  17  18
ENDBRANCH  16  17
ENDBRANCH  12  16
TORSDOF 7
ENDMDL
MODEL 2
REMARK VINA RESULT: -5.708615482      1.104      1.343
REMARK  7 active torsions:
REMARK  status: ('A' for Active; 'I' for Inactive)
REMARK    1  A    between atoms: N4_12  and  C6_14 
REMARK    2  A    between atoms: C6_14  and  C7_15 
REMARK    3  A    between atoms: C7_15  and  C8_16 
REMARK    4  A    between atoms: C8_16  and  C9_17 
REMARK    5  A    between atoms: C9_17  and  N5_18 
REMARK    6  A    between atoms: N5_18  and  N6_19 
REMARK    7  A    between atoms: N5_18  and  C10_22 
ROOT
HETATM    1  C1  UNL     1     -84.492 -48.000 107.572  1.00  0.00     0.064 C 
HETATM    2  C2  UNL     1     -84.466 -47.803 108.879  1.00  0.00     0.127 A 
HETATM    3  N1  UNL     1     -85.589 -48.173 109.671  1.00  0.00    -0.177 N 
ATOM      4  H1  UNL     1     -86.406 -48.588 109.222  1.00  0.00     0.185 HD
HETATM    5  C3  UNL     1     -85.589 -47.973 111.076  1.00  0.00     0.693 A 
HETATM    6  N2  UNL     1     -86.608 -48.312 111.769  1.00  0.00    -0.230 N 
ATOM      7  H2  UNL     1     -86.585 -48.159 112.777  1.00  0.00     0.177 HD
HETATM    8  C4  UNL     1     -87.792 -48.903 111.186  1.00  0.00     0.165 C 
HETATM    9  N3  UNL     1     -84.429 -47.386 111.698  1.00  0.00    -0.022 N 
ATOM     10  H3  UNL     1     -84.420 -47.238 112.707  1.00  0.00     0.203 HD
HETATM   11  C5  UNL     1     -83.301 -47.011 110.925  1.00  0.00     0.694 A 
HETATM   12  N4  UNL     1     -82.284 -46.493 111.497  1.00  0.00    -0.226 N 
ATOM     13  H4  UNL     1     -82.339 -46.372 112.509  1.00  0.00     0.177 HD
HETATM   14  N8  UNL     1     -83.330 -47.223 109.526  1.00  0.00    -0.177 N 
ATOM     15  H8  UNL     1     -82.521 -46.956 108.965  1.00  0.00     0.185 HD
ENDROOT
BRANCH  12  16
HETATM   16  C6  UNL     1     -81.067 -46.061 110.859  1.00  0.00     0.138 C 
BRANCH  16  17
HETATM   17  C7  UNL     1     -81.108 -44.574 110.717  1.00  0.00     0.022 C 
BRANCH  17  18
HETATM   18  C8  UNL     1     -81.764 -44.061 109.481  1.00  0.00     0.023 C 
BRANCH  18  19
HETATM   19  C9  UNL     1     -80.883 -43.241 108.593  1.00  0.00     0.149 C 
BRANCH  19  20
HETATM   20  N5  UNL     1     -79.771 -44.110 108.187  1.00  0.00    -0.295 N 
BRANCH  20  21
HETATM   21  N6  UNL     1     -79.978 -45.404 107.739  1.00  0.00    -0.342 N 
ATOM     22  H62 UNL     1     -79.826 -46.178 108.387  1.00  0.00     0.177 HD
ATOM     23  H61 UNL     1     -80.277 -45.603 106.785  1.00  0.00     0.177 HD
ENDBRANCH  20  21
BRANCH  20  24
HETATM   24  C10 UNL     1     -78.439 -43.615 108.250  1.00  0.00     0.192 C 
HETATM   25  N7  UNL     1     -77.750 -43.884 109.313  1.00  0.00    -0.394 N 
ATOM     26  H72 UNL     1     -78.162 -44.433 110.068  1.00  0.00     0.156 HD
ATOM     27  H71 UNL     1     -76.794 -43.529 109.359  1.00  0.00     0.156 HD
ENDBRANCH  20  24
ENDBRANCH  19  20
ENDBRANCH  18  19
ENDBRANCH  17  18
ENDBRANCH  16  17
ENDBRANCH  12  16
TORSDOF 7
ENDMDL
MODEL 3
REMARK VINA RESULT: -5.618947192      1.251      2.137
REMARK  7 active torsions:
REMARK  status: ('A' for Active; 'I' for Inactive)
REMARK    1  A    between atoms: N4_12  and  C6_14 
REMARK    2  A    between atoms: C6_14  and  C7_15 
REMARK    3  A    between atoms: C7_15  and  C8_16 
REMARK    4  A    between atoms: C8_16  and  C9_17 
REMARK    5  A    between atoms: C9_17  and  N5_18 
REMARK    6  A    between atoms: N5_18  and  N6_19 
REMARK    7  A    between atoms: N5_18  and  C10_22 
ROOT
HETATM    1  C1  UNL     1     -83.691 -49.089 113.669  1.00  0.00     0.064 C 
HETATM    2  C2  UNL     1     -84.094 -48.545 112.535  1.00  0.00     0.127 A 
HETATM    3  N1  UNL     1     -85.479 -48.542 112.206  1.00  0.00    -0.177 N 
ATOM      4  H1  UNL     1     -86.149 -48.962 112.850  1.00  0.00     0.185 HD
HETATM    5  C3  UNL     1     -85.941 -47.965 110.994  1.00  0.00     0.693 A 
HETATM    6  N2  UNL     1     -87.188 -47.974 110.718  1.00  0.00    -0.230 N 
ATOM      7  H2  UNL     1     -87.497 -47.553 109.842  1.00  0.00     0.177 HD
HETATM    8  C4  UNL     1     -88.182 -48.555 111.593  1.00  0.00     0.165 C 
HETATM    9  N3  UNL     1     -84.984 -47.375 110.093  1.00  0.00    -0.022 N 
ATOM     10  H3  UNL     1     -85.306 -46.957 109.220  1.00  0.00     0.203 HD
HETATM   11  C5  UNL     1     -83.600 -47.367 110.404  1.00  0.00     0.694 A 
HETATM   12  N4  UNL     1     -82.770 -46.839 109.590  1.00  0.00    -0.226 N 
ATOM     13  H4  UNL     1     -83.157 -46.439 108.735  1.00  0.00     0.177 HD
HETATM   14  N8  UNL     1     -83.170 -47.951 111.620  1.00  0.00    -0.177 N 
ATOM     15  H8  UNL     1     -82.176 -47.948 111.849  1.00  0.00     0.185 HD
ENDROOT
BRANCH  12  16
HETATM   16  C6  UNL     1     -81.342 -46.750 109.757  1.00  0.00     0.138 C 
BRANCH  16  17
HETATM   17  C7  UNL     1     -81.041 -45.599 110.661  1.00  0.00     0.022 C 
BRANCH  17  18
HETATM   18  C8  UNL     1     -81.586 -44.279 110.231  1.00  0.00     0.023 C 
BRANCH  18  19
HETATM   19  C9  UNL     1     -80.554 -43.252 109.888  1.00  0.00     0.149 C 
BRANCH  19  20
HETATM   20  N5  UNL     1     -80.138 -43.520 108.505  1.00  0.00    -0.295 N 
BRANCH  20  21
HETATM   21  N6  UNL     1     -81.016 -43.405 107.441  1.00  0.00    -0.342 N 
ATOM     22  H62 UNL     1     -80.942 -42.592 106.829  1.00  0.00     0.177 HD
ATOM     23  H61 UNL     1     -81.732 -44.108 107.254  1.00  0.00     0.177 HD
ENDBRANCH  20  21
BRANCH  20  24
HETATM   24  C10 UNL     1     -78.795 -43.907 108.244  1.00  0.00     0.192 C 
HETATM   25  N7  UNL     1     -77.935 -43.772 109.203  1.00  0.00    -0.394 N 
ATOM     26  H72 UNL     1     -78.226 -43.399 110.107  1.00  0.00     0.156 HD
ATOM     27  H71 UNL     1     -76.971 -44.049 109.015  1.00  0.00     0.156 HD
ENDBRANCH  20  24
ENDBRANCH  19  20
ENDBRANCH  18  19
ENDBRANCH  17  18
ENDBRANCH  16  17
ENDBRANCH  12  16
TORSDOF 7
ENDMDL
MODEL 4
REMARK VINA RESULT: -5.610468539      1.947      3.137
REMARK  7 active torsions:
REMARK  status: ('A' for Active; 'I' for Inactive)
REMARK    1  A    between atoms: N4_12  and  C6_14 
REMARK    2  A    between atoms: C6_14  and  C7_15 
REMARK    3  A    between atoms: C7_15  and  C8_16 
REMARK    4  A    between atoms: C8_16  and  C9_17 
REMARK    5  A    between atoms: C9_17  and  N5_18 
REMARK    6  A    between atoms: N5_18  and  N6_19 
REMARK    7  A    between atoms: N5_18  and  C10_22 
ROOT
HETATM    1  C1  UNL     1     -86.497 -48.389 111.530  1.00  0.00     0.064 C 
HETATM    2  C2  UNL     1     -85.208 -48.182 111.738  1.00  0.00     0.127 A 
HETATM    3  N1  UNL     1     -84.513 -48.968 112.700  1.00  0.00    -0.177 N 
ATOM      4  H1  UNL     1     -85.017 -49.684 113.223  1.00  0.00     0.185 HD
HETATM    5  C3  UNL     1     -83.129 -48.768 112.944  1.00  0.00     0.693 A 
HETATM    6  N2  UNL     1     -82.525 -49.483 113.814  1.00  0.00    -0.230 N 
ATOM      7  H2  UNL     1     -81.531 -49.322 113.972  1.00  0.00     0.177 HD
HETATM    8  C4  UNL     1     -83.189 -50.511 114.583  1.00  0.00     0.165 C 
HETATM    9  N3  UNL     1     -82.429 -47.752 112.200  1.00  0.00    -0.022 N 
ATOM     10  H3  UNL     1     -81.435 -47.601 112.368  1.00  0.00     0.203 HD
HETATM   11  C5  UNL     1     -83.105 -46.960 111.236  1.00  0.00     0.694 A 
HETATM   12  N4  UNL     1     -82.464 -46.066 110.588  1.00  0.00    -0.226 N 
ATOM     13  H4  UNL     1     -81.472 -45.966 110.805  1.00  0.00     0.177 HD
HETATM   14  N8  UNL     1     -84.485 -47.184 111.015  1.00  0.00    -0.177 N 
ATOM     15  H8  UNL     1     -84.975 -46.617 110.322  1.00  0.00     0.185 HD
ENDROOT
BRANCH  12  16
HETATM   16  C6  UNL     1     -82.999 -45.185 109.583  1.00  0.00     0.138 C 
BRANCH  16  17
HETATM   17  C7  UNL     1     -82.689 -43.776 109.973  1.00  0.00     0.022 C 
BRANCH  17  18
HETATM   18  C8  UNL     1     -81.267 -43.359 109.811  1.00  0.00     0.023 C 
BRANCH  18  19
HETATM   19  C9  UNL     1     -80.815 -43.197 108.395  1.00  0.00     0.149 C 
BRANCH  19  20
HETATM   20  N5  UNL     1     -79.769 -44.203 108.169  1.00  0.00    -0.295 N 
BRANCH  20  21
HETATM   21  N6  UNL     1     -80.066 -45.549 108.025  1.00  0.00    -0.342 N 
ATOM     22  H62 UNL     1     -79.968 -46.162 108.834  1.00  0.00     0.177 HD
ATOM     23  H61 UNL     1     -80.378 -45.939 107.136  1.00  0.00     0.177 HD
ENDBRANCH  20  21
BRANCH  20  24
HETATM   24  C10 UNL     1     -78.410 -43.793 108.095  1.00  0.00     0.192 C 
HETATM   25  N7  UNL     1     -77.736 -43.748 109.201  1.00  0.00    -0.394 N 
ATOM     26  H72 UNL     1     -78.180 -44.001 110.084  1.00  0.00     0.156 HD
ATOM     27  H71 UNL     1     -76.761 -43.452 109.148  1.00  0.00     0.156 HD
ENDBRANCH  20  24
ENDBRANCH  19  20
ENDBRANCH  18  19
ENDBRANCH  17  18
ENDBRANCH  16  17
ENDBRANCH  12  16
TORSDOF 7
ENDMDL
MODEL 5
REMARK VINA RESULT: -5.541382924      0.609      1.251
REMARK  7 active torsions:
REMARK  status: ('A' for Active; 'I' for Inactive)
REMARK    1  A    between atoms: N4_12  and  C6_14 
REMARK    2  A    between atoms: C6_14  and  C7_15 
REMARK    3  A    between atoms: C7_15  and  C8_16 
REMARK    4  A    between atoms: C8_16  and  C9_17 
REMARK    5  A    between atoms: C9_17  and  N5_18 
REMARK    6  A    between atoms: N5_18  and  N6_19 
REMARK    7  A    between atoms: N5_18  and  C10_22 
ROOT
HETATM    1  C1  UNL     1     -85.155 -47.965 107.798  1.00  0.00     0.064 C 
HETATM    2  C2  UNL     1     -85.099 -47.950 109.118  1.00  0.00     0.127 A 
HETATM    3  N1  UNL     1     -86.287 -48.142 109.877  1.00  0.00    -0.177 N 
ATOM      4  H1  UNL     1     -87.174 -48.291 109.395  1.00  0.00     0.185 HD
HETATM    5  C3  UNL     1     -86.257 -48.131 111.297  1.00  0.00     0.693 A 
HETATM    6  N2  UNL     1     -87.335 -48.305 111.959  1.00  0.00    -0.230 N 
ATOM      7  H2  UNL     1     -87.289 -48.292 112.978  1.00  0.00     0.177 HD
HETATM    8  C4  UNL     1     -88.618 -48.518 111.328  1.00  0.00     0.165 C 
HETATM    9  N3  UNL     1     -84.998 -47.920 111.966  1.00  0.00    -0.022 N 
ATOM     10  H3  UNL     1     -84.966 -47.909 112.985  1.00  0.00     0.203 HD
HETATM   11  C5  UNL     1     -83.804 -47.727 111.226  1.00  0.00     0.694 A 
HETATM   12  N4  UNL     1     -82.700 -47.542 111.840  1.00  0.00    -0.226 N 
ATOM     13  H4  UNL     1     -82.737 -47.542 112.860  1.00  0.00     0.177 HD
HETATM   14  N8  UNL     1     -83.866 -47.744 109.812  1.00  0.00    -0.177 N 
ATOM     15  H8  UNL     1     -83.010 -47.606 109.274  1.00  0.00     0.185 HD
ENDROOT
BRANCH  12  16
HETATM   16  C6  UNL     1     -81.408 -47.332 111.240  1.00  0.00     0.138 C 
BRANCH  16  17
HETATM   17  C7  UNL     1     -81.091 -45.872 111.294  1.00  0.00     0.022 C 
BRANCH  17  18
HETATM   18  C8  UNL     1     -81.162 -45.147 109.993  1.00  0.00     0.023 C 
BRANCH  18  19
HETATM   19  C9  UNL     1     -79.986 -45.353 109.092  1.00  0.00     0.149 C 
BRANCH  19  20
HETATM   20  N5  UNL     1     -79.475 -44.017 108.756  1.00  0.00    -0.295 N 
BRANCH  20  21
HETATM   21  N6  UNL     1     -78.141 -43.680 108.923  1.00  0.00    -0.342 N 
ATOM     22  H62 UNL     1     -77.478 -43.925 108.187  1.00  0.00     0.177 HD
ATOM     23  H61 UNL     1     -77.807 -43.197 109.757  1.00  0.00     0.177 HD
ENDBRANCH  20  21
BRANCH  20  24
HETATM   24  C10 UNL     1     -80.368 -43.037 108.243  1.00  0.00     0.192 C 
HETATM   25  N7  UNL     1     -80.627 -42.012 108.992  1.00  0.00    -0.394 N 
ATOM     26  H72 UNL     1     -80.198 -41.927 109.914  1.00  0.00     0.156 HD
ATOM     27  H71 UNL     1     -81.268 -41.309 108.624  1.00  0.00     0.156 HD
ENDBRANCH  20  24
ENDBRANCH  19  20
ENDBRANCH  18  19
ENDBRANCH  17  18
ENDBRANCH  16  17
ENDBRANCH  12  16
TORSDOF 7
ENDMDL
