MODEL 1
REMARK VINA RESULT: -8.404124170      0.000      0.000
REMARK  1 active torsions:
REMARK  status: ('A' for Active; 'I' for Inactive)
REMARK    1  A    between atoms: C15_16  and  O2_17 
ROOT
HETATM    1  C1  UNL     1      -0.805 -10.772 -10.282  1.00  0.00     0.017 C 
HETATM    2  C2  UNL     1       0.196 -10.250 -10.942  1.00  0.00    -0.052 C 
HETATM    3  C3  UNL     1       0.327  -8.844 -11.476  1.00  0.00     0.074 C 
HETATM    4  C4  UNL     1       1.822  -8.652 -11.279  1.00  0.00     0.066 C 
HETATM    5  C5  UNL     1       1.988  -8.089  -9.885  1.00  0.00     0.038 C 
HETATM    6  C6  UNL     1       3.343  -8.321  -9.306  1.00  0.00     0.003 C 
HETATM    7  C7  UNL     1       4.194  -7.095  -9.657  1.00  0.00     0.000 C 
HETATM    8  C8  UNL     1       4.455  -7.215 -11.163  1.00  0.00     0.000 C 
HETATM    9  C9  UNL     1       3.251  -6.665 -11.858  1.00  0.00     0.003 C 
HETATM   10  C10 UNL     1       2.299  -7.721 -12.350  1.00  0.00     0.038 C 
HETATM   11  O1  UNL     1       2.424  -9.868 -11.436  1.00  0.00    -0.364 OA
HETATM   12  C11 UNL     1       1.492 -10.865 -11.369  1.00  0.00     0.085 C 
HETATM   13  C12 UNL     1       1.897 -11.863 -10.319  1.00  0.00     0.043 C 
HETATM   14  C13 UNL     1       3.185 -12.566 -10.720  1.00  0.00     0.006 C 
HETATM   15  C14 UNL     1       2.824 -13.781 -11.511  1.00  0.00     0.032 C 
HETATM   16  C15 UNL     1       2.662 -13.552 -12.969  1.00  0.00     0.118 C 
HETATM   17  C16 UNL     1       2.454 -12.100 -13.333  1.00  0.00     0.035 C 
HETATM   18  C17 UNL     1       1.232 -11.516 -12.710  1.00  0.00     0.045 C 
ENDROOT
BRANCH  16  19
HETATM   19  O2  UNL     1       3.763 -14.011 -13.679  1.00  0.00    -0.396 OA
ATOM     20  H2  UNL     1       4.398 -13.319 -13.821  1.00  0.00     0.210 HD
ENDBRANCH  16  19
TORSDOF 1
ENDMDL
MODEL 2
REMARK VINA RESULT: -7.876112257      1.448      5.163
REMARK  1 active torsions:
REMARK  status: ('A' for Active; 'I' for Inactive)
REMARK    1  A    between atoms: C15_16  and  O2_17 
ROOT
HETATM    1  C1  UNL     1      -0.389  -8.384 -11.862  1.00  0.00     0.017 C 
HETATM    2  C2  UNL     1       0.329  -9.408 -11.480  1.00  0.00    -0.052 C 
HETATM    3  C3  UNL     1      -0.085 -10.858 -11.403  1.00  0.00     0.074 C 
HETATM    4  C4  UNL     1       1.238 -11.504 -11.782  1.00  0.00     0.066 C 
HETATM    5  C5  UNL     1       1.222 -11.628 -13.289  1.00  0.00     0.038 C 
HETATM    6  C6  UNL     1       2.583 -11.732 -13.893  1.00  0.00     0.003 C 
HETATM    7  C7  UNL     1       2.910 -13.226 -14.001  1.00  0.00     0.000 C 
HETATM    8  C8  UNL     1       3.155 -13.680 -12.558  1.00  0.00     0.000 C 
HETATM    9  C9  UNL     1       1.814 -13.946 -11.952  1.00  0.00     0.003 C 
HETATM   10  C10 UNL     1       1.308 -12.827 -11.084  1.00  0.00     0.038 C 
HETATM   11  O1  UNL     1       2.243 -10.699 -11.326  1.00  0.00    -0.364 OA
HETATM   12  C11 UNL     1       1.748  -9.466 -11.009  1.00  0.00     0.085 C 
HETATM   13  C12 UNL     1       2.522  -8.408 -11.747  1.00  0.00     0.043 C 
HETATM   14  C13 UNL     1       3.968  -8.376 -11.273  1.00  0.00     0.006 C 
HETATM   15  C14 UNL     1       4.061  -7.422 -10.127  1.00  0.00     0.032 C 
HETATM   16  C15 UNL     1       3.786  -8.017  -8.794  1.00  0.00     0.118 C 
HETATM   17  C16 UNL     1       3.045  -9.333  -8.861  1.00  0.00     0.035 C 
HETATM   18  C17 UNL     1       1.711  -9.214  -9.517  1.00  0.00     0.045 C 
ENDROOT
BRANCH  16  19
HETATM   19  O2  UNL     1       4.958  -8.229  -8.083  1.00  0.00    -0.396 OA
ATOM     20  H2  UNL     1       4.942  -9.064  -7.630  1.00  0.00     0.210 HD
ENDBRANCH  16  19
TORSDOF 1
ENDMDL
MODEL 3
REMARK VINA RESULT: -7.556995704      1.403      5.228
REMARK  1 active torsions:
REMARK  status: ('A' for Active; 'I' for Inactive)
REMARK    1  A    between atoms: C15_16  and  O2_17 
ROOT
HETATM    1  C1  UNL     1      -1.111  -8.750 -11.145  1.00  0.00     0.017 C 
HETATM    2  C2  UNL     1      -0.103  -9.466 -10.717  1.00  0.00    -0.052 C 
HETATM    3  C3  UNL     1      -0.144 -10.788  -9.988  1.00  0.00     0.074 C 
HETATM    4  C4  UNL     1       1.110 -11.420 -10.569  1.00  0.00     0.066 C 
HETATM    5  C5  UNL     1       0.666 -12.148 -11.818  1.00  0.00     0.038 C 
HETATM    6  C6  UNL     1       1.769 -12.376 -12.798  1.00  0.00     0.003 C 
HETATM    7  C7  UNL     1       2.368 -13.751 -12.483  1.00  0.00     0.000 C 
HETATM    8  C8  UNL     1       3.132 -13.556 -11.168  1.00  0.00     0.000 C 
HETATM    9  C9  UNL     1       2.131 -13.662 -10.064  1.00  0.00     0.003 C 
HETATM   10  C10 UNL     1       1.678 -12.332  -9.526  1.00  0.00     0.038 C 
HETATM   11  O1  UNL     1       2.002 -10.418 -10.826  1.00  0.00    -0.364 OA
HETATM   12  C11 UNL     1       1.368  -9.209 -10.809  1.00  0.00     0.085 C 
HETATM   13  C12 UNL     1       1.629  -8.483 -12.100  1.00  0.00     0.043 C 
HETATM   14  C13 UNL     1       3.106  -8.141 -12.231  1.00  0.00     0.006 C 
HETATM   15  C14 UNL     1       3.329  -6.799 -11.614  1.00  0.00     0.032 C 
HETATM   16  C15 UNL     1       3.608  -6.819 -10.156  1.00  0.00     0.118 C 
HETATM   17  C16 UNL     1       3.191  -8.105  -9.479  1.00  0.00     0.035 C 
HETATM   18  C17 UNL     1       1.729  -8.374  -9.599  1.00  0.00     0.045 C 
ENDROOT
BRANCH  16  19
HETATM   19  O2  UNL     1       4.957  -6.624  -9.896  1.00  0.00    -0.396 OA
ATOM     20  H2  UNL     1       5.459  -6.556 -10.700  1.00  0.00     0.210 HD
ENDBRANCH  16  19
TORSDOF 1
ENDMDL
MODEL 4
REMARK VINA RESULT: -7.331232742      2.420      5.600
REMARK  1 active torsions:
REMARK  status: ('A' for Active; 'I' for Inactive)
REMARK    1  A    between atoms: C15_16  and  O2_17 
ROOT
HETATM    1  C1  UNL     1       1.172  -7.713 -13.313  1.00  0.00     0.017 C 
HETATM    2  C2  UNL     1       0.896  -8.563 -12.358  1.00  0.00    -0.052 C 
HETATM    3  C3  UNL     1       0.783 -10.066 -12.454  1.00  0.00     0.074 C 
HETATM    4  C4  UNL     1       1.335 -10.434 -11.086  1.00  0.00     0.066 C 
HETATM    5  C5  UNL     1       2.828 -10.582 -11.268  1.00  0.00     0.038 C 
HETATM    6  C6  UNL     1       3.602 -10.416 -10.003  1.00  0.00     0.003 C 
HETATM    7  C7  UNL     1       3.767 -11.813  -9.394  1.00  0.00     0.000 C 
HETATM    8  C8  UNL     1       2.371 -12.186  -8.880  1.00  0.00     0.000 C 
HETATM    9  C9  UNL     1       1.602 -12.710 -10.050  1.00  0.00     0.003 C 
HETATM   10  C10 UNL     1       0.665 -11.703 -10.660  1.00  0.00     0.038 C 
HETATM   11  O1  UNL     1       1.001  -9.434 -10.218  1.00  0.00    -0.364 OA
HETATM   12  C11 UNL     1       0.611  -8.323 -10.910  1.00  0.00     0.085 C 
HETATM   13  C12 UNL     1       1.430  -7.141 -10.468  1.00  0.00     0.043 C 
HETATM   14  C13 UNL     1       1.144  -6.808  -9.011  1.00  0.00     0.006 C 
HETATM   15  C14 UNL     1       0.009  -5.837  -8.970  1.00  0.00     0.032 C 
HETATM   16  C15 UNL     1      -1.342  -6.455  -8.946  1.00  0.00     0.118 C 
HETATM   17  C16 UNL     1      -1.355  -7.895  -9.405  1.00  0.00     0.035 C 
HETATM   18  C17 UNL     1      -0.876  -8.060 -10.808  1.00  0.00     0.045 C 
ENDROOT
BRANCH  16  19
HETATM   19  O2  UNL     1      -1.895  -6.412  -7.675  1.00  0.00    -0.396 OA
ATOM     20  H2  UNL     1      -2.491  -7.138  -7.531  1.00  0.00     0.210 HD
ENDBRANCH  16  19
TORSDOF 1
ENDMDL
MODEL 5
REMARK VINA RESULT: -7.086401383      1.794      5.388
REMARK  1 active torsions:
REMARK  status: ('A' for Active; 'I' for Inactive)
REMARK    1  A    between atoms: C15_16  and  O2_17 
ROOT
HETATM    1  C1  UNL     1       0.621  -6.582 -13.156  1.00  0.00     0.017 C 
HETATM    2  C2  UNL     1       0.701  -7.477 -12.205  1.00  0.00    -0.052 C 
HETATM    3  C3  UNL     1      -0.380  -8.409 -11.712  1.00  0.00     0.074 C 
HETATM    4  C4  UNL     1       0.481  -9.617 -11.378  1.00  0.00     0.066 C 
HETATM    5  C5  UNL     1       0.548 -10.440 -12.644  1.00  0.00     0.038 C 
HETATM    6  C6  UNL     1       1.730 -11.350 -12.701  1.00  0.00     0.003 C 
HETATM    7  C7  UNL     1       1.285 -12.696 -12.119  1.00  0.00     0.000 C 
HETATM    8  C8  UNL     1       1.136 -12.444 -10.614  1.00  0.00     0.000 C 
HETATM    9  C9  UNL     1      -0.211 -11.831 -10.407  1.00  0.00     0.003 C 
HETATM   10  C10 UNL     1      -0.177 -10.336 -10.242  1.00  0.00     0.038 C 
HETATM   11  O1  UNL     1       1.703  -9.160 -10.975  1.00  0.00    -0.364 OA
HETATM   12  C11 UNL     1       1.855  -7.850 -11.329  1.00  0.00     0.085 C 
HETATM   13  C12 UNL     1       3.116  -7.687 -12.133  1.00  0.00     0.043 C 
HETATM   14  C13 UNL     1       4.337  -7.999 -11.280  1.00  0.00     0.006 C 
HETATM   15  C14 UNL     1       4.780  -6.733 -10.623  1.00  0.00     0.032 C 
HETATM   16  C15 UNL     1       4.123  -6.441  -9.323  1.00  0.00     0.118 C 
HETATM   17  C16 UNL     1       2.840  -7.210  -9.108  1.00  0.00     0.035 C 
HETATM   18  C17 UNL     1       1.807  -6.912 -10.142  1.00  0.00     0.045 C 
ENDROOT
BRANCH  16  19
HETATM   19  O2  UNL     1       4.965  -6.719  -8.256  1.00  0.00    -0.396 OA
ATOM     20  H2  UNL     1       5.108  -5.950  -7.717  1.00  0.00     0.210 HD
ENDBRANCH  16  19
TORSDOF 1
ENDMDL
