MODEL 1
REMARK VINA RESULT: -5.763603153      0.000      0.000
REMARK  0 active torsions:
REMARK  status: ('A' for Active; 'I' for Inactive)
ROOT
HETATM    1  C1  UNL     1     -29.233   8.715 -16.297  1.00  0.00     0.002 C 
HETATM    2  C2  UNL     1     -28.981   7.693 -17.315  1.00  0.00     0.004 C 
HETATM    3  C3  UNL     1     -29.643   6.310 -17.107  1.00  0.00     0.054 C 
HETATM    4  C4  UNL     1     -28.889   5.709 -16.020  1.00  0.00     0.280 C 
HETATM    5  N1  UNL     1     -29.024   4.511 -15.363  1.00  0.00    -0.396 N 
ATOM      6  H1  UNL     1     -29.727   3.786 -15.506  1.00  0.00     0.155 HD
HETATM    7  C5  UNL     1     -27.902   4.522 -14.399  1.00  0.00     0.116 C 
HETATM    8  C6  UNL     1     -28.023   5.386 -13.229  1.00  0.00     0.021 C 
HETATM    9  C7  UNL     1     -27.594   6.857 -13.398  1.00  0.00     0.035 C 
HETATM   10  C8  UNL     1     -27.969   7.350 -14.729  1.00  0.00     0.188 C 
HETATM   11  C9  UNL     1     -28.285   8.722 -15.079  1.00  0.00     0.033 C 
HETATM   12  N2  UNL     1     -29.201   6.661 -14.977  1.00  0.00    -0.050 N 
ATOM     13  H21 UNL     1     -29.617   6.243 -14.145  1.00  0.00     0.280 HD
ATOM     14  H22 UNL     1     -29.983   7.278 -15.200  1.00  0.00     0.280 HD
ENDROOT
TORSDOF 0
ENDMDL
MODEL 2
REMARK VINA RESULT: -5.446500890      6.012      7.527
REMARK  0 active torsions:
REMARK  status: ('A' for Active; 'I' for Inactive)
ROOT
HETATM    1  C1  UNL     1     -25.992   1.864 -13.646  1.00  0.00     0.002 C 
HETATM    2  C2  UNL     1     -25.311   3.076 -13.188  1.00  0.00     0.004 C 
HETATM    3  C3  UNL     1     -23.990   2.892 -12.405  1.00  0.00     0.054 C 
HETATM    4  C4  UNL     1     -24.406   2.386 -11.108  1.00  0.00     0.280 C 
HETATM    5  N1  UNL     1     -23.690   1.997 -10.002  1.00  0.00    -0.396 N 
ATOM      6  H1  UNL     1     -22.678   1.967  -9.882  1.00  0.00     0.155 HD
HETATM    7  C5  UNL     1     -24.741   1.631  -9.027  1.00  0.00     0.116 C 
HETATM    8  C6  UNL     1     -25.452   0.375  -9.237  1.00  0.00     0.021 C 
HETATM    9  C7  UNL     1     -26.665   0.406 -10.187  1.00  0.00     0.035 C 
HETATM   10  C8  UNL     1     -26.408   1.312 -11.313  1.00  0.00     0.188 C 
HETATM   11  C9  UNL     1     -26.966   1.202 -12.649  1.00  0.00     0.033 C 
HETATM   12  N2  UNL     1     -25.003   1.140 -11.535  1.00  0.00    -0.050 N 
ATOM     13  H21 UNL     1     -24.610   0.315 -11.081  1.00  0.00     0.280 HD
ATOM     14  H22 UNL     1     -24.763   0.871 -12.490  1.00  0.00     0.280 HD
ENDROOT
TORSDOF 0
ENDMDL
MODEL 3
REMARK VINA RESULT: -5.360440385      2.572      3.533
REMARK  0 active torsions:
REMARK  status: ('A' for Active; 'I' for Inactive)
ROOT
HETATM    1  C1  UNL     1     -29.073   5.600 -14.373  1.00  0.00     0.002 C 
HETATM    2  C2  UNL     1     -28.713   4.559 -15.337  1.00  0.00     0.004 C 
HETATM    3  C3  UNL     1     -28.944   3.090 -14.910  1.00  0.00     0.054 C 
HETATM    4  C4  UNL     1     -27.904   2.831 -13.929  1.00  0.00     0.280 C 
HETATM    5  N1  UNL     1     -27.616   1.725 -13.167  1.00  0.00    -0.396 N 
ATOM      6  H1  UNL     1     -28.115   0.836 -13.128  1.00  0.00     0.155 HD
HETATM    7  C5  UNL     1     -26.407   2.132 -12.417  1.00  0.00     0.116 C 
HETATM    8  C6  UNL     1     -26.579   3.073 -11.316  1.00  0.00     0.021 C 
HETATM    9  C7  UNL     1     -26.587   4.573 -11.670  1.00  0.00     0.035 C 
HETATM   10  C8  UNL     1     -27.273   4.793 -12.949  1.00  0.00     0.188 C 
HETATM   11  C9  UNL     1     -27.991   5.991 -13.344  1.00  0.00     0.033 C 
HETATM   12  N2  UNL     1     -28.301   3.794 -12.924  1.00  0.00    -0.050 N 
ATOM     13  H21 UNL     1     -28.462   3.388 -12.002  1.00  0.00     0.280 HD
ATOM     14  H22 UNL     1     -29.242   4.164 -13.054  1.00  0.00     0.280 HD
ENDROOT
TORSDOF 0
ENDMDL
MODEL 4
REMARK VINA RESULT: -5.249791979      1.260      3.302
REMARK  0 active torsions:
REMARK  status: ('A' for Active; 'I' for Inactive)
ROOT
HETATM    1  C1  UNL     1     -26.329   8.715 -13.345  1.00  0.00     0.002 C 
HETATM    2  C2  UNL     1     -27.066   7.723 -12.559  1.00  0.00     0.004 C 
HETATM    3  C3  UNL     1     -27.240   6.317 -13.182  1.00  0.00     0.054 C 
HETATM    4  C4  UNL     1     -28.218   6.510 -14.239  1.00  0.00     0.280 C 
HETATM    5  N1  UNL     1     -28.750   5.645 -15.165  1.00  0.00    -0.396 N 
ATOM      6  H1  UNL     1     -28.534   4.659 -15.307  1.00  0.00     0.155 HD
HETATM    7  C5  UNL     1     -29.713   6.490 -15.906  1.00  0.00     0.116 C 
HETATM    8  C6  UNL     1     -29.174   7.461 -16.851  1.00  0.00     0.021 C 
HETATM    9  C7  UNL     1     -28.756   8.833 -16.285  1.00  0.00     0.035 C 
HETATM   10  C8  UNL     1     -28.153   8.674 -14.956  1.00  0.00     0.188 C 
HETATM   11  C9  UNL     1     -27.152   9.539 -14.358  1.00  0.00     0.033 C 
HETATM   12  N2  UNL     1     -27.467   7.421 -15.074  1.00  0.00    -0.050 N 
ATOM     13  H21 UNL     1     -27.351   7.102 -16.036  1.00  0.00     0.280 HD
ATOM     14  H22 UNL     1     -26.474   7.469 -14.847  1.00  0.00     0.280 HD
ENDROOT
TORSDOF 0
ENDMDL
MODEL 5
REMARK VINA RESULT: -5.248336229      2.033      3.279
REMARK  0 active torsions:
REMARK  status: ('A' for Active; 'I' for Inactive)
ROOT
HETATM    1  C1  UNL     1     -28.673   7.495 -15.842  1.00  0.00     0.002 C 
HETATM    2  C2  UNL     1     -28.535   8.819 -15.233  1.00  0.00     0.004 C 
HETATM    3  C3  UNL     1     -27.107   9.273 -14.845  1.00  0.00     0.054 C 
HETATM    4  C4  UNL     1     -26.779   8.473 -13.678  1.00  0.00     0.280 C 
HETATM    5  N1  UNL     1     -25.643   8.395 -12.909  1.00  0.00    -0.396 N 
ATOM      6  H1  UNL     1     -24.762   8.894 -13.030  1.00  0.00     0.155 HD
HETATM    7  C5  UNL     1     -26.005   7.414 -11.862  1.00  0.00     0.116 C 
HETATM    8  C6  UNL     1     -26.065   6.008 -12.245  1.00  0.00     0.021 C 
HETATM    9  C7  UNL     1     -27.387   5.502 -12.855  1.00  0.00     0.035 C 
HETATM   10  C8  UNL     1     -27.978   6.533 -13.717  1.00  0.00     0.188 C 
HETATM   11  C9  UNL     1     -28.826   6.303 -14.873  1.00  0.00     0.033 C 
HETATM   12  N2  UNL     1     -26.822   7.162 -14.286  1.00  0.00    -0.050 N 
ATOM     13  H21 UNL     1     -25.962   6.624 -14.174  1.00  0.00     0.280 HD
ATOM     14  H22 UNL     1     -26.818   7.177 -15.306  1.00  0.00     0.280 HD
ENDROOT
TORSDOF 0
ENDMDL
