MODEL 1
REMARK VINA RESULT: -5.224124370      0.000      0.000
REMARK  0 active torsions:
REMARK  status: ('A' for Active; 'I' for Inactive)
ROOT
HETATM    1  C1  UNL     1     -24.441   4.008 -13.941  1.00  0.00     0.071 C 
HETATM    2  C2  UNL     1     -25.799   3.664 -13.381  1.00  0.00     0.322 C 
HETATM    3  N1  UNL     1     -25.814   3.602 -11.938  1.00  0.00    -0.024 N 
ATOM      4  H11 UNL     1     -25.662   4.511 -11.501  1.00  0.00     0.283 HD
ATOM      5  H12 UNL     1     -24.996   3.128 -11.554  1.00  0.00     0.283 HD
HETATM    6  C3  UNL     1     -27.050   2.991 -11.536  1.00  0.00     0.191 C 
HETATM    7  C4  UNL     1     -27.233   3.314 -10.045  1.00  0.00     0.070 C 
HETATM    8  C5  UNL     1     -26.971   1.465 -11.578  1.00  0.00     0.070 C 
HETATM    9  N2  UNL     1     -28.197   3.403 -12.239  1.00  0.00    -0.361 N 
ATOM     10  H2  UNL     1     -29.129   3.254 -11.851  1.00  0.00     0.158 HD
HETATM   11  C6  UNL     1     -28.028   4.025 -13.490  1.00  0.00     0.127 C 
HETATM   12  C7  UNL     1     -28.413   3.124 -14.672  1.00  0.00     0.070 C 
HETATM   13  C8  UNL     1     -29.023   5.195 -13.571  1.00  0.00     0.070 C 
HETATM   14  O1  UNL     1     -26.791   4.538 -13.766  1.00  0.00    -0.330 OA
ENDROOT
TORSDOF 0
ENDMDL
MODEL 2
REMARK VINA RESULT: -5.108200965      1.198      3.251
REMARK  0 active torsions:
REMARK  status: ('A' for Active; 'I' for Inactive)
ROOT
HETATM    1  C1  UNL     1     -24.045   4.497 -12.768  1.00  0.00     0.071 C 
HETATM    2  C2  UNL     1     -25.483   4.066 -12.622  1.00  0.00     0.322 C 
HETATM    3  N1  UNL     1     -26.178   3.984 -13.885  1.00  0.00    -0.024 N 
ATOM      4  H11 UNL     1     -25.824   3.237 -14.483  1.00  0.00     0.283 HD
ATOM      5  H12 UNL     1     -25.966   4.766 -14.505  1.00  0.00     0.283 HD
HETATM    6  C3  UNL     1     -27.582   3.857 -13.608  1.00  0.00     0.191 C 
HETATM    7  C4  UNL     1     -28.239   3.355 -14.903  1.00  0.00     0.070 C 
HETATM    8  C5  UNL     1     -28.238   5.216 -13.362  1.00  0.00     0.070 C 
HETATM    9  N2  UNL     1     -27.926   2.992 -12.553  1.00  0.00    -0.361 N 
ATOM     10  H2  UNL     1     -28.872   2.621 -12.469  1.00  0.00     0.158 HD
HETATM   11  C6  UNL     1     -26.933   2.652 -11.616  1.00  0.00     0.127 C 
HETATM   12  C7  UNL     1     -27.119   3.342 -10.257  1.00  0.00     0.070 C 
HETATM   13  C8  UNL     1     -27.078   1.154 -11.299  1.00  0.00     0.070 C 
HETATM   14  O1  UNL     1     -25.632   2.851 -11.989  1.00  0.00    -0.330 OA
ENDROOT
TORSDOF 0
ENDMDL
MODEL 3
REMARK VINA RESULT: -5.094871191      0.826      3.062
REMARK  0 active torsions:
REMARK  status: ('A' for Active; 'I' for Inactive)
ROOT
HETATM    1  C1  UNL     1     -28.978   5.178 -13.580  1.00  0.00     0.071 C 
HETATM    2  C2  UNL     1     -27.762   4.594 -12.905  1.00  0.00     0.322 C 
HETATM    3  N1  UNL     1     -27.978   3.252 -12.416  1.00  0.00    -0.024 N 
ATOM      4  H11 UNL     1     -28.111   2.575 -13.167  1.00  0.00     0.283 HD
ATOM      5  H12 UNL     1     -28.886   3.137 -11.966  1.00  0.00     0.283 HD
HETATM    6  C3  UNL     1     -26.880   2.916 -11.552  1.00  0.00     0.191 C 
HETATM    7  C4  UNL     1     -26.903   1.388 -11.391  1.00  0.00     0.070 C 
HETATM    8  C5  UNL     1     -27.093   3.442 -10.132  1.00  0.00     0.070 C 
HETATM    9  N2  UNL     1     -25.605   3.312 -11.994  1.00  0.00    -0.361 N 
ATOM     10  H2  UNL     1     -24.763   2.881 -11.612  1.00  0.00     0.158 HD
HETATM   11  C6  UNL     1     -25.519   4.317 -12.976  1.00  0.00     0.127 C 
HETATM   12  C7  UNL     1     -25.039   5.666 -12.422  1.00  0.00     0.070 C 
HETATM   13  C8  UNL     1     -24.420   3.909 -13.972  1.00  0.00     0.070 C 
HETATM   14  O1  UNL     1     -26.645   4.565 -13.711  1.00  0.00    -0.330 OA
ENDROOT
TORSDOF 0
ENDMDL
MODEL 4
REMARK VINA RESULT: -5.047934713      1.620      3.372
REMARK  0 active torsions:
REMARK  status: ('A' for Active; 'I' for Inactive)
ROOT
HETATM    1  C1  UNL     1     -27.360   3.220  -9.772  1.00  0.00     0.071 C 
HETATM    2  C2  UNL     1     -26.999   3.587 -11.190  1.00  0.00     0.322 C 
HETATM    3  N1  UNL     1     -28.128   3.537 -12.090  1.00  0.00    -0.024 N 
ATOM      4  H11 UNL     1     -28.826   4.253 -11.889  1.00  0.00     0.283 HD
ATOM      5  H12 UNL     1     -28.721   2.722 -11.936  1.00  0.00     0.283 HD
HETATM    6  C3  UNL     1     -27.624   3.613 -13.434  1.00  0.00     0.191 C 
HETATM    7  C4  UNL     1     -28.818   3.981 -14.328  1.00  0.00     0.070 C 
HETATM    8  C5  UNL     1     -27.179   2.245 -13.952  1.00  0.00     0.070 C 
HETATM    9  N2  UNL     1     -26.586   4.538 -13.650  1.00  0.00    -0.361 N 
ATOM     10  H2  UNL     1     -26.367   4.866 -14.591  1.00  0.00     0.158 HD
HETATM   11  C6  UNL     1     -25.857   4.999 -12.538  1.00  0.00     0.127 C 
HETATM   12  C7  UNL     1     -24.443   4.406 -12.452  1.00  0.00     0.070 C 
HETATM   13  C8  UNL     1     -25.621   6.507 -12.723  1.00  0.00     0.070 C 
HETATM   14  O1  UNL     1     -26.433   4.838 -11.309  1.00  0.00    -0.330 OA
ENDROOT
TORSDOF 0
ENDMDL
MODEL 5
REMARK VINA RESULT: -5.005251806      4.811      6.208
REMARK  0 active torsions:
REMARK  status: ('A' for Active; 'I' for Inactive)
ROOT
HETATM    1  C1  UNL     1     -28.657   7.838 -15.423  1.00  0.00     0.071 C 
HETATM    2  C2  UNL     1     -27.295   8.067 -14.817  1.00  0.00     0.322 C 
HETATM    3  N1  UNL     1     -26.909   9.458 -14.806  1.00  0.00    -0.024 N 
ATOM      4  H11 UNL     1     -27.484  10.023 -14.180  1.00  0.00     0.283 HD
ATOM      5  H12 UNL     1     -27.141   9.940 -15.675  1.00  0.00     0.283 HD
HETATM    6  C3  UNL     1     -25.509   9.525 -14.488  1.00  0.00     0.191 C 
HETATM    7  C4  UNL     1     -25.225  10.976 -14.071  1.00  0.00     0.070 C 
HETATM    8  C5  UNL     1     -24.635   9.316 -15.725  1.00  0.00     0.070 C 
HETATM    9  N2  UNL     1     -25.067   8.660 -13.471  1.00  0.00    -0.361 N 
ATOM     10  H2  UNL     1     -24.185   8.830 -12.987  1.00  0.00     0.158 HD
HETATM   11  C6  UNL     1     -25.870   7.553 -13.137  1.00  0.00     0.127 C 
HETATM   12  C7  UNL     1     -25.299   6.218 -13.636  1.00  0.00     0.070 C 
HETATM   13  C8  UNL     1     -25.867   7.414 -11.606  1.00  0.00     0.070 C 
HETATM   14  O1  UNL     1     -27.180   7.597 -13.527  1.00  0.00    -0.330 OA
ENDROOT
TORSDOF 0
ENDMDL
