MODEL 1
REMARK VINA RESULT: -10.641457518      0.000      0.000
REMARK  5 active torsions:
REMARK  status: ('A' for Active; 'I' for Inactive)
REMARK    1  A    between atoms: N1_22  and  C20_23 
REMARK    2  A    between atoms: C20_23  and  C21_24 
REMARK    3  A    between atoms: C27_30  and  C28_31 
REMARK       I    between atoms: C28_31  and  N2_33 
REMARK    4  A    between atoms: N2_33  and  C29_35 
REMARK    5  A    between atoms: C29_35  and  C30_36 
ROOT
HETATM    1  C1  UNL     1     137.851  83.128  65.913  1.00  0.00     0.018 C 
HETATM    2  C2  UNL     1     138.588  84.423  65.918  1.00  0.00    -0.002 C 
HETATM    3  C3  UNL     1     139.895  84.192  66.692  1.00  0.00     0.018 C 
HETATM    4  C4  UNL     1     137.810  85.539  66.568  1.00  0.00     0.036 C 
HETATM    5  C5  UNL     1     136.458  85.167  67.050  1.00  0.00     0.086 C 
HETATM    6  C6  UNL     1     135.537  86.325  66.988  1.00  0.00     0.137 C 
HETATM    7  O1  UNL     1     134.475  86.167  67.591  1.00  0.00    -0.297 OA
HETATM    8  C7  UNL     1     135.739  87.609  66.305  1.00  0.00     0.033 C 
HETATM    9  C8  UNL     1     134.868  87.706  65.040  1.00  0.00     0.025 C 
HETATM   10  C9  UNL     1     137.202  87.838  65.910  1.00  0.00     0.036 C 
HETATM   11  C10 UNL     1     138.008  88.504  66.929  1.00  0.00     0.008 C 
HETATM   12  C11 UNL     1     137.448  88.872  68.243  1.00  0.00     0.006 C 
HETATM   13  C12 UNL     1     136.014  88.584  68.479  1.00  0.00     0.006 C 
HETATM   14  C13 UNL     1     135.467  89.591  69.496  1.00  0.00     0.088 C 
HETATM   15  C14 UNL     1     135.169  90.882  68.813  1.00  0.00     0.149 C 
HETATM   16  O2  UNL     1     134.626  91.784  69.492  1.00  0.00    -0.293 OA
HETATM   17  C15 UNL     1     135.489  91.105  67.408  1.00  0.00     0.047 C 
HETATM   18  C16 UNL     1     135.536  90.057  66.613  1.00  0.00    -0.012 C 
HETATM   19  C17 UNL     1     135.259  88.722  67.206  1.00  0.00    -0.008 C 
HETATM   20  C18 UNL     1     133.770  88.649  67.414  1.00  0.00     0.021 C 
HETATM   21  C19 UNL     1     137.658  86.492  65.429  1.00  0.00     0.234 C 
HETATM   22  N1  UNL     1     138.740  86.381  64.547  1.00  0.00     0.108 N 
HETATM   23  C27 UNL     1     138.991  84.939  64.557  1.00  0.00     0.322 C 
ENDROOT
BRANCH  22  24
HETATM   24  C20 UNL     1     139.891  87.172  64.760  1.00  0.00     0.278 C 
BRANCH  24  25
HETATM   25  C21 UNL     1     139.758  88.508  64.065  1.00  0.00     0.014 C 
HETATM   26  C22 UNL     1     140.567  89.601  64.775  1.00  0.00     0.006 C 
HETATM   27  C23 UNL     1     141.981  89.498  64.284  1.00  0.00     0.000 C 
HETATM   28  C24 UNL     1     142.129  90.073  62.872  1.00  0.00     0.000 C 
HETATM   29  C25 UNL     1     140.809  89.794  62.174  1.00  0.00     0.000 C 
HETATM   30  C26 UNL     1     140.338  88.443  62.650  1.00  0.00     0.006 C 
ENDBRANCH  24  25
ENDBRANCH  22  24
BRANCH  23  31
HETATM   31  C28 UNL     1     138.221  84.343  63.438  1.00  0.00     0.252 C 
HETATM   32  O3  UNL     1     137.031  84.702  63.140  1.00  0.00    -0.271 OA
HETATM   33  N2  UNL     1     138.746  83.318  62.594  1.00  0.00    -0.353 N 
ATOM     34  H2  UNL     1     139.694  82.990  62.779  1.00  0.00     0.162 HD
BRANCH  33  35
HETATM   35  C29 UNL     1     138.036  82.721  61.512  1.00  0.00     0.192 C 
BRANCH  35  36
HETATM   36  C30 UNL     1     138.167  83.551  60.292  1.00  0.00     0.250 C 
HETATM   37  O4  UNL     1     138.849  83.162  59.371  1.00  0.00    -0.305 OA
ENDBRANCH  35  36
ENDBRANCH  33  35
ENDBRANCH  23  31
TORSDOF 5
ENDMDL
MODEL 2
REMARK VINA RESULT: -9.704362254      0.997      1.235
REMARK  5 active torsions:
REMARK  status: ('A' for Active; 'I' for Inactive)
REMARK    1  A    between atoms: N1_22  and  C20_23 
REMARK    2  A    between atoms: C20_23  and  C21_24 
REMARK    3  A    between atoms: C27_30  and  C28_31 
REMARK       I    between atoms: C28_31  and  N2_33 
REMARK    4  A    between atoms: N2_33  and  C29_35 
REMARK    5  A    between atoms: C29_35  and  C30_36 
ROOT
HETATM    1  C1  UNL     1     137.977  83.959  65.366  1.00  0.00     0.018 C 
HETATM    2  C2  UNL     1     138.430  85.379  65.401  1.00  0.00    -0.002 C 
HETATM    3  C3  UNL     1     139.884  85.372  65.900  1.00  0.00     0.018 C 
HETATM    4  C4  UNL     1     137.592  86.240  66.310  1.00  0.00     0.036 C 
HETATM    5  C5  UNL     1     136.462  85.546  66.973  1.00  0.00     0.086 C 
HETATM    6  C6  UNL     1     135.337  86.477  67.217  1.00  0.00     0.137 C 
HETATM    7  O1  UNL     1     134.467  86.043  67.972  1.00  0.00    -0.297 OA
HETATM    8  C7  UNL     1     135.144  87.827  66.673  1.00  0.00     0.033 C 
HETATM    9  C8  UNL     1     134.038  87.839  65.602  1.00  0.00     0.025 C 
HETATM   10  C9  UNL     1     136.425  88.400  66.058  1.00  0.00     0.036 C 
HETATM   11  C10 UNL     1     137.269  89.137  66.995  1.00  0.00     0.008 C 
HETATM   12  C11 UNL     1     136.919  89.263  68.422  1.00  0.00     0.006 C 
HETATM   13  C12 UNL     1     135.645  88.652  68.869  1.00  0.00     0.006 C 
HETATM   14  C13 UNL     1     135.121  89.428  70.082  1.00  0.00     0.088 C 
HETATM   15  C14 UNL     1     134.446  90.676  69.626  1.00  0.00     0.149 C 
HETATM   16  O2  UNL     1     133.881  91.379  70.497  1.00  0.00    -0.293 OA
HETATM   17  C15 UNL     1     134.433  91.080  68.226  1.00  0.00     0.047 C 
HETATM   18  C16 UNL     1     134.528  90.138  67.312  1.00  0.00    -0.012 C 
HETATM   19  C17 UNL     1     134.641  88.730  67.774  1.00  0.00    -0.008 C 
HETATM   20  C18 UNL     1     133.266  88.319  68.229  1.00  0.00     0.021 C 
HETATM   21  C19 UNL     1     137.034  87.231  65.343  1.00  0.00     0.234 C 
HETATM   22  N1  UNL     1     137.921  87.431  64.277  1.00  0.00     0.108 N 
HETATM   23  C27 UNL     1     138.448  86.082  64.065  1.00  0.00     0.322 C 
ENDROOT
BRANCH  22  24
HETATM   24  C20 UNL     1     138.912  88.431  64.382  1.00  0.00     0.278 C 
BRANCH  24  25
HETATM   25  C21 UNL     1     140.139  88.054  63.584  1.00  0.00     0.014 C 
HETATM   26  C22 UNL     1     140.265  88.890  62.303  1.00  0.00     0.006 C 
HETATM   27  C23 UNL     1     140.921  90.185  62.680  1.00  0.00     0.000 C 
HETATM   28  C24 UNL     1     142.425  90.008  62.909  1.00  0.00     0.000 C 
HETATM   29  C25 UNL     1     142.592  88.605  63.470  1.00  0.00     0.000 C 
HETATM   30  C26 UNL     1     141.414  88.352  64.376  1.00  0.00     0.006 C 
ENDBRANCH  24  25
ENDBRANCH  22  24
BRANCH  23  31
HETATM   31  C28 UNL     1     137.605  85.430  63.034  1.00  0.00     0.252 C 
HETATM   32  O3  UNL     1     136.344  85.621  62.939  1.00  0.00    -0.271 OA
HETATM   33  N2  UNL     1     138.131  84.534  62.054  1.00  0.00    -0.353 N 
ATOM     34  H2  UNL     1     139.133  84.343  62.075  1.00  0.00     0.162 HD
BRANCH  33  35
HETATM   35  C29 UNL     1     137.353  83.888  61.050  1.00  0.00     0.192 C 
BRANCH  35  36
HETATM   36  C30 UNL     1     138.189  82.930  60.290  1.00  0.00     0.250 C 
HETATM   37  O4  UNL     1     138.873  83.326  59.374  1.00  0.00    -0.305 OA
ENDBRANCH  35  36
ENDBRANCH  33  35
ENDBRANCH  23  31
TORSDOF 5
ENDMDL
MODEL 3
REMARK VINA RESULT: -9.609549545      3.008      5.878
REMARK  5 active torsions:
REMARK  status: ('A' for Active; 'I' for Inactive)
REMARK    1  A    between atoms: N1_22  and  C20_23 
REMARK    2  A    between atoms: C20_23  and  C21_24 
REMARK    3  A    between atoms: C27_30  and  C28_31 
REMARK       I    between atoms: C28_31  and  N2_33 
REMARK    4  A    between atoms: N2_33  and  C29_35 
REMARK    5  A    between atoms: C29_35  and  C30_36 
ROOT
HETATM    1  C1  UNL     1     138.925  83.778  64.106  1.00  0.00     0.018 C 
HETATM    2  C2  UNL     1     137.942  84.649  64.811  1.00  0.00    -0.002 C 
HETATM    3  C3  UNL     1     137.273  83.786  65.892  1.00  0.00     0.018 C 
HETATM    4  C4  UNL     1     136.888  85.209  63.891  1.00  0.00     0.036 C 
HETATM    5  C5  UNL     1     137.028  84.828  62.465  1.00  0.00     0.086 C 
HETATM    6  C6  UNL     1     136.499  85.890  61.579  1.00  0.00     0.137 C 
HETATM    7  O1  UNL     1     136.357  85.552  60.404  1.00  0.00    -0.297 OA
HETATM    8  C7  UNL     1     136.132  87.267  61.932  1.00  0.00     0.033 C 
HETATM    9  C8  UNL     1     137.168  88.271  61.394  1.00  0.00     0.025 C 
HETATM   10  C9  UNL     1     135.998  87.467  63.446  1.00  0.00     0.036 C 
HETATM   11  C10 UNL     1     134.662  87.209  63.975  1.00  0.00     0.008 C 
HETATM   12  C11 UNL     1     133.560  86.748  63.110  1.00  0.00     0.006 C 
HETATM   13  C12 UNL     1     133.845  86.598  61.664  1.00  0.00     0.006 C 
HETATM   14  C13 UNL     1     132.545  86.809  60.879  1.00  0.00     0.088 C 
HETATM   15  C14 UNL     1     132.270  88.268  60.748  1.00  0.00     0.149 C 
HETATM   16  O2  UNL     1     131.287  88.610  60.050  1.00  0.00    -0.293 OA
HETATM   17  C15 UNL     1     133.101  89.273  61.398  1.00  0.00     0.047 C 
HETATM   18  C16 UNL     1     134.357  88.969  61.645  1.00  0.00    -0.012 C 
HETATM   19  C17 UNL     1     134.837  87.621  61.241  1.00  0.00    -0.008 C 
HETATM   20  C18 UNL     1     135.013  87.662  59.746  1.00  0.00     0.021 C 
HETATM   21  C19 UNL     1     137.138  86.675  64.015  1.00  0.00     0.234 C 
HETATM   22  N1  UNL     1     137.657  86.980  65.280  1.00  0.00     0.108 N 
HETATM   23  C27 UNL     1     138.536  85.837  65.530  1.00  0.00     0.322 C 
ENDROOT
BRANCH  22  24
HETATM   24  C20 UNL     1     136.769  87.273  66.338  1.00  0.00     0.278 C 
BRANCH  24  25
HETATM   25  C21 UNL     1     137.056  88.641  66.914  1.00  0.00     0.014 C 
HETATM   26  C22 UNL     1     136.201  89.728  66.249  1.00  0.00     0.006 C 
HETATM   27  C23 UNL     1     134.868  89.729  66.937  1.00  0.00     0.000 C 
HETATM   28  C24 UNL     1     134.946  90.398  68.313  1.00  0.00     0.000 C 
HETATM   29  C25 UNL     1     136.339  90.096  68.838  1.00  0.00     0.000 C 
HETATM   30  C26 UNL     1     136.680  88.695  68.396  1.00  0.00     0.006 C 
ENDBRANCH  24  25
ENDBRANCH  22  24
BRANCH  23  31
HETATM   31  C28 UNL     1     139.893  86.205  65.059  1.00  0.00     0.252 C 
HETATM   32  O3  UNL     1     140.896  85.416  65.131  1.00  0.00    -0.271 OA
HETATM   33  N2  UNL     1     140.195  87.476  64.480  1.00  0.00    -0.353 N 
ATOM     34  H2  UNL     1     139.435  88.150  64.391  1.00  0.00     0.162 HD
BRANCH  33  35
HETATM   35  C29 UNL     1     141.486  87.866  64.018  1.00  0.00     0.192 C 
BRANCH  35  36
HETATM   36  C30 UNL     1     141.371  89.002  63.074  1.00  0.00     0.250 C 
HETATM   37  O4  UNL     1     140.528  88.979  62.206  1.00  0.00    -0.305 OA
ENDBRANCH  35  36
ENDBRANCH  33  35
ENDBRANCH  23  31
TORSDOF 5
ENDMDL
MODEL 4
REMARK VINA RESULT: -9.246368460      2.346      4.785
REMARK  5 active torsions:
REMARK  status: ('A' for Active; 'I' for Inactive)
REMARK    1  A    between atoms: N1_22  and  C20_23 
REMARK    2  A    between atoms: C20_23  and  C21_24 
REMARK    3  A    between atoms: C27_30  and  C28_31 
REMARK       I    between atoms: C28_31  and  N2_33 
REMARK    4  A    between atoms: N2_33  and  C29_35 
REMARK    5  A    between atoms: C29_35  and  C30_36 
ROOT
HETATM    1  C1  UNL     1     139.036  86.636  63.994  1.00  0.00     0.018 C 
HETATM    2  C2  UNL     1     137.705  87.271  63.778  1.00  0.00    -0.002 C 
HETATM    3  C3  UNL     1     137.854  88.230  62.587  1.00  0.00     0.018 C 
HETATM    4  C4  UNL     1     137.218  88.037  64.981  1.00  0.00     0.036 C 
HETATM    5  C5  UNL     1     138.116  87.999  66.160  1.00  0.00     0.086 C 
HETATM    6  C6  UNL     1     137.343  88.098  67.419  1.00  0.00     0.137 C 
HETATM    7  O1  UNL     1     138.023  88.316  68.421  1.00  0.00    -0.297 OA
HETATM    8  C7  UNL     1     135.892  87.969  67.605  1.00  0.00     0.033 C 
HETATM    9  C8  UNL     1     135.538  86.634  68.282  1.00  0.00     0.025 C 
HETATM   10  C9  UNL     1     135.121  88.067  66.283  1.00  0.00     0.036 C 
HETATM   11  C10 UNL     1     134.731  89.423  65.909  1.00  0.00     0.008 C 
HETATM   12  C11 UNL     1     135.103  90.592  66.727  1.00  0.00     0.006 C 
HETATM   13  C12 UNL     1     135.852  90.338  67.980  1.00  0.00     0.006 C 
HETATM   14  C13 UNL     1     135.543  91.459  68.978  1.00  0.00     0.088 C 
HETATM   15  C14 UNL     1     134.226  91.202  69.628  1.00  0.00     0.149 C 
HETATM   16  O2  UNL     1     133.871  91.984  70.542  1.00  0.00    -0.293 OA
HETATM   17  C15 UNL     1     133.372  90.090  69.232  1.00  0.00     0.047 C 
HETATM   18  C16 UNL     1     133.946  89.027  68.710  1.00  0.00    -0.012 C 
HETATM   19  C17 UNL     1     135.425  89.038  68.563  1.00  0.00    -0.008 C 
HETATM   20  C18 UNL     1     135.991  88.818  69.941  1.00  0.00     0.021 C 
HETATM   21  C19 UNL     1     135.968  87.292  65.317  1.00  0.00     0.234 C 
HETATM   22  N1  UNL     1     135.402  86.735  64.163  1.00  0.00     0.108 N 
HETATM   23  C27 UNL     1     136.590  86.319  63.415  1.00  0.00     0.322 C 
ENDROOT
BRANCH  22  24
HETATM   24  C20 UNL     1     134.479  87.493  63.410  1.00  0.00     0.278 C 
BRANCH  24  25
HETATM   25  C21 UNL     1     133.104  86.865  63.460  1.00  0.00     0.014 C 
HETATM   26  C22 UNL     1     132.031  87.878  63.882  1.00  0.00     0.006 C 
HETATM   27  C23 UNL     1     131.628  88.638  62.653  1.00  0.00     0.000 C 
HETATM   28  C24 UNL     1     130.719  87.800  61.748  1.00  0.00     0.000 C 
HETATM   29  C25 UNL     1     131.174  86.361  61.927  1.00  0.00     0.000 C 
HETATM   30  C26 UNL     1     132.675  86.390  62.071  1.00  0.00     0.006 C 
ENDBRANCH  24  25
ENDBRANCH  22  24
BRANCH  23  31
HETATM   31  C28 UNL     1     136.869  84.907  63.769  1.00  0.00     0.252 C 
HETATM   32  O3  UNL     1     136.782  84.455  64.962  1.00  0.00    -0.271 OA
HETATM   33  N2  UNL     1     137.256  83.926  62.805  1.00  0.00    -0.353 N 
ATOM     34  H2  UNL     1     137.339  84.224  61.833  1.00  0.00     0.162 HD
BRANCH  33  35
HETATM   35  C29 UNL     1     137.533  82.561  63.107  1.00  0.00     0.192 C 
BRANCH  35  36
HETATM   36  C30 UNL     1     138.973  82.384  63.405  1.00  0.00     0.250 C 
HETATM   37  O4  UNL     1     139.795  82.599  62.543  1.00  0.00    -0.305 OA
ENDBRANCH  35  36
ENDBRANCH  33  35
ENDBRANCH  23  31
TORSDOF 5
ENDMDL
MODEL 5
REMARK VINA RESULT: -9.172821288      2.379      5.075
REMARK  5 active torsions:
REMARK  status: ('A' for Active; 'I' for Inactive)
REMARK    1  A    between atoms: N1_22  and  C20_23 
REMARK    2  A    between atoms: C20_23  and  C21_24 
REMARK    3  A    between atoms: C27_30  and  C28_31 
REMARK       I    between atoms: C28_31  and  N2_33 
REMARK    4  A    between atoms: N2_33  and  C29_35 
REMARK    5  A    between atoms: C29_35  and  C30_36 
ROOT
HETATM    1  C1  UNL     1     139.032  86.584  63.961  1.00  0.00     0.018 C 
HETATM    2  C2  UNL     1     137.703  87.223  63.744  1.00  0.00    -0.002 C 
HETATM    3  C3  UNL     1     137.857  88.182  62.553  1.00  0.00     0.018 C 
HETATM    4  C4  UNL     1     137.217  87.990  64.946  1.00  0.00     0.036 C 
HETATM    5  C5  UNL     1     138.114  87.948  66.127  1.00  0.00     0.086 C 
HETATM    6  C6  UNL     1     137.339  88.050  67.384  1.00  0.00     0.137 C 
HETATM    7  O1  UNL     1     138.018  88.265  68.388  1.00  0.00    -0.297 OA
HETATM    8  C7  UNL     1     135.888  87.925  67.568  1.00  0.00     0.033 C 
HETATM    9  C8  UNL     1     135.528  86.590  68.244  1.00  0.00     0.025 C 
HETATM   10  C9  UNL     1     135.119  88.026  66.246  1.00  0.00     0.036 C 
HETATM   11  C10 UNL     1     134.734  89.384  65.871  1.00  0.00     0.008 C 
HETATM   12  C11 UNL     1     135.108  90.551  66.691  1.00  0.00     0.006 C 
HETATM   13  C12 UNL     1     135.854  90.294  67.944  1.00  0.00     0.006 C 
HETATM   14  C13 UNL     1     135.547  91.415  68.943  1.00  0.00     0.088 C 
HETATM   15  C14 UNL     1     134.229  91.163  69.591  1.00  0.00     0.149 C 
HETATM   16  O2  UNL     1     133.875  91.945  70.504  1.00  0.00    -0.293 OA
HETATM   17  C15 UNL     1     133.372  90.054  69.193  1.00  0.00     0.047 C 
HETATM   18  C16 UNL     1     133.943  88.989  68.671  1.00  0.00    -0.012 C 
HETATM   19  C17 UNL     1     135.423  88.996  68.527  1.00  0.00    -0.008 C 
HETATM   20  C18 UNL     1     135.986  88.773  69.905  1.00  0.00     0.021 C 
HETATM   21  C19 UNL     1     135.965  87.249  65.280  1.00  0.00     0.234 C 
HETATM   22  N1  UNL     1     135.399  86.694  64.125  1.00  0.00     0.108 N 
HETATM   23  C27 UNL     1     136.586  86.275  63.378  1.00  0.00     0.322 C 
ENDROOT
BRANCH  22  24
HETATM   24  C20 UNL     1     134.479  87.456  63.371  1.00  0.00     0.278 C 
BRANCH  24  25
HETATM   25  C21 UNL     1     133.096  86.849  63.445  1.00  0.00     0.014 C 
HETATM   26  C22 UNL     1     132.045  87.881  63.877  1.00  0.00     0.006 C 
HETATM   27  C23 UNL     1     131.635  88.641  62.650  1.00  0.00     0.000 C 
HETATM   28  C24 UNL     1     130.700  87.813  61.763  1.00  0.00     0.000 C 
HETATM   29  C25 UNL     1     131.135  86.368  61.943  1.00  0.00     0.000 C 
HETATM   30  C26 UNL     1     132.638  86.374  62.064  1.00  0.00     0.006 C 
ENDBRANCH  24  25
ENDBRANCH  22  24
BRANCH  23  31
HETATM   31  C28 UNL     1     136.860  84.862  63.732  1.00  0.00     0.252 C 
HETATM   32  O3  UNL     1     136.923  83.924  62.866  1.00  0.00    -0.271 OA
HETATM   33  N2  UNL     1     137.081  84.426  65.075  1.00  0.00    -0.353 N 
ATOM     34  H2  UNL     1     137.047  85.129  65.813  1.00  0.00     0.162 HD
BRANCH  33  35
HETATM   35  C29 UNL     1     137.345  83.078  65.454  1.00  0.00     0.192 C 
BRANCH  35  36
HETATM   36  C30 UNL     1     138.346  83.038  66.545  1.00  0.00     0.250 C 
HETATM   37  O4  UNL     1     137.999  83.244  67.686  1.00  0.00    -0.305 OA
ENDBRANCH  35  36
ENDBRANCH  33  35
ENDBRANCH  23  31
TORSDOF 5
ENDMDL
