MODEL 1
REMARK VINA RESULT: -10.789258712      0.000      0.000
REMARK  5 active torsions:
REMARK  status: ('A' for Active; 'I' for Inactive)
REMARK    1  A    between atoms: C1_2  and  C2_3 
REMARK       I    between atoms: C1_2  and  N2_10 
REMARK    2  A    between atoms: C2_3  and  N1_4 
REMARK    3  A    between atoms: N2_10  and  C8_12 
REMARK    4  A    between atoms: C11_15  and  C12_16 
REMARK    5  A    between atoms: C12_16  and  N3_17 
ROOT
HETATM    1  N3  UNL     1     135.199  89.308  68.910  1.00  0.00    -0.393 N 
HETATM    2  C13 UNL     1     136.535  89.615  68.573  1.00  0.00     0.123 C 
HETATM    3  C14 UNL     1     137.302  88.404  68.047  1.00  0.00     0.034 C 
HETATM    4  C15 UNL     1     136.618  87.779  66.885  1.00  0.00    -0.010 C 
HETATM    5  C16 UNL     1     136.587  88.738  65.711  1.00  0.00     0.015 C 
HETATM    6  C17 UNL     1     135.831  88.161  64.541  1.00  0.00     0.006 C 
HETATM    7  C18 UNL     1     135.798  86.672  64.523  1.00  0.00     0.039 C 
HETATM    8  C19 UNL     1     136.936  86.032  65.217  1.00  0.00    -0.048 A 
HETATM    9  C20 UNL     1     137.597  84.935  64.755  1.00  0.00     0.047 A 
HETATM   10  C21 UNL     1     138.662  84.376  65.446  1.00  0.00     0.105 A 
HETATM   11  C22 UNL     1     139.099  84.912  66.641  1.00  0.00     0.105 A 
HETATM   12  C23 UNL     1     138.425  86.024  67.103  1.00  0.00     0.048 A 
HETATM   13  C24 UNL     1     137.365  86.587  66.423  1.00  0.00    -0.040 A 
HETATM   14  O2  UNL     1     140.176  84.144  67.099  1.00  0.00    -0.323 OA
HETATM   15  C25 UNL     1     140.160  82.894  66.401  1.00  0.00     0.352 C 
HETATM   16  O3  UNL     1     139.484  83.285  65.197  1.00  0.00    -0.323 OA
HETATM   17  C26 UNL     1     135.212  87.418  67.314  1.00  0.00     0.034 C 
HETATM   18  C27 UNL     1     134.922  87.910  68.714  1.00  0.00     0.123 C 
ENDROOT
BRANCH   1  19
HETATM   19  C12 UNL     1     134.182  90.180  68.476  1.00  0.00     0.062 C 
BRANCH  19  20
HETATM   20  C11 UNL     1     134.535  91.443  67.807  1.00  0.00     0.024 C 
HETATM   21  C10 UNL     1     133.669  92.585  68.208  1.00  0.00     0.012 C 
HETATM   22  C9  UNL     1     134.221  93.902  67.600  1.00  0.00     0.026 C 
HETATM   23  C8  UNL     1     134.034  93.680  66.090  1.00  0.00     0.084 C 
HETATM   24  C29 UNL     1     134.999  92.630  65.665  1.00  0.00     0.026 C 
HETATM   25  C28 UNL     1     134.639  91.300  66.300  1.00  0.00     0.012 C 
BRANCH  23  26
HETATM   26  N2  UNL     1     134.252  94.968  65.453  1.00  0.00    -0.355 N 
HETATM   27  C1  UNL     1     133.401  95.347  64.395  1.00  0.00     0.246 C 
HETATM   28  O1  UNL     1     132.494  94.492  64.082  1.00  0.00    -0.272 OA
ATOM     29  H2  UNL     1     135.004  95.584  65.764  1.00  0.00     0.162 HD
BRANCH  27  30
HETATM   30  C2  UNL     1     133.441  96.591  63.620  1.00  0.00     0.374 C 
BRANCH  30  31
HETATM   31  N1  UNL     1     134.515  97.440  64.040  1.00  0.00     0.097 N 
HETATM   32  C3  UNL     1     135.534  97.530  62.984  1.00  0.00     0.273 C 
HETATM   33  C4  UNL     1     134.968  98.133  61.728  1.00  0.00     0.030 C 
HETATM   34  C5  UNL     1     134.160  99.380  62.009  1.00  0.00     0.003 C 
HETATM   35  C6  UNL     1     134.516  99.829  63.388  1.00  0.00     0.030 C 
HETATM   36  C7  UNL     1     134.059  98.782  64.373  1.00  0.00     0.273 C 
ENDBRANCH  30  31
ENDBRANCH  27  30
ENDBRANCH  23  26
ENDBRANCH  19  20
ENDBRANCH   1  19
TORSDOF 5
ENDMDL
MODEL 2
REMARK VINA RESULT: -10.510083909      1.606      2.183
REMARK  5 active torsions:
REMARK  status: ('A' for Active; 'I' for Inactive)
REMARK    1  A    between atoms: C1_2  and  C2_3 
REMARK       I    between atoms: C1_2  and  N2_10 
REMARK    2  A    between atoms: C2_3  and  N1_4 
REMARK    3  A    between atoms: N2_10  and  C8_12 
REMARK    4  A    between atoms: C11_15  and  C12_16 
REMARK    5  A    between atoms: C12_16  and  N3_17 
ROOT
HETATM    1  N3  UNL     1     134.500  89.452  67.682  1.00  0.00    -0.393 N 
HETATM    2  C13 UNL     1     135.190  88.533  68.503  1.00  0.00     0.123 C 
HETATM    3  C14 UNL     1     135.780  87.367  67.713  1.00  0.00     0.034 C 
HETATM    4  C15 UNL     1     136.670  87.835  66.619  1.00  0.00    -0.010 C 
HETATM    5  C16 UNL     1     137.881  88.547  67.191  1.00  0.00     0.015 C 
HETATM    6  C17 UNL     1     138.765  89.102  66.102  1.00  0.00     0.006 C 
HETATM    7  C18 UNL     1     138.639  88.385  64.802  1.00  0.00     0.039 C 
HETATM    8  C19 UNL     1     138.199  86.978  64.926  1.00  0.00    -0.048 A 
HETATM    9  C20 UNL     1     138.711  85.948  64.198  1.00  0.00     0.047 A 
HETATM   10  C21 UNL     1     138.262  84.645  64.357  1.00  0.00     0.105 A 
HETATM   11  C22 UNL     1     137.270  84.336  65.266  1.00  0.00     0.105 A 
HETATM   12  C23 UNL     1     136.755  85.385  66.000  1.00  0.00     0.048 A 
HETATM   13  C24 UNL     1     137.195  86.684  65.849  1.00  0.00    -0.040 A 
HETATM   14  O2  UNL     1     137.030  82.959  65.202  1.00  0.00    -0.323 OA
HETATM   15  C25 UNL     1     137.585  82.466  63.977  1.00  0.00     0.352 C 
HETATM   16  O3  UNL     1     138.610  83.444  63.752  1.00  0.00    -0.323 OA
HETATM   17  C26 UNL     1     135.870  88.770  65.738  1.00  0.00     0.034 C 
HETATM   18  C27 UNL     1     134.492  89.019  66.310  1.00  0.00     0.123 C 
ENDROOT
BRANCH   1  19
HETATM   19  C12 UNL     1     134.742  90.827  67.867  1.00  0.00     0.062 C 
BRANCH  19  20
HETATM   20  C11 UNL     1     134.302  91.793  66.848  1.00  0.00     0.024 C 
HETATM   21  C10 UNL     1     135.393  92.223  65.932  1.00  0.00     0.012 C 
HETATM   22  C9  UNL     1     134.807  93.093  64.787  1.00  0.00     0.026 C 
HETATM   23  C8  UNL     1     134.305  94.340  65.535  1.00  0.00     0.084 C 
HETATM   24  C29 UNL     1     133.128  93.934  66.349  1.00  0.00     0.026 C 
HETATM   25  C28 UNL     1     133.551  92.971  67.442  1.00  0.00     0.012 C 
BRANCH  23  26
HETATM   26  N2  UNL     1     134.003  95.335  64.521  1.00  0.00    -0.355 N 
HETATM   27  C1  UNL     1     134.431  96.661  64.734  1.00  0.00     0.246 C 
HETATM   28  O1  UNL     1     135.059  96.870  65.836  1.00  0.00    -0.272 OA
ATOM     29  H2  UNL     1     133.492  95.081  63.676  1.00  0.00     0.162 HD
BRANCH  27  30
HETATM   30  C2  UNL     1     134.236  97.815  63.849  1.00  0.00     0.374 C 
BRANCH  30  31
HETATM   31  N1  UNL     1     135.342  97.987  62.956  1.00  0.00     0.097 N 
HETATM   32  C3  UNL     1     135.176  97.132  61.770  1.00  0.00     0.273 C 
HETATM   33  C4  UNL     1     133.936  97.498  61.003  1.00  0.00     0.030 C 
HETATM   34  C5  UNL     1     133.814  98.991  60.795  1.00  0.00     0.003 C 
HETATM   35  C6  UNL     1     135.158  99.581  61.070  1.00  0.00     0.030 C 
HETATM   36  C7  UNL     1     135.493  99.369  62.525  1.00  0.00     0.273 C 
ENDBRANCH  30  31
ENDBRANCH  27  30
ENDBRANCH  23  26
ENDBRANCH  19  20
ENDBRANCH   1  19
TORSDOF 5
ENDMDL
MODEL 3
REMARK VINA RESULT: -10.217621599      1.597      1.888
REMARK  5 active torsions:
REMARK  status: ('A' for Active; 'I' for Inactive)
REMARK    1  A    between atoms: C1_2  and  C2_3 
REMARK       I    between atoms: C1_2  and  N2_10 
REMARK    2  A    between atoms: C2_3  and  N1_4 
REMARK    3  A    between atoms: N2_10  and  C8_12 
REMARK    4  A    between atoms: C11_15  and  C12_16 
REMARK    5  A    between atoms: C12_16  and  N3_17 
ROOT
HETATM    1  N3  UNL     1     134.521  91.072  69.307  1.00  0.00    -0.393 N 
HETATM    2  C13 UNL     1     135.916  91.082  69.090  1.00  0.00     0.123 C 
HETATM    3  C14 UNL     1     136.503  89.678  68.971  1.00  0.00     0.034 C 
HETATM    4  C15 UNL     1     135.832  88.886  67.908  1.00  0.00    -0.010 C 
HETATM    5  C16 UNL     1     136.081  89.508  66.548  1.00  0.00     0.015 C 
HETATM    6  C17 UNL     1     135.348  88.771  65.456  1.00  0.00     0.006 C 
HETATM    7  C18 UNL     1     135.055  87.348  65.785  1.00  0.00     0.039 C 
HETATM    8  C19 UNL     1     135.993  86.744  66.757  1.00  0.00    -0.048 A 
HETATM    9  C20 UNL     1     136.491  85.481  66.660  1.00  0.00     0.047 A 
HETATM   10  C21 UNL     1     137.371  84.966  67.600  1.00  0.00     0.105 A 
HETATM   11  C22 UNL     1     137.781  85.719  68.683  1.00  0.00     0.105 A 
HETATM   12  C23 UNL     1     137.273  86.998  68.775  1.00  0.00     0.048 A 
HETATM   13  C24 UNL     1     136.397  87.519  67.845  1.00  0.00    -0.040 A 
HETATM   14  O2  UNL     1     138.658  84.942  69.450  1.00  0.00    -0.323 OA
HETATM   15  C25 UNL     1     138.488  83.571  69.070  1.00  0.00     0.352 C 
HETATM   16  O3  UNL     1     138.008  83.739  67.728  1.00  0.00    -0.323 OA
HETATM   17  C26 UNL     1     134.350  88.857  68.217  1.00  0.00     0.034 C 
HETATM   18  C27 UNL     1     134.021  89.726  69.410  1.00  0.00     0.123 C 
ENDROOT
BRANCH   1  19
HETATM   19  C12 UNL     1     133.719  91.944  68.546  1.00  0.00     0.062 C 
BRANCH  19  20
HETATM   20  C11 UNL     1     134.298  92.659  67.397  1.00  0.00     0.024 C 
HETATM   21  C10 UNL     1     134.051  94.126  67.429  1.00  0.00     0.012 C 
HETATM   22  C9  UNL     1     134.843  94.819  66.288  1.00  0.00     0.026 C 
HETATM   23  C8  UNL     1     134.172  94.258  65.023  1.00  0.00     0.084 C 
HETATM   24  C29 UNL     1     134.532  92.818  64.921  1.00  0.00     0.026 C 
HETATM   25  C28 UNL     1     133.914  92.040  66.066  1.00  0.00     0.012 C 
BRANCH  23  26
HETATM   26  N2  UNL     1     134.649  95.062  63.912  1.00  0.00    -0.355 N 
HETATM   27  C1  UNL     1     134.045  96.316  63.682  1.00  0.00     0.246 C 
HETATM   28  O1  UNL     1     133.102  96.633  64.496  1.00  0.00    -0.272 OA
ATOM     29  H2  UNL     1     135.402  94.728  63.310  1.00  0.00     0.162 HD
BRANCH  27  30
HETATM   30  C2  UNL     1     134.369  97.282  62.627  1.00  0.00     0.374 C 
BRANCH  30  31
HETATM   31  N1  UNL     1     135.475  98.114  62.996  1.00  0.00     0.097 N 
HETATM   32  C3  UNL     1     136.367  98.313  61.844  1.00  0.00     0.273 C 
HETATM   33  C4  UNL     1     135.657  99.007  60.716  1.00  0.00     0.030 C 
HETATM   34  C5  UNL     1     134.872 100.210  61.191  1.00  0.00     0.003 C 
HETATM   35  C6  UNL     1     135.377 100.549  62.555  1.00  0.00     0.030 C 
HETATM   36  C7  UNL     1     135.045  99.414  63.491  1.00  0.00     0.273 C 
ENDBRANCH  30  31
ENDBRANCH  27  30
ENDBRANCH  23  26
ENDBRANCH  19  20
ENDBRANCH   1  19
TORSDOF 5
ENDMDL
MODEL 4
REMARK VINA RESULT: -10.145546162      4.502      8.887
REMARK  5 active torsions:
REMARK  status: ('A' for Active; 'I' for Inactive)
REMARK    1  A    between atoms: C1_2  and  C2_3 
REMARK       I    between atoms: C1_2  and  N2_10 
REMARK    2  A    between atoms: C2_3  and  N1_4 
REMARK    3  A    between atoms: N2_10  and  C8_12 
REMARK    4  A    between atoms: C11_15  and  C12_16 
REMARK    5  A    between atoms: C12_16  and  N3_17 
ROOT
HETATM    1  N3  UNL     1     137.185  87.249  67.835  1.00  0.00    -0.393 N 
HETATM    2  C13 UNL     1     135.853  87.088  68.276  1.00  0.00     0.123 C 
HETATM    3  C14 UNL     1     135.182  88.415  68.619  1.00  0.00     0.034 C 
HETATM    4  C15 UNL     1     135.226  89.368  67.479  1.00  0.00    -0.010 C 
HETATM    5  C16 UNL     1     134.417  88.835  66.313  1.00  0.00     0.015 C 
HETATM    6  C17 UNL     1     134.506  89.743  65.112  1.00  0.00     0.006 C 
HETATM    7  C18 UNL     1     134.819  91.159  65.454  1.00  0.00     0.039 C 
HETATM    8  C19 UNL     1     134.401  91.562  66.814  1.00  0.00    -0.048 A 
HETATM    9  C20 UNL     1     133.828  92.760  67.117  1.00  0.00     0.047 A 
HETATM   10  C21 UNL     1     133.453  93.085  68.412  1.00  0.00     0.105 A 
HETATM   11  C22 UNL     1     133.645  92.201  69.456  1.00  0.00     0.105 A 
HETATM   12  C23 UNL     1     134.226  90.990  69.141  1.00  0.00     0.048 A 
HETATM   13  C24 UNL     1     134.603  90.657  67.857  1.00  0.00    -0.040 A 
HETATM   14  O2  UNL     1     133.174  92.800  70.630  1.00  0.00    -0.323 OA
HETATM   15  C25 UNL     1     133.052  94.208  70.395  1.00  0.00     0.352 C 
HETATM   16  O3  UNL     1     132.865  94.211  68.972  1.00  0.00    -0.323 OA
HETATM   17  C26 UNL     1     136.676  89.550  67.083  1.00  0.00     0.034 C 
HETATM   18  C27 UNL     1     137.581  88.632  67.873  1.00  0.00     0.123 C 
ENDROOT
BRANCH   1  19
HETATM   19  C12 UNL     1     137.600  86.546  66.688  1.00  0.00     0.062 C 
BRANCH  19  20
HETATM   20  C11 UNL     1     137.109  86.951  65.361  1.00  0.00     0.024 C 
HETATM   21  C10 UNL     1     136.198  85.953  64.738  1.00  0.00     0.012 C 
HETATM   22  C9  UNL     1     135.590  86.536  63.435  1.00  0.00     0.026 C 
HETATM   23  C8  UNL     1     136.820  86.680  62.524  1.00  0.00     0.084 C 
HETATM   24  C29 UNL     1     137.665  87.774  63.075  1.00  0.00     0.026 C 
HETATM   25  C28 UNL     1     138.227  87.373  64.425  1.00  0.00     0.012 C 
BRANCH  23  26
HETATM   26  N2  UNL     1     136.315  86.946  61.188  1.00  0.00    -0.355 N 
HETATM   27  C1  UNL     1     136.587  86.009  60.169  1.00  0.00     0.246 C 
HETATM   28  O1  UNL     1     137.278  84.987  60.528  1.00  0.00    -0.272 OA
ATOM     29  H2  UNL     1     135.778  87.790  60.991  1.00  0.00     0.162 HD
BRANCH  27  30
HETATM   30  C2  UNL     1     136.176  86.077  58.763  1.00  0.00     0.374 C 
BRANCH  30  31
HETATM   31  N1  UNL     1     136.467  87.356  58.190  1.00  0.00     0.097 N 
HETATM   32  C3  UNL     1     137.143  87.190  56.894  1.00  0.00     0.273 C 
HETATM   33  C4  UNL     1     136.269  86.461  55.911  1.00  0.00     0.030 C 
HETATM   34  C5  UNL     1     134.860  87.011  55.884  1.00  0.00     0.003 C 
HETATM   35  C6  UNL     1     134.901  88.348  56.547  1.00  0.00     0.030 C 
HETATM   36  C7  UNL     1     135.268  88.160  57.998  1.00  0.00     0.273 C 
ENDBRANCH  30  31
ENDBRANCH  27  30
ENDBRANCH  23  26
ENDBRANCH  19  20
ENDBRANCH   1  19
TORSDOF 5
ENDMDL
MODEL 5
REMARK VINA RESULT: -9.935955926      1.134      1.412
REMARK  5 active torsions:
REMARK  status: ('A' for Active; 'I' for Inactive)
REMARK    1  A    between atoms: C1_2  and  C2_3 
REMARK       I    between atoms: C1_2  and  N2_10 
REMARK    2  A    between atoms: C2_3  and  N1_4 
REMARK    3  A    between atoms: N2_10  and  C8_12 
REMARK    4  A    between atoms: C11_15  and  C12_16 
REMARK    5  A    between atoms: C12_16  and  N3_17 
ROOT
HETATM    1  N3  UNL     1     135.577  88.498  68.308  1.00  0.00    -0.393 N 
HETATM    2  C13 UNL     1     136.807  88.855  67.712  1.00  0.00     0.123 C 
HETATM    3  C14 UNL     1     137.353  87.765  66.793  1.00  0.00     0.034 C 
HETATM    4  C15 UNL     1     136.373  87.386  65.742  1.00  0.00    -0.010 C 
HETATM    5  C16 UNL     1     136.113  88.557  64.815  1.00  0.00     0.015 C 
HETATM    6  C17 UNL     1     135.064  88.228  63.783  1.00  0.00     0.006 C 
HETATM    7  C18 UNL     1     134.943  86.771  63.494  1.00  0.00     0.039 C 
HETATM    8  C19 UNL     1     136.178  85.998  63.749  1.00  0.00    -0.048 A 
HETATM    9  C20 UNL     1     136.644  85.008  62.939  1.00  0.00     0.047 A 
HETATM   10  C21 UNL     1     137.811  84.316  63.225  1.00  0.00     0.105 A 
HETATM   11  C22 UNL     1     138.555  84.603  64.353  1.00  0.00     0.105 A 
HETATM   12  C23 UNL     1     138.077  85.608  65.169  1.00  0.00     0.048 A 
HETATM   13  C24 UNL     1     136.917  86.302  64.893  1.00  0.00    -0.040 A 
HETATM   14  O2  UNL     1     139.665  83.751  64.375  1.00  0.00    -0.323 OA
HETATM   15  C25 UNL     1     139.410  82.662  63.480  1.00  0.00     0.352 C 
HETATM   16  O3  UNL     1     138.485  83.288  62.578  1.00  0.00    -0.323 OA
HETATM   17  C26 UNL     1     135.096  86.958  66.432  1.00  0.00     0.034 C 
HETATM   18  C27 UNL     1     135.182  87.168  67.927  1.00  0.00     0.123 C 
ENDROOT
BRANCH   1  19
HETATM   19  C12 UNL     1     134.536  89.447  68.312  1.00  0.00     0.062 C 
BRANCH  19  20
HETATM   20  C11 UNL     1     134.765  90.789  67.754  1.00  0.00     0.024 C 
HETATM   21  C10 UNL     1     133.942  91.846  68.402  1.00  0.00     0.012 C 
HETATM   22  C9  UNL     1     134.375  93.243  67.882  1.00  0.00     0.026 C 
HETATM   23  C8  UNL     1     133.980  93.187  66.397  1.00  0.00     0.084 C 
HETATM   24  C29 UNL     1     134.895  92.227  65.722  1.00  0.00     0.026 C 
HETATM   25  C28 UNL     1     134.656  90.822  66.240  1.00  0.00     0.012 C 
BRANCH  23  26
HETATM   26  N2  UNL     1     134.079  94.545  65.891  1.00  0.00    -0.355 N 
HETATM   27  C1  UNL     1     133.304  94.902  64.769  1.00  0.00     0.246 C 
HETATM   28  O1  UNL     1     132.570  93.966  64.283  1.00  0.00    -0.272 OA
ATOM     29  H2  UNL     1     134.695  95.225  66.338  1.00  0.00     0.162 HD
BRANCH  27  30
HETATM   30  C2  UNL     1     133.249  96.207  64.101  1.00  0.00     0.374 C 
BRANCH  30  31
HETATM   31  N1  UNL     1     134.405  96.999  64.397  1.00  0.00     0.097 N 
HETATM   32  C3  UNL     1     135.437  96.796  63.368  1.00  0.00     0.273 C 
HETATM   33  C4  UNL     1     134.949  97.226  62.012  1.00  0.00     0.030 C 
HETATM   34  C5  UNL     1     134.277  98.581  62.052  1.00  0.00     0.003 C 
HETATM   35  C6  UNL     1     134.669  99.224  63.342  1.00  0.00     0.030 C 
HETATM   36  C7  UNL     1     134.094  98.419  64.481  1.00  0.00     0.273 C 
ENDBRANCH  30  31
ENDBRANCH  27  30
ENDBRANCH  23  26
ENDBRANCH  19  20
ENDBRANCH   1  19
TORSDOF 5
ENDMDL
