MODEL 1
REMARK VINA RESULT: -9.953772027      0.000      0.000
REMARK  9 active torsions:
REMARK  status: ('A' for Active; 'I' for Inactive)
REMARK    1  A    between atoms: N2_3  and  C2_4 
REMARK    2  A    between atoms: N2_3  and  C11_18 
REMARK    3  A    between atoms: C2_4  and  O1_5 
REMARK    4  A    between atoms: C2_4  and  C3_7 
REMARK    5  A    between atoms: C3_7  and  N3_8 
REMARK       I    between atoms: N3_8  and  C4_10 
REMARK    6  A    between atoms: C4_10  and  C5_12 
REMARK    7  A    between atoms: C11_18  and  O3_19 
REMARK    8  A    between atoms: C18_27  and  C19_28 
REMARK    9  A    between atoms: N4_33  and  C23_34 
ROOT
HETATM    1  N1  UNL     1     138.920  84.685  69.466  1.00  0.00    -0.171 NA
HETATM    2  C1  UNL     1     138.063  85.223  68.909  1.00  0.00     0.193 C 
HETATM    3  N2  UNL     1     136.945  85.900  68.173  1.00  0.00    -0.209 N 
ENDROOT
BRANCH   3   4
HETATM    4  C2  UNL     1     136.405  86.903  68.957  1.00  0.00     0.151 C 
BRANCH   4   5
HETATM    5  O1  UNL     1     135.422  86.481  69.744  1.00  0.00    -0.347 OA
ATOM      6  H1  UNL     1     135.172  87.116  70.405  1.00  0.00     0.219 HD
ENDBRANCH   4   5
BRANCH   4   7
HETATM    7  C3  UNL     1     136.665  88.320  69.121  1.00  0.00     0.208 C 
BRANCH   7   8
HETATM    8  N3  UNL     1     135.763  89.118  68.283  1.00  0.00    -0.353 N 
HETATM    9  C4  UNL     1     135.421  90.419  68.681  1.00  0.00     0.222 C 
HETATM   10  O2  UNL     1     135.796  91.013  69.719  1.00  0.00    -0.273 OA
ATOM     11  H3  UNL     1     135.388  88.730  67.418  1.00  0.00     0.162 HD
BRANCH   9  12
HETATM   12  C5  UNL     1     134.505  91.210  67.787  1.00  0.00     0.078 C 
HETATM   13  C6  UNL     1     135.187  91.571  66.488  1.00  0.00     0.014 C 
HETATM   14  C7  UNL     1     134.170  92.344  65.660  1.00  0.00     0.001 C 
HETATM   15  C8  UNL     1     133.935  93.649  66.377  1.00  0.00     0.000 C 
HETATM   16  C9  UNL     1     133.307  93.403  67.722  1.00  0.00     0.001 C 
HETATM   17  C10 UNL     1     134.102  92.443  68.561  1.00  0.00     0.014 C 
ENDBRANCH   9  12
ENDBRANCH   7   8
ENDBRANCH   4   7
ENDBRANCH   3   4
BRANCH   3  18
HETATM   18  C11 UNL     1     136.758  85.331  66.927  1.00  0.00     0.160 C 
HETATM   19  C12 UNL     1     136.666  85.730  65.550  1.00  0.00    -0.019 C 
HETATM   20  C13 UNL     1     135.863  86.897  65.139  1.00  0.00     0.064 C 
HETATM   21  C17 UNL     1     138.021  85.686  64.873  1.00  0.00     0.048 C 
HETATM   22  C14 UNL     1     136.623  87.523  63.959  1.00  0.00     0.089 C 
HETATM   23  C15 UNL     1     137.941  88.043  64.387  1.00  0.00     0.026 C 
HETATM   24  N4  UNL     1     136.723  86.352  63.024  1.00  0.00    -0.371 N 
HETATM   25  C16 UNL     1     138.742  86.972  65.128  1.00  0.00     0.013 C 
HETATM   26  C18 UNL     1     137.855  85.623  63.324  1.00  0.00     0.150 C 
BRANCH  18  27
HETATM   27  O3  UNL     1     136.629  83.991  67.040  1.00  0.00    -0.345 OA
ATOM     28  H3  UNL     1     136.709  83.580  66.188  1.00  0.00     0.219 HD
ENDBRANCH  18  27
BRANCH  24  29
HETATM   29  C23 UNL     1     136.200  86.710  61.809  1.00  0.00    -0.015 C 
HETATM   30  C24 UNL     1     134.768  86.431  61.462  1.00  0.00     0.052 C 
HETATM   31  C25 UNL     1     134.120  87.831  61.456  1.00  0.00     0.006 C 
HETATM   32  C26 UNL     1     135.188  88.636  60.757  1.00  0.00     0.006 C 
HETATM   33  C27 UNL     1     136.505  88.026  61.167  1.00  0.00     0.052 C 
ENDBRANCH  24  29
BRANCH  26  34
HETATM   34  C19 UNL     1     138.045  84.238  62.872  1.00  0.00     0.076 A 
HETATM   35  C20 UNL     1     138.417  83.147  63.623  1.00  0.00     0.037 A 
HETATM   36  C21 UNL     1     138.474  82.064  62.776  1.00  0.00     0.027 A 
HETATM   37  C22 UNL     1     138.130  82.544  61.538  1.00  0.00     0.142 A 
HETATM   38  O4  UNL     1     137.891  83.813  61.652  1.00  0.00    -0.325 OA
ENDBRANCH  26  34
ENDBRANCH   3  18
TORSDOF 9
ENDMDL
MODEL 2
REMARK VINA RESULT: -9.942107801      1.183      1.663
REMARK  9 active torsions:
REMARK  status: ('A' for Active; 'I' for Inactive)
REMARK    1  A    between atoms: N2_3  and  C2_4 
REMARK    2  A    between atoms: N2_3  and  C11_18 
REMARK    3  A    between atoms: C2_4  and  O1_5 
REMARK    4  A    between atoms: C2_4  and  C3_7 
REMARK    5  A    between atoms: C3_7  and  N3_8 
REMARK       I    between atoms: N3_8  and  C4_10 
REMARK    6  A    between atoms: C4_10  and  C5_12 
REMARK    7  A    between atoms: C11_18  and  O3_19 
REMARK    8  A    between atoms: C18_27  and  C19_28 
REMARK    9  A    between atoms: N4_33  and  C23_34 
ROOT
HETATM    1  N1  UNL     1     140.168  84.434  67.753  1.00  0.00    -0.171 NA
HETATM    2  C1  UNL     1     139.065  84.743  67.606  1.00  0.00     0.193 C 
HETATM    3  N2  UNL     1     137.629  85.125  67.399  1.00  0.00    -0.209 N 
ENDROOT
BRANCH   3   4
HETATM    4  C2  UNL     1     137.130  85.719  68.543  1.00  0.00     0.151 C 
BRANCH   4   5
HETATM    5  O1  UNL     1     137.987  85.705  69.557  1.00  0.00    -0.347 OA
ATOM      6  H1  UNL     1     138.410  86.543  69.703  1.00  0.00     0.219 HD
ENDBRANCH   4   5
BRANCH   4   7
HETATM    7  C3  UNL     1     135.879  86.360  68.897  1.00  0.00     0.208 C 
BRANCH   7   8
HETATM    8  N3  UNL     1     135.756  87.666  68.241  1.00  0.00    -0.353 N 
HETATM    9  C4  UNL     1     135.849  88.836  69.008  1.00  0.00     0.222 C 
HETATM   10  O2  UNL     1     136.021  88.914  70.247  1.00  0.00    -0.273 OA
ATOM     11  H3  UNL     1     135.603  87.724  67.234  1.00  0.00     0.162 HD
BRANCH   9  12
HETATM   12  C5  UNL     1     135.732  90.157  68.296  1.00  0.00     0.078 C 
HETATM   13  C6  UNL     1     134.530  90.934  68.777  1.00  0.00     0.014 C 
HETATM   14  C7  UNL     1     134.523  92.250  68.012  1.00  0.00     0.001 C 
HETATM   15  C8  UNL     1     134.240  91.907  66.571  1.00  0.00     0.000 C 
HETATM   16  C9  UNL     1     135.357  91.075  66.001  1.00  0.00     0.001 C 
HETATM   17  C10 UNL     1     135.635  89.847  66.820  1.00  0.00     0.014 C 
ENDBRANCH   9  12
ENDBRANCH   7   8
ENDBRANCH   4   7
ENDBRANCH   3   4
BRANCH   3  18
HETATM   18  C11 UNL     1     137.202  84.770  66.133  1.00  0.00     0.160 C 
HETATM   19  C12 UNL     1     136.818  85.396  64.898  1.00  0.00    -0.019 C 
HETATM   20  C13 UNL     1     135.920  86.566  64.875  1.00  0.00     0.064 C 
HETATM   21  C17 UNL     1     138.004  85.550  63.968  1.00  0.00     0.048 C 
HETATM   22  C14 UNL     1     136.405  87.432  63.701  1.00  0.00     0.089 C 
HETATM   23  C15 UNL     1     137.770  87.947  63.945  1.00  0.00     0.026 C 
HETATM   24  N4  UNL     1     136.336  86.448  62.568  1.00  0.00    -0.371 N 
HETATM   25  C16 UNL     1     138.732  86.814  64.304  1.00  0.00     0.013 C 
HETATM   26  C18 UNL     1     137.522  85.748  62.498  1.00  0.00     0.150 C 
BRANCH  18  27
HETATM   27  O3  UNL     1     137.130  83.425  66.024  1.00  0.00    -0.345 OA
ATOM     28  H3  UNL     1     136.780  83.183  65.175  1.00  0.00     0.219 HD
ENDBRANCH  18  27
BRANCH  24  29
HETATM   29  C23 UNL     1     135.565  86.979  61.567  1.00  0.00    -0.015 C 
HETATM   30  C24 UNL     1     134.186  87.502  61.837  1.00  0.00     0.052 C 
HETATM   31  C25 UNL     1     134.342  89.029  61.680  1.00  0.00     0.006 C 
HETATM   32  C26 UNL     1     135.226  89.100  60.459  1.00  0.00     0.006 C 
HETATM   33  C27 UNL     1     136.129  87.895  60.527  1.00  0.00     0.052 C 
ENDBRANCH  24  29
BRANCH  26  34
HETATM   34  C19 UNL     1     137.647  84.475  61.773  1.00  0.00     0.076 A 
HETATM   35  C20 UNL     1     137.786  83.212  62.300  1.00  0.00     0.037 A 
HETATM   36  C21 UNL     1     137.872  82.333  61.244  1.00  0.00     0.027 A 
HETATM   37  C22 UNL     1     137.780  83.103  60.113  1.00  0.00     0.142 A 
HETATM   38  O4  UNL     1     137.650  84.340  60.480  1.00  0.00    -0.325 OA
ENDBRANCH  26  34
ENDBRANCH   3  18
TORSDOF 9
ENDMDL
MODEL 3
REMARK VINA RESULT: -9.878617944      2.640      6.532
REMARK  9 active torsions:
REMARK  status: ('A' for Active; 'I' for Inactive)
REMARK    1  A    between atoms: N2_3  and  C2_4 
REMARK    2  A    between atoms: N2_3  and  C11_18 
REMARK    3  A    between atoms: C2_4  and  O1_5 
REMARK    4  A    between atoms: C2_4  and  C3_7 
REMARK    5  A    between atoms: C3_7  and  N3_8 
REMARK       I    between atoms: N3_8  and  C4_10 
REMARK    6  A    between atoms: C4_10  and  C5_12 
REMARK    7  A    between atoms: C11_18  and  O3_19 
REMARK    8  A    between atoms: C18_27  and  C19_28 
REMARK    9  A    between atoms: N4_33  and  C23_34 
ROOT
HETATM    1  N1  UNL     1     138.651  84.780  69.441  1.00  0.00    -0.171 NA
HETATM    2  C1  UNL     1     138.568  84.947  68.301  1.00  0.00     0.193 C 
HETATM    3  N2  UNL     1     138.445  85.185  66.825  1.00  0.00    -0.209 N 
ENDROOT
BRANCH   3   4
HETATM    4  C2  UNL     1     139.563  84.696  66.176  1.00  0.00     0.151 C 
BRANCH   4   5
HETATM    5  O1  UNL     1     140.316  83.916  66.943  1.00  0.00    -0.347 OA
ATOM      6  H1  UNL     1     140.903  84.402  67.510  1.00  0.00     0.219 HD
ENDBRANCH   4   5
BRANCH   4   7
HETATM    7  C3  UNL     1     140.109  84.837  64.840  1.00  0.00     0.208 C 
BRANCH   7   8
HETATM    8  N3  UNL     1     140.509  86.225  64.582  1.00  0.00    -0.353 N 
HETATM    9  C4  UNL     1     139.620  87.089  63.925  1.00  0.00     0.222 C 
HETATM   10  O2  UNL     1     138.475  86.811  63.498  1.00  0.00    -0.273 OA
ATOM     11  H3  UNL     1     141.426  86.559  64.877  1.00  0.00     0.162 HD
BRANCH   9  12
HETATM   12  C5  UNL     1     140.062  88.508  63.692  1.00  0.00     0.078 C 
HETATM   13  C6  UNL     1     140.548  88.704  62.275  1.00  0.00     0.014 C 
HETATM   14  C7  UNL     1     140.944  90.169  62.146  1.00  0.00     0.001 C 
HETATM   15  C8  UNL     1     142.153  90.364  63.026  1.00  0.00     0.000 C 
HETATM   16  C9  UNL     1     141.795  90.133  64.470  1.00  0.00     0.001 C 
HETATM   17  C10 UNL     1     141.155  88.793  64.696  1.00  0.00     0.014 C 
ENDBRANCH   9  12
ENDBRANCH   7   8
ENDBRANCH   4   7
ENDBRANCH   3   4
BRANCH   3  18
HETATM   18  C11 UNL     1     137.261  85.831  66.527  1.00  0.00     0.160 C 
HETATM   19  C12 UNL     1     136.497  86.966  66.967  1.00  0.00    -0.019 C 
HETATM   20  C13 UNL     1     136.288  87.241  68.402  1.00  0.00     0.064 C 
HETATM   21  C17 UNL     1     136.855  88.209  66.180  1.00  0.00     0.048 C 
HETATM   22  C14 UNL     1     136.272  88.773  68.527  1.00  0.00     0.089 C 
HETATM   23  C15 UNL     1     137.585  89.353  68.169  1.00  0.00     0.026 C 
HETATM   24  N4  UNL     1     135.182  89.132  67.557  1.00  0.00    -0.371 N 
HETATM   25  C16 UNL     1     138.052  88.858  66.800  1.00  0.00     0.013 C 
HETATM   26  C18 UNL     1     135.721  89.273  66.295  1.00  0.00     0.150 C 
BRANCH  18  27
HETATM   27  O3  UNL     1     136.634  85.209  65.504  1.00  0.00    -0.345 OA
ATOM     28  H3  UNL     1     135.703  85.142  65.680  1.00  0.00     0.219 HD
ENDBRANCH  18  27
BRANCH  24  29
HETATM   29  C23 UNL     1     134.245  89.892  68.206  1.00  0.00    -0.015 C 
HETATM   30  C24 UNL     1     133.801  89.563  69.601  1.00  0.00     0.052 C 
HETATM   31  C25 UNL     1     134.407  90.700  70.449  1.00  0.00     0.006 C 
HETATM   32  C26 UNL     1     134.139  91.891  69.561  1.00  0.00     0.006 C 
HETATM   33  C27 UNL     1     134.248  91.387  68.144  1.00  0.00     0.052 C 
ENDBRANCH  24  29
BRANCH  26  34
HETATM   34  C19 UNL     1     134.900  89.240  65.077  1.00  0.00     0.076 A 
HETATM   35  C20 UNL     1     134.110  90.242  64.563  1.00  0.00     0.037 A 
HETATM   36  C21 UNL     1     133.525  89.757  63.415  1.00  0.00     0.027 A 
HETATM   37  C22 UNL     1     133.987  88.473  63.279  1.00  0.00     0.142 A 
HETATM   38  O4  UNL     1     134.782  88.225  64.272  1.00  0.00    -0.325 OA
ENDBRANCH  26  34
ENDBRANCH   3  18
TORSDOF 9
ENDMDL
MODEL 4
REMARK VINA RESULT: -9.835005153      0.697      1.114
REMARK  9 active torsions:
REMARK  status: ('A' for Active; 'I' for Inactive)
REMARK    1  A    between atoms: N2_3  and  C2_4 
REMARK    2  A    between atoms: N2_3  and  C11_18 
REMARK    3  A    between atoms: C2_4  and  O1_5 
REMARK    4  A    between atoms: C2_4  and  C3_7 
REMARK    5  A    between atoms: C3_7  and  N3_8 
REMARK       I    between atoms: N3_8  and  C4_10 
REMARK    6  A    between atoms: C4_10  and  C5_12 
REMARK    7  A    between atoms: C11_18  and  O3_19 
REMARK    8  A    between atoms: C18_27  and  C19_28 
REMARK    9  A    between atoms: N4_33  and  C23_34 
ROOT
HETATM    1  N1  UNL     1     139.091  84.752  69.382  1.00  0.00    -0.171 NA
HETATM    2  C1  UNL     1     138.136  85.205  68.916  1.00  0.00     0.193 C 
HETATM    3  N2  UNL     1     136.893  85.771  68.296  1.00  0.00    -0.209 N 
ENDROOT
BRANCH   3   4
HETATM    4  C2  UNL     1     136.285  86.646  69.177  1.00  0.00     0.151 C 
BRANCH   4   5
HETATM    5  O1  UNL     1     137.042  86.942  70.228  1.00  0.00    -0.347 OA
ATOM      6  H1  UNL     1     136.805  86.456  71.009  1.00  0.00     0.219 HD
ENDBRANCH   4   5
BRANCH   4   7
HETATM    7  C3  UNL     1     135.003  87.322  69.222  1.00  0.00     0.208 C 
BRANCH   7   8
HETATM    8  N3  UNL     1     135.044  88.573  68.456  1.00  0.00    -0.353 N 
HETATM    9  C4  UNL     1     135.067  89.799  69.135  1.00  0.00     0.222 C 
HETATM   10  O2  UNL     1     135.044  89.975  70.376  1.00  0.00    -0.273 OA
ATOM     11  H3  UNL     1     135.055  88.551  67.436  1.00  0.00     0.162 HD
BRANCH   9  12
HETATM   12  C5  UNL     1     135.123  91.059  68.313  1.00  0.00     0.078 C 
HETATM   13  C6  UNL     1     133.897  91.913  68.537  1.00  0.00     0.014 C 
HETATM   14  C7  UNL     1     134.070  93.159  67.681  1.00  0.00     0.001 C 
HETATM   15  C8  UNL     1     133.999  92.707  66.244  1.00  0.00     0.000 C 
HETATM   16  C9  UNL     1     135.151  91.793  65.924  1.00  0.00     0.001 C 
HETATM   17  C10 UNL     1     135.242  90.629  66.869  1.00  0.00     0.014 C 
ENDBRANCH   9  12
ENDBRANCH   7   8
ENDBRANCH   4   7
ENDBRANCH   3   4
BRANCH   3  18
HETATM   18  C11 UNL     1     136.695  85.258  67.029  1.00  0.00     0.160 C 
HETATM   19  C12 UNL     1     136.502  85.722  65.682  1.00  0.00    -0.019 C 
HETATM   20  C13 UNL     1     135.583  86.835  65.377  1.00  0.00     0.064 C 
HETATM   21  C17 UNL     1     137.820  85.834  64.946  1.00  0.00     0.048 C 
HETATM   22  C14 UNL     1     136.228  87.589  64.204  1.00  0.00     0.089 C 
HETATM   23  C15 UNL     1     137.516  88.198  64.603  1.00  0.00     0.026 C 
HETATM   24  N4  UNL     1     136.381  86.484  63.198  1.00  0.00    -0.371 N 
HETATM   25  C16 UNL     1     138.441  87.163  65.244  1.00  0.00     0.013 C 
HETATM   26  C18 UNL     1     137.585  85.843  63.404  1.00  0.00     0.150 C 
BRANCH  18  27
HETATM   27  O3  UNL     1     136.686  83.907  67.068  1.00  0.00    -0.345 OA
ATOM     28  H3  UNL     1     137.483  83.561  66.684  1.00  0.00     0.219 HD
ENDBRANCH  18  27
BRANCH  24  29
HETATM   29  C23 UNL     1     135.771  86.861  62.031  1.00  0.00    -0.015 C 
HETATM   30  C24 UNL     1     134.289  87.084  61.959  1.00  0.00     0.052 C 
HETATM   31  C25 UNL     1     134.163  88.612  61.793  1.00  0.00     0.006 C 
HETATM   32  C26 UNL     1     135.271  88.884  60.806  1.00  0.00     0.006 C 
HETATM   33  C27 UNL     1     136.361  87.890  61.118  1.00  0.00     0.052 C 
ENDBRANCH  24  29
BRANCH  26  34
HETATM   34  C19 UNL     1     137.870  84.506  62.864  1.00  0.00     0.076 A 
HETATM   35  C20 UNL     1     138.314  83.396  63.544  1.00  0.00     0.037 A 
HETATM   36  C21 UNL     1     138.447  82.378  62.628  1.00  0.00     0.027 A 
HETATM   37  C22 UNL     1     138.074  82.914  61.422  1.00  0.00     0.142 A 
HETATM   38  O4  UNL     1     137.748  84.154  61.618  1.00  0.00    -0.325 OA
ENDBRANCH  26  34
ENDBRANCH   3  18
TORSDOF 9
ENDMDL
MODEL 5
REMARK VINA RESULT: -9.794646619      1.699      2.334
REMARK  9 active torsions:
REMARK  status: ('A' for Active; 'I' for Inactive)
REMARK    1  A    between atoms: N2_3  and  C2_4 
REMARK    2  A    between atoms: N2_3  and  C11_18 
REMARK    3  A    between atoms: C2_4  and  O1_5 
REMARK    4  A    between atoms: C2_4  and  C3_7 
REMARK    5  A    between atoms: C3_7  and  N3_8 
REMARK       I    between atoms: N3_8  and  C4_10 
REMARK    6  A    between atoms: C4_10  and  C5_12 
REMARK    7  A    between atoms: C11_18  and  O3_19 
REMARK    8  A    between atoms: C18_27  and  C19_28 
REMARK    9  A    between atoms: N4_33  and  C23_34 
ROOT
HETATM    1  N1  UNL     1     138.921  84.675  69.299  1.00  0.00    -0.171 NA
HETATM    2  C1  UNL     1     138.057  85.365  68.963  1.00  0.00     0.193 C 
HETATM    3  N2  UNL     1     136.927  86.242  68.511  1.00  0.00    -0.209 N 
ENDROOT
BRANCH   3   4
HETATM    4  C2  UNL     1     136.625  87.164  69.496  1.00  0.00     0.151 C 
BRANCH   4   5
HETATM    5  O1  UNL     1     137.670  87.489  70.247  1.00  0.00    -0.347 OA
ATOM      6  H1  UNL     1     137.495  88.208  70.843  1.00  0.00     0.219 HD
ENDBRANCH   4   5
BRANCH   4   7
HETATM    7  C3  UNL     1     135.423  87.865  69.902  1.00  0.00     0.208 C 
BRANCH   7   8
HETATM    8  N3  UNL     1     135.381  89.212  69.323  1.00  0.00    -0.353 N 
HETATM    9  C4  UNL     1     134.659  90.223  69.975  1.00  0.00     0.222 C 
HETATM   10  O2  UNL     1     134.002  90.115  71.037  1.00  0.00    -0.273 OA
ATOM     11  H3  UNL     1     135.872  89.413  68.452  1.00  0.00     0.162 HD
BRANCH   9  12
HETATM   12  C5  UNL     1     134.653  91.594  69.356  1.00  0.00     0.078 C 
HETATM   13  C6  UNL     1     133.582  92.465  69.968  1.00  0.00     0.014 C 
HETATM   14  C7  UNL     1     133.680  93.824  69.289  1.00  0.00     0.001 C 
HETATM   15  C8  UNL     1     133.271  93.617  67.853  1.00  0.00     0.000 C 
HETATM   16  C9  UNL     1     134.245  92.707  67.155  1.00  0.00     0.001 C 
HETATM   17  C10 UNL     1     134.429  91.401  67.874  1.00  0.00     0.014 C 
ENDBRANCH   9  12
ENDBRANCH   7   8
ENDBRANCH   4   7
ENDBRANCH   3   4
BRANCH   3  18
HETATM   18  C11 UNL     1     136.497  85.881  67.249  1.00  0.00     0.160 C 
HETATM   19  C12 UNL     1     135.806  86.455  66.127  1.00  0.00    -0.019 C 
HETATM   20  C13 UNL     1     134.593  87.275  66.308  1.00  0.00     0.064 C 
HETATM   21  C17 UNL     1     136.778  87.061  65.135  1.00  0.00     0.048 C 
HETATM   22  C14 UNL     1     134.655  88.348  65.211  1.00  0.00     0.089 C 
HETATM   23  C15 UNL     1     135.811  89.250  65.409  1.00  0.00     0.026 C 
HETATM   24  N4  UNL     1     134.773  87.497  63.978  1.00  0.00    -0.371 N 
HETATM   25  C16 UNL     1     137.110  88.457  65.560  1.00  0.00     0.013 C 
HETATM   26  C18 UNL     1     136.103  87.221  63.739  1.00  0.00     0.150 C 
BRANCH  18  27
HETATM   27  O3  UNL     1     136.834  84.598  66.989  1.00  0.00    -0.345 OA
ATOM     28  H3  UNL     1     136.413  84.303  66.190  1.00  0.00     0.219 HD
ENDBRANCH  18  27
BRANCH  24  29
HETATM   29  C23 UNL     1     133.772  87.839  63.108  1.00  0.00    -0.015 C 
HETATM   30  C24 UNL     1     132.559  86.974  62.932  1.00  0.00     0.052 C 
HETATM   31  C25 UNL     1     131.430  87.800  63.581  1.00  0.00     0.006 C 
HETATM   32  C26 UNL     1     131.763  89.183  63.077  1.00  0.00     0.006 C 
HETATM   33  C27 UNL     1     133.267  89.242  62.984  1.00  0.00     0.052 C 
ENDBRANCH  24  29
BRANCH  26  34
HETATM   34  C19 UNL     1     136.536  86.124  62.863  1.00  0.00     0.076 A 
HETATM   35  C20 UNL     1     137.055  84.904  63.230  1.00  0.00     0.037 A 
HETATM   36  C21 UNL     1     137.322  84.206  62.074  1.00  0.00     0.027 A 
HETATM   37  C22 UNL     1     136.951  85.035  61.047  1.00  0.00     0.142 A 
HETATM   38  O4  UNL     1     136.501  86.136  61.563  1.00  0.00    -0.325 OA
ENDBRANCH  26  34
ENDBRANCH   3  18
TORSDOF 9
ENDMDL
