MODEL 1
REMARK VINA RESULT: -6.766018289      0.000      0.000
REMARK  7 active torsions:
REMARK  status: ('A' for Active; 'I' for Inactive)
REMARK    1  A    between atoms: C2_3  and  C4_6 
REMARK    2  A    between atoms: C6_8  and  N3_9 
REMARK    3  A    between atoms: C7_13  and  C8_14 
REMARK    4  A    between atoms: C8_14  and  O4_16 
REMARK    5  A    between atoms: O4_16  and  C9_17 
REMARK    6  A    between atoms: C9_17  and  C10_18 
REMARK       I    between atoms: C10_18  and  N4_20 
REMARK    7  A    between atoms: N4_20  and  C11_22 
ROOT
HETATM    1  N1  UNL     1     -35.281  76.947   7.172  1.00  0.00    -0.196 NA
HETATM    2  C1  UNL     1     -34.269  76.624   7.633  1.00  0.00     0.083 C 
HETATM    3  C2  UNL     1     -32.996  76.226   8.234  1.00  0.00     0.234 C 
HETATM    4  C3  UNL     1     -33.204  74.957   8.965  1.00  0.00     0.083 C 
HETATM    5  N2  UNL     1     -33.358  73.965   9.543  1.00  0.00    -0.196 NA
ENDROOT
BRANCH   3   6
HETATM    6  C4  UNL     1     -31.960  76.006   7.147  1.00  0.00    -0.001 A 
HETATM    7  C5  UNL     1     -31.858  74.790   6.571  1.00  0.00     0.054 A 
HETATM    8  C6  UNL     1     -30.919  74.621   5.598  1.00  0.00     0.145 A 
HETATM    9  S1  UNL     1     -30.194  76.151   5.501  1.00  0.00    -0.059 SA
HETATM   10  C7  UNL     1     -31.119  76.982   6.720  1.00  0.00     0.091 A 
BRANCH   8  11
HETATM   11  N3  UNL     1     -30.616  73.444   4.842  1.00  0.00    -0.108 N 
HETATM   12  O1  UNL     1     -30.431  73.520   3.626  1.00  0.00    -0.531 OA
HETATM   13  O2  UNL     1     -30.532  72.235   5.468  1.00  0.00    -0.531 OA
ENDBRANCH   8  11
BRANCH  10  14
HETATM   14  C8  UNL     1     -30.943  78.387   7.103  1.00  0.00     0.301 C 
HETATM   15  O3  UNL     1     -31.718  79.286   6.831  1.00  0.00    -0.259 OA
BRANCH  14  16
HETATM   16  O4  UNL     1     -29.795  78.721   7.840  1.00  0.00    -0.308 OA
BRANCH  16  17
HETATM   17  C9  UNL     1     -29.800  79.091   9.190  1.00  0.00     0.281 C 
BRANCH  17  18
HETATM   18  C10 UNL     1     -28.646  79.917   9.596  1.00  0.00     0.242 C 
HETATM   19  O5  UNL     1     -27.949  80.570   8.767  1.00  0.00    -0.271 OA
HETATM   20  N4  UNL     1     -28.304  79.983  10.970  1.00  0.00    -0.355 N 
ATOM     21  H4  UNL     1     -28.858  79.461  11.649  1.00  0.00     0.162 HD
BRANCH  20  22
HETATM   22  C11 UNL     1     -27.194  80.768  11.426  1.00  0.00     0.084 C 
HETATM   23  C12 UNL     1     -26.427  80.000  12.462  1.00  0.00     0.025 C 
HETATM   24  C13 UNL     1     -25.275  80.753  13.045  1.00  0.00     0.002 C 
HETATM   25  C14 UNL     1     -25.617  82.145  13.477  1.00  0.00     0.000 C 
HETATM   26  C15 UNL     1     -26.469  82.875  12.464  1.00  0.00     0.002 C 
HETATM   27  C16 UNL     1     -27.665  82.062  12.051  1.00  0.00     0.025 C 
ENDBRANCH  20  22
ENDBRANCH  17  18
ENDBRANCH  16  17
ENDBRANCH  14  16
ENDBRANCH  10  14
ENDBRANCH   3   6
TORSDOF 7
ENDMDL
MODEL 2
REMARK VINA RESULT: -6.738764837      3.685      8.051
REMARK  7 active torsions:
REMARK  status: ('A' for Active; 'I' for Inactive)
REMARK    1  A    between atoms: C2_3  and  C4_6 
REMARK    2  A    between atoms: C6_8  and  N3_9 
REMARK    3  A    between atoms: C7_13  and  C8_14 
REMARK    4  A    between atoms: C8_14  and  O4_16 
REMARK    5  A    between atoms: O4_16  and  C9_17 
REMARK    6  A    between atoms: C9_17  and  C10_18 
REMARK       I    between atoms: C10_18  and  N4_20 
REMARK    7  A    between atoms: N4_20  and  C11_22 
ROOT
HETATM    1  N1  UNL     1     -26.743  79.550  11.371  1.00  0.00    -0.196 NA
HETATM    2  C1  UNL     1     -27.864  79.490  11.087  1.00  0.00     0.083 C 
HETATM    3  C2  UNL     1     -29.279  79.435  10.721  1.00  0.00     0.234 C 
HETATM    4  C3  UNL     1     -29.377  79.035   9.301  1.00  0.00     0.083 C 
HETATM    5  N2  UNL     1     -29.463  78.726   8.187  1.00  0.00    -0.196 NA
ENDROOT
BRANCH   3   6
HETATM    6  C4  UNL     1     -29.992  78.401  11.575  1.00  0.00    -0.001 A 
HETATM    7  C5  UNL     1     -29.261  77.522  12.292  1.00  0.00     0.054 A 
HETATM    8  C6  UNL     1     -29.927  76.606  13.049  1.00  0.00     0.145 A 
HETATM    9  S1  UNL     1     -31.554  76.979  12.751  1.00  0.00    -0.059 SA
HETATM   10  C7  UNL     1     -31.344  78.314  11.653  1.00  0.00     0.091 A 
BRANCH   8  11
HETATM   11  N3  UNL     1     -29.390  75.579  13.889  1.00  0.00    -0.108 N 
HETATM   12  O1  UNL     1     -29.818  74.426  13.810  1.00  0.00    -0.531 OA
HETATM   13  O2  UNL     1     -28.401  75.877  14.782  1.00  0.00    -0.531 OA
ENDBRANCH   8  11
BRANCH  10  14
HETATM   14  C8  UNL     1     -32.432  79.077  11.032  1.00  0.00     0.301 C 
HETATM   15  O3  UNL     1     -33.036  79.989  11.566  1.00  0.00    -0.259 OA
BRANCH  14  16
HETATM   16  O4  UNL     1     -32.804  78.730   9.724  1.00  0.00    -0.308 OA
BRANCH  16  17
HETATM   17  C9  UNL     1     -34.028  78.145   9.376  1.00  0.00     0.281 C 
BRANCH  17  18
HETATM   18  C10 UNL     1     -33.907  76.964   8.499  1.00  0.00     0.242 C 
HETATM   19  O5  UNL     1     -34.898  76.245   8.181  1.00  0.00    -0.271 OA
HETATM   20  N4  UNL     1     -32.629  76.620   7.991  1.00  0.00    -0.355 N 
ATOM     21  H4  UNL     1     -31.822  77.191   8.239  1.00  0.00     0.162 HD
BRANCH  20  22
HETATM   22  C11 UNL     1     -32.448  75.484   7.134  1.00  0.00     0.084 C 
HETATM   23  C12 UNL     1     -32.151  74.270   7.965  1.00  0.00     0.025 C 
HETATM   24  C13 UNL     1     -31.892  73.036   7.164  1.00  0.00     0.002 C 
HETATM   25  C14 UNL     1     -30.919  73.233   6.044  1.00  0.00     0.000 C 
HETATM   26  C15 UNL     1     -31.172  74.509   5.273  1.00  0.00     0.002 C 
HETATM   27  C16 UNL     1     -31.291  75.699   6.185  1.00  0.00     0.025 C 
ENDBRANCH  20  22
ENDBRANCH  17  18
ENDBRANCH  16  17
ENDBRANCH  14  16
ENDBRANCH  10  14
ENDBRANCH   3   6
TORSDOF 7
ENDMDL
MODEL 3
REMARK VINA RESULT: -6.499176757      1.928      2.455
REMARK  7 active torsions:
REMARK  status: ('A' for Active; 'I' for Inactive)
REMARK    1  A    between atoms: C2_3  and  C4_6 
REMARK    2  A    between atoms: C6_8  and  N3_9 
REMARK    3  A    between atoms: C7_13  and  C8_14 
REMARK    4  A    between atoms: C8_14  and  O4_16 
REMARK    5  A    between atoms: O4_16  and  C9_17 
REMARK    6  A    between atoms: C9_17  and  C10_18 
REMARK       I    between atoms: C10_18  and  N4_20 
REMARK    7  A    between atoms: N4_20  and  C11_22 
ROOT
HETATM    1  N1  UNL     1     -35.221  77.143   7.132  1.00  0.00    -0.196 NA
HETATM    2  C1  UNL     1     -34.221  76.798   7.603  1.00  0.00     0.083 C 
HETATM    3  C2  UNL     1     -32.964  76.373   8.218  1.00  0.00     0.234 C 
HETATM    4  C3  UNL     1     -33.213  75.125   8.971  1.00  0.00     0.083 C 
HETATM    5  N2  UNL     1     -33.400  74.149   9.568  1.00  0.00    -0.196 NA
ENDROOT
BRANCH   3   6
HETATM    6  C4  UNL     1     -31.930  76.100   7.140  1.00  0.00    -0.001 A 
HETATM    7  C5  UNL     1     -31.885  74.881   6.564  1.00  0.00     0.054 A 
HETATM    8  C6  UNL     1     -30.947  74.665   5.599  1.00  0.00     0.145 A 
HETATM    9  S1  UNL     1     -30.144  76.156   5.510  1.00  0.00    -0.059 SA
HETATM   10  C7  UNL     1     -31.037  77.033   6.722  1.00  0.00     0.091 A 
BRANCH   8  11
HETATM   11  N3  UNL     1     -30.697  73.475   4.845  1.00  0.00    -0.108 N 
HETATM   12  O1  UNL     1     -30.619  72.385   5.416  1.00  0.00    -0.531 OA
HETATM   13  O2  UNL     1     -30.545  73.545   3.491  1.00  0.00    -0.531 OA
ENDBRANCH   8  11
BRANCH  10  14
HETATM   14  C8  UNL     1     -30.793  78.427   7.107  1.00  0.00     0.301 C 
HETATM   15  O3  UNL     1     -31.447  79.380   6.725  1.00  0.00    -0.259 OA
BRANCH  14  16
HETATM   16  O4  UNL     1     -29.726  78.681   7.984  1.00  0.00    -0.308 OA
BRANCH  16  17
HETATM   17  C9  UNL     1     -29.791  79.550   9.080  1.00  0.00     0.281 C 
BRANCH  17  18
HETATM   18  C10 UNL     1     -28.942  79.150  10.220  1.00  0.00     0.242 C 
HETATM   19  O5  UNL     1     -27.720  79.462  10.304  1.00  0.00    -0.271 OA
HETATM   20  N4  UNL     1     -29.520  78.387  11.265  1.00  0.00    -0.355 N 
ATOM     21  H4  UNL     1     -30.506  78.129  11.210  1.00  0.00     0.162 HD
BRANCH  20  22
HETATM   22  C11 UNL     1     -28.748  77.969  12.399  1.00  0.00     0.084 C 
HETATM   23  C12 UNL     1     -29.303  76.683  12.939  1.00  0.00     0.025 C 
HETATM   24  C13 UNL     1     -28.600  76.185  14.160  1.00  0.00     0.002 C 
HETATM   25  C14 UNL     1     -28.403  77.230  15.214  1.00  0.00     0.000 C 
HETATM   26  C15 UNL     1     -27.934  78.549  14.644  1.00  0.00     0.002 C 
HETATM   27  C16 UNL     1     -28.798  79.003  13.501  1.00  0.00     0.025 C 
ENDBRANCH  20  22
ENDBRANCH  17  18
ENDBRANCH  16  17
ENDBRANCH  14  16
ENDBRANCH  10  14
ENDBRANCH   3   6
TORSDOF 7
ENDMDL
MODEL 4
REMARK VINA RESULT: -6.472900826      4.148      6.805
REMARK  7 active torsions:
REMARK  status: ('A' for Active; 'I' for Inactive)
REMARK    1  A    between atoms: C2_3  and  C4_6 
REMARK    2  A    between atoms: C6_8  and  N3_9 
REMARK    3  A    between atoms: C7_13  and  C8_14 
REMARK    4  A    between atoms: C8_14  and  O4_16 
REMARK    5  A    between atoms: O4_16  and  C9_17 
REMARK    6  A    between atoms: C9_17  and  C10_18 
REMARK       I    between atoms: C10_18  and  N4_20 
REMARK    7  A    between atoms: N4_20  and  C11_22 
ROOT
HETATM    1  N1  UNL     1     -35.293  76.963   7.182  1.00  0.00    -0.196 NA
HETATM    2  C1  UNL     1     -34.278  76.653   7.645  1.00  0.00     0.083 C 
HETATM    3  C2  UNL     1     -33.001  76.272   8.249  1.00  0.00     0.234 C 
HETATM    4  C3  UNL     1     -33.198  75.009   8.993  1.00  0.00     0.083 C 
HETATM    5  N2  UNL     1     -33.344  74.022   9.583  1.00  0.00    -0.196 NA
ENDROOT
BRANCH   3   6
HETATM    6  C4  UNL     1     -31.964  76.047   7.162  1.00  0.00    -0.001 A 
HETATM    7  C5  UNL     1     -31.877  74.835   6.576  1.00  0.00     0.054 A 
HETATM    8  C6  UNL     1     -30.937  74.662   5.604  1.00  0.00     0.145 A 
HETATM    9  S1  UNL     1     -30.192  76.183   5.523  1.00  0.00    -0.059 SA
HETATM   10  C7  UNL     1     -31.110  77.016   6.746  1.00  0.00     0.091 A 
BRANCH   8  11
HETATM   11  N3  UNL     1     -30.647  73.488   4.839  1.00  0.00    -0.108 N 
HETATM   12  O1  UNL     1     -30.483  73.568   3.620  1.00  0.00    -0.531 OA
HETATM   13  O2  UNL     1     -30.553  72.276   5.459  1.00  0.00    -0.531 OA
ENDBRANCH   8  11
BRANCH  10  14
HETATM   14  C8  UNL     1     -30.916  78.415   7.142  1.00  0.00     0.301 C 
HETATM   15  O3  UNL     1     -29.975  78.832   7.792  1.00  0.00    -0.259 OA
BRANCH  14  16
HETATM   16  O4  UNL     1     -31.889  79.344   6.738  1.00  0.00    -0.308 OA
BRANCH  16  17
HETATM   17  C9  UNL     1     -32.675  80.100   7.617  1.00  0.00     0.281 C 
BRANCH  17  18
HETATM   18  C10 UNL     1     -33.869  80.705   6.993  1.00  0.00     0.242 C 
HETATM   19  O5  UNL     1     -33.813  81.754   6.289  1.00  0.00    -0.271 OA
HETATM   20  N4  UNL     1     -35.129  80.085   7.189  1.00  0.00    -0.355 N 
ATOM     21  H4  UNL     1     -35.187  79.238   7.754  1.00  0.00     0.162 HD
BRANCH  20  22
HETATM   22  C11 UNL     1     -36.324  80.626   6.609  1.00  0.00     0.084 C 
HETATM   23  C12 UNL     1     -37.482  80.390   7.534  1.00  0.00     0.025 C 
HETATM   24  C13 UNL     1     -38.792  80.870   6.998  1.00  0.00     0.002 C 
HETATM   25  C14 UNL     1     -39.066  80.438   5.591  1.00  0.00     0.000 C 
HETATM   26  C15 UNL     1     -37.861  80.593   4.691  1.00  0.00     0.002 C 
HETATM   27  C16 UNL     1     -36.633  79.960   5.286  1.00  0.00     0.025 C 
ENDBRANCH  20  22
ENDBRANCH  17  18
ENDBRANCH  16  17
ENDBRANCH  14  16
ENDBRANCH  10  14
ENDBRANCH   3   6
TORSDOF 7
ENDMDL
MODEL 5
REMARK VINA RESULT: -6.339057229      1.418      1.896
REMARK  7 active torsions:
REMARK  status: ('A' for Active; 'I' for Inactive)
REMARK    1  A    between atoms: C2_3  and  C4_6 
REMARK    2  A    between atoms: C6_8  and  N3_9 
REMARK    3  A    between atoms: C7_13  and  C8_14 
REMARK    4  A    between atoms: C8_14  and  O4_16 
REMARK    5  A    between atoms: O4_16  and  C9_17 
REMARK    6  A    between atoms: C9_17  and  C10_18 
REMARK       I    between atoms: C10_18  and  N4_20 
REMARK    7  A    between atoms: N4_20  and  C11_22 
ROOT
HETATM    1  N1  UNL     1     -35.262  76.972   7.207  1.00  0.00    -0.196 NA
HETATM    2  C1  UNL     1     -34.248  76.636   7.653  1.00  0.00     0.083 C 
HETATM    3  C2  UNL     1     -32.971  76.221   8.235  1.00  0.00     0.234 C 
HETATM    4  C3  UNL     1     -33.178  74.937   8.940  1.00  0.00     0.083 C 
HETATM    5  N2  UNL     1     -33.331  73.933   9.497  1.00  0.00    -0.196 NA
ENDROOT
BRANCH   3   6
HETATM    6  C4  UNL     1     -31.944  76.021   7.135  1.00  0.00    -0.001 A 
HETATM    7  C5  UNL     1     -31.847  74.816   6.537  1.00  0.00     0.054 A 
HETATM    8  C6  UNL     1     -30.915  74.665   5.553  1.00  0.00     0.145 A 
HETATM    9  S1  UNL     1     -30.193  76.198   5.478  1.00  0.00    -0.059 SA
HETATM   10  C7  UNL     1     -31.108  77.006   6.719  1.00  0.00     0.091 A 
BRANCH   8  11
HETATM   11  N3  UNL     1     -30.618  73.502   4.774  1.00  0.00    -0.108 N 
HETATM   12  O1  UNL     1     -30.433  73.601   3.559  1.00  0.00    -0.531 OA
HETATM   13  O2  UNL     1     -30.539  72.281   5.375  1.00  0.00    -0.531 OA
ENDBRANCH   8  11
BRANCH  10  14
HETATM   14  C8  UNL     1     -30.930  78.404   7.126  1.00  0.00     0.301 C 
HETATM   15  O3  UNL     1     -31.705  79.308   6.871  1.00  0.00    -0.259 OA
BRANCH  14  16
HETATM   16  O4  UNL     1     -29.780  78.724   7.864  1.00  0.00    -0.308 OA
BRANCH  16  17
HETATM   17  C9  UNL     1     -29.744  78.854   9.258  1.00  0.00     0.281 C 
BRANCH  17  18
HETATM   18  C10 UNL     1     -29.610  80.245   9.733  1.00  0.00     0.242 C 
HETATM   19  O5  UNL     1     -30.558  80.870  10.290  1.00  0.00    -0.271 OA
HETATM   20  N4  UNL     1     -28.369  80.909   9.559  1.00  0.00    -0.355 N 
ATOM     21  H4  UNL     1     -27.597  80.416   9.112  1.00  0.00     0.162 HD
BRANCH  20  22
HETATM   22  C11 UNL     1     -28.178  82.260  10.000  1.00  0.00     0.084 C 
HETATM   23  C12 UNL     1     -27.606  83.078   8.879  1.00  0.00     0.025 C 
HETATM   24  C13 UNL     1     -27.317  84.496   9.250  1.00  0.00     0.002 C 
HETATM   25  C14 UNL     1     -26.559  84.645  10.532  1.00  0.00     0.000 C 
HETATM   26  C15 UNL     1     -27.087  83.745  11.626  1.00  0.00     0.002 C 
HETATM   27  C16 UNL     1     -27.216  82.320  11.165  1.00  0.00     0.025 C 
ENDBRANCH  20  22
ENDBRANCH  17  18
ENDBRANCH  16  17
ENDBRANCH  14  16
ENDBRANCH  10  14
ENDBRANCH   3   6
TORSDOF 7
ENDMDL
