MODEL 1
REMARK VINA RESULT: -8.574326141      0.000      0.000
REMARK  10 active torsions:
REMARK  status: ('A' for Active; 'I' for Inactive)
REMARK    1  A    between atoms: O1_2  and  C2_3 
REMARK    2  A    between atoms: C5_6  and  S1_7 
REMARK    3  A    between atoms: S1_7  and  C6_9 
REMARK    4  A    between atoms: S1_7  and  C16_37 
REMARK    5  A    between atoms: C6_9  and  C7_10 
REMARK    6  A    between atoms: C7_10  and  N1_11 
REMARK    7  A    between atoms: N1_11  and  C8_14 
REMARK    8  A    between atoms: C12_25  and  N6_26 
REMARK    9  A    between atoms: C13_31  and  N8_32 
REMARK   10  A    between atoms: N8_32  and  C14_34 
ROOT
HETATM    1  C14 UNL     1      12.098  20.081  40.530  1.00  0.00     0.245 C 
HETATM    2  C15 UNL     1      11.291  20.958  39.714  1.00  0.00     0.078 C 
HETATM    3  N9  UNL     1      10.660  21.672  39.062  1.00  0.00    -0.196 NA
ENDROOT
BRANCH   1   4
HETATM    4  N8  UNL     1      11.419  18.828  40.741  1.00  0.00    -0.362 N 
ATOM      5  H8  UNL     1      10.921  18.678  41.619  1.00  0.00     0.162 HD
BRANCH   4   6
HETATM    6  C13 UNL     1      11.421  17.882  39.847  1.00  0.00     0.146 A 
HETATM    7  C10 UNL     1      10.245  17.330  39.387  1.00  0.00     0.106 A 
HETATM    8  N4  UNL     1       9.023  17.814  39.906  1.00  0.00    -0.326 N 
HETATM    9  C11 UNL     1      10.214  16.327  38.441  1.00  0.00     0.107 A 
HETATM   10  C9  UNL     1       7.811  17.259  39.444  1.00  0.00     0.190 A 
ATOM     11  H4  UNL     1       9.018  18.555  40.607  1.00  0.00     0.169 HD
HETATM   12  N2  UNL     1       7.836  16.332  38.568  1.00  0.00    -0.332 N 
HETATM   13  N3  UNL     1       6.568  17.711  39.929  1.00  0.00    -0.063 NA
HETATM   14  C8  UNL     1       8.956  15.726  37.944  1.00  0.00     0.340 A 
ATOM     15  H2  UNL     1       6.926  15.979  38.275  1.00  0.00     0.164 HD
HETATM   16  N5  UNL     1      11.412  15.901  37.975  1.00  0.00    -0.190 N 
HETATM   17  C12 UNL     1      12.569  16.427  38.410  1.00  0.00     0.677 A 
ATOM     18  H5  UNL     1      11.436  15.160  37.274  1.00  0.00     0.184 HD
HETATM   19  N7  UNL     1      12.575  17.409  39.337  1.00  0.00    -0.175 N 
ATOM     20  H7  UNL     1      13.463  17.797  39.655  1.00  0.00     0.186 HD
BRANCH  14  21
HETATM   21  N1  UNL     1       8.900  15.778  36.463  1.00  0.00    -0.048 N 
ATOM     22  H12 UNL     1       9.742  15.421  36.012  1.00  0.00     0.280 HD
ATOM     23  H11 UNL     1       8.948  16.725  36.087  1.00  0.00     0.280 HD
BRANCH  21  24
HETATM   24  C7  UNL     1       7.717  15.078  36.088  1.00  0.00     0.247 C 
BRANCH  24  25
HETATM   25  C6  UNL     1       7.507  13.729  36.742  1.00  0.00     0.137 C 
BRANCH  25  26
HETATM   26  S1  UNL     1       7.450  12.220  35.644  1.00  0.00     0.042 S 
HETATM   27  O2  UNL     1       6.932  13.135  34.370  1.00  0.00    -0.257 OA
BRANCH  26  28
HETATM   28  C5  UNL     1       6.231  11.327  36.985  1.00  0.00     0.027 A 
HETATM   29  C4  UNL     1       6.715  10.421  37.830  1.00  0.00     0.023 A 
HETATM   30  C3  UNL     1       5.863   9.853  38.757  1.00  0.00     0.038 A 
HETATM   31  C2  UNL     1       4.519  10.213  38.814  1.00  0.00     0.068 A 
HETATM   32  C18 UNL     1       4.055  11.145  37.931  1.00  0.00     0.038 A 
HETATM   33  C17 UNL     1       4.940  11.707  37.000  1.00  0.00     0.023 A 
BRANCH  31  34
HETATM   34  O1  UNL     1       3.648   9.661  39.730  1.00  0.00    -0.356 OA
HETATM   35  C1  UNL     1       3.871   8.386  40.280  1.00  0.00     0.210 C 
ENDBRANCH  31  34
ENDBRANCH  26  28
BRANCH  26  36
HETATM   36  C16 UNL     1       9.303  11.691  35.952  1.00  0.00     0.199 A 
HETATM   37  N10 UNL     1      10.373  12.469  36.186  1.00  0.00    -0.262 N 
HETATM   38  N11 UNL     1      11.441  11.715  36.330  1.00  0.00    -0.226 N 
ATOM     39  H10 UNL     1      10.360  13.487  36.243  1.00  0.00     0.190 HD
HETATM   40  N12 UNL     1      11.069  10.484  36.194  1.00  0.00    -0.226 N 
ATOM     41  H11 UNL     1      12.390  12.041  36.516  1.00  0.00     0.210 HD
HETATM   42  N13 UNL     1       9.783  10.448  35.965  1.00  0.00    -0.262 N 
ATOM     43  H12 UNL     1      11.681   9.671  36.255  1.00  0.00     0.210 HD
ATOM     44  H13 UNL     1       9.232   9.602  35.820  1.00  0.00     0.190 HD
ENDBRANCH  26  36
ENDBRANCH  25  26
ENDBRANCH  24  25
ENDBRANCH  21  24
ENDBRANCH  14  21
BRANCH  17  45
HETATM   45  N6  UNL     1      13.704  16.021  37.966  1.00  0.00    -0.234 N 
ATOM     46  H62 UNL     1      13.765  15.059  37.632  1.00  0.00     0.174 HD
ATOM     47  H61 UNL     1      14.521  16.632  37.944  1.00  0.00     0.174 HD
ENDBRANCH  17  45
ENDBRANCH   4   6
ENDBRANCH   1   4
TORSDOF 10
ENDMDL
MODEL 2
REMARK VINA RESULT: -8.433029594      1.125      1.462
REMARK  10 active torsions:
REMARK  status: ('A' for Active; 'I' for Inactive)
REMARK    1  A    between atoms: O1_2  and  C2_3 
REMARK    2  A    between atoms: C5_6  and  S1_7 
REMARK    3  A    between atoms: S1_7  and  C6_9 
REMARK    4  A    between atoms: S1_7  and  C16_37 
REMARK    5  A    between atoms: C6_9  and  C7_10 
REMARK    6  A    between atoms: C7_10  and  N1_11 
REMARK    7  A    between atoms: N1_11  and  C8_14 
REMARK    8  A    between atoms: C12_25  and  N6_26 
REMARK    9  A    between atoms: C13_31  and  N8_32 
REMARK   10  A    between atoms: N8_32  and  C14_34 
ROOT
HETATM    1  C14 UNL     1      12.244  20.187  40.583  1.00  0.00     0.245 C 
HETATM    2  C15 UNL     1      11.764  21.198  39.669  1.00  0.00     0.078 C 
HETATM    3  N9  UNL     1      11.397  22.016  38.943  1.00  0.00    -0.196 NA
ENDROOT
BRANCH   1   4
HETATM    4  N8  UNL     1      11.339  19.066  40.610  1.00  0.00    -0.362 N 
ATOM      5  H8  UNL     1      10.639  19.015  41.349  1.00  0.00     0.162 HD
BRANCH   4   6
HETATM    6  C13 UNL     1      11.387  18.118  39.718  1.00  0.00     0.146 A 
HETATM    7  C10 UNL     1      10.303  17.835  38.916  1.00  0.00     0.106 A 
HETATM    8  N4  UNL     1       9.126  18.600  39.077  1.00  0.00    -0.326 N 
HETATM    9  C11 UNL     1      10.323  16.838  37.964  1.00  0.00     0.107 A 
HETATM   10  C9  UNL     1       8.009  18.322  38.261  1.00  0.00     0.190 A 
ATOM     11  H4  UNL     1       9.085  19.344  39.773  1.00  0.00     0.169 HD
HETATM   12  N2  UNL     1       8.077  17.388  37.395  1.00  0.00    -0.332 N 
HETATM   13  N3  UNL     1       6.814  19.060  38.381  1.00  0.00    -0.063 NA
HETATM   14  C8  UNL     1       9.162  16.524  37.100  1.00  0.00     0.340 A 
ATOM     15  H2  UNL     1       7.236  17.243  36.837  1.00  0.00     0.164 HD
HETATM   16  N5  UNL     1      11.475  16.136  37.850  1.00  0.00    -0.190 N 
HETATM   17  C12 UNL     1      12.543  16.397  38.623  1.00  0.00     0.677 A 
ATOM     18  H5  UNL     1      11.535  15.388  37.159  1.00  0.00     0.184 HD
HETATM   19  N7  UNL     1      12.501  17.379  39.549  1.00  0.00    -0.175 N 
ATOM     20  H7  UNL     1      13.322  17.564  40.126  1.00  0.00     0.186 HD
BRANCH  14  21
HETATM   21  N1  UNL     1       9.553  16.542  35.670  1.00  0.00    -0.048 N 
ATOM     22  H12 UNL     1      10.555  16.421  35.521  1.00  0.00     0.280 HD
ATOM     23  H11 UNL     1       9.475  17.463  35.239  1.00  0.00     0.280 HD
BRANCH  21  24
HETATM   24  C7  UNL     1       8.760  15.547  35.031  1.00  0.00     0.247 C 
BRANCH  24  25
HETATM   25  C6  UNL     1       8.213  14.456  35.928  1.00  0.00     0.137 C 
BRANCH  25  26
HETATM   26  S1  UNL     1       7.820  12.801  35.158  1.00  0.00     0.042 S 
HETATM   27  O2  UNL     1       7.611  13.510  33.680  1.00  0.00    -0.257 OA
BRANCH  26  28
HETATM   28  C5  UNL     1       6.354  12.547  36.525  1.00  0.00     0.027 A 
HETATM   29  C4  UNL     1       5.422  13.481  36.688  1.00  0.00     0.023 A 
HETATM   30  C3  UNL     1       4.414  13.262  37.608  1.00  0.00     0.038 A 
HETATM   31  C2  UNL     1       4.366  12.089  38.356  1.00  0.00     0.068 A 
HETATM   32  C18 UNL     1       5.340  11.151  38.164  1.00  0.00     0.038 A 
HETATM   33  C17 UNL     1       6.352  11.397  37.225  1.00  0.00     0.023 A 
BRANCH  31  34
HETATM   34  O1  UNL     1       3.371  11.846  39.280  1.00  0.00    -0.356 OA
HETATM   35  C1  UNL     1       2.562  10.697  39.202  1.00  0.00     0.210 C 
ENDBRANCH  31  34
ENDBRANCH  26  28
BRANCH  26  36
HETATM   36  C16 UNL     1       9.460  11.922  35.748  1.00  0.00     0.199 A 
HETATM   37  N10 UNL     1      10.649  12.471  36.047  1.00  0.00    -0.262 N 
HETATM   38  N11 UNL     1      11.494  11.526  36.395  1.00  0.00    -0.226 N 
ATOM     39  H10 UNL     1      10.863  13.468  36.010  1.00  0.00     0.190 HD
HETATM   40  N12 UNL     1      10.866  10.398  36.322  1.00  0.00    -0.226 N 
ATOM     41  H11 UNL     1      12.467  11.658  36.671  1.00  0.00     0.210 HD
HETATM   42  N13 UNL     1       9.637  10.615  35.934  1.00  0.00    -0.262 N 
ATOM     43  H12 UNL     1      11.266   9.484  36.534  1.00  0.00     0.210 HD
ATOM     44  H13 UNL     1       8.926   9.897  35.796  1.00  0.00     0.190 HD
ENDBRANCH  26  36
ENDBRANCH  25  26
ENDBRANCH  24  25
ENDBRANCH  21  24
ENDBRANCH  14  21
BRANCH  17  45
HETATM   45  N6  UNL     1      13.636  15.730  38.512  1.00  0.00    -0.234 N 
ATOM     46  H62 UNL     1      13.572  14.712  38.520  1.00  0.00     0.174 HD
ATOM     47  H61 UNL     1      14.539  16.193  38.420  1.00  0.00     0.174 HD
ENDBRANCH  17  45
ENDBRANCH   4   6
ENDBRANCH   1   4
TORSDOF 10
ENDMDL
MODEL 3
REMARK VINA RESULT: -8.425208708      1.436      2.750
REMARK  10 active torsions:
REMARK  status: ('A' for Active; 'I' for Inactive)
REMARK    1  A    between atoms: O1_2  and  C2_3 
REMARK    2  A    between atoms: C5_6  and  S1_7 
REMARK    3  A    between atoms: S1_7  and  C6_9 
REMARK    4  A    between atoms: S1_7  and  C16_37 
REMARK    5  A    between atoms: C6_9  and  C7_10 
REMARK    6  A    between atoms: C7_10  and  N1_11 
REMARK    7  A    between atoms: N1_11  and  C8_14 
REMARK    8  A    between atoms: C12_25  and  N6_26 
REMARK    9  A    between atoms: C13_31  and  N8_32 
REMARK   10  A    between atoms: N8_32  and  C14_34 
ROOT
HETATM    1  C14 UNL     1      12.919  17.294  38.432  1.00  0.00     0.245 C 
HETATM    2  C15 UNL     1      12.695  18.668  38.045  1.00  0.00     0.078 C 
HETATM    3  N9  UNL     1      12.533  19.770  37.743  1.00  0.00    -0.196 NA
ENDROOT
BRANCH   1   4
HETATM    4  N8  UNL     1      11.820  16.468  38.003  1.00  0.00    -0.362 N 
ATOM      5  H8  UNL     1      12.015  15.642  37.436  1.00  0.00     0.162 HD
BRANCH   4   6
HETATM    6  C13 UNL     1      10.586  16.741  38.316  1.00  0.00     0.146 A 
HETATM    7  C10 UNL     1       9.584  16.704  37.371  1.00  0.00     0.106 A 
HETATM    8  N4  UNL     1       9.920  16.359  36.042  1.00  0.00    -0.326 N 
HETATM    9  C11 UNL     1       8.268  16.989  37.670  1.00  0.00     0.107 A 
HETATM   10  C9  UNL     1       8.904  16.315  35.064  1.00  0.00     0.190 A 
ATOM     11  H4  UNL     1      10.886  16.143  35.794  1.00  0.00     0.169 HD
HETATM   12  N2  UNL     1       7.702  16.587  35.393  1.00  0.00    -0.332 N 
HETATM   13  N3  UNL     1       9.190  15.972  33.728  1.00  0.00    -0.063 NA
HETATM   14  C8  UNL     1       7.186  16.954  36.661  1.00  0.00     0.340 A 
ATOM     15  H2  UNL     1       7.017  16.533  34.639  1.00  0.00     0.164 HD
HETATM   16  N5  UNL     1       7.999  17.312  38.958  1.00  0.00    -0.190 N 
HETATM   17  C12 UNL     1       8.963  17.354  39.894  1.00  0.00     0.677 A 
ATOM     18  H5  UNL     1       7.039  17.530  39.224  1.00  0.00     0.184 HD
HETATM   19  N7  UNL     1      10.245  17.070  39.577  1.00  0.00    -0.175 N 
ATOM     20  H7  UNL     1      10.963  17.106  40.301  1.00  0.00     0.186 HD
BRANCH  14  21
HETATM   21  N1  UNL     1       6.074  16.084  37.115  1.00  0.00    -0.048 N 
ATOM     22  H12 UNL     1       5.170  16.556  37.133  1.00  0.00     0.280 HD
ATOM     23  H11 UNL     1       6.115  15.856  38.108  1.00  0.00     0.280 HD
BRANCH  21  24
HETATM   24  C7  UNL     1       6.098  14.939  36.268  1.00  0.00     0.247 C 
BRANCH  24  25
HETATM   25  C6  UNL     1       6.811  13.721  36.817  1.00  0.00     0.137 C 
BRANCH  25  26
HETATM   26  S1  UNL     1       6.840  12.174  35.772  1.00  0.00     0.042 S 
HETATM   27  O2  UNL     1       6.159  12.988  34.505  1.00  0.00    -0.257 OA
BRANCH  26  28
HETATM   28  C5  UNL     1       5.796  11.217  37.213  1.00  0.00     0.027 A 
HETATM   29  C4  UNL     1       6.389  10.298  37.970  1.00  0.00     0.023 A 
HETATM   30  C3  UNL     1       5.656   9.685  38.968  1.00  0.00     0.038 A 
HETATM   31  C2  UNL     1       4.322  10.015  39.187  1.00  0.00     0.068 A 
HETATM   32  C18 UNL     1       3.744  10.963  38.391  1.00  0.00     0.038 A 
HETATM   33  C17 UNL     1       4.508  11.570  37.384  1.00  0.00     0.023 A 
BRANCH  31  34
HETATM   34  O1  UNL     1       3.569   9.419  40.177  1.00  0.00    -0.356 OA
HETATM   35  C1  UNL     1       2.164   9.483  40.170  1.00  0.00     0.210 C 
ENDBRANCH  31  34
ENDBRANCH  26  28
BRANCH  26  36
HETATM   36  C16 UNL     1       8.751  11.839  35.981  1.00  0.00     0.199 A 
HETATM   37  N10 UNL     1       9.743  12.721  36.185  1.00  0.00    -0.262 N 
HETATM   38  N11 UNL     1      10.890  12.082  36.260  1.00  0.00    -0.226 N 
ATOM     39  H10 UNL     1       9.626  13.731  36.268  1.00  0.00     0.190 HD
HETATM   40  N12 UNL     1      10.643  10.822  36.109  1.00  0.00    -0.226 N 
ATOM     41  H11 UNL     1      11.807  12.503  36.410  1.00  0.00     0.210 HD
HETATM   42  N13 UNL     1       9.359  10.654  35.940  1.00  0.00    -0.262 N 
ATOM     43  H12 UNL     1      11.340  10.078  36.122  1.00  0.00     0.210 HD
ATOM     44  H13 UNL     1       8.894   9.757  35.798  1.00  0.00     0.190 HD
ENDBRANCH  26  36
ENDBRANCH  25  26
ENDBRANCH  24  25
ENDBRANCH  21  24
ENDBRANCH  14  21
BRANCH  17  45
HETATM   45  N6  UNL     1       8.705  17.660  41.114  1.00  0.00    -0.234 N 
ATOM     46  H62 UNL     1       7.727  17.786  41.374  1.00  0.00     0.174 HD
ATOM     47  H61 UNL     1       9.446  17.775  41.806  1.00  0.00     0.174 HD
ENDBRANCH  17  45
ENDBRANCH   4   6
ENDBRANCH   1   4
TORSDOF 10
ENDMDL
MODEL 4
REMARK VINA RESULT: -8.182274326      1.782      3.336
REMARK  10 active torsions:
REMARK  status: ('A' for Active; 'I' for Inactive)
REMARK    1  A    between atoms: O1_2  and  C2_3 
REMARK    2  A    between atoms: C5_6  and  S1_7 
REMARK    3  A    between atoms: S1_7  and  C6_9 
REMARK    4  A    between atoms: S1_7  and  C16_37 
REMARK    5  A    between atoms: C6_9  and  C7_10 
REMARK    6  A    between atoms: C7_10  and  N1_11 
REMARK    7  A    between atoms: N1_11  and  C8_14 
REMARK    8  A    between atoms: C12_25  and  N6_26 
REMARK    9  A    between atoms: C13_31  and  N8_32 
REMARK   10  A    between atoms: N8_32  and  C14_34 
ROOT
HETATM    1  C14 UNL     1      12.785  16.121  38.504  1.00  0.00     0.245 C 
HETATM    2  C15 UNL     1      13.924  15.473  37.896  1.00  0.00     0.078 C 
HETATM    3  N9  UNL     1      14.844  14.957  37.427  1.00  0.00    -0.196 NA
ENDROOT
BRANCH   1   4
HETATM    4  N8  UNL     1      11.664  16.113  37.599  1.00  0.00    -0.362 N 
ATOM      5  H8  UNL     1      11.811  15.823  36.633  1.00  0.00     0.162 HD
BRANCH   4   6
HETATM    6  C13 UNL     1      10.468  16.465  37.977  1.00  0.00     0.146 A 
HETATM    7  C10 UNL     1       9.412  16.472  37.093  1.00  0.00     0.106 A 
HETATM    8  N4  UNL     1       9.649  16.087  35.754  1.00  0.00    -0.326 N 
HETATM    9  C11 UNL     1       8.135  16.840  37.462  1.00  0.00     0.107 A 
HETATM   10  C9  UNL     1       8.577  16.089  34.837  1.00  0.00     0.190 A 
ATOM     11  H4  UNL     1      10.584  15.810  35.455  1.00  0.00     0.169 HD
HETATM   12  N2  UNL     1       7.413  16.437  35.229  1.00  0.00    -0.332 N 
HETATM   13  N3  UNL     1       8.763  15.708  33.493  1.00  0.00    -0.063 NA
HETATM   14  C8  UNL     1       6.995  16.854  36.518  1.00  0.00     0.340 A 
ATOM     15  H2  UNL     1       6.684  16.412  34.517  1.00  0.00     0.164 HD
HETATM   16  N5  UNL     1       7.962  17.199  38.756  1.00  0.00    -0.190 N 
HETATM   17  C12 UNL     1       8.979  17.198  39.634  1.00  0.00     0.677 A 
ATOM     18  H5  UNL     1       7.034  17.478  39.073  1.00  0.00     0.184 HD
HETATM   19  N7  UNL     1      10.222  16.834  39.250  1.00  0.00    -0.175 N 
ATOM     20  H7  UNL     1      10.982  16.837  39.930  1.00  0.00     0.186 HD
BRANCH  14  21
HETATM   21  N1  UNL     1       5.863  16.059  37.051  1.00  0.00    -0.048 N 
ATOM     22  H12 UNL     1       4.974  16.560  37.039  1.00  0.00     0.280 HD
ATOM     23  H11 UNL     1       5.908  15.912  38.059  1.00  0.00     0.280 HD
BRANCH  21  24
HETATM   24  C7  UNL     1       5.842  14.849  36.301  1.00  0.00     0.247 C 
BRANCH  24  25
HETATM   25  C6  UNL     1       6.597  13.681  36.903  1.00  0.00     0.137 C 
BRANCH  25  26
HETATM   26  S1  UNL     1       6.719  12.108  35.906  1.00  0.00     0.042 S 
HETATM   27  O2  UNL     1       6.014  12.846  34.606  1.00  0.00    -0.257 OA
BRANCH  26  28
HETATM   28  C5  UNL     1       5.709  11.141  37.363  1.00  0.00     0.027 A 
HETATM   29  C4  UNL     1       6.329  10.246  38.128  1.00  0.00     0.023 A 
HETATM   30  C3  UNL     1       5.618   9.627  39.138  1.00  0.00     0.038 A 
HETATM   31  C2  UNL     1       4.276   9.924  39.360  1.00  0.00     0.068 A 
HETATM   32  C18 UNL     1       3.670  10.847  38.555  1.00  0.00     0.038 A 
HETATM   33  C17 UNL     1       4.413  11.462  37.538  1.00  0.00     0.023 A 
BRANCH  31  34
HETATM   34  O1  UNL     1       3.545   9.320  40.361  1.00  0.00    -0.356 OA
HETATM   35  C1  UNL     1       3.264   7.942  40.336  1.00  0.00     0.210 C 
ENDBRANCH  31  34
ENDBRANCH  26  28
BRANCH  26  36
HETATM   36  C16 UNL     1       8.643  11.879  36.146  1.00  0.00     0.199 A 
HETATM   37  N10 UNL     1       9.404  10.806  35.874  1.00  0.00    -0.262 N 
HETATM   38  N11 UNL     1      10.654  11.062  36.192  1.00  0.00    -0.226 N 
ATOM     39  H10 UNL     1       9.065   9.928  35.481  1.00  0.00     0.190 HD
HETATM   40  N12 UNL     1      10.697  12.268  36.656  1.00  0.00    -0.226 N 
ATOM     41  H11 UNL     1      11.445  10.426  36.092  1.00  0.00     0.210 HD
HETATM   42  N13 UNL     1       9.494  12.779  36.637  1.00  0.00    -0.262 N 
ATOM     43  H12 UNL     1      11.536  12.745  36.985  1.00  0.00     0.210 HD
ATOM     44  H13 UNL     1       9.246  13.718  36.948  1.00  0.00     0.190 HD
ENDBRANCH  26  36
ENDBRANCH  25  26
ENDBRANCH  24  25
ENDBRANCH  21  24
ENDBRANCH  14  21
BRANCH  17  45
HETATM   45  N6  UNL     1       8.812  17.538  40.862  1.00  0.00    -0.234 N 
ATOM     46  H62 UNL     1       9.581  18.018  41.329  1.00  0.00     0.174 HD
ATOM     47  H61 UNL     1       7.944  17.339  41.359  1.00  0.00     0.174 HD
ENDBRANCH  17  45
ENDBRANCH   4   6
ENDBRANCH   1   4
TORSDOF 10
ENDMDL
MODEL 5
REMARK VINA RESULT: -8.151276018      2.112      2.277
REMARK  10 active torsions:
REMARK  status: ('A' for Active; 'I' for Inactive)
REMARK    1  A    between atoms: O1_2  and  C2_3 
REMARK    2  A    between atoms: C5_6  and  S1_7 
REMARK    3  A    between atoms: S1_7  and  C6_9 
REMARK    4  A    between atoms: S1_7  and  C16_37 
REMARK    5  A    between atoms: C6_9  and  C7_10 
REMARK    6  A    between atoms: C7_10  and  N1_11 
REMARK    7  A    between atoms: N1_11  and  C8_14 
REMARK    8  A    between atoms: C12_25  and  N6_26 
REMARK    9  A    between atoms: C13_31  and  N8_32 
REMARK   10  A    between atoms: N8_32  and  C14_34 
ROOT
HETATM    1  C14 UNL     1      13.235  20.639  38.230  1.00  0.00     0.245 C 
HETATM    2  C15 UNL     1      12.508  21.866  38.460  1.00  0.00     0.078 C 
HETATM    3  N9  UNL     1      11.935  22.854  38.627  1.00  0.00    -0.196 NA
ENDROOT
BRANCH   1   4
HETATM    4  N8  UNL     1      12.907  19.666  39.240  1.00  0.00    -0.362 N 
ATOM      5  H8  UNL     1      12.959  19.937  40.222  1.00  0.00     0.162 HD
BRANCH   4   6
HETATM    6  C13 UNL     1      12.545  18.452  38.939  1.00  0.00     0.146 A 
HETATM    7  C10 UNL     1      11.219  18.077  38.954  1.00  0.00     0.106 A 
HETATM    8  N4  UNL     1      10.248  19.041  39.304  1.00  0.00    -0.326 N 
HETATM    9  C11 UNL     1      10.805  16.799  38.641  1.00  0.00     0.107 A 
HETATM   10  C9  UNL     1       8.886  18.671  39.323  1.00  0.00     0.190 A 
ATOM     11  H4  UNL     1      10.528  19.993  39.540  1.00  0.00     0.169 HD
HETATM   12  N2  UNL     1       8.554  17.476  39.025  1.00  0.00    -0.332 N 
HETATM   13  N3  UNL     1       7.881  19.599  39.661  1.00  0.00    -0.063 NA
HETATM   14  C8  UNL     1       9.383  16.386  38.658  1.00  0.00     0.340 A 
ATOM     15  H2  UNL     1       7.555  17.277  39.055  1.00  0.00     0.164 HD
HETATM   16  N5  UNL     1      11.775  15.914  38.311  1.00  0.00    -0.190 N 
HETATM   17  C12 UNL     1      13.073  16.261  38.290  1.00  0.00     0.677 A 
ATOM     18  H5  UNL     1      11.513  14.958  38.072  1.00  0.00     0.184 HD
HETATM   19  N7  UNL     1      13.456  17.519  38.600  1.00  0.00    -0.175 N 
ATOM     20  H7  UNL     1      14.445  17.765  38.578  1.00  0.00     0.186 HD
BRANCH  14  21
HETATM   21  N1  UNL     1       9.001  15.770  37.364  1.00  0.00    -0.048 N 
ATOM     22  H12 UNL     1       9.480  14.889  37.176  1.00  0.00     0.280 HD
ATOM     23  H11 UNL     1       9.352  16.278  36.552  1.00  0.00     0.280 HD
BRANCH  21  24
HETATM   24  C7  UNL     1       7.582  15.650  37.388  1.00  0.00     0.247 C 
BRANCH  24  25
HETATM   25  C6  UNL     1       7.025  14.278  37.067  1.00  0.00     0.137 C 
BRANCH  25  26
HETATM   26  S1  UNL     1       7.163  13.663  35.310  1.00  0.00     0.042 S 
HETATM   27  O2  UNL     1       7.404  15.204  34.763  1.00  0.00    -0.257 OA
BRANCH  26  28
HETATM   28  C5  UNL     1       5.354  12.786  35.507  1.00  0.00     0.027 A 
HETATM   29  C4  UNL     1       5.175  11.526  35.117  1.00  0.00     0.023 A 
HETATM   30  C3  UNL     1       3.935  10.944  35.296  1.00  0.00     0.038 A 
HETATM   31  C2  UNL     1       2.884  11.653  35.871  1.00  0.00     0.068 A 
HETATM   32  C18 UNL     1       3.102  12.945  36.258  1.00  0.00     0.038 A 
HETATM   33  C17 UNL     1       4.369  13.513  36.066  1.00  0.00     0.023 A 
BRANCH  31  34
HETATM   34  O1  UNL     1       1.637  11.096  36.061  1.00  0.00    -0.356 OA
HETATM   35  C1  UNL     1       0.781  11.543  37.084  1.00  0.00     0.210 C 
ENDBRANCH  31  34
ENDBRANCH  26  28
BRANCH  26  36
HETATM   36  C16 UNL     1       8.586  12.376  35.670  1.00  0.00     0.199 A 
HETATM   37  N10 UNL     1       8.604  11.054  35.434  1.00  0.00    -0.262 N 
HETATM   38  N11 UNL     1       9.752  10.552  35.834  1.00  0.00    -0.226 N 
ATOM     39  H10 UNL     1       7.845  10.520  35.010  1.00  0.00     0.190 HD
HETATM   40  N12 UNL     1      10.454  11.525  36.315  1.00  0.00    -0.226 N 
ATOM     41  H11 UNL     1      10.036   9.574  35.777  1.00  0.00     0.210 HD
HETATM   42  N13 UNL     1       9.769  12.634  36.225  1.00  0.00    -0.262 N 
ATOM     43  H12 UNL     1      11.394  11.441  36.702  1.00  0.00     0.210 HD
ATOM     44  H13 UNL     1      10.089  13.553  36.531  1.00  0.00     0.190 HD
ENDBRANCH  26  36
ENDBRANCH  25  26
ENDBRANCH  24  25
ENDBRANCH  21  24
ENDBRANCH  14  21
BRANCH  17  45
HETATM   45  N6  UNL     1      13.991  15.420  37.975  1.00  0.00    -0.234 N 
ATOM     46  H62 UNL     1      14.419  15.509  37.054  1.00  0.00     0.174 HD
ATOM     47  H61 UNL     1      14.288  14.685  38.618  1.00  0.00     0.174 HD
ENDBRANCH  17  45
ENDBRANCH   4   6
ENDBRANCH   1   4
TORSDOF 10
ENDMDL
