MODEL 1
REMARK VINA RESULT: -4.993051188      0.000      0.000
REMARK  5 active torsions:
REMARK  status: ('A' for Active; 'I' for Inactive)
REMARK    1  A    between atoms: O1_1  and  C1_3 
REMARK    2  A    between atoms: C1_3  and  C2_4 
REMARK    3  A    between atoms: C2_4  and  C3_5 
REMARK    4  A    between atoms: C3_5  and  N1_6 
REMARK    5  A    between atoms: C13_18  and  O4_19 
ROOT
HETATM    1  C2  UNL     1     -18.761  -7.410  22.564  1.00  0.00     0.061 C 
HETATM    2  C8  UNL     1     -18.641  -8.865  22.821  1.00  0.00     0.033 C 
HETATM    3  C9  UNL     1     -17.414  -9.496  22.148  1.00  0.00     0.046 C 
HETATM    4  C10 UNL     1     -16.249  -9.265  23.070  1.00  0.00     0.009 A 
HETATM    5  C11 UNL     1     -15.588  -8.079  23.283  1.00  0.00    -0.015 A 
HETATM    6  C12 UNL     1     -14.603  -8.340  24.199  1.00  0.00     0.153 A 
HETATM    7  O3  UNL     1     -14.668  -9.608  24.517  1.00  0.00    -0.299 OA
HETATM    8  C13 UNL     1     -15.637 -10.200  23.866  1.00  0.00     0.189 A 
HETATM    9  C14 UNL     1     -15.867  -6.770  22.666  1.00  0.00     0.116 C 
HETATM   10  S1  UNL     1     -17.337  -6.840  21.598  1.00  0.00    -0.147 SA
ENDROOT
BRANCH   1  11
HETATM   11  C1  UNL     1     -18.643  -6.724  23.948  1.00  0.00     0.190 C 
BRANCH  11  12
HETATM   12  O1  UNL     1     -18.809  -5.368  23.844  1.00  0.00    -0.399 OA
ATOM     13  H1  UNL     1     -18.579  -4.930  24.656  1.00  0.00     0.209 HD
ENDBRANCH  11  12
ENDBRANCH   1  11
BRANCH   1  14
HETATM   14  C3  UNL     1     -20.042  -6.909  21.994  1.00  0.00     0.081 C 
BRANCH  14  15
HETATM   15  N1  UNL     1     -20.633  -7.592  20.927  1.00  0.00    -0.388 N 
HETATM   16  C4  UNL     1     -19.964  -7.793  19.717  1.00  0.00     0.148 C 
HETATM   17  C5  UNL     1     -20.411  -9.064  18.987  1.00  0.00     0.187 C 
HETATM   18  O2  UNL     1     -20.390 -10.062  19.992  1.00  0.00    -0.388 OA
HETATM   19  C6  UNL     1     -21.565  -9.859  20.714  1.00  0.00     0.187 C 
HETATM   20  C7  UNL     1     -21.725  -8.447  21.221  1.00  0.00     0.148 C 
ENDBRANCH  14  15
ENDBRANCH   1  14
BRANCH   8  21
HETATM   21  O4  UNL     1     -16.016 -11.546  23.940  1.00  0.00    -0.340 OA
ATOM     22  H4  UNL     1     -15.420 -12.263  24.124  1.00  0.00     0.220 HD
ENDBRANCH   8  21
TORSDOF 5
ENDMDL
MODEL 2
REMARK VINA RESULT: -4.963264035      3.068      4.643
REMARK  5 active torsions:
REMARK  status: ('A' for Active; 'I' for Inactive)
REMARK    1  A    between atoms: O1_1  and  C1_3 
REMARK    2  A    between atoms: C1_3  and  C2_4 
REMARK    3  A    between atoms: C2_4  and  C3_5 
REMARK    4  A    between atoms: C3_5  and  N1_6 
REMARK    5  A    between atoms: C13_18  and  O4_19 
ROOT
HETATM    1  C2  UNL     1     -19.628  -8.998  20.305  1.00  0.00     0.061 C 
HETATM    2  C8  UNL     1     -19.836  -7.545  20.096  1.00  0.00     0.033 C 
HETATM    3  C9  UNL     1     -20.866  -6.940  21.060  1.00  0.00     0.046 C 
HETATM    4  C10 UNL     1     -20.132  -6.624  22.334  1.00  0.00     0.009 A 
HETATM    5  C11 UNL     1     -19.696  -7.522  23.279  1.00  0.00    -0.015 A 
HETATM    6  C12 UNL     1     -19.082  -6.789  24.261  1.00  0.00     0.153 A 
HETATM    7  O3  UNL     1     -19.145  -5.525  23.924  1.00  0.00    -0.299 OA
HETATM    8  C13 UNL     1     -19.764  -5.381  22.780  1.00  0.00     0.189 A 
HETATM    9  C14 UNL     1     -19.843  -8.989  23.263  1.00  0.00     0.116 C 
HETATM   10  S1  UNL     1     -20.614  -9.560  21.718  1.00  0.00    -0.147 SA
ENDROOT
BRANCH   1  11
HETATM   11  C1  UNL     1     -18.145  -9.159  20.724  1.00  0.00     0.190 C 
BRANCH  11  12
HETATM   12  O1  UNL     1     -17.420  -8.038  20.419  1.00  0.00    -0.399 OA
ATOM     13  H1  UNL     1     -16.579  -8.042  20.861  1.00  0.00     0.209 HD
ENDBRANCH  11  12
ENDBRANCH   1  11
BRANCH   1  14
HETATM   14  C3  UNL     1     -19.796  -9.899  19.131  1.00  0.00     0.081 C 
BRANCH  14  15
HETATM   15  N1  UNL     1     -20.405  -9.410  17.971  1.00  0.00    -0.388 N 
HETATM   16  C4  UNL     1     -19.675  -9.151  16.807  1.00  0.00     0.148 C 
HETATM   17  C5  UNL     1     -20.507  -9.307  15.530  1.00  0.00     0.187 C 
HETATM   18  O2  UNL     1     -21.168 -10.548  15.701  1.00  0.00    -0.388 OA
HETATM   19  C6  UNL     1     -22.228 -10.267  16.560  1.00  0.00     0.187 C 
HETATM   20  C7  UNL     1     -21.804  -9.590  17.840  1.00  0.00     0.148 C 
ENDBRANCH  14  15
ENDBRANCH   1  14
BRANCH   8  21
HETATM   21  O4  UNL     1     -20.025  -4.185  22.098  1.00  0.00    -0.340 OA
ATOM     22  H4  UNL     1     -20.875  -3.938  21.753  1.00  0.00     0.220 HD
ENDBRANCH   8  21
TORSDOF 5
ENDMDL
MODEL 3
REMARK VINA RESULT: -4.895232870      2.928      5.216
REMARK  5 active torsions:
REMARK  status: ('A' for Active; 'I' for Inactive)
REMARK    1  A    between atoms: O1_1  and  C1_3 
REMARK    2  A    between atoms: C1_3  and  C2_4 
REMARK    3  A    between atoms: C2_4  and  C3_5 
REMARK    4  A    between atoms: C3_5  and  N1_6 
REMARK    5  A    between atoms: C13_18  and  O4_19 
ROOT
HETATM    1  C2  UNL     1     -18.423  -7.938  21.401  1.00  0.00     0.061 C 
HETATM    2  C8  UNL     1     -19.766  -7.786  20.791  1.00  0.00     0.033 C 
HETATM    3  C9  UNL     1     -20.892  -7.708  21.830  1.00  0.00     0.046 C 
HETATM    4  C10 UNL     1     -20.965  -6.275  22.280  1.00  0.00     0.009 A 
HETATM    5  C11 UNL     1     -20.083  -5.625  23.110  1.00  0.00    -0.015 A 
HETATM    6  C12 UNL     1     -20.544  -4.341  23.242  1.00  0.00     0.153 A 
HETATM    7  O3  UNL     1     -21.638  -4.227  22.532  1.00  0.00    -0.299 OA
HETATM    8  C13 UNL     1     -21.928  -5.358  21.941  1.00  0.00     0.189 A 
HETATM    9  C14 UNL     1     -18.871  -6.175  23.743  1.00  0.00     0.116 C 
HETATM   10  S1  UNL     1     -18.562  -7.885  23.207  1.00  0.00    -0.147 SA
ENDROOT
BRANCH   1  11
HETATM   11  C1  UNL     1     -17.626  -6.673  20.994  1.00  0.00     0.190 C 
BRANCH  11  12
HETATM   12  O1  UNL     1     -16.790  -6.932  19.940  1.00  0.00    -0.399 OA
ATOM     13  H1  UNL     1     -15.879  -6.879  20.204  1.00  0.00     0.209 HD
ENDBRANCH  11  12
ENDBRANCH   1  11
BRANCH   1  14
HETATM   14  C3  UNL     1     -17.582  -9.082  20.952  1.00  0.00     0.081 C 
BRANCH  14  15
HETATM   15  N1  UNL     1     -18.111 -10.376  20.980  1.00  0.00    -0.388 N 
HETATM   16  C4  UNL     1     -18.755 -10.935  19.873  1.00  0.00     0.148 C 
HETATM   17  C5  UNL     1     -18.637 -12.461  19.816  1.00  0.00     0.187 C 
HETATM   18  O2  UNL     1     -17.261 -12.708  20.045  1.00  0.00    -0.388 OA
HETATM   19  C6  UNL     1     -17.104 -12.576  21.424  1.00  0.00     0.187 C 
HETATM   20  C7  UNL     1     -17.616 -11.265  21.966  1.00  0.00     0.148 C 
ENDBRANCH  14  15
ENDBRANCH   1  14
BRANCH   8  21
HETATM   21  O4  UNL     1     -23.017  -5.627  21.102  1.00  0.00    -0.340 OA
ATOM     22  H4  UNL     1     -23.158  -5.217  20.257  1.00  0.00     0.220 HD
ENDBRANCH   8  21
TORSDOF 5
ENDMDL
MODEL 4
REMARK VINA RESULT: -4.867023754      2.538      3.979
REMARK  5 active torsions:
REMARK  status: ('A' for Active; 'I' for Inactive)
REMARK    1  A    between atoms: O1_1  and  C1_3 
REMARK    2  A    between atoms: C1_3  and  C2_4 
REMARK    3  A    between atoms: C2_4  and  C3_5 
REMARK    4  A    between atoms: C3_5  and  N1_6 
REMARK    5  A    between atoms: C13_18  and  O4_19 
ROOT
HETATM    1  C2  UNL     1     -19.654  -9.078  20.413  1.00  0.00     0.061 C 
HETATM    2  C8  UNL     1     -18.222  -8.700  20.452  1.00  0.00     0.033 C 
HETATM    3  C9  UNL     1     -18.002  -7.181  20.492  1.00  0.00     0.046 C 
HETATM    4  C10 UNL     1     -18.122  -6.766  21.933  1.00  0.00     0.009 A 
HETATM    5  C11 UNL     1     -19.278  -6.672  22.671  1.00  0.00    -0.015 A 
HETATM    6  C12 UNL     1     -18.909  -6.260  23.924  1.00  0.00     0.153 A 
HETATM    7  O3  UNL     1     -17.608  -6.116  23.939  1.00  0.00    -0.299 OA
HETATM    8  C13 UNL     1     -17.097  -6.407  22.770  1.00  0.00     0.189 A 
HETATM    9  C14 UNL     1     -20.655  -6.956  22.227  1.00  0.00     0.116 C 
HETATM   10  S1  UNL     1     -20.684  -7.591  20.523  1.00  0.00    -0.147 SA
ENDROOT
BRANCH   1  11
HETATM   11  C1  UNL     1     -19.917  -9.880  21.713  1.00  0.00     0.190 C 
BRANCH  11  12
HETATM   12  O1  UNL     1     -18.743 -10.206  22.339  1.00  0.00    -0.399 OA
ATOM     13  H1  UNL     1     -18.751 -11.108  22.637  1.00  0.00     0.209 HD
ENDBRANCH  11  12
ENDBRANCH   1  11
BRANCH   1  14
HETATM   14  C3  UNL     1     -20.106  -9.974  19.313  1.00  0.00     0.081 C 
BRANCH  14  15
HETATM   15  N1  UNL     1     -20.624  -9.415  18.141  1.00  0.00    -0.388 N 
HETATM   16  C4  UNL     1     -19.796  -8.940  17.119  1.00  0.00     0.148 C 
HETATM   17  C5  UNL     1     -20.441  -9.027  15.733  1.00  0.00     0.187 C 
HETATM   18  O2  UNL     1     -20.964 -10.343  15.680  1.00  0.00    -0.388 OA
HETATM   19  C6  UNL     1     -22.147 -10.282  16.414  1.00  0.00     0.187 C 
HETATM   20  C7  UNL     1     -21.965  -9.724  17.804  1.00  0.00     0.148 C 
ENDBRANCH  14  15
ENDBRANCH   1  14
BRANCH   8  21
HETATM   21  O4  UNL     1     -15.746  -6.372  22.398  1.00  0.00    -0.340 OA
ATOM     22  H4  UNL     1     -15.199  -5.597  22.435  1.00  0.00     0.220 HD
ENDBRANCH   8  21
TORSDOF 5
ENDMDL
MODEL 5
REMARK VINA RESULT: -4.833985747      3.285      4.677
REMARK  5 active torsions:
REMARK  status: ('A' for Active; 'I' for Inactive)
REMARK    1  A    between atoms: O1_1  and  C1_3 
REMARK    2  A    between atoms: C1_3  and  C2_4 
REMARK    3  A    between atoms: C2_4  and  C3_5 
REMARK    4  A    between atoms: C3_5  and  N1_6 
REMARK    5  A    between atoms: C13_18  and  O4_19 
ROOT
HETATM    1  C2  UNL     1     -19.307 -10.536  21.831  1.00  0.00     0.061 C 
HETATM    2  C8  UNL     1     -18.537  -9.985  20.691  1.00  0.00     0.033 C 
HETATM    3  C9  UNL     1     -18.910  -8.534  20.359  1.00  0.00     0.046 C 
HETATM    4  C10 UNL     1     -18.111  -7.660  21.285  1.00  0.00     0.009 A 
HETATM    5  C11 UNL     1     -18.329  -7.464  22.628  1.00  0.00    -0.015 A 
HETATM    6  C12 UNL     1     -17.361  -6.595  23.059  1.00  0.00     0.153 A 
HETATM    7  O3  UNL     1     -16.606  -6.288  22.035  1.00  0.00    -0.299 OA
HETATM    8  C13 UNL     1     -17.018  -6.900  20.954  1.00  0.00     0.189 A 
HETATM    9  C14 UNL     1     -19.385  -8.063  23.465  1.00  0.00     0.116 C 
HETATM   10  S1  UNL     1     -20.385  -9.252  22.520  1.00  0.00    -0.147 SA
ENDROOT
BRANCH   1  11
HETATM   11  C1  UNL     1     -18.265 -10.858  22.931  1.00  0.00     0.190 C 
BRANCH  11  12
HETATM   12  O1  UNL     1     -16.994 -10.872  22.420  1.00  0.00    -0.399 OA
ATOM     13  H1  UNL     1     -16.628 -11.749  22.431  1.00  0.00     0.209 HD
ENDBRANCH  11  12
ENDBRANCH   1  11
BRANCH   1  14
HETATM   14  C3  UNL     1     -20.046 -11.812  21.618  1.00  0.00     0.081 C 
BRANCH  14  15
HETATM   15  N1  UNL     1     -19.366 -12.924  21.114  1.00  0.00    -0.388 N 
HETATM   16  C4  UNL     1     -18.609 -12.859  19.941  1.00  0.00     0.148 C 
HETATM   17  C5  UNL     1     -17.445 -13.855  19.920  1.00  0.00     0.187 C 
HETATM   18  O2  UNL     1     -16.827 -13.687  21.183  1.00  0.00    -0.388 OA
HETATM   19  C6  UNL     1     -17.638 -14.392  22.070  1.00  0.00     0.187 C 
HETATM   20  C7  UNL     1     -19.090 -13.985  22.012  1.00  0.00     0.148 C 
ENDBRANCH  14  15
ENDBRANCH   1  14
BRANCH   8  21
HETATM   21  O4  UNL     1     -16.467  -6.823  19.669  1.00  0.00    -0.340 OA
ATOM     22  H4  UNL     1     -16.445  -6.033  19.140  1.00  0.00     0.220 HD
ENDBRANCH   8  21
TORSDOF 5
ENDMDL
