MODEL 1
REMARK VINA RESULT: -6.467974332      0.000      0.000
REMARK  4 active torsions:
REMARK  status: ('A' for Active; 'I' for Inactive)
REMARK    1  A    between atoms: O1_1  and  C1_3 
REMARK    2  A    between atoms: N2_7  and  C3_9 
REMARK    3  A    between atoms: C9_16  and  C10_17 
REMARK    4  A    between atoms: N3_18  and  N4_20 
ROOT
HETATM    1  C1  UNL     1     -15.893 -10.576  23.523  1.00  0.00     0.179 A 
HETATM    2  N1  UNL     1     -17.169 -10.173  23.258  1.00  0.00    -0.300 N 
ATOM      3  H1  UNL     1     -17.964 -10.789  23.088  1.00  0.00     0.171 HD
HETATM    4  C2  UNL     1     -17.202  -8.841  23.259  1.00  0.00     0.227 A 
HETATM    5  N2  UNL     1     -18.231  -8.108  23.048  1.00  0.00    -0.351 N 
ATOM      6  H2  UNL     1     -19.134  -8.543  22.857  1.00  0.00     0.163 HD
HETATM    7  O2  UNL     1     -16.008  -8.416  23.509  1.00  0.00    -0.274 OA
HETATM    8  C9  UNL     1     -15.167  -9.411  23.679  1.00  0.00     0.146 A 
ENDROOT
BRANCH   8   9
HETATM    9  C10 UNL     1     -13.745  -9.337  23.977  1.00  0.00     0.148 C 
HETATM   10  N3  UNL     1     -13.093  -8.268  23.732  1.00  0.00    -0.311 N 
ATOM     11  H3  UNL     1     -13.604  -7.484  23.325  1.00  0.00     0.185 HD
BRANCH  10  12
HETATM   12  N4  UNL     1     -11.739  -8.097  23.979  1.00  0.00    -0.324 N 
HETATM   13  C11 UNL     1     -10.847  -7.790  22.888  1.00  0.00     0.168 C 
HETATM   14  C12 UNL     1     -10.248  -6.427  23.142  1.00  0.00     0.189 C 
HETATM   15  O3  UNL     1     -10.400  -6.096  24.465  1.00  0.00    -0.388 OA
HETATM   16  C13 UNL     1     -10.080  -7.125  25.349  1.00  0.00     0.189 C 
HETATM   17  C14 UNL     1     -11.165  -8.213  25.301  1.00  0.00     0.168 C 
ENDBRANCH  10  12
ENDBRANCH   8   9
BRANCH   1  18
HETATM   18  O1  UNL     1     -15.441 -11.894  23.609  1.00  0.00    -0.344 OA
ATOM     19  H1  UNL     1     -14.571 -12.207  23.388  1.00  0.00     0.219 HD
ENDBRANCH   1  18
BRANCH   5  20
HETATM   20  C3  UNL     1     -18.119  -6.664  23.079  1.00  0.00     0.085 C 
HETATM   21  C4  UNL     1     -19.270  -6.058  23.839  1.00  0.00     0.025 C 
HETATM   22  C5  UNL     1     -20.200  -5.271  22.980  1.00  0.00     0.002 C 
HETATM   23  C6  UNL     1     -20.666  -6.010  21.759  1.00  0.00     0.000 C 
HETATM   24  C7  UNL     1     -19.548  -6.774  21.114  1.00  0.00     0.002 C 
HETATM   25  C8  UNL     1     -18.242  -6.200  21.623  1.00  0.00     0.025 C 
ENDBRANCH   5  20
TORSDOF 4
ENDMDL
MODEL 2
REMARK VINA RESULT: -6.419301190      3.241      7.902
REMARK  4 active torsions:
REMARK  status: ('A' for Active; 'I' for Inactive)
REMARK    1  A    between atoms: O1_1  and  C1_3 
REMARK    2  A    between atoms: N2_7  and  C3_9 
REMARK    3  A    between atoms: C9_16  and  C10_17 
REMARK    4  A    between atoms: N3_18  and  N4_20 
ROOT
HETATM    1  C1  UNL     1     -16.991  -7.037  22.132  1.00  0.00     0.179 A 
HETATM    2  N1  UNL     1     -15.876  -6.805  22.884  1.00  0.00    -0.300 N 
ATOM      3  H1  UNL     1     -15.500  -5.888  23.124  1.00  0.00     0.171 HD
HETATM    4  C2  UNL     1     -15.361  -7.978  23.250  1.00  0.00     0.227 A 
HETATM    5  N2  UNL     1     -14.311  -8.156  23.964  1.00  0.00    -0.351 N 
ATOM      6  H2  UNL     1     -13.788  -7.350  24.306  1.00  0.00     0.163 HD
HETATM    7  O2  UNL     1     -16.108  -8.910  22.758  1.00  0.00    -0.274 OA
HETATM    8  C9  UNL     1     -17.111  -8.412  22.071  1.00  0.00     0.146 A 
ENDROOT
BRANCH   8   9
HETATM    9  C10 UNL     1     -18.161  -9.136  21.371  1.00  0.00     0.148 C 
HETATM   10  N3  UNL     1     -18.414  -8.875  20.148  1.00  0.00    -0.311 N 
ATOM     11  H3  UNL     1     -17.858  -8.151  19.693  1.00  0.00     0.185 HD
BRANCH  10  12
HETATM   12  N4  UNL     1     -19.391  -9.507  19.394  1.00  0.00    -0.324 N 
HETATM   13  C11 UNL     1     -20.413  -8.722  18.746  1.00  0.00     0.168 C 
HETATM   14  C12 UNL     1     -20.272  -8.910  17.253  1.00  0.00     0.189 C 
HETATM   15  O3  UNL     1     -19.530 -10.035  16.999  1.00  0.00    -0.388 OA
HETATM   16  C13 UNL     1     -19.892 -11.141  17.765  1.00  0.00     0.189 C 
HETATM   17  C14 UNL     1     -19.439 -10.941  19.220  1.00  0.00     0.168 C 
ENDBRANCH  10  12
ENDBRANCH   8   9
BRANCH   1  18
HETATM   18  O1  UNL     1     -17.818  -6.071  21.557  1.00  0.00    -0.344 OA
ATOM     19  H1  UNL     1     -18.264  -6.136  20.721  1.00  0.00     0.219 HD
ENDBRANCH   1  18
BRANCH   5  20
HETATM   20  C3  UNL     1     -13.864  -9.496  24.286  1.00  0.00     0.085 C 
HETATM   21  C4  UNL     1     -14.631 -10.042  25.463  1.00  0.00     0.025 C 
HETATM   22  C5  UNL     1     -13.795 -10.219  26.684  1.00  0.00     0.002 C 
HETATM   23  C6  UNL     1     -13.000  -9.002  27.055  1.00  0.00     0.000 C 
HETATM   24  C7  UNL     1     -12.397  -8.346  25.848  1.00  0.00     0.002 C 
HETATM   25  C8  UNL     1     -12.401  -9.358  24.721  1.00  0.00     0.025 C 
ENDBRANCH   5  20
TORSDOF 4
ENDMDL
MODEL 3
REMARK VINA RESULT: -6.215062577      3.090      8.071
REMARK  4 active torsions:
REMARK  status: ('A' for Active; 'I' for Inactive)
REMARK    1  A    between atoms: O1_1  and  C1_3 
REMARK    2  A    between atoms: N2_7  and  C3_9 
REMARK    3  A    between atoms: C9_16  and  C10_17 
REMARK    4  A    between atoms: N3_18  and  N4_20 
ROOT
HETATM    1  C1  UNL     1     -17.083  -6.882  22.162  1.00  0.00     0.179 A 
HETATM    2  N1  UNL     1     -15.953  -6.707  22.907  1.00  0.00    -0.300 N 
ATOM      3  H1  UNL     1     -15.561  -5.809  23.191  1.00  0.00     0.171 HD
HETATM    4  C2  UNL     1     -15.449  -7.905  23.200  1.00  0.00     0.227 A 
HETATM    5  N2  UNL     1     -14.391  -8.134  23.885  1.00  0.00    -0.351 N 
ATOM      6  H2  UNL     1     -13.851  -7.356  24.263  1.00  0.00     0.163 HD
HETATM    7  O2  UNL     1     -16.216  -8.798  22.669  1.00  0.00    -0.274 OA
HETATM    8  C9  UNL     1     -17.222  -8.250  22.027  1.00  0.00     0.146 A 
ENDROOT
BRANCH   8   9
HETATM    9  C10 UNL     1     -18.293  -8.921  21.306  1.00  0.00     0.148 C 
HETATM   10  N3  UNL     1     -18.636  -8.516  20.145  1.00  0.00    -0.311 N 
ATOM     11  H3  UNL     1     -18.136  -7.717  19.754  1.00  0.00     0.185 HD
BRANCH  10  12
HETATM   12  N4  UNL     1     -19.641  -9.085  19.377  1.00  0.00    -0.324 N 
HETATM   13  C11 UNL     1     -20.730  -9.775  20.024  1.00  0.00     0.168 C 
HETATM   14  C12 UNL     1     -22.008  -9.035  19.705  1.00  0.00     0.189 C 
HETATM   15  O3  UNL     1     -21.812  -8.224  18.616  1.00  0.00    -0.388 OA
HETATM   16  C13 UNL     1     -21.134  -8.838  17.565  1.00  0.00     0.189 C 
HETATM   17  C14 UNL     1     -19.653  -9.021  17.933  1.00  0.00     0.168 C 
ENDBRANCH  10  12
ENDBRANCH   8   9
BRANCH   1  18
HETATM   18  O1  UNL     1     -17.905  -5.875  21.654  1.00  0.00    -0.344 OA
ATOM     19  H1  UNL     1     -18.327  -5.868  20.802  1.00  0.00     0.219 HD
ENDBRANCH   1  18
BRANCH   5  20
HETATM   20  C3  UNL     1     -13.958  -9.496  24.127  1.00  0.00     0.085 C 
HETATM   21  C4  UNL     1     -14.818 -10.149  25.178  1.00  0.00     0.025 C 
HETATM   22  C5  UNL     1     -14.091 -10.430  26.448  1.00  0.00     0.002 C 
HETATM   23  C6  UNL     1     -13.346  -9.247  26.994  1.00  0.00     0.000 C 
HETATM   24  C7  UNL     1     -12.647  -8.483  25.908  1.00  0.00     0.002 C 
HETATM   25  C8  UNL     1     -12.540  -9.391  24.700  1.00  0.00     0.025 C 
ENDBRANCH   5  20
TORSDOF 4
ENDMDL
MODEL 4
REMARK VINA RESULT: -6.206056511      4.216      5.374
REMARK  4 active torsions:
REMARK  status: ('A' for Active; 'I' for Inactive)
REMARK    1  A    between atoms: O1_1  and  C1_3 
REMARK    2  A    between atoms: N2_7  and  C3_9 
REMARK    3  A    between atoms: C9_16  and  C10_17 
REMARK    4  A    between atoms: N3_18  and  N4_20 
ROOT
HETATM    1  C1  UNL     1     -13.013  -9.554  25.497  1.00  0.00     0.179 A 
HETATM    2  N1  UNL     1     -13.391  -8.826  24.407  1.00  0.00    -0.300 N 
ATOM      3  H1  UNL     1     -12.787  -8.209  23.864  1.00  0.00     0.171 HD
HETATM    4  C2  UNL     1     -14.683  -9.055  24.172  1.00  0.00     0.227 A 
HETATM    5  N2  UNL     1     -15.384  -8.545  23.229  1.00  0.00    -0.351 N 
ATOM      6  H2  UNL     1     -14.954  -7.894  22.571  1.00  0.00     0.163 HD
HETATM    7  O2  UNL     1     -15.106  -9.886  25.066  1.00  0.00    -0.274 OA
HETATM    8  C9  UNL     1     -14.149 -10.229  25.898  1.00  0.00     0.146 A 
ENDROOT
BRANCH   8   9
HETATM    9  C10 UNL     1     -14.234 -11.139  27.031  1.00  0.00     0.148 C 
HETATM   10  N3  UNL     1     -13.179 -11.466  27.670  1.00  0.00    -0.311 N 
ATOM     11  H3  UNL     1     -12.293 -11.069  27.358  1.00  0.00     0.185 HD
BRANCH  10  12
HETATM   12  N4  UNL     1     -13.153 -12.323  28.760  1.00  0.00    -0.324 N 
HETATM   13  C11 UNL     1     -13.463 -13.719  28.579  1.00  0.00     0.168 C 
HETATM   14  C12 UNL     1     -12.233 -14.523  28.934  1.00  0.00     0.189 C 
HETATM   15  O3  UNL     1     -11.380 -13.752  29.682  1.00  0.00    -0.388 OA
HETATM   16  C13 UNL     1     -12.006 -13.033  30.699  1.00  0.00     0.189 C 
HETATM   17  C14 UNL     1     -12.823 -11.879  30.096  1.00  0.00     0.168 C 
ENDBRANCH  10  12
ENDBRANCH   8   9
BRANCH   1  18
HETATM   18  O1  UNL     1     -11.739  -9.591  26.067  1.00  0.00    -0.344 OA
ATOM     19  H1  UNL     1     -11.529  -9.833  26.962  1.00  0.00     0.219 HD
ENDBRANCH   1  18
BRANCH   5  20
HETATM   20  C3  UNL     1     -16.785  -8.886  23.093  1.00  0.00     0.085 C 
HETATM   21  C4  UNL     1     -17.082  -9.368  21.697  1.00  0.00     0.025 C 
HETATM   22  C5  UNL     1     -17.949  -8.438  20.920  1.00  0.00     0.002 C 
HETATM   23  C6  UNL     1     -17.472  -7.015  20.929  1.00  0.00     0.000 C 
HETATM   24  C7  UNL     1     -16.992  -6.600  22.288  1.00  0.00     0.002 C 
HETATM   25  C8  UNL     1     -17.559  -7.579  23.296  1.00  0.00     0.025 C 
ENDBRANCH   5  20
TORSDOF 4
ENDMDL
MODEL 5
REMARK VINA RESULT: -6.161959805      3.060      7.917
REMARK  4 active torsions:
REMARK  status: ('A' for Active; 'I' for Inactive)
REMARK    1  A    between atoms: O1_1  and  C1_3 
REMARK    2  A    between atoms: N2_7  and  C3_9 
REMARK    3  A    between atoms: C9_16  and  C10_17 
REMARK    4  A    between atoms: N3_18  and  N4_20 
ROOT
HETATM    1  C1  UNL     1     -16.693  -7.261  22.339  1.00  0.00     0.179 A 
HETATM    2  N1  UNL     1     -15.615  -6.942  23.113  1.00  0.00    -0.300 N 
ATOM      3  H1  UNL     1     -15.272  -5.999  23.296  1.00  0.00     0.171 HD
HETATM    4  C2  UNL     1     -15.086  -8.068  23.589  1.00  0.00     0.227 A 
HETATM    5  N2  UNL     1     -14.063  -8.161  24.354  1.00  0.00    -0.351 N 
ATOM      6  H2  UNL     1     -13.574  -7.318  24.653  1.00  0.00     0.163 HD
HETATM    7  O2  UNL     1     -15.789  -9.055  23.142  1.00  0.00    -0.274 OA
HETATM    8  C9  UNL     1     -16.775  -8.640  22.380  1.00  0.00     0.146 A 
ENDROOT
BRANCH   8   9
HETATM    9  C10 UNL     1     -17.778  -9.444  21.699  1.00  0.00     0.148 C 
HETATM   10  N3  UNL     1     -18.162  -9.128  20.523  1.00  0.00    -0.311 N 
ATOM     11  H3  UNL     1     -17.743  -8.304  20.093  1.00  0.00     0.185 HD
BRANCH  10  12
HETATM   12  N4  UNL     1     -19.109  -9.828  19.790  1.00  0.00    -0.324 N 
HETATM   13  C11 UNL     1     -18.962 -11.251  19.606  1.00  0.00     0.168 C 
HETATM   14  C12 UNL     1     -20.138 -11.933  20.265  1.00  0.00     0.189 C 
HETATM   15  O3  UNL     1     -21.147 -11.025  20.460  1.00  0.00    -0.388 OA
HETATM   16  C13 UNL     1     -21.400 -10.209  19.359  1.00  0.00     0.189 C 
HETATM   17  C14 UNL     1     -20.260  -9.191  19.190  1.00  0.00     0.168 C 
ENDBRANCH  10  12
ENDBRANCH   8   9
BRANCH   1  18
HETATM   18  O1  UNL     1     -17.519  -6.365  21.660  1.00  0.00    -0.344 OA
ATOM     19  H1  UNL     1     -17.692  -6.355  20.725  1.00  0.00     0.219 HD
ENDBRANCH   1  18
BRANCH   5  20
HETATM   20  C3  UNL     1     -13.596  -9.460  24.797  1.00  0.00     0.085 C 
HETATM   21  C4  UNL     1     -14.217  -9.825  26.120  1.00  0.00     0.025 C 
HETATM   22  C5  UNL     1     -13.239  -9.864  27.244  1.00  0.00     0.002 C 
HETATM   23  C6  UNL     1     -12.388  -8.632  27.348  1.00  0.00     0.000 C 
HETATM   24  C7  UNL     1     -11.931  -8.158  26.001  1.00  0.00     0.002 C 
HETATM   25  C8  UNL     1     -12.089  -9.309  25.028  1.00  0.00     0.025 C 
ENDBRANCH   5  20
TORSDOF 4
ENDMDL
