MODEL 1
REMARK VINA RESULT: -7.699274852      0.000      0.000
REMARK  13 active torsions:
REMARK  status: ('A' for Active; 'I' for Inactive)
REMARK    1  A    between atoms: N1_1  and  C1_5 
REMARK    2  A    between atoms: C1_5  and  N2_6 
REMARK    3  A    between atoms: C1_5  and  C2_10 
REMARK    4  A    between atoms: C3_12  and  S2_13 
REMARK    5  A    between atoms: S2_13  and  C4_16 
REMARK    6  A    between atoms: C6_20  and  N4_21 
REMARK    7  A    between atoms: N4_21  and  C7_23 
REMARK    8  A    between atoms: C8_26  and  N6_27 
REMARK    9  A    between atoms: C11_30  and  N7_31 
REMARK   10  A    between atoms: N7_31  and  O3_32 
REMARK   11  A    between atoms: N7_31  and  C12_34 
REMARK   12  A    between atoms: C15_40  and  N9_41 
REMARK   13  A    between atoms: C21_53  and  O6_54 
ROOT
HETATM    1  N4  UNL     1      21.801 -19.345  32.411  1.00  0.00    -0.021 N 
ATOM      2  H4  UNL     1      21.724 -19.920  31.572  1.00  0.00     0.203 HD
ENDROOT
BRANCH   1   3
HETATM    3  C6  UNL     1      22.506 -18.120  32.373  1.00  0.00     0.697 A 
HETATM    4  N3  UNL     1      22.572 -17.309  31.306  1.00  0.00    -0.198 N 
HETATM    5  C5  UNL     1      23.328 -16.225  31.623  1.00  0.00     0.149 A 
ATOM      6  H3  UNL     1      22.127 -17.478  30.404  1.00  0.00     0.183 HD
HETATM    7  C4  UNL     1      23.712 -16.423  32.932  1.00  0.00     0.165 A 
HETATM    8  N11 UNL     1      23.215 -17.577  33.396  1.00  0.00    -0.179 N 
ATOM      9  H11 UNL     1      23.344 -17.970  34.329  1.00  0.00     0.185 HD
BRANCH   7  10
HETATM   10  S2  UNL     1      24.709 -15.329  33.844  1.00  0.00     0.232 S 
HETATM   11  O1  UNL     1      25.281 -15.990  35.070  1.00  0.00    -0.215 OA
HETATM   12  O2  UNL     1      23.916 -14.122  34.237  1.00  0.00    -0.215 OA
BRANCH  10  13
HETATM   13  C3  UNL     1      26.104 -14.840  32.862  1.00  0.00     0.131 A 
HETATM   14  S1  UNL     1      26.441 -13.313  32.186  1.00  0.00    -0.074 SA
HETATM   15  C2  UNL     1      27.913 -13.665  31.419  1.00  0.00     0.076 A 
HETATM   16  C21 UNL     1      28.111 -14.988  31.712  1.00  0.00     0.106 A 
HETATM   17  C20 UNL     1      27.170 -15.597  32.463  1.00  0.00     0.097 A 
HETATM   18 CL1  UNL     1      27.261 -17.318  32.947  1.00  0.00    -0.079 Cl
BRANCH  15  19
HETATM   19  C1  UNL     1      28.780 -12.742  30.617  1.00  0.00     0.420 C 
BRANCH  19  20
HETATM   20  N1  UNL     1      28.129 -11.492  30.374  1.00  0.00    -0.046 N 
ATOM     21  H13 UNL     1      28.485 -10.765  30.995  1.00  0.00     0.277 HD
ATOM     22  H12 UNL     1      28.415 -11.097  29.479  1.00  0.00     0.277 HD
ATOM     23  H11 UNL     1      27.113 -11.564  30.438  1.00  0.00     0.277 HD
ENDBRANCH  19  20
BRANCH  19  24
HETATM   24  N2  UNL     1      29.221 -13.369  29.413  1.00  0.00    -0.046 N 
ATOM     25  H23 UNL     1      28.577 -13.182  28.645  1.00  0.00     0.277 HD
ATOM     26  H22 UNL     1      30.053 -12.910  29.044  1.00  0.00     0.277 HD
ATOM     27  H21 UNL     1      29.374 -14.370  29.530  1.00  0.00     0.277 HD
ENDBRANCH  19  24
ENDBRANCH  15  19
BRANCH  16  28
HETATM   28  O6  UNL     1      29.276 -15.649  31.225  1.00  0.00    -0.358 OA
ATOM     29  H6  UNL     1      29.895 -16.025  31.841  1.00  0.00     0.217 HD
ENDBRANCH  16  28
ENDBRANCH  10  13
ENDBRANCH   7  10
ENDBRANCH   1   3
BRANCH   1  30
HETATM   30  C7  UNL     1      21.261 -19.728  33.505  1.00  0.00     0.726 A 
HETATM   31  N5  UNL     1      20.513 -18.928  34.264  1.00  0.00    -0.021 N 
HETATM   32  C8  UNL     1      19.951 -19.386  35.421  1.00  0.00     0.709 A 
ATOM     33  H5  UNL     1      20.358 -17.962  33.976  1.00  0.00     0.203 HD
HETATM   34  N8  UNL     1      20.195 -20.658  35.735  1.00  0.00    -0.021 N 
HETATM   35  C15 UNL     1      20.954 -21.515  34.990  1.00  0.00     0.709 A 
ATOM     36  H8  UNL     1      19.784 -21.018  36.597  1.00  0.00     0.203 HD
HETATM   37  N10 UNL     1      21.475 -21.026  33.880  1.00  0.00    -0.021 N 
ATOM     38  H10 UNL     1      22.050 -21.628  33.290  1.00  0.00     0.203 HD
BRANCH  32  39
HETATM   39  N6  UNL     1      19.161 -18.521  36.217  1.00  0.00    -0.216 N 
HETATM   40  C9  UNL     1      19.451 -18.381  37.623  1.00  0.00     0.143 C 
HETATM   41  C10 UNL     1      18.083 -18.295  38.315  1.00  0.00     0.048 C 
HETATM   42  C11 UNL     1      17.496 -16.955  37.921  1.00  0.00     0.120 C 
HETATM   43  C13 UNL     1      17.532 -16.694  36.449  1.00  0.00     0.048 C 
HETATM   44  C14 UNL     1      18.082 -17.799  35.613  1.00  0.00     0.143 C 
BRANCH  42  45
HETATM   45  N7  UNL     1      16.153 -16.796  38.471  1.00  0.00    -0.231 N 
BRANCH  45  46
HETATM   46  O3  UNL     1      15.982 -16.361  39.739  1.00  0.00    -0.285 OA
ATOM     47  H3  UNL     1      16.053 -16.966  40.468  1.00  0.00     0.245 HD
ENDBRANCH  45  46
BRANCH  45  48
HETATM   48  C12 UNL     1      14.992 -17.088  37.707  1.00  0.00     0.377 C 
HETATM   49  O4  UNL     1      14.657 -18.272  37.474  1.00  0.00    -0.281 OA
ENDBRANCH  45  48
ENDBRANCH  42  45
ENDBRANCH  32  39
BRANCH  35  50
HETATM   50  N9  UNL     1      21.126 -22.850  35.428  1.00  0.00    -0.213 N 
HETATM   51  C16 UNL     1      19.983 -23.736  35.383  1.00  0.00     0.167 C 
HETATM   52  C17 UNL     1      20.323 -25.042  36.065  1.00  0.00     0.188 C 
HETATM   53  O5  UNL     1      20.945 -24.704  37.253  1.00  0.00    -0.388 OA
HETATM   54  C18 UNL     1      22.213 -24.233  37.089  1.00  0.00     0.188 C 
HETATM   55  C19 UNL     1      22.379 -23.324  35.911  1.00  0.00     0.167 C 
ENDBRANCH  35  50
ENDBRANCH   1  30
TORSDOF 13
ENDMDL
MODEL 2
REMARK VINA RESULT: -7.584239210      2.194      2.698
REMARK  13 active torsions:
REMARK  status: ('A' for Active; 'I' for Inactive)
REMARK    1  A    between atoms: N1_1  and  C1_5 
REMARK    2  A    between atoms: C1_5  and  N2_6 
REMARK    3  A    between atoms: C1_5  and  C2_10 
REMARK    4  A    between atoms: C3_12  and  S2_13 
REMARK    5  A    between atoms: S2_13  and  C4_16 
REMARK    6  A    between atoms: C6_20  and  N4_21 
REMARK    7  A    between atoms: N4_21  and  C7_23 
REMARK    8  A    between atoms: C8_26  and  N6_27 
REMARK    9  A    between atoms: C11_30  and  N7_31 
REMARK   10  A    between atoms: N7_31  and  O3_32 
REMARK   11  A    between atoms: N7_31  and  C12_34 
REMARK   12  A    between atoms: C15_40  and  N9_41 
REMARK   13  A    between atoms: C21_53  and  O6_54 
ROOT
HETATM    1  N4  UNL     1      22.005 -19.576  32.480  1.00  0.00    -0.021 N 
ATOM      2  H4  UNL     1      22.056 -20.205  31.678  1.00  0.00     0.203 HD
ENDROOT
BRANCH   1   3
HETATM    3  C6  UNL     1      22.588 -18.290  32.415  1.00  0.00     0.697 A 
HETATM    4  N3  UNL     1      22.457 -17.442  31.383  1.00  0.00    -0.198 N 
HETATM    5  C5  UNL     1      23.145 -16.303  31.659  1.00  0.00     0.149 A 
ATOM      6  H3  UNL     1      21.927 -17.624  30.530  1.00  0.00     0.183 HD
HETATM    7  C4  UNL     1      23.695 -16.506  32.906  1.00  0.00     0.165 A 
HETATM    8  N11 UNL     1      23.360 -17.716  33.374  1.00  0.00    -0.179 N 
ATOM      9  H11 UNL     1      23.631 -18.124  34.269  1.00  0.00     0.185 HD
BRANCH   7  10
HETATM   10  S2  UNL     1      24.688 -15.353  33.746  1.00  0.00     0.232 S 
HETATM   11  O1  UNL     1      26.153 -15.600  33.501  1.00  0.00    -0.215 OA
HETATM   12  O2  UNL     1      24.399 -15.403  35.214  1.00  0.00    -0.215 OA
BRANCH  10  13
HETATM   13  C3  UNL     1      24.361 -13.724  33.123  1.00  0.00     0.131 A 
HETATM   14  S1  UNL     1      25.420 -12.670  32.304  1.00  0.00    -0.074 SA
HETATM   15  C2  UNL     1      24.373 -11.357  32.058  1.00  0.00     0.076 A 
HETATM   16  C21 UNL     1      23.202 -11.777  32.631  1.00  0.00     0.106 A 
HETATM   17  C20 UNL     1      23.198 -13.009  33.184  1.00  0.00     0.097 A 
HETATM   18 CL1  UNL     1      21.761 -13.726  33.975  1.00  0.00    -0.079 Cl
BRANCH  15  19
HETATM   19  C1  UNL     1      24.668 -10.055  31.377  1.00  0.00     0.420 C 
BRANCH  19  20
HETATM   20  N1  UNL     1      24.371  -8.942  32.224  1.00  0.00    -0.046 N 
ATOM     21  H13 UNL     1      24.999  -8.160  32.038  1.00  0.00     0.277 HD
ATOM     22  H12 UNL     1      23.487  -8.507  31.962  1.00  0.00     0.277 HD
ATOM     23  H11 UNL     1      24.380  -9.193  33.213  1.00  0.00     0.277 HD
ENDBRANCH  19  20
BRANCH  19  24
HETATM   24  N2  UNL     1      24.003  -9.973  30.117  1.00  0.00    -0.046 N 
ATOM     25  H23 UNL     1      23.395  -9.155  30.076  1.00  0.00     0.277 HD
ATOM     26  H22 UNL     1      24.656  -9.729  29.372  1.00  0.00     0.277 HD
ATOM     27  H21 UNL     1      23.490 -10.825  29.892  1.00  0.00     0.277 HD
ENDBRANCH  19  24
ENDBRANCH  15  19
BRANCH  16  28
HETATM   28  O6  UNL     1      22.065 -10.918  32.619  1.00  0.00    -0.358 OA
ATOM     29  H6  UNL     1      21.194 -11.293  32.676  1.00  0.00     0.217 HD
ENDBRANCH  16  28
ENDBRANCH  10  13
ENDBRANCH   7  10
ENDBRANCH   1   3
BRANCH   1  30
HETATM   30  C7  UNL     1      21.414 -19.948  33.552  1.00  0.00     0.726 A 
HETATM   31  N5  UNL     1      20.674 -19.124  34.294  1.00  0.00    -0.021 N 
HETATM   32  C8  UNL     1      20.056 -19.570  35.427  1.00  0.00     0.709 A 
ATOM     33  H5  UNL     1      20.568 -18.150  34.012  1.00  0.00     0.203 HD
HETATM   34  N8  UNL     1      20.238 -20.854  35.735  1.00  0.00    -0.021 N 
HETATM   35  C15 UNL     1      20.986 -21.735  35.006  1.00  0.00     0.709 A 
ATOM     36  H8  UNL     1      19.784 -21.205  36.578  1.00  0.00     0.203 HD
HETATM   37  N10 UNL     1      21.563 -21.257  33.919  1.00  0.00    -0.021 N 
ATOM     38  H10 UNL     1      22.133 -21.876  33.342  1.00  0.00     0.203 HD
BRANCH  32  39
HETATM   39  N6  UNL     1      19.275 -18.682  36.205  1.00  0.00    -0.216 N 
HETATM   40  C9  UNL     1      19.539 -18.549  37.617  1.00  0.00     0.143 C 
HETATM   41  C10 UNL     1      18.160 -18.422  38.280  1.00  0.00     0.048 C 
HETATM   42  C11 UNL     1      17.622 -17.065  37.873  1.00  0.00     0.120 C 
HETATM   43  C13 UNL     1      17.698 -16.806  36.402  1.00  0.00     0.048 C 
HETATM   44  C14 UNL     1      18.232 -17.927  35.578  1.00  0.00     0.143 C 
BRANCH  42  45
HETATM   45  N7  UNL     1      16.273 -16.865  38.393  1.00  0.00    -0.231 N 
BRANCH  45  46
HETATM   46  O3  UNL     1      16.087 -16.370  39.638  1.00  0.00    -0.285 OA
ATOM     47  H3  UNL     1      15.356 -15.792  39.820  1.00  0.00     0.245 HD
ENDBRANCH  45  46
BRANCH  45  48
HETATM   48  C12 UNL     1      15.121 -17.177  37.625  1.00  0.00     0.377 C 
HETATM   49  O4  UNL     1      14.768 -18.366  37.450  1.00  0.00    -0.281 OA
ENDBRANCH  45  48
ENDBRANCH  42  45
ENDBRANCH  32  39
BRANCH  35  50
HETATM   50  N9  UNL     1      21.089 -23.080  35.435  1.00  0.00    -0.213 N 
HETATM   51  C16 UNL     1      19.927 -23.930  35.300  1.00  0.00     0.167 C 
HETATM   52  C17 UNL     1      20.182 -25.255  35.984  1.00  0.00     0.188 C 
HETATM   53  O5  UNL     1      20.731 -24.950  37.216  1.00  0.00    -0.388 OA
HETATM   54  C18 UNL     1      22.020 -24.514  37.145  1.00  0.00     0.188 C 
HETATM   55  C19 UNL     1      22.292 -23.597  35.995  1.00  0.00     0.167 C 
ENDBRANCH  35  50
ENDBRANCH   1  30
TORSDOF 13
ENDMDL
MODEL 3
REMARK VINA RESULT: -7.571035251      1.269      1.529
REMARK  13 active torsions:
REMARK  status: ('A' for Active; 'I' for Inactive)
REMARK    1  A    between atoms: N1_1  and  C1_5 
REMARK    2  A    between atoms: C1_5  and  N2_6 
REMARK    3  A    between atoms: C1_5  and  C2_10 
REMARK    4  A    between atoms: C3_12  and  S2_13 
REMARK    5  A    between atoms: S2_13  and  C4_16 
REMARK    6  A    between atoms: C6_20  and  N4_21 
REMARK    7  A    between atoms: N4_21  and  C7_23 
REMARK    8  A    between atoms: C8_26  and  N6_27 
REMARK    9  A    between atoms: C11_30  and  N7_31 
REMARK   10  A    between atoms: N7_31  and  O3_32 
REMARK   11  A    between atoms: N7_31  and  C12_34 
REMARK   12  A    between atoms: C15_40  and  N9_41 
REMARK   13  A    between atoms: C21_53  and  O6_54 
ROOT
HETATM    1  N4  UNL     1      21.627 -19.333  32.296  1.00  0.00    -0.021 N 
ATOM      2  H4  UNL     1      21.231 -19.688  31.426  1.00  0.00     0.203 HD
ENDROOT
BRANCH   1   3
HETATM    3  C6  UNL     1      22.716 -18.431  32.267  1.00  0.00     0.697 A 
HETATM    4  N3  UNL     1      22.729 -17.269  31.596  1.00  0.00    -0.198 N 
HETATM    5  C5  UNL     1      23.929 -16.662  31.791  1.00  0.00     0.149 A 
ATOM      6  H3  UNL     1      21.963 -16.902  31.031  1.00  0.00     0.183 HD
HETATM    7  C4  UNL     1      24.636 -17.514  32.612  1.00  0.00     0.165 A 
HETATM    8  N11 UNL     1      23.903 -18.596  32.907  1.00  0.00    -0.179 N 
ATOM      9  H11 UNL     1      24.180 -19.384  33.493  1.00  0.00     0.185 HD
BRANCH   7  10
HETATM   10  S2  UNL     1      26.254 -17.223  33.177  1.00  0.00     0.232 S 
HETATM   11  O1  UNL     1      27.231 -18.212  32.597  1.00  0.00    -0.215 OA
HETATM   12  O2  UNL     1      26.292 -17.284  34.673  1.00  0.00    -0.215 OA
BRANCH  10  13
HETATM   13  C3  UNL     1      26.796 -15.626  32.625  1.00  0.00     0.131 A 
HETATM   14  S1  UNL     1      27.955 -15.255  31.432  1.00  0.00    -0.074 SA
HETATM   15  C2  UNL     1      27.894 -13.560  31.502  1.00  0.00     0.076 A 
HETATM   16  C21 UNL     1      26.957 -13.319  32.470  1.00  0.00     0.106 A 
HETATM   17  C20 UNL     1      26.386 -14.395  33.053  1.00  0.00     0.097 A 
HETATM   18 CL1  UNL     1      25.142 -14.275  34.334  1.00  0.00    -0.079 Cl
BRANCH  15  19
HETATM   19  C1  UNL     1      28.681 -12.573  30.693  1.00  0.00     0.420 C 
BRANCH  19  20
HETATM   20  N1  UNL     1      27.906 -11.411  30.387  1.00  0.00    -0.046 N 
ATOM     21  H13 UNL     1      27.925 -11.209  29.387  1.00  0.00     0.277 HD
ATOM     22  H12 UNL     1      26.910 -11.594  30.499  1.00  0.00     0.277 HD
ATOM     23  H11 UNL     1      28.194 -10.597  30.931  1.00  0.00     0.277 HD
ENDBRANCH  19  20
BRANCH  19  24
HETATM   24  N2  UNL     1      29.226 -13.186  29.526  1.00  0.00    -0.046 N 
ATOM     25  H23 UNL     1      29.226 -14.202  29.609  1.00  0.00     0.277 HD
ATOM     26  H22 UNL     1      28.595 -13.088  28.730  1.00  0.00     0.277 HD
ATOM     27  H21 UNL     1      30.157 -12.835  29.301  1.00  0.00     0.277 HD
ENDBRANCH  19  24
ENDBRANCH  15  19
BRANCH  16  28
HETATM   28  O6  UNL     1      26.630 -11.974  32.813  1.00  0.00    -0.358 OA
ATOM     29  H6  UNL     1      25.730 -11.750  33.022  1.00  0.00     0.217 HD
ENDBRANCH  16  28
ENDBRANCH  10  13
ENDBRANCH   7  10
ENDBRANCH   1   3
BRANCH   1  30
HETATM   30  C7  UNL     1      21.142 -19.701  33.421  1.00  0.00     0.726 A 
HETATM   31  N5  UNL     1      20.418 -18.895  34.197  1.00  0.00    -0.021 N 
HETATM   32  C8  UNL     1      19.916 -19.336  35.387  1.00  0.00     0.709 A 
ATOM     33  H5  UNL     1      20.237 -17.937  33.898  1.00  0.00     0.203 HD
HETATM   34  N8  UNL     1      20.191 -20.598  35.715  1.00  0.00    -0.021 N 
HETATM   35  C15 UNL     1      20.928 -21.461  34.953  1.00  0.00     0.709 A 
ATOM     36  H8  UNL     1      19.825 -20.946  36.601  1.00  0.00     0.203 HD
HETATM   37  N10 UNL     1      21.392 -20.988  33.812  1.00  0.00    -0.021 N 
ATOM     38  H10 UNL     1      21.948 -21.594  33.208  1.00  0.00     0.203 HD
BRANCH  32  39
HETATM   39  N6  UNL     1      19.150 -18.466  36.201  1.00  0.00    -0.216 N 
HETATM   40  C9  UNL     1      19.471 -18.331  37.600  1.00  0.00     0.143 C 
HETATM   41  C10 UNL     1      18.119 -18.234  38.322  1.00  0.00     0.048 C 
HETATM   42  C11 UNL     1      17.536 -16.888  37.942  1.00  0.00     0.120 C 
HETATM   43  C13 UNL     1      17.543 -16.625  36.470  1.00  0.00     0.048 C 
HETATM   44  C14 UNL     1      18.065 -17.733  35.621  1.00  0.00     0.143 C 
BRANCH  42  45
HETATM   45  N7  UNL     1      16.206 -16.719  38.520  1.00  0.00    -0.231 N 
BRANCH  45  46
HETATM   46  O3  UNL     1      16.065 -16.290  39.795  1.00  0.00    -0.285 OA
ATOM     47  H3  UNL     1      15.296 -16.529  40.299  1.00  0.00     0.245 HD
ENDBRANCH  45  46
BRANCH  45  48
HETATM   48  C12 UNL     1      15.027 -16.992  37.778  1.00  0.00     0.377 C 
HETATM   49  O4  UNL     1      14.685 -18.170  37.526  1.00  0.00    -0.281 OA
ENDBRANCH  45  48
ENDBRANCH  42  45
ENDBRANCH  32  39
BRANCH  35  50
HETATM   50  N9  UNL     1      21.139 -22.784  35.410  1.00  0.00    -0.213 N 
HETATM   51  C16 UNL     1      20.045 -23.724  35.304  1.00  0.00     0.167 C 
HETATM   52  C17 UNL     1      20.407 -25.010  36.014  1.00  0.00     0.188 C 
HETATM   53  O5  UNL     1      20.942 -24.637  37.233  1.00  0.00    -0.388 OA
HETATM   54  C18 UNL     1      22.192 -24.106  37.140  1.00  0.00     0.188 C 
HETATM   55  C19 UNL     1      22.382 -23.195  35.968  1.00  0.00     0.167 C 
ENDBRANCH  35  50
ENDBRANCH   1  30
TORSDOF 13
ENDMDL
MODEL 4
REMARK VINA RESULT: -7.493830979      1.775      1.971
REMARK  13 active torsions:
REMARK  status: ('A' for Active; 'I' for Inactive)
REMARK    1  A    between atoms: N1_1  and  C1_5 
REMARK    2  A    between atoms: C1_5  and  N2_6 
REMARK    3  A    between atoms: C1_5  and  C2_10 
REMARK    4  A    between atoms: C3_12  and  S2_13 
REMARK    5  A    between atoms: S2_13  and  C4_16 
REMARK    6  A    between atoms: C6_20  and  N4_21 
REMARK    7  A    between atoms: N4_21  and  C7_23 
REMARK    8  A    between atoms: C8_26  and  N6_27 
REMARK    9  A    between atoms: C11_30  and  N7_31 
REMARK   10  A    between atoms: N7_31  and  O3_32 
REMARK   11  A    between atoms: N7_31  and  C12_34 
REMARK   12  A    between atoms: C15_40  and  N9_41 
REMARK   13  A    between atoms: C21_53  and  O6_54 
ROOT
HETATM    1  N4  UNL     1      21.711 -19.279  32.355  1.00  0.00    -0.021 N 
ATOM      2  H4  UNL     1      21.465 -19.756  31.488  1.00  0.00     0.203 HD
ENDROOT
BRANCH   1   3
HETATM    3  C6  UNL     1      22.617 -18.194  32.339  1.00  0.00     0.697 A 
HETATM    4  N3  UNL     1      22.643 -17.233  31.402  1.00  0.00    -0.198 N 
HETATM    5  C5  UNL     1      23.636 -16.355  31.701  1.00  0.00     0.149 A 
ATOM      6  H3  UNL     1      22.019 -17.173  30.597  1.00  0.00     0.183 HD
HETATM    7  C4  UNL     1      24.204 -16.832  32.863  1.00  0.00     0.165 A 
HETATM    8  N11 UNL     1      23.588 -17.954  33.258  1.00  0.00    -0.179 N 
ATOM      9  H11 UNL     1      23.805 -18.516  34.082  1.00  0.00     0.185 HD
BRANCH   7  10
HETATM   10  S2  UNL     1      25.538 -16.083  33.689  1.00  0.00     0.232 S 
HETATM   11  O1  UNL     1      25.513 -16.380  35.165  1.00  0.00    -0.215 OA
HETATM   12  O2  UNL     1      25.511 -14.603  33.464  1.00  0.00    -0.215 OA
BRANCH  10  13
HETATM   13  C3  UNL     1      27.064 -16.758  33.084  1.00  0.00     0.131 A 
HETATM   14  S1  UNL     1      28.328 -15.956  32.270  1.00  0.00    -0.074 SA
HETATM   15  C2  UNL     1      29.386 -17.263  32.043  1.00  0.00     0.076 A 
HETATM   16  C21 UNL     1      28.718 -18.312  32.616  1.00  0.00     0.106 A 
HETATM   17  C20 UNL     1      27.511 -18.047  33.158  1.00  0.00     0.097 A 
HETATM   18 CL1  UNL     1      26.496 -19.290  33.951  1.00  0.00    -0.079 Cl
BRANCH  15  19
HETATM   19  C1  UNL     1      30.729 -17.259  31.375  1.00  0.00     0.420 C 
BRANCH  19  20
HETATM   20  N1  UNL     1      31.069 -15.955  30.895  1.00  0.00    -0.046 N 
ATOM     21  H13 UNL     1      30.235 -15.428  30.639  1.00  0.00     0.277 HD
ATOM     22  H12 UNL     1      31.411 -15.363  31.652  1.00  0.00     0.277 HD
ATOM     23  H11 UNL     1      31.735 -15.986  30.123  1.00  0.00     0.277 HD
ENDBRANCH  19  20
BRANCH  19  24
HETATM   24  N2  UNL     1      30.795 -18.249  30.351  1.00  0.00    -0.046 N 
ATOM     25  H23 UNL     1      30.594 -19.177  30.723  1.00  0.00     0.277 HD
ATOM     26  H22 UNL     1      30.012 -18.160  29.702  1.00  0.00     0.277 HD
ATOM     27  H21 UNL     1      31.686 -18.236  29.855  1.00  0.00     0.277 HD
ENDBRANCH  19  24
ENDBRANCH  15  19
BRANCH  16  28
HETATM   28  O6  UNL     1      29.313 -19.607  32.617  1.00  0.00    -0.358 OA
ATOM     29  H6  UNL     1      29.133 -20.207  31.902  1.00  0.00     0.217 HD
ENDBRANCH  16  28
ENDBRANCH  10  13
ENDBRANCH   7  10
ENDBRANCH   1   3
BRANCH   1  30
HETATM   30  C7  UNL     1      21.201 -19.660  33.465  1.00  0.00     0.726 A 
HETATM   31  N5  UNL     1      20.458 -18.863  34.232  1.00  0.00    -0.021 N 
HETATM   32  C8  UNL     1      19.929 -19.318  35.406  1.00  0.00     0.709 A 
ATOM     33  H5  UNL     1      20.281 -17.902  33.938  1.00  0.00     0.203 HD
HETATM   34  N8  UNL     1      20.200 -20.582  35.727  1.00  0.00    -0.021 N 
HETATM   35  C15 UNL     1      20.955 -21.436  34.974  1.00  0.00     0.709 A 
ATOM     36  H8  UNL     1      19.814 -20.940  36.601  1.00  0.00     0.203 HD
HETATM   37  N10 UNL     1      21.444 -20.950  33.848  1.00  0.00    -0.021 N 
ATOM     38  H10 UNL     1      22.015 -21.549  33.251  1.00  0.00     0.203 HD
BRANCH  32  39
HETATM   39  N6  UNL     1      19.143 -18.457  36.211  1.00  0.00    -0.216 N 
HETATM   40  C9  UNL     1      19.450 -18.313  37.612  1.00  0.00     0.143 C 
HETATM   41  C10 UNL     1      18.091 -18.235  38.322  1.00  0.00     0.048 C 
HETATM   42  C11 UNL     1      17.490 -16.899  37.934  1.00  0.00     0.120 C 
HETATM   43  C13 UNL     1      17.506 -16.640  36.460  1.00  0.00     0.048 C 
HETATM   44  C14 UNL     1      18.052 -17.742  35.619  1.00  0.00     0.143 C 
BRANCH  42  45
HETATM   45  N7  UNL     1      16.153 -16.749  38.500  1.00  0.00    -0.231 N 
BRANCH  45  46
HETATM   46  O3  UNL     1      15.995 -16.332  39.776  1.00  0.00    -0.285 OA
ATOM     47  H3  UNL     1      15.194 -16.525  40.249  1.00  0.00     0.245 HD
ENDBRANCH  45  46
BRANCH  45  48
HETATM   48  C12 UNL     1      14.984 -17.029  37.744  1.00  0.00     0.377 C 
HETATM   49  O4  UNL     1      14.636 -18.210  37.513  1.00  0.00    -0.281 OA
ENDBRANCH  45  48
ENDBRANCH  42  45
ENDBRANCH  32  39
BRANCH  35  50
HETATM   50  N9  UNL     1      21.158 -22.764  35.421  1.00  0.00    -0.213 N 
HETATM   51  C16 UNL     1      20.040 -23.679  35.367  1.00  0.00     0.167 C 
HETATM   52  C17 UNL     1      20.406 -24.973  36.061  1.00  0.00     0.188 C 
HETATM   53  O5  UNL     1      21.005 -24.612  37.254  1.00  0.00    -0.388 OA
HETATM   54  C18 UNL     1      22.261 -24.107  37.102  1.00  0.00     0.188 C 
HETATM   55  C19 UNL     1      22.417 -23.201  35.922  1.00  0.00     0.167 C 
ENDBRANCH  35  50
ENDBRANCH   1  30
TORSDOF 13
ENDMDL
MODEL 5
REMARK VINA RESULT: -7.473121405      2.619      3.721
REMARK  13 active torsions:
REMARK  status: ('A' for Active; 'I' for Inactive)
REMARK    1  A    between atoms: N1_1  and  C1_5 
REMARK    2  A    between atoms: C1_5  and  N2_6 
REMARK    3  A    between atoms: C1_5  and  C2_10 
REMARK    4  A    between atoms: C3_12  and  S2_13 
REMARK    5  A    between atoms: S2_13  and  C4_16 
REMARK    6  A    between atoms: C6_20  and  N4_21 
REMARK    7  A    between atoms: N4_21  and  C7_23 
REMARK    8  A    between atoms: C8_26  and  N6_27 
REMARK    9  A    between atoms: C11_30  and  N7_31 
REMARK   10  A    between atoms: N7_31  and  O3_32 
REMARK   11  A    between atoms: N7_31  and  C12_34 
REMARK   12  A    between atoms: C15_40  and  N9_41 
REMARK   13  A    between atoms: C21_53  and  O6_54 
ROOT
HETATM    1  N4  UNL     1      21.885 -19.362  32.425  1.00  0.00    -0.021 N 
ATOM      2  H4  UNL     1      21.527 -19.658  31.517  1.00  0.00     0.203 HD
ENDROOT
BRANCH   1   3
HETATM    3  C6  UNL     1      23.019 -18.520  32.504  1.00  0.00     0.697 A 
HETATM    4  N3  UNL     1      24.233 -18.910  32.920  1.00  0.00    -0.198 N 
HETATM    5  C5  UNL     1      25.079 -17.848  32.865  1.00  0.00     0.149 A 
ATOM      6  H3  UNL     1      24.481 -19.851  33.227  1.00  0.00     0.183 HD
HETATM    7  C4  UNL     1      24.315 -16.801  32.396  1.00  0.00     0.165 A 
HETATM    8  N11 UNL     1      23.056 -17.203  32.173  1.00  0.00    -0.179 N 
ATOM      9  H11 UNL     1      22.283 -16.635  31.826  1.00  0.00     0.185 HD
BRANCH   7  10
HETATM   10  S2  UNL     1      24.905 -15.186  32.138  1.00  0.00     0.232 S 
HETATM   11  O1  UNL     1      24.947 -14.837  30.674  1.00  0.00    -0.215 OA
HETATM   12  O2  UNL     1      26.269 -15.040  32.738  1.00  0.00    -0.215 OA
BRANCH  10  13
HETATM   13  C3  UNL     1      23.791 -14.022  32.882  1.00  0.00     0.131 A 
HETATM   14  S1  UNL     1      22.339 -14.331  33.718  1.00  0.00    -0.074 SA
HETATM   15  C2  UNL     1      21.892 -12.739  34.099  1.00  0.00     0.076 A 
HETATM   16  C21 UNL     1      22.901 -11.991  33.555  1.00  0.00     0.106 A 
HETATM   17  C20 UNL     1      23.889 -12.660  32.923  1.00  0.00     0.097 A 
HETATM   18 CL1  UNL     1      25.289 -11.851  32.156  1.00  0.00    -0.079 Cl
BRANCH  15  19
HETATM   19  C1  UNL     1      20.680 -12.275  34.851  1.00  0.00     0.420 C 
BRANCH  19  20
HETATM   20  N1  UNL     1      19.814 -11.499  34.018  1.00  0.00    -0.046 N 
ATOM     21  H13 UNL     1      18.903 -11.367  34.458  1.00  0.00     0.277 HD
ATOM     22  H12 UNL     1      20.118 -10.527  33.976  1.00  0.00     0.277 HD
ATOM     23  H11 UNL     1      19.716 -11.896  33.083  1.00  0.00     0.277 HD
ENDBRANCH  19  20
BRANCH  19  24
HETATM   24  N2  UNL     1      21.050 -11.584  36.043  1.00  0.00    -0.046 N 
ATOM     25  H23 UNL     1      22.057 -11.435  36.084  1.00  0.00     0.277 HD
ATOM     26  H22 UNL     1      20.742 -10.612  36.015  1.00  0.00     0.277 HD
ATOM     27  H21 UNL     1      20.713 -12.053  36.884  1.00  0.00     0.277 HD
ENDBRANCH  19  24
ENDBRANCH  15  19
BRANCH  16  28
HETATM   28  O6  UNL     1      22.868 -10.571  33.678  1.00  0.00    -0.358 OA
ATOM     29  H6  UNL     1      23.540 -10.048  33.256  1.00  0.00     0.217 HD
ENDBRANCH  16  28
ENDBRANCH  10  13
ENDBRANCH   7  10
ENDBRANCH   1   3
BRANCH   1  30
HETATM   30  C7  UNL     1      21.311 -19.750  33.500  1.00  0.00     0.726 A 
HETATM   31  N5  UNL     1      20.560 -18.946  34.252  1.00  0.00    -0.021 N 
HETATM   32  C8  UNL     1      19.962 -19.410  35.388  1.00  0.00     0.709 A 
ATOM     33  H5  UNL     1      20.430 -17.973  33.975  1.00  0.00     0.203 HD
HETATM   34  N8  UNL     1      20.173 -20.691  35.689  1.00  0.00    -0.021 N 
HETATM   35  C15 UNL     1      20.934 -21.552  34.950  1.00  0.00     0.709 A 
ATOM     36  H8  UNL     1      19.735 -21.056  36.535  1.00  0.00     0.203 HD
HETATM   37  N10 UNL     1      21.492 -21.057  33.860  1.00  0.00    -0.021 N 
ATOM     38  H10 UNL     1      22.069 -21.662  33.276  1.00  0.00     0.203 HD
BRANCH  32  39
HETATM   39  N6  UNL     1      19.168 -18.542  36.177  1.00  0.00    -0.216 N 
HETATM   40  C9  UNL     1      19.469 -18.377  37.578  1.00  0.00     0.143 C 
HETATM   41  C10 UNL     1      18.106 -18.295  38.281  1.00  0.00     0.048 C 
HETATM   42  C11 UNL     1      17.501 -16.968  37.871  1.00  0.00     0.120 C 
HETATM   43  C13 UNL     1      17.522 -16.730  36.395  1.00  0.00     0.048 C 
HETATM   44  C14 UNL     1      18.076 -17.841  35.571  1.00  0.00     0.143 C 
BRANCH  42  45
HETATM   45  N7  UNL     1      16.161 -16.816  38.430  1.00  0.00    -0.231 N 
BRANCH  45  46
HETATM   46  O3  UNL     1      15.996 -16.361  39.693  1.00  0.00    -0.285 OA
ATOM     47  H3  UNL     1      15.408 -16.808  40.291  1.00  0.00     0.245 HD
ENDBRANCH  45  46
BRANCH  45  48
HETATM   48  C12 UNL     1      14.997 -17.133  37.682  1.00  0.00     0.377 C 
HETATM   49  O4  UNL     1      14.681 -18.325  37.461  1.00  0.00    -0.281 OA
ENDBRANCH  45  48
ENDBRANCH  42  45
ENDBRANCH  32  39
BRANCH  35  50
HETATM   50  N9  UNL     1      21.070 -22.897  35.372  1.00  0.00    -0.213 N 
HETATM   51  C16 UNL     1      19.927 -23.772  35.238  1.00  0.00     0.167 C 
HETATM   52  C17 UNL     1      20.215 -25.094  35.915  1.00  0.00     0.188 C 
HETATM   53  O5  UNL     1      20.764 -24.783  37.146  1.00  0.00    -0.388 OA
HETATM   54  C18 UNL     1      22.042 -24.318  37.070  1.00  0.00     0.188 C 
HETATM   55  C19 UNL     1      22.287 -23.389  35.923  1.00  0.00     0.167 C 
ENDBRANCH  35  50
ENDBRANCH   1  30
TORSDOF 13
ENDMDL
