MODEL 1
REMARK VINA RESULT: -6.346852391      0.000      0.000
REMARK  15 active torsions:
REMARK  status: ('A' for Active; 'I' for Inactive)
REMARK    1  A    between atoms: N2_5  and  C2_6 
REMARK    2  A    between atoms: N6_14  and  C4_15 
REMARK    3  A    between atoms: C4_15  and  O1_16 
REMARK    4  A    between atoms: C4_15  and  C5_18 
REMARK    5  A    between atoms: C5_18  and  N7_19 
REMARK    6  A    between atoms: C5_18  and  C6_23 
REMARK    7  A    between atoms: C6_23  and  O2_24 
REMARK    8  A    between atoms: C6_23  and  C7_26 
REMARK    9  A    between atoms: C7_26  and  O3_27 
REMARK   10  A    between atoms: C7_26  and  O4_29 
REMARK   11  A    between atoms: C10_35  and  C11_36 
REMARK   12  A    between atoms: C11_36  and  O5_37 
REMARK   13  A    between atoms: C12_40  and  N9_41 
REMARK   14  A    between atoms: N9_41  and  N10_42 
REMARK   15  A    between atoms: N11_45  and  N12_46 
ROOT
HETATM    1  C2  UNL     1      13.412  11.924 120.272  1.00  0.00     0.715 A 
HETATM    2  N3  UNL     1      12.605  12.885 120.751  1.00  0.00    -0.130 N 
ATOM      3  H3  UNL     1      11.628  12.898 120.459  1.00  0.00     0.205 HD
HETATM    4  N4  UNL     1      13.030  13.803 121.577  1.00  0.00    -0.267 N 
ATOM      5  H4  UNL     1      12.385  14.517 121.917  1.00  0.00     0.189 HD
HETATM    6  C3  UNL     1      14.305  13.812 121.979  1.00  0.00     0.182 A 
HETATM    7  N5  UNL     1      15.335  14.283 122.655  1.00  0.00    -0.275 N 
ATOM      8  H5  UNL     1      15.445  15.075 123.289  1.00  0.00     0.189 HD
HETATM    9  N6  UNL     1      16.190  13.346 122.209  1.00  0.00    -0.239 N 
HETATM   10  C8  UNL     1      15.136  12.842 121.501  1.00  0.00     0.187 A 
HETATM   11  N8  UNL     1      14.701  11.899 120.653  1.00  0.00    -0.169 N 
ATOM     12  H8  UNL     1      15.333  11.180 120.304  1.00  0.00     0.186 HD
ENDROOT
BRANCH   1  13
HETATM   13  N2  UNL     1      12.936  10.931 119.374  1.00  0.00    -0.009 N 
HETATM   14  C1  UNL     1      12.870   9.589 119.881  1.00  0.00     0.712 C 
HETATM   15  N1  UNL     1      13.343   9.355 121.040  1.00  0.00    -0.232 N 
HETATM   16  N11 UNL     1      12.296   8.494 119.129  1.00  0.00    -0.084 N 
ATOM     17  H12 UNL     1      13.748  10.126 121.570  1.00  0.00     0.174 HD
ATOM     18  H11 UNL     1      13.296   8.401 121.399  1.00  0.00     0.174 HD
HETATM   19  C12 UNL     1      11.284   8.604 118.129  1.00  0.00     0.379 C 
HETATM   20  O6  UNL     1      11.604   9.385 117.059  1.00  0.00    -0.340 OA
HETATM   21  C10 UNL     1      12.711  10.165 117.114  1.00  0.00     0.168 C 
HETATM   22  C9  UNL     1      12.568  11.398 118.026  1.00  0.00     0.201 C 
BRANCH  16  23
HETATM   23  N12 UNL     1      12.806   7.229 119.432  1.00  0.00    -0.325 N 
ATOM     24 2H12 UNL     1      13.188   7.065 120.363  1.00  0.00     0.177 HD
ATOM     25 1H12 UNL     1      12.752   6.545 118.677  1.00  0.00     0.177 HD
ENDBRANCH  16  23
BRANCH  19  26
HETATM   26  N9  UNL     1      10.823   7.284 117.774  1.00  0.00    -0.092 NA
BRANCH  26  27
HETATM   27  N10 UNL     1       9.539   7.002 118.212  1.00  0.00    -0.344 N 
ATOM     28 2H10 UNL     1       8.912   7.727 118.561  1.00  0.00     0.172 HD
ATOM     29 1H10 UNL     1       9.290   6.015 118.152  1.00  0.00     0.172 HD
ENDBRANCH  26  27
ENDBRANCH  19  26
BRANCH  21  30
HETATM   30  C11 UNL     1      12.956  10.729 115.710  1.00  0.00     0.197 C 
BRANCH  30  31
HETATM   31  O5  UNL     1      14.072  11.556 115.693  1.00  0.00    -0.398 OA
ATOM     32  H5  UNL     1      13.819  12.470 115.654  1.00  0.00     0.209 HD
ENDBRANCH  30  31
ENDBRANCH  21  30
ENDBRANCH   1  13
BRANCH   9  33
HETATM   33  C4  UNL     1      17.590  13.004 122.384  1.00  0.00     0.276 C 
BRANCH  33  34
HETATM   34  O1  UNL     1      18.283  14.212 122.452  1.00  0.00    -0.373 OA
ATOM     35  H1  UNL     1      19.204  13.997 122.368  1.00  0.00     0.212 HD
ENDBRANCH  33  34
BRANCH  33  36
HETATM   36  C5  UNL     1      17.723  12.207 123.644  1.00  0.00     0.266 C 
BRANCH  36  37
HETATM   37  N7  UNL     1      18.097  10.832 123.368  1.00  0.00    -0.068 N 
ATOM     38  H73 UNL     1      17.350  10.331 122.887  1.00  0.00     0.275 HD
ATOM     39  H72 UNL     1      18.814  10.779 122.644  1.00  0.00     0.275 HD
ATOM     40  H71 UNL     1      18.387  10.345 124.217  1.00  0.00     0.275 HD
ENDBRANCH  36  37
BRANCH  36  41
HETATM   41  C6  UNL     1      18.622  12.780 124.676  1.00  0.00     0.207 C 
BRANCH  41  42
HETATM   42  O2  UNL     1      19.946  12.392 124.435  1.00  0.00    -0.388 OA
ATOM     43  H2  UNL     1      20.511  13.154 124.396  1.00  0.00     0.210 HD
ENDBRANCH  41  42
BRANCH  41  44
HETATM   44  C7  UNL     1      18.295  12.455 126.091  1.00  0.00     0.284 C 
BRANCH  44  45
HETATM   45  O3  UNL     1      18.003  13.545 126.875  1.00  0.00    -0.369 OA
ATOM     46  H3  UNL     1      17.079  13.656 127.070  1.00  0.00     0.212 HD
ENDBRANCH  44  45
BRANCH  44  47
HETATM   47  O4  UNL     1      17.320  11.441 126.192  1.00  0.00    -0.369 OA
ATOM     48  H4  UNL     1      17.697  10.605 126.442  1.00  0.00     0.212 HD
ENDBRANCH  44  47
ENDBRANCH  41  44
ENDBRANCH  36  41
ENDBRANCH  33  36
ENDBRANCH   9  33
TORSDOF 15
ENDMDL
MODEL 2
REMARK VINA RESULT: -6.264156130      3.717      8.075
REMARK  15 active torsions:
REMARK  status: ('A' for Active; 'I' for Inactive)
REMARK    1  A    between atoms: N2_5  and  C2_6 
REMARK    2  A    between atoms: N6_14  and  C4_15 
REMARK    3  A    between atoms: C4_15  and  O1_16 
REMARK    4  A    between atoms: C4_15  and  C5_18 
REMARK    5  A    between atoms: C5_18  and  N7_19 
REMARK    6  A    between atoms: C5_18  and  C6_23 
REMARK    7  A    between atoms: C6_23  and  O2_24 
REMARK    8  A    between atoms: C6_23  and  C7_26 
REMARK    9  A    between atoms: C7_26  and  O3_27 
REMARK   10  A    between atoms: C7_26  and  O4_29 
REMARK   11  A    between atoms: C10_35  and  C11_36 
REMARK   12  A    between atoms: C11_36  and  O5_37 
REMARK   13  A    between atoms: C12_40  and  N9_41 
REMARK   14  A    between atoms: N9_41  and  N10_42 
REMARK   15  A    between atoms: N11_45  and  N12_46 
ROOT
HETATM    1  C2  UNL     1      16.677  10.149 123.756  1.00  0.00     0.715 A 
HETATM    2  N3  UNL     1      16.435   8.855 124.019  1.00  0.00    -0.130 N 
ATOM      3  H3  UNL     1      17.194   8.274 124.372  1.00  0.00     0.205 HD
HETATM    4  N4  UNL     1      15.258   8.316 123.838  1.00  0.00    -0.267 N 
ATOM      5  H4  UNL     1      15.115   7.328 124.049  1.00  0.00     0.189 HD
HETATM    6  C3  UNL     1      14.242   9.052 123.376  1.00  0.00     0.182 A 
HETATM    7  N5  UNL     1      12.996   9.250 122.990  1.00  0.00    -0.275 N 
ATOM      8  H5  UNL     1      12.185   8.635 122.927  1.00  0.00     0.189 HD
HETATM    9  N6  UNL     1      13.179  10.552 122.709  1.00  0.00    -0.239 N 
HETATM   10  C8  UNL     1      14.474  10.368 123.105  1.00  0.00     0.187 A 
HETATM   11  N8  UNL     1      15.680  10.923 123.291  1.00  0.00    -0.169 N 
ATOM     12  H8  UNL     1      15.839  11.909 123.085  1.00  0.00     0.186 HD
ENDROOT
BRANCH   1  13
HETATM   13  N2  UNL     1      17.961  10.722 123.960  1.00  0.00    -0.009 N 
HETATM   14  C1  UNL     1      18.333  10.996 125.320  1.00  0.00     0.712 C 
HETATM   15  N1  UNL     1      17.462  10.821 126.232  1.00  0.00    -0.232 N 
HETATM   16  N11 UNL     1      19.648  11.465 125.694  1.00  0.00    -0.084 N 
ATOM     17  H12 UNL     1      16.533  10.490 125.968  1.00  0.00     0.174 HD
ATOM     18  H11 UNL     1      17.726  11.015 127.198  1.00  0.00     0.174 HD
HETATM   19  C12 UNL     1      20.860  11.220 124.981  1.00  0.00     0.379 C 
HETATM   20  O6  UNL     1      20.884  11.679 123.698  1.00  0.00    -0.340 OA
HETATM   21  C10 UNL     1      19.732  12.106 123.124  1.00  0.00     0.168 C 
HETATM   22  C9  UNL     1      18.759  10.972 122.746  1.00  0.00     0.201 C 
BRANCH  16  23
HETATM   23  N12 UNL     1      19.701  12.228 126.864  1.00  0.00    -0.325 N 
ATOM     24 2H12 UNL     1      19.511  13.228 126.804  1.00  0.00     0.177 HD
ATOM     25 1H12 UNL     1      19.927  11.711 127.713  1.00  0.00     0.177 HD
ENDBRANCH  16  23
BRANCH  19  26
HETATM   26  N9  UNL     1      21.978  11.658 125.781  1.00  0.00    -0.092 NA
BRANCH  26  27
HETATM   27  N10 UNL     1      22.831  10.635 126.159  1.00  0.00    -0.344 N 
ATOM     28 2H10 UNL     1      22.593   9.652 126.028  1.00  0.00     0.172 HD
ATOM     29 1H10 UNL     1      23.705  10.959 126.575  1.00  0.00     0.172 HD
ENDBRANCH  26  27
ENDBRANCH  19  26
BRANCH  21  30
HETATM   30  C11 UNL     1      20.093  12.783 121.798  1.00  0.00     0.197 C 
BRANCH  30  31
HETATM   31  O5  UNL     1      18.990  13.423 121.248  1.00  0.00    -0.398 OA
ATOM     32  H5  UNL     1      19.062  13.476 120.303  1.00  0.00     0.209 HD
ENDBRANCH  30  31
ENDBRANCH  21  30
ENDBRANCH   1  13
BRANCH   9  33
HETATM   33  C4  UNL     1      12.386  11.662 122.214  1.00  0.00     0.276 C 
BRANCH  33  34
HETATM   34  O1  UNL     1      11.728  12.198 123.321  1.00  0.00    -0.373 OA
ATOM     35  H1  UNL     1      11.557  11.471 123.908  1.00  0.00     0.212 HD
ENDBRANCH  33  34
BRANCH  33  36
HETATM   36  C5  UNL     1      13.310  12.650 121.575  1.00  0.00     0.266 C 
BRANCH  36  37
HETATM   37  N7  UNL     1      12.763  13.167 120.334  1.00  0.00    -0.068 N 
ATOM     38  H73 UNL     1      13.173  12.703 119.524  1.00  0.00     0.275 HD
ATOM     39  H72 UNL     1      11.792  12.879 120.206  1.00  0.00     0.275 HD
ATOM     40  H71 UNL     1      12.862  14.181 120.274  1.00  0.00     0.275 HD
ENDBRANCH  36  37
BRANCH  36  41
HETATM   41  C6  UNL     1      13.752  13.771 122.441  1.00  0.00     0.207 C 
BRANCH  41  42
HETATM   42  O2  UNL     1      13.020  14.928 122.146  1.00  0.00    -0.388 OA
ATOM     43  H2  UNL     1      13.490  15.464 121.517  1.00  0.00     0.210 HD
ENDBRANCH  41  42
BRANCH  41  44
HETATM   44  C7  UNL     1      15.199  14.114 122.390  1.00  0.00     0.284 C 
BRANCH  44  45
HETATM   45  O3  UNL     1      15.889  13.529 121.354  1.00  0.00    -0.369 OA
ATOM     46  H3  UNL     1      16.736  13.920 121.172  1.00  0.00     0.212 HD
ENDBRANCH  44  45
BRANCH  44  47
HETATM   47  O4  UNL     1      15.420  15.505 122.467  1.00  0.00    -0.369 OA
ATOM     48  H4  UNL     1      15.501  15.805 123.365  1.00  0.00     0.212 HD
ENDBRANCH  44  47
ENDBRANCH  41  44
ENDBRANCH  36  41
ENDBRANCH  33  36
ENDBRANCH   9  33
TORSDOF 15
ENDMDL
MODEL 3
REMARK VINA RESULT: -6.119824685      1.699      2.556
REMARK  15 active torsions:
REMARK  status: ('A' for Active; 'I' for Inactive)
REMARK    1  A    between atoms: N2_5  and  C2_6 
REMARK    2  A    between atoms: N6_14  and  C4_15 
REMARK    3  A    between atoms: C4_15  and  O1_16 
REMARK    4  A    between atoms: C4_15  and  C5_18 
REMARK    5  A    between atoms: C5_18  and  N7_19 
REMARK    6  A    between atoms: C5_18  and  C6_23 
REMARK    7  A    between atoms: C6_23  and  O2_24 
REMARK    8  A    between atoms: C6_23  and  C7_26 
REMARK    9  A    between atoms: C7_26  and  O3_27 
REMARK   10  A    between atoms: C7_26  and  O4_29 
REMARK   11  A    between atoms: C10_35  and  C11_36 
REMARK   12  A    between atoms: C11_36  and  O5_37 
REMARK   13  A    between atoms: C12_40  and  N9_41 
REMARK   14  A    between atoms: N9_41  and  N10_42 
REMARK   15  A    between atoms: N11_45  and  N12_46 
ROOT
HETATM    1  C2  UNL     1      13.480  11.411 120.543  1.00  0.00     0.715 A 
HETATM    2  N3  UNL     1      12.647  12.424 120.829  1.00  0.00    -0.130 N 
ATOM      3  H3  UNL     1      11.674  12.361 120.531  1.00  0.00     0.205 HD
HETATM    4  N4  UNL     1      13.042  13.488 121.477  1.00  0.00    -0.267 N 
ATOM      5  H4  UNL     1      12.378  14.237 121.674  1.00  0.00     0.189 HD
HETATM    6  C3  UNL     1      14.312  13.600 121.881  1.00  0.00     0.182 A 
HETATM    7  N5  UNL     1      15.323  14.210 122.468  1.00  0.00    -0.275 N 
ATOM      8  H5  UNL     1      15.407  15.107 122.947  1.00  0.00     0.189 HD
HETATM    9  N6  UNL     1      16.203  13.227 122.210  1.00  0.00    -0.239 N 
HETATM   10  C8  UNL     1      15.169  12.578 121.597  1.00  0.00     0.187 A 
HETATM   11  N8  UNL     1      14.764  11.486 120.933  1.00  0.00    -0.169 N 
ATOM     12  H8  UNL     1      15.416  10.729 120.728  1.00  0.00     0.186 HD
ENDROOT
BRANCH   1  13
HETATM   13  N2  UNL     1      13.036  10.259 119.839  1.00  0.00    -0.009 N 
HETATM   14  C1  UNL     1      13.179  10.287 118.410  1.00  0.00     0.712 C 
HETATM   15  N1  UNL     1      13.575  11.366 117.862  1.00  0.00    -0.232 N 
HETATM   16  N11 UNL     1      12.885   9.147 117.570  1.00  0.00    -0.084 N 
ATOM     17  H12 UNL     1      13.782  12.170 118.455  1.00  0.00     0.174 HD
ATOM     18  H11 UNL     1      13.676  11.386 116.847  1.00  0.00     0.174 HD
HETATM   19  C12 UNL     1      12.959   7.776 117.961  1.00  0.00     0.379 C 
HETATM   20  O6  UNL     1      12.153   7.423 119.001  1.00  0.00    -0.340 OA
HETATM   21  C10 UNL     1      11.537   8.391 119.723  1.00  0.00     0.168 C 
HETATM   22  C9  UNL     1      12.479   9.171 120.662  1.00  0.00     0.201 C 
BRANCH  16  23
HETATM   23  N12 UNL     1      12.491   9.452 116.264  1.00  0.00    -0.325 N 
ATOM     24 2H12 UNL     1      12.826  10.318 115.841  1.00  0.00     0.177 HD
ATOM     25 1H12 UNL     1      11.885   8.763 115.819  1.00  0.00     0.177 HD
ENDBRANCH  16  23
BRANCH  19  26
HETATM   26  N9  UNL     1      12.810   6.942 116.794  1.00  0.00    -0.092 NA
BRANCH  26  27
HETATM   27  N10 UNL     1      13.926   6.173 116.508  1.00  0.00    -0.344 N 
ATOM     28 2H10 UNL     1      14.778   6.576 116.118  1.00  0.00     0.172 HD
ATOM     29 1H10 UNL     1      13.811   5.182 116.724  1.00  0.00     0.172 HD
ENDBRANCH  26  27
ENDBRANCH  19  26
BRANCH  21  30
HETATM   30  C11 UNL     1      10.522   7.712 120.648  1.00  0.00     0.197 C 
BRANCH  30  31
HETATM   31  O5  UNL     1       9.226   8.101 120.337  1.00  0.00    -0.398 OA
ATOM     32  H5  UNL     1       8.589   7.577 120.808  1.00  0.00     0.209 HD
ENDBRANCH  30  31
ENDBRANCH  21  30
ENDBRANCH   1  13
BRANCH   9  33
HETATM   33  C4  UNL     1      17.607  12.955 122.457  1.00  0.00     0.276 C 
BRANCH  33  34
HETATM   34  O1  UNL     1      18.241  14.195 122.516  1.00  0.00    -0.373 OA
ATOM     35  H1  UNL     1      19.094  14.041 122.906  1.00  0.00     0.212 HD
ENDBRANCH  33  34
BRANCH  33  36
HETATM   36  C5  UNL     1      17.719  12.204 123.747  1.00  0.00     0.266 C 
BRANCH  36  37
HETATM   37  N7  UNL     1      18.056  10.810 123.525  1.00  0.00    -0.068 N 
ATOM     38  H73 UNL     1      17.331  10.189 123.885  1.00  0.00     0.275 HD
ATOM     39  H72 UNL     1      17.997  10.565 122.536  1.00  0.00     0.275 HD
ATOM     40  H71 UNL     1      18.971  10.580 123.912  1.00  0.00     0.275 HD
ENDBRANCH  36  37
BRANCH  36  41
HETATM   41  C6  UNL     1      18.632  12.793 124.757  1.00  0.00     0.207 C 
BRANCH  41  42
HETATM   42  O2  UNL     1      19.954  12.415 124.493  1.00  0.00    -0.388 OA
ATOM     43  H2  UNL     1      20.083  11.497 124.702  1.00  0.00     0.210 HD
ENDBRANCH  41  42
BRANCH  41  44
HETATM   44  C7  UNL     1      18.335  12.473 126.181  1.00  0.00     0.284 C 
BRANCH  44  45
HETATM   45  O3  UNL     1      18.019  13.563 126.956  1.00  0.00    -0.369 OA
ATOM     46  H3  UNL     1      18.743  13.909 127.466  1.00  0.00     0.212 HD
ENDBRANCH  44  45
BRANCH  44  47
HETATM   47  O4  UNL     1      17.396  11.430 126.307  1.00  0.00    -0.369 OA
ATOM     48  H4  UNL     1      16.639  11.689 126.820  1.00  0.00     0.212 HD
ENDBRANCH  44  47
ENDBRANCH  41  44
ENDBRANCH  36  41
ENDBRANCH  33  36
ENDBRANCH   9  33
TORSDOF 15
ENDMDL
MODEL 4
REMARK VINA RESULT: -6.055114269      3.404      8.345
REMARK  15 active torsions:
REMARK  status: ('A' for Active; 'I' for Inactive)
REMARK    1  A    between atoms: N2_5  and  C2_6 
REMARK    2  A    between atoms: N6_14  and  C4_15 
REMARK    3  A    between atoms: C4_15  and  O1_16 
REMARK    4  A    between atoms: C4_15  and  C5_18 
REMARK    5  A    between atoms: C5_18  and  N7_19 
REMARK    6  A    between atoms: C5_18  and  C6_23 
REMARK    7  A    between atoms: C6_23  and  O2_24 
REMARK    8  A    between atoms: C6_23  and  C7_26 
REMARK    9  A    between atoms: C7_26  and  O3_27 
REMARK   10  A    between atoms: C7_26  and  O4_29 
REMARK   11  A    between atoms: C10_35  and  C11_36 
REMARK   12  A    between atoms: C11_36  and  O5_37 
REMARK   13  A    between atoms: C12_40  and  N9_41 
REMARK   14  A    between atoms: N9_41  and  N10_42 
REMARK   15  A    between atoms: N11_45  and  N12_46 
ROOT
HETATM    1  C2  UNL     1      16.753  10.124 124.142  1.00  0.00     0.715 A 
HETATM    2  N3  UNL     1      16.350   8.978 124.713  1.00  0.00    -0.130 N 
ATOM      3  H3  UNL     1      16.982   8.498 125.354  1.00  0.00     0.205 HD
HETATM    4  N4  UNL     1      15.175   8.457 124.476  1.00  0.00    -0.267 N 
ATOM      5  H4  UNL     1      14.907   7.584 124.930  1.00  0.00     0.189 HD
HETATM    6  C3  UNL     1      14.324   9.062 123.642  1.00  0.00     0.182 A 
HETATM    7  N5  UNL     1      13.185   9.186 122.989  1.00  0.00    -0.275 N 
ATOM      8  H5  UNL     1      12.341   8.614 122.953  1.00  0.00     0.189 HD
HETATM    9  N6  UNL     1      13.533  10.337 122.386  1.00  0.00    -0.239 N 
HETATM   10  C8  UNL     1      14.720  10.228 123.054  1.00  0.00     0.187 A 
HETATM   11  N8  UNL     1      15.925  10.763 123.296  1.00  0.00    -0.169 N 
ATOM     12  H8  UNL     1      16.208  11.635 122.850  1.00  0.00     0.186 HD
ENDROOT
BRANCH   1  13
HETATM   13  N2  UNL     1      18.033  10.679 124.410  1.00  0.00    -0.009 N 
HETATM   14  C1  UNL     1      19.167   9.919 123.964  1.00  0.00     0.712 C 
HETATM   15  N1  UNL     1      18.965   8.763 123.471  1.00  0.00    -0.232 N 
HETATM   16  N11 UNL     1      20.525  10.409 124.056  1.00  0.00    -0.084 N 
ATOM     17  H12 UNL     1      18.008   8.417 123.406  1.00  0.00     0.174 HD
ATOM     18  H11 UNL     1      19.771   8.223 123.154  1.00  0.00     0.174 HD
HETATM   19  C12 UNL     1      20.924  11.780 124.052  1.00  0.00     0.379 C 
HETATM   20  O6  UNL     1      20.408  12.540 125.058  1.00  0.00    -0.340 OA
HETATM   21  C10 UNL     1      19.411  12.037 125.826  1.00  0.00     0.168 C 
HETATM   22  C9  UNL     1      18.044  11.971 125.118  1.00  0.00     0.201 C 
BRANCH  16  23
HETATM   23  N12 UNL     1      21.510   9.424 124.163  1.00  0.00    -0.325 N 
ATOM     24 2H12 UNL     1      21.293   8.478 123.850  1.00  0.00     0.177 HD
ATOM     25 1H12 UNL     1      22.399   9.737 124.553  1.00  0.00     0.177 HD
ENDBRANCH  16  23
BRANCH  19  26
HETATM   26  N9  UNL     1      22.360  11.856 123.937  1.00  0.00    -0.092 NA
BRANCH  26  27
HETATM   27  N10 UNL     1      22.797  12.455 122.767  1.00  0.00    -0.344 N 
ATOM     28 2H10 UNL     1      23.065  13.439 122.727  1.00  0.00     0.172 HD
ATOM     29 1H10 UNL     1      22.824  11.825 121.965  1.00  0.00     0.172 HD
ENDBRANCH  26  27
ENDBRANCH  19  26
BRANCH  21  30
HETATM   30  C11 UNL     1      19.205  12.989 127.009  1.00  0.00     0.197 C 
BRANCH  30  31
HETATM   31  O5  UNL     1      19.198  14.312 126.590  1.00  0.00    -0.398 OA
ATOM     32  H5  UNL     1      18.327  14.581 126.322  1.00  0.00     0.209 HD
ENDBRANCH  30  31
ENDBRANCH  21  30
ENDBRANCH   1  13
BRANCH   9  33
HETATM   33  C4  UNL     1      12.942  11.279 121.455  1.00  0.00     0.276 C 
BRANCH  33  34
HETATM   34  O1  UNL     1      11.784  11.759 122.066  1.00  0.00    -0.373 OA
ATOM     35  H1  UNL     1      11.894  12.700 122.144  1.00  0.00     0.212 HD
ENDBRANCH  33  34
BRANCH  33  36
HETATM   36  C5  UNL     1      13.935  12.368 121.196  1.00  0.00     0.266 C 
BRANCH  36  37
HETATM   37  N7  UNL     1      13.728  12.981 119.896  1.00  0.00    -0.068 N 
ATOM     38  H73 UNL     1      12.767  13.306 119.786  1.00  0.00     0.275 HD
ATOM     39  H72 UNL     1      14.207  13.878 119.827  1.00  0.00     0.275 HD
ATOM     40  H71 UNL     1      13.998  12.353 119.139  1.00  0.00     0.275 HD
ENDBRANCH  36  37
BRANCH  36  41
HETATM   41  C6  UNL     1      14.028  13.417 122.242  1.00  0.00     0.207 C 
BRANCH  41  42
HETATM   42  O2  UNL     1      13.159  14.474 121.946  1.00  0.00    -0.388 OA
ATOM     43  H2  UNL     1      13.529  15.297 122.243  1.00  0.00     0.210 HD
ENDBRANCH  41  42
BRANCH  41  44
HETATM   44  C7  UNL     1      15.381  13.985 122.488  1.00  0.00     0.284 C 
BRANCH  44  45
HETATM   45  O3  UNL     1      16.373  13.464 121.691  1.00  0.00    -0.369 OA
ATOM     46  H3  UNL     1      16.335  13.740 120.782  1.00  0.00     0.212 HD
ENDBRANCH  44  45
BRANCH  44  47
HETATM   47  O4  UNL     1      15.374  15.395 122.489  1.00  0.00    -0.369 OA
ATOM     48  H4  UNL     1      15.700  15.755 121.672  1.00  0.00     0.212 HD
ENDBRANCH  44  47
ENDBRANCH  41  44
ENDBRANCH  36  41
ENDBRANCH  33  36
ENDBRANCH   9  33
TORSDOF 15
ENDMDL
MODEL 5
REMARK VINA RESULT: -5.973755721      6.090      9.112
REMARK  15 active torsions:
REMARK  status: ('A' for Active; 'I' for Inactive)
REMARK    1  A    between atoms: N2_5  and  C2_6 
REMARK    2  A    between atoms: N6_14  and  C4_15 
REMARK    3  A    between atoms: C4_15  and  O1_16 
REMARK    4  A    between atoms: C4_15  and  C5_18 
REMARK    5  A    between atoms: C5_18  and  N7_19 
REMARK    6  A    between atoms: C5_18  and  C6_23 
REMARK    7  A    between atoms: C6_23  and  O2_24 
REMARK    8  A    between atoms: C6_23  and  C7_26 
REMARK    9  A    between atoms: C7_26  and  O3_27 
REMARK   10  A    between atoms: C7_26  and  O4_29 
REMARK   11  A    between atoms: C10_35  and  C11_36 
REMARK   12  A    between atoms: C11_36  and  O5_37 
REMARK   13  A    between atoms: C12_40  and  N9_41 
REMARK   14  A    between atoms: N9_41  and  N10_42 
REMARK   15  A    between atoms: N11_45  and  N12_46 
ROOT
HETATM    1  C2  UNL     1      20.596  13.058 121.064  1.00  0.00     0.715 A 
HETATM    2  N3  UNL     1      20.493  12.478 119.858  1.00  0.00    -0.130 N 
ATOM      3  H3  UNL     1      19.728  11.826 119.688  1.00  0.00     0.205 HD
HETATM    4  N4  UNL     1      21.342  12.721 118.894  1.00  0.00    -0.267 N 
ATOM      5  H4  UNL     1      21.230  12.259 117.992  1.00  0.00     0.189 HD
HETATM    6  C3  UNL     1      22.355  13.571 119.086  1.00  0.00     0.182 A 
HETATM    7  N5  UNL     1      23.433  14.239 118.720  1.00  0.00    -0.275 N 
ATOM      8  H5  UNL     1      23.961  14.278 117.848  1.00  0.00     0.189 HD
HETATM    9  N6  UNL     1      23.586  14.850 119.908  1.00  0.00    -0.239 N 
HETATM   10  C8  UNL     1      22.471  14.168 120.307  1.00  0.00     0.187 A 
HETATM   11  N8  UNL     1      21.601  13.919 121.296  1.00  0.00    -0.169 N 
ATOM     12  H8  UNL     1      21.700  14.373 122.204  1.00  0.00     0.186 HD
ENDROOT
BRANCH   1  13
HETATM   13  N2  UNL     1      19.665  12.784 122.103  1.00  0.00    -0.009 N 
HETATM   14  C1  UNL     1      19.993  11.704 122.990  1.00  0.00     0.712 C 
HETATM   15  N1  UNL     1      21.018  10.995 122.727  1.00  0.00    -0.232 N 
HETATM   16  N11 UNL     1      19.208  11.385 124.162  1.00  0.00    -0.084 N 
ATOM     17  H12 UNL     1      21.572  11.220 121.900  1.00  0.00     0.174 HD
ATOM     18  H11 UNL     1      21.252  10.228 123.357  1.00  0.00     0.174 HD
HETATM   19  C12 UNL     1      18.410  12.301 124.911  1.00  0.00     0.379 C 
HETATM   20  O6  UNL     1      17.415  12.914 124.212  1.00  0.00    -0.340 OA
HETATM   21  C10 UNL     1      17.390  12.808 122.861  1.00  0.00     0.168 C 
HETATM   22  C9  UNL     1      18.468  13.644 122.143  1.00  0.00     0.201 C 
BRANCH  16  23
HETATM   23  N12 UNL     1      19.254  10.048 124.566  1.00  0.00    -0.325 N 
ATOM     24 2H12 UNL     1      19.331   9.323 123.853  1.00  0.00     0.177 HD
ATOM     25 1H12 UNL     1      19.209   9.895 125.574  1.00  0.00     0.177 HD
ENDBRANCH  16  23
BRANCH  19  26
HETATM   26  N9  UNL     1      17.965  11.659 126.124  1.00  0.00    -0.092 NA
BRANCH  26  27
HETATM   27  N10 UNL     1      18.548  12.167 127.274  1.00  0.00    -0.344 N 
ATOM     28 2H10 UNL     1      18.185  12.994 127.748  1.00  0.00     0.172 HD
ATOM     29 1H10 UNL     1      19.361  11.639 127.591  1.00  0.00     0.172 HD
ENDBRANCH  26  27
ENDBRANCH  19  26
BRANCH  21  30
HETATM   30  C11 UNL     1      16.053  13.373 122.371  1.00  0.00     0.197 C 
BRANCH  30  31
HETATM   31  O5  UNL     1      16.058  14.761 122.395  1.00  0.00    -0.398 OA
ATOM     32  H5  UNL     1      15.295  15.113 121.953  1.00  0.00     0.209 HD
ENDBRANCH  30  31
ENDBRANCH  21  30
ENDBRANCH   1  13
BRANCH   9  33
HETATM   33  C4  UNL     1      24.502  15.799 120.513  1.00  0.00     0.276 C 
BRANCH  33  34
HETATM   34  O1  UNL     1      25.687  15.719 119.783  1.00  0.00    -0.373 OA
ATOM     35  H1  UNL     1      26.069  16.589 119.797  1.00  0.00     0.212 HD
ENDBRANCH  33  34
BRANCH  33  36
HETATM   36  C5  UNL     1      23.884  17.160 120.436  1.00  0.00     0.266 C 
BRANCH  36  37
HETATM   37  N7  UNL     1      24.090  17.909 121.662  1.00  0.00    -0.068 N 
ATOM     38  H73 UNL     1      23.447  17.608 122.395  1.00  0.00     0.275 HD
ATOM     39  H72 UNL     1      24.970  17.656 122.111  1.00  0.00     0.275 HD
ATOM     40  H71 UNL     1      24.027  18.915 121.502  1.00  0.00     0.275 HD
ENDBRANCH  36  37
BRANCH  36  41
HETATM   41  C6  UNL     1      24.283  17.983 119.267  1.00  0.00     0.207 C 
BRANCH  41  42
HETATM   42  O2  UNL     1      24.122  19.343 119.554  1.00  0.00    -0.388 OA
ATOM     43  H2  UNL     1      24.224  19.861 118.764  1.00  0.00     0.210 HD
ENDBRANCH  41  42
BRANCH  41  44
HETATM   44  C7  UNL     1      23.579  17.695 117.987  1.00  0.00     0.284 C 
BRANCH  44  45
HETATM   45  O3  UNL     1      24.280  16.892 117.118  1.00  0.00    -0.369 OA
ATOM     46  H3  UNL     1      23.840  16.725 116.293  1.00  0.00     0.212 HD
ENDBRANCH  44  45
BRANCH  44  47
HETATM   47  O4  UNL     1      22.260  17.242 118.195  1.00  0.00    -0.369 OA
ATOM     48  H4  UNL     1      21.956  16.687 117.485  1.00  0.00     0.212 HD
ENDBRANCH  44  47
ENDBRANCH  41  44
ENDBRANCH  36  41
ENDBRANCH  33  36
ENDBRANCH   9  33
TORSDOF 15
ENDMDL
