MODEL 1
REMARK VINA RESULT: -6.655749195      0.000      0.000
REMARK  3 active torsions:
REMARK  status: ('A' for Active; 'I' for Inactive)
REMARK    1  A    between atoms: C1_2  and  O2_3 
REMARK    2  A    between atoms: C1_2  and  C8_13 
REMARK    3  A    between atoms: O2_3  and  C2_4 
ROOT
HETATM    1  C2  UNL     1      20.086  29.866  10.542  1.00  0.00     0.134 C 
HETATM    2  C3  UNL     1      21.235  28.871  10.490  1.00  0.00     0.041 C 
HETATM    3  C4  UNL     1      20.718  27.688   9.730  1.00  0.00     0.044 A 
HETATM    4  C5  UNL     1      19.758  26.793  10.462  1.00  0.00     0.239 A 
HETATM    5  N1  UNL     1      18.611  27.335   9.761  1.00  0.00    -0.070 N 
ATOM      6  H11 UNL     1      17.845  27.764  10.278  1.00  0.00     0.277 HD
ATOM      7  H12 UNL     1      17.944  26.714   9.303  1.00  0.00     0.277 HD
HETATM    8  C6  UNL     1      19.501  28.144   8.981  1.00  0.00     0.194 A 
HETATM    9  C7  UNL     1      19.419  29.623   9.206  1.00  0.00     0.066 C 
ENDROOT
BRANCH   1  10
HETATM   10  O2  UNL     1      20.536  31.191  10.586  1.00  0.00    -0.316 OA
BRANCH  10  11
HETATM   11  C1  UNL     1      21.819  31.613  10.384  1.00  0.00     0.263 C 
HETATM   12  O1  UNL     1      22.242  31.686   9.203  1.00  0.00    -0.265 OA
BRANCH  11  13
HETATM   13  C8  UNL     1      22.756  31.996  11.468  1.00  0.00     0.085 C 
HETATM   14  C9  UNL     1      23.829  30.947  11.676  1.00  0.00     0.014 C 
HETATM   15  C10 UNL     1      24.886  31.709  12.444  1.00  0.00     0.001 C 
HETATM   16  C11 UNL     1      24.664  33.172  12.153  1.00  0.00     0.001 C 
HETATM   17  C12 UNL     1      23.590  33.197  11.074  1.00  0.00     0.014 C 
ENDBRANCH  11  13
ENDBRANCH  10  11
ENDBRANCH   1  10
TORSDOF 3
ENDMDL
MODEL 2
REMARK VINA RESULT: -6.420533578      0.661      1.240
REMARK  3 active torsions:
REMARK  status: ('A' for Active; 'I' for Inactive)
REMARK    1  A    between atoms: C1_2  and  O2_3 
REMARK    2  A    between atoms: C1_2  and  C8_13 
REMARK    3  A    between atoms: O2_3  and  C2_4 
ROOT
HETATM    1  C2  UNL     1      20.367  29.649  10.826  1.00  0.00     0.134 C 
HETATM    2  C3  UNL     1      21.330  28.515  10.514  1.00  0.00     0.041 C 
HETATM    3  C4  UNL     1      20.597  27.601   9.581  1.00  0.00     0.044 A 
HETATM    4  C5  UNL     1      19.524  26.743  10.193  1.00  0.00     0.239 A 
HETATM    5  N1  UNL     1      18.462  27.587   9.681  1.00  0.00    -0.070 N 
ATOM      6  H11 UNL     1      17.797  28.022  10.319  1.00  0.00     0.277 HD
ATOM      7  H12 UNL     1      17.686  27.180   9.160  1.00  0.00     0.277 HD
HETATM    8  C6  UNL     1      19.449  28.381   9.011  1.00  0.00     0.194 A 
HETATM    9  C7  UNL     1      19.624  29.782   9.514  1.00  0.00     0.066 C 
ENDROOT
BRANCH   1  10
HETATM   10  O2  UNL     1      21.034  30.852  11.087  1.00  0.00    -0.316 OA
BRANCH  10  11
HETATM   11  C1  UNL     1      22.240  31.233  10.573  1.00  0.00     0.263 C 
HETATM   12  O1  UNL     1      22.272  31.670   9.395  1.00  0.00    -0.265 OA
BRANCH  11  13
HETATM   13  C8  UNL     1      23.524  31.167  11.310  1.00  0.00     0.085 C 
HETATM   14  C9  UNL     1      23.976  32.538  11.769  1.00  0.00     0.014 C 
HETATM   15  C10 UNL     1      24.989  32.206  12.843  1.00  0.00     0.001 C 
HETATM   16  C11 UNL     1      24.670  30.813  13.324  1.00  0.00     0.001 C 
HETATM   17  C12 UNL     1      23.361  30.452  12.635  1.00  0.00     0.014 C 
ENDBRANCH  11  13
ENDBRANCH  10  11
ENDBRANCH   1  10
TORSDOF 3
ENDMDL
MODEL 3
REMARK VINA RESULT: -6.402323298      1.527      2.385
REMARK  3 active torsions:
REMARK  status: ('A' for Active; 'I' for Inactive)
REMARK    1  A    between atoms: C1_2  and  O2_3 
REMARK    2  A    between atoms: C1_2  and  C8_13 
REMARK    3  A    between atoms: O2_3  and  C2_4 
ROOT
HETATM    1  C2  UNL     1      20.786  30.732   8.886  1.00  0.00     0.134 C 
HETATM    2  C3  UNL     1      19.877  30.546  10.090  1.00  0.00     0.041 C 
HETATM    3  C4  UNL     1      19.112  29.284   9.835  1.00  0.00     0.044 A 
HETATM    4  C5  UNL     1      18.013  29.365   8.811  1.00  0.00     0.239 A 
HETATM    5  N1  UNL     1      18.814  28.701   7.801  1.00  0.00    -0.070 N 
ATOM      6  H11 UNL     1      19.010  29.162   6.913  1.00  0.00     0.277 HD
ATOM      7  H12 UNL     1      18.442  27.899   7.293  1.00  0.00     0.277 HD
HETATM    8  C6  UNL     1      19.852  28.527   8.772  1.00  0.00     0.194 A 
HETATM    9  C7  UNL     1      21.116  29.297   8.534  1.00  0.00     0.066 C 
ENDROOT
BRANCH   1  10
HETATM   10  O2  UNL     1      21.973  31.397   9.217  1.00  0.00    -0.316 OA
BRANCH  10  11
HETATM   11  C1  UNL     1      22.491  31.545  10.472  1.00  0.00     0.263 C 
HETATM   12  O1  UNL     1      22.156  32.556  11.138  1.00  0.00    -0.265 OA
BRANCH  11  13
HETATM   13  C8  UNL     1      23.427  30.589  11.109  1.00  0.00     0.085 C 
HETATM   14  C9  UNL     1      24.218  31.241  12.225  1.00  0.00     0.014 C 
HETATM   15  C10 UNL     1      24.728  30.048  13.004  1.00  0.00     0.001 C 
HETATM   16  C11 UNL     1      23.808  28.896  12.685  1.00  0.00     0.001 C 
HETATM   17  C12 UNL     1      22.681  29.512  11.868  1.00  0.00     0.014 C 
ENDBRANCH  11  13
ENDBRANCH  10  11
ENDBRANCH   1  10
TORSDOF 3
ENDMDL
MODEL 4
REMARK VINA RESULT: -6.386984588      1.170      1.462
REMARK  3 active torsions:
REMARK  status: ('A' for Active; 'I' for Inactive)
REMARK    1  A    between atoms: C1_2  and  O2_3 
REMARK    2  A    between atoms: C1_2  and  C8_13 
REMARK    3  A    between atoms: O2_3  and  C2_4 
ROOT
HETATM    1  C2  UNL     1      20.475  30.038   9.736  1.00  0.00     0.134 C 
HETATM    2  C3  UNL     1      20.908  28.674   9.225  1.00  0.00     0.041 C 
HETATM    3  C4  UNL     1      19.645  27.939   8.899  1.00  0.00     0.044 A 
HETATM    4  C5  UNL     1      18.847  27.431  10.069  1.00  0.00     0.239 A 
HETATM    5  N1  UNL     1      17.873  28.498   9.955  1.00  0.00    -0.070 N 
ATOM      6  H11 UNL     1      17.704  29.129  10.738  1.00  0.00     0.277 HD
ATOM      7  H12 UNL     1      16.876  28.286   9.920  1.00  0.00     0.277 HD
HETATM    8  C6  UNL     1      18.555  28.964   8.784  1.00  0.00     0.194 A 
HETATM    9  C7  UNL     1      19.239  30.293   8.901  1.00  0.00     0.066 C 
ENDROOT
BRANCH   1  10
HETATM   10  O2  UNL     1      21.420  31.033   9.454  1.00  0.00    -0.316 OA
BRANCH  10  11
HETATM   11  C1  UNL     1      22.232  31.653  10.361  1.00  0.00     0.263 C 
HETATM   12  O1  UNL     1      22.618  32.822  10.110  1.00  0.00    -0.265 OA
BRANCH  11  13
HETATM   13  C8  UNL     1      22.692  31.040  11.630  1.00  0.00     0.085 C 
HETATM   14  C9  UNL     1      23.458  29.756  11.385  1.00  0.00     0.014 C 
HETATM   15  C10 UNL     1      24.201  29.565  12.689  1.00  0.00     0.001 C 
HETATM   16  C11 UNL     1      24.290  30.922  13.341  1.00  0.00     0.001 C 
HETATM   17  C12 UNL     1      23.752  31.891  12.298  1.00  0.00     0.014 C 
ENDBRANCH  11  13
ENDBRANCH  10  11
ENDBRANCH   1  10
TORSDOF 3
ENDMDL
MODEL 5
REMARK VINA RESULT: -6.358062467      1.172      1.856
REMARK  3 active torsions:
REMARK  status: ('A' for Active; 'I' for Inactive)
REMARK    1  A    between atoms: C1_2  and  O2_3 
REMARK    2  A    between atoms: C1_2  and  C8_13 
REMARK    3  A    between atoms: O2_3  and  C2_4 
ROOT
HETATM    1  C2  UNL     1      21.075  29.364   9.007  1.00  0.00     0.134 C 
HETATM    2  C3  UNL     1      19.869  30.187   9.431  1.00  0.00     0.041 C 
HETATM    3  C4  UNL     1      18.805  29.198   9.796  1.00  0.00     0.044 A 
HETATM    4  C5  UNL     1      18.129  28.493   8.652  1.00  0.00     0.239 A 
HETATM    5  N1  UNL     1      18.883  27.274   8.869  1.00  0.00    -0.070 N 
ATOM      6  H11 UNL     1      19.463  26.887   8.125  1.00  0.00     0.277 HD
ATOM      7  H12 UNL     1      18.403  26.378   8.950  1.00  0.00     0.277 HD
HETATM    8  C6  UNL     1      19.487  27.880  10.018  1.00  0.00     0.194 A 
HETATM    9  C7  UNL     1      20.956  28.164   9.921  1.00  0.00     0.066 C 
ENDROOT
BRANCH   1  10
HETATM   10  O2  UNL     1      22.283  30.017   9.279  1.00  0.00    -0.316 OA
BRANCH  10  11
HETATM   11  C1  UNL     1      22.460  31.056  10.147  1.00  0.00     0.263 C 
HETATM   12  O1  UNL     1      22.236  32.221   9.734  1.00  0.00    -0.265 OA
BRANCH  11  13
HETATM   13  C8  UNL     1      22.900  30.906  11.555  1.00  0.00     0.085 C 
HETATM   14  C9  UNL     1      23.644  29.605  11.772  1.00  0.00     0.014 C 
HETATM   15  C10 UNL     1      24.373  29.859  13.074  1.00  0.00     0.001 C 
HETATM   16  C11 UNL     1      24.482  31.356  13.225  1.00  0.00     0.001 C 
HETATM   17  C12 UNL     1      23.969  31.919  11.907  1.00  0.00     0.014 C 
ENDBRANCH  11  13
ENDBRANCH  10  11
ENDBRANCH   1  10
TORSDOF 3
ENDMDL
