MODEL 1
REMARK VINA RESULT: -6.442853182      0.000      0.000
REMARK  5 active torsions:
REMARK  status: ('A' for Active; 'I' for Inactive)
REMARK    1  A    between atoms: C2_2  and  O1_5 
REMARK    2  A    between atoms: O1_5  and  C5_6 
REMARK    3  A    between atoms: C5_6  and  C6_8 
REMARK    4  A    between atoms: C6_8  and  N1_9 
REMARK    5  A    between atoms: N1_9  and  C7_11 
ROOT
HETATM    1  N1  UNL     1      14.284  -8.621  -6.688  1.00  0.00    -0.409 N 
ATOM      2  H1  UNL     1      13.913  -7.680  -6.560  1.00  0.00     0.154 HD
ENDROOT
BRANCH   1   3
HETATM    3  C6  UNL     1      15.242  -9.160  -5.791  1.00  0.00     0.225 C 
BRANCH   3   4
HETATM    4  C5  UNL     1      16.445  -8.254  -5.833  1.00  0.00     0.277 C 
HETATM    5  O2  UNL     1      17.147  -8.059  -4.791  1.00  0.00    -0.263 OA
BRANCH   4   6
HETATM    6  O1  UNL     1      16.850  -7.597  -6.978  1.00  0.00    -0.310 OA
BRANCH   6   7
HETATM    7  C2  UNL     1      16.807  -6.206  -7.116  1.00  0.00     0.060 C 
HETATM    8  C1  UNL     1      16.386  -5.927  -8.565  1.00  0.00     0.045 C 
HETATM    9  C3  UNL     1      18.165  -5.566  -6.917  1.00  0.00     0.045 C 
HETATM   10  C4  UNL     1      15.835  -5.500  -6.223  1.00  0.00     0.045 C 
ENDBRANCH   6   7
ENDBRANCH   4   6
ENDBRANCH   3   4
ENDBRANCH   1   3
BRANCH   1  11
HETATM   11  C7  UNL     1      13.857  -9.442  -7.776  1.00  0.00     0.077 C 
HETATM   12  C8  UNL     1      14.208 -10.873  -7.427  1.00  0.00     0.024 C 
HETATM   13  C9  UNL     1      13.161 -11.852  -7.814  1.00  0.00     0.002 C 
HETATM   14  C10 UNL     1      12.359 -11.541  -9.031  1.00  0.00     0.000 C 
HETATM   15  C11 UNL     1      13.144 -11.283 -10.276  1.00  0.00     0.000 C 
HETATM   16  C12 UNL     1      12.870  -9.921 -10.850  1.00  0.00     0.000 C 
HETATM   17  C13 UNL     1      13.432  -8.771 -10.103  1.00  0.00     0.002 C 
HETATM   18  C14 UNL     1      14.480  -9.066  -9.095  1.00  0.00     0.024 C 
ENDBRANCH   1  11
TORSDOF 5
ENDMDL
MODEL 2
REMARK VINA RESULT: -6.440142618      1.017      2.288
REMARK  5 active torsions:
REMARK  status: ('A' for Active; 'I' for Inactive)
REMARK    1  A    between atoms: C2_2  and  O1_5 
REMARK    2  A    between atoms: O1_5  and  C5_6 
REMARK    3  A    between atoms: C5_6  and  C6_8 
REMARK    4  A    between atoms: C6_8  and  N1_9 
REMARK    5  A    between atoms: N1_9  and  C7_11 
ROOT
HETATM    1  N1  UNL     1      15.676  -9.510  -7.674  1.00  0.00    -0.409 N 
ATOM      2  H1  UNL     1      16.512  -9.074  -8.061  1.00  0.00     0.154 HD
ENDROOT
BRANCH   1   3
HETATM    3  C6  UNL     1      15.551  -9.752  -6.281  1.00  0.00     0.225 C 
BRANCH   3   4
HETATM    4  C5  UNL     1      15.750  -8.431  -5.585  1.00  0.00     0.277 C 
HETATM    5  O2  UNL     1      16.278  -8.379  -4.429  1.00  0.00    -0.263 OA
BRANCH   4   6
HETATM    6  O1  UNL     1      15.382  -7.224  -6.145  1.00  0.00    -0.310 OA
BRANCH   6   7
HETATM    7  C2  UNL     1      16.303  -6.313  -6.671  1.00  0.00     0.060 C 
HETATM    8  C1  UNL     1      16.285  -5.092  -5.742  1.00  0.00     0.045 C 
HETATM    9  C3  UNL     1      15.908  -5.828  -8.050  1.00  0.00     0.045 C 
HETATM   10  C4  UNL     1      17.717  -6.798  -6.746  1.00  0.00     0.045 C 
ENDBRANCH   6   7
ENDBRANCH   4   6
ENDBRANCH   3   4
ENDBRANCH   1   3
BRANCH   1  11
HETATM   11  C7  UNL     1      14.588  -9.897  -8.514  1.00  0.00     0.077 C 
HETATM   12  C8  UNL     1      14.146  -8.667  -9.279  1.00  0.00     0.024 C 
HETATM   13  C9  UNL     1      13.803  -8.942 -10.697  1.00  0.00     0.002 C 
HETATM   14  C10 UNL     1      13.222 -10.279 -11.007  1.00  0.00     0.000 C 
HETATM   15  C11 UNL     1      12.007 -10.655 -10.222  1.00  0.00     0.000 C 
HETATM   16  C12 UNL     1      12.204 -11.926  -9.442  1.00  0.00     0.000 C 
HETATM   17  C13 UNL     1      13.098 -11.838  -8.264  1.00  0.00     0.002 C 
HETATM   18  C14 UNL     1      13.422 -10.480  -7.759  1.00  0.00     0.024 C 
ENDBRANCH   1  11
TORSDOF 5
ENDMDL
MODEL 3
REMARK VINA RESULT: -6.361940895      0.894      1.375
REMARK  5 active torsions:
REMARK  status: ('A' for Active; 'I' for Inactive)
REMARK    1  A    between atoms: C2_2  and  O1_5 
REMARK    2  A    between atoms: O1_5  and  C5_6 
REMARK    3  A    between atoms: C5_6  and  C6_8 
REMARK    4  A    between atoms: C6_8  and  N1_9 
REMARK    5  A    between atoms: N1_9  and  C7_11 
ROOT
HETATM    1  N1  UNL     1      14.050  -9.656  -6.366  1.00  0.00    -0.409 N 
ATOM      2  H1  UNL     1      13.348  -9.392  -5.674  1.00  0.00     0.154 HD
ENDROOT
BRANCH   1   3
HETATM    3  C6  UNL     1      15.428  -9.707  -6.031  1.00  0.00     0.225 C 
BRANCH   3   4
HETATM    4  C5  UNL     1      15.786  -8.372  -5.433  1.00  0.00     0.277 C 
HETATM    5  O2  UNL     1      16.448  -8.301  -4.350  1.00  0.00    -0.263 OA
BRANCH   4   6
HETATM    6  O1  UNL     1      15.428  -7.169  -6.011  1.00  0.00    -0.310 OA
BRANCH   6   7
HETATM    7  C2  UNL     1      16.336  -6.340  -6.675  1.00  0.00     0.060 C 
HETATM    8  C1  UNL     1      16.496  -5.087  -5.804  1.00  0.00     0.045 C 
HETATM    9  C3  UNL     1      15.818  -5.882  -8.023  1.00  0.00     0.045 C 
HETATM   10  C4  UNL     1      17.702  -6.917  -6.884  1.00  0.00     0.045 C 
ENDBRANCH   6   7
ENDBRANCH   4   6
ENDBRANCH   3   4
ENDBRANCH   1   3
BRANCH   1  11
HETATM   11  C7  UNL     1      13.679  -9.989  -7.704  1.00  0.00     0.077 C 
HETATM   12  C8  UNL     1      13.676 -11.499  -7.811  1.00  0.00     0.024 C 
HETATM   13  C9  UNL     1      12.548 -12.035  -8.615  1.00  0.00     0.002 C 
HETATM   14  C10 UNL     1      12.060 -11.192  -9.742  1.00  0.00     0.000 C 
HETATM   15  C11 UNL     1      13.094 -10.774 -10.736  1.00  0.00     0.000 C 
HETATM   16  C12 UNL     1      13.200  -9.279 -10.854  1.00  0.00     0.000 C 
HETATM   17  C13 UNL     1      13.826  -8.575  -9.712  1.00  0.00     0.002 C 
HETATM   18  C14 UNL     1      14.594  -9.400  -8.746  1.00  0.00     0.024 C 
ENDBRANCH   1  11
TORSDOF 5
ENDMDL
MODEL 4
REMARK VINA RESULT: -6.338026226      0.758      2.170
REMARK  5 active torsions:
REMARK  status: ('A' for Active; 'I' for Inactive)
REMARK    1  A    between atoms: C2_2  and  O1_5 
REMARK    2  A    between atoms: O1_5  and  C5_6 
REMARK    3  A    between atoms: C5_6  and  C6_8 
REMARK    4  A    between atoms: C6_8  and  N1_9 
REMARK    5  A    between atoms: N1_9  and  C7_11 
ROOT
HETATM    1  N1  UNL     1      15.472  -9.474  -7.451  1.00  0.00    -0.409 N 
ATOM      2  H1  UNL     1      16.455  -9.692  -7.610  1.00  0.00     0.154 HD
ENDROOT
BRANCH   1   3
HETATM    3  C6  UNL     1      15.056  -8.759  -6.298  1.00  0.00     0.225 C 
BRANCH   3   4
HETATM    4  C5  UNL     1      16.285  -8.118  -5.709  1.00  0.00     0.277 C 
HETATM    5  O2  UNL     1      16.532  -8.208  -4.465  1.00  0.00    -0.263 OA
BRANCH   4   6
HETATM    6  O1  UNL     1      17.199  -7.411  -6.466  1.00  0.00    -0.310 OA
BRANCH   6   7
HETATM    7  C2  UNL     1      16.945  -6.133  -6.974  1.00  0.00     0.060 C 
HETATM    8  C1  UNL     1      18.282  -5.382  -6.947  1.00  0.00     0.045 C 
HETATM    9  C3  UNL     1      15.978  -5.352  -6.109  1.00  0.00     0.045 C 
HETATM   10  C4  UNL     1      16.435  -6.090  -8.381  1.00  0.00     0.045 C 
ENDBRANCH   6   7
ENDBRANCH   4   6
ENDBRANCH   3   4
ENDBRANCH   1   3
BRANCH   1  11
HETATM   11  C7  UNL     1      14.465  -9.877  -8.380  1.00  0.00     0.077 C 
HETATM   12  C8  UNL     1      14.049  -8.647  -9.159  1.00  0.00     0.024 C 
HETATM   13  C9  UNL     1      13.827  -8.907 -10.604  1.00  0.00     0.002 C 
HETATM   14  C10 UNL     1      13.311 -10.254 -10.979  1.00  0.00     0.000 C 
HETATM   15  C11 UNL     1      12.050 -10.678 -10.299  1.00  0.00     0.000 C 
HETATM   16  C12 UNL     1      12.222 -11.955  -9.524  1.00  0.00     0.000 C 
HETATM   17  C13 UNL     1      13.017 -11.863  -8.278  1.00  0.00     0.002 C 
HETATM   18  C14 UNL     1      13.261 -10.505  -7.729  1.00  0.00     0.024 C 
ENDBRANCH   1  11
TORSDOF 5
ENDMDL
MODEL 5
REMARK VINA RESULT: -6.335177270      0.051      1.020
REMARK  5 active torsions:
REMARK  status: ('A' for Active; 'I' for Inactive)
REMARK    1  A    between atoms: C2_2  and  O1_5 
REMARK    2  A    between atoms: O1_5  and  C5_6 
REMARK    3  A    between atoms: C5_6  and  C6_8 
REMARK    4  A    between atoms: C6_8  and  N1_9 
REMARK    5  A    between atoms: N1_9  and  C7_11 
ROOT
HETATM    1  N1  UNL     1      14.292  -8.614  -6.680  1.00  0.00    -0.409 N 
ATOM      2  H1  UNL     1      13.919  -7.675  -6.544  1.00  0.00     0.154 HD
ENDROOT
BRANCH   1   3
HETATM    3  C6  UNL     1      15.255  -9.156  -5.790  1.00  0.00     0.225 C 
BRANCH   3   4
HETATM    4  C5  UNL     1      16.450  -8.239  -5.820  1.00  0.00     0.277 C 
HETATM    5  O2  UNL     1      17.111  -7.999  -4.761  1.00  0.00    -0.263 OA
BRANCH   4   6
HETATM    6  O1  UNL     1      16.891  -7.618  -6.972  1.00  0.00    -0.310 OA
BRANCH   6   7
HETATM    7  C2  UNL     1      16.778  -6.241  -7.190  1.00  0.00     0.060 C 
HETATM    8  C1  UNL     1      18.172  -5.648  -6.950  1.00  0.00     0.045 C 
HETATM    9  C3  UNL     1      15.837  -5.579  -6.205  1.00  0.00     0.045 C 
HETATM   10  C4  UNL     1      16.351  -5.841  -8.568  1.00  0.00     0.045 C 
ENDBRANCH   6   7
ENDBRANCH   4   6
ENDBRANCH   3   4
ENDBRANCH   1   3
BRANCH   1  11
HETATM   11  C7  UNL     1      13.864  -9.429  -7.772  1.00  0.00     0.077 C 
HETATM   12  C8  UNL     1      14.214 -10.862  -7.431  1.00  0.00     0.024 C 
HETATM   13  C9  UNL     1      13.166 -11.837  -7.823  1.00  0.00     0.002 C 
HETATM   14  C10 UNL     1      12.364 -11.519  -9.038  1.00  0.00     0.000 C 
HETATM   15  C11 UNL     1      13.148 -11.255 -10.282  1.00  0.00     0.000 C 
HETATM   16  C12 UNL     1      12.876  -9.889 -10.849  1.00  0.00     0.000 C 
HETATM   17  C13 UNL     1      13.439  -8.744 -10.095  1.00  0.00     0.002 C 
HETATM   18  C14 UNL     1      14.487  -9.046  -9.089  1.00  0.00     0.024 C 
ENDBRANCH   1  11
TORSDOF 5
ENDMDL
