MODEL 1
REMARK VINA RESULT: -9.192079744      0.000      0.000
REMARK  8 active torsions:
REMARK  status: ('A' for Active; 'I' for Inactive)
REMARK    1  A    between atoms: C10_10  and  C11_11 
REMARK    2  A    between atoms: C11_11  and  C12_12 
REMARK       I    between atoms: C12_12  and  N1_14 
REMARK    3  A    between atoms: N1_14  and  C13_16 
REMARK    4  A    between atoms: C13_16  and  C14_17 
REMARK    5  A    between atoms: C14_17  and  C15_18 
REMARK    6  A    between atoms: C15_18  and  N2_19 
REMARK    7  A    between atoms: N4_29  and  N5_30 
REMARK       I    between atoms: N5_30  and  C20_32 
REMARK    8  A    between atoms: C20_32  and  C21_34 
ROOT
HETATM    1  C1  UNL     1     -11.697 -21.325  -9.193  1.00  0.00     0.018 C 
HETATM    2  C2  UNL     1     -10.806 -22.484  -8.906  1.00  0.00    -0.016 C 
HETATM    3  C3  UNL     1      -9.772 -21.998  -7.857  1.00  0.00     0.018 C 
HETATM    4  C4  UNL     1     -11.580 -23.628  -8.217  1.00  0.00     0.003 A 
HETATM    5  C5  UNL     1     -12.662 -24.246  -8.984  1.00  0.00     0.013 A 
HETATM    6  C6  UNL     1     -11.303 -24.527  -9.429  1.00  0.00     0.021 A 
HETATM    7  C7  UNL     1     -10.328 -23.425  -9.906  1.00  0.00     0.060 C 
HETATM    8  C8  UNL     1      -8.881 -23.871  -9.381  1.00  0.00     0.036 C 
HETATM    9  C9  UNL     1      -8.594 -25.020 -10.347  1.00  0.00     0.030 C 
HETATM   10  C10 UNL     1      -9.331 -24.651 -11.547  1.00  0.00     0.112 C 
HETATM   11  N4  UNL     1     -10.091 -23.390 -11.222  1.00  0.00    -0.309 N 
ENDROOT
BRANCH  10  12
HETATM   12  C11 UNL     1     -10.140 -25.711 -12.141  1.00  0.00     0.129 C 
BRANCH  12  13
HETATM   13  C12 UNL     1      -9.771 -25.849 -13.599  1.00  0.00     0.219 C 
HETATM   14  O1  UNL     1     -10.437 -25.280 -14.499  1.00  0.00    -0.274 OA
HETATM   15  N1  UNL     1      -8.650 -26.647 -13.923  1.00  0.00    -0.361 N 
ATOM     16  H1  UNL     1      -8.140 -27.053 -13.138  1.00  0.00     0.162 HD
BRANCH  15  17
HETATM   17  C13 UNL     1      -8.158 -26.943 -15.220  1.00  0.00     0.124 C 
BRANCH  17  18
HETATM   18  C14 UNL     1      -7.380 -28.248 -15.127  1.00  0.00     0.039 C 
BRANCH  18  19
HETATM   19  C15 UNL     1      -6.493 -28.454 -16.298  1.00  0.00     0.122 C 
BRANCH  19  20
HETATM   20  N2  UNL     1      -5.305 -29.167 -15.940  1.00  0.00    -0.380 N 
HETATM   21  C16 UNL     1      -4.640 -29.929 -16.701  1.00  0.00     0.081 C 
HETATM   22  C17 UNL     1      -4.839 -30.335 -18.128  1.00  0.00     0.106 C 
HETATM   23  N3  UNL     1      -3.419 -30.612 -16.337  1.00  0.00    -0.316 N 
HETATM   24  C18 UNL     1      -3.420 -30.244 -18.645  1.00  0.00     0.181 C 
HETATM   25 CL1  UNL     1      -3.246 -31.320 -20.057  1.00  0.00    -0.115 Cl
HETATM   26  C19 UNL     1      -2.605 -30.694 -17.495  1.00  0.00     0.241 C 
HETATM   27  O2  UNL     1      -1.412 -31.065 -17.603  1.00  0.00    -0.271 OA
ATOM     28  H3  UNL     1      -3.183 -30.972 -15.412  1.00  0.00     0.170 HD
ATOM     29  H2  UNL     1      -4.963 -29.050 -14.986  1.00  0.00     0.160 HD
ENDBRANCH  19  20
ENDBRANCH  18  19
ENDBRANCH  17  18
ENDBRANCH  15  17
ENDBRANCH  12  13
ENDBRANCH  10  12
BRANCH  11  30
HETATM   30  N5  UNL     1     -10.223 -22.709 -12.316  1.00  0.00    -0.269 N 
HETATM   31  C20 UNL     1      -9.453 -22.137 -13.328  1.00  0.00     0.260 C 
HETATM   32  O3  UNL     1      -8.265 -22.073 -13.570  1.00  0.00    -0.270 OA
ATOM     33  H5  UNL     1     -11.212 -22.535 -12.496  1.00  0.00     0.190 HD
BRANCH  31  34
HETATM   34  C21 UNL     1     -10.277 -21.371 -14.441  1.00  0.00     0.222 C 
HETATM   35 BR1  UNL     1     -12.146 -21.565 -14.088  1.00  0.00    -0.069 Br
HETATM   36 BR2  UNL     1      -9.812 -22.187 -16.125  1.00  0.00    -0.069 Br
ENDBRANCH  31  34
ENDBRANCH  11  30
TORSDOF 8
ENDMDL
MODEL 2
REMARK VINA RESULT: -9.013557017      1.284      1.407
REMARK  8 active torsions:
REMARK  status: ('A' for Active; 'I' for Inactive)
REMARK    1  A    between atoms: C10_10  and  C11_11 
REMARK    2  A    between atoms: C11_11  and  C12_12 
REMARK       I    between atoms: C12_12  and  N1_14 
REMARK    3  A    between atoms: N1_14  and  C13_16 
REMARK    4  A    between atoms: C13_16  and  C14_17 
REMARK    5  A    between atoms: C14_17  and  C15_18 
REMARK    6  A    between atoms: C15_18  and  N2_19 
REMARK    7  A    between atoms: N4_29  and  N5_30 
REMARK       I    between atoms: N5_30  and  C20_32 
REMARK    8  A    between atoms: C20_32  and  C21_34 
ROOT
HETATM    1  C1  UNL     1     -11.493 -21.123  -9.229  1.00  0.00     0.018 C 
HETATM    2  C2  UNL     1     -10.737 -22.379  -8.962  1.00  0.00    -0.016 C 
HETATM    3  C3  UNL     1      -9.638 -22.022  -7.927  1.00  0.00     0.018 C 
HETATM    4  C4  UNL     1     -11.626 -23.432  -8.266  1.00  0.00     0.003 A 
HETATM    5  C5  UNL     1     -12.783 -23.917  -9.019  1.00  0.00     0.013 A 
HETATM    6  C6  UNL     1     -11.473 -24.348  -9.487  1.00  0.00     0.021 A 
HETATM    7  C7  UNL     1     -10.386 -23.362  -9.974  1.00  0.00     0.060 C 
HETATM    8  C8  UNL     1      -8.992 -23.974  -9.474  1.00  0.00     0.036 C 
HETATM    9  C9  UNL     1      -8.852 -25.142 -10.451  1.00  0.00     0.030 C 
HETATM   10  C10 UNL     1      -9.561 -24.683 -11.637  1.00  0.00     0.112 C 
HETATM   11  N4  UNL     1     -10.166 -23.345 -11.294  1.00  0.00    -0.309 N 
ENDROOT
BRANCH  10  12
HETATM   12  C11 UNL     1     -10.495 -25.639 -12.223  1.00  0.00     0.129 C 
BRANCH  12  13
HETATM   13  C12 UNL     1     -10.459 -25.500 -13.727  1.00  0.00     0.219 C 
HETATM   14  O1  UNL     1     -11.389 -24.935 -14.354  1.00  0.00    -0.274 OA
HETATM   15  N1  UNL     1      -9.342 -26.031 -14.411  1.00  0.00    -0.361 N 
ATOM     16  H1  UNL     1      -8.612 -26.449 -13.834  1.00  0.00     0.162 HD
BRANCH  15  17
HETATM   17  C13 UNL     1      -9.128 -26.047 -15.813  1.00  0.00     0.124 C 
BRANCH  17  18
HETATM   18  C14 UNL     1      -8.043 -27.076 -16.099  1.00  0.00     0.039 C 
BRANCH  18  19
HETATM   19  C15 UNL     1      -7.471 -27.645 -14.854  1.00  0.00     0.122 C 
BRANCH  19  20
HETATM   20  N2  UNL     1      -7.145 -29.029 -15.007  1.00  0.00    -0.380 N 
HETATM   21  C16 UNL     1      -6.191 -29.495 -15.695  1.00  0.00     0.081 C 
HETATM   22  C17 UNL     1      -5.146 -28.826 -16.533  1.00  0.00     0.106 C 
HETATM   23  N3  UNL     1      -5.850 -30.896 -15.809  1.00  0.00    -0.316 N 
HETATM   24  C18 UNL     1      -3.920 -29.620 -16.137  1.00  0.00     0.181 C 
HETATM   25 CL1  UNL     1      -2.720 -29.531 -17.454  1.00  0.00    -0.115 Cl
HETATM   26  C19 UNL     1      -4.443 -30.991 -15.948  1.00  0.00     0.241 C 
HETATM   27  O2  UNL     1      -3.709 -32.008 -15.925  1.00  0.00    -0.271 OA
ATOM     28  H3  UNL     1      -6.506 -31.677 -15.791  1.00  0.00     0.170 HD
ATOM     29  H2  UNL     1      -7.736 -29.702 -14.517  1.00  0.00     0.160 HD
ENDBRANCH  19  20
ENDBRANCH  18  19
ENDBRANCH  17  18
ENDBRANCH  15  17
ENDBRANCH  12  13
ENDBRANCH  10  12
BRANCH  11  30
HETATM   30  N5  UNL     1     -10.236 -22.646 -12.382  1.00  0.00    -0.269 N 
HETATM   31  C20 UNL     1      -9.414 -22.115 -13.375  1.00  0.00     0.260 C 
HETATM   32  O3  UNL     1      -8.221 -22.125 -13.597  1.00  0.00    -0.270 OA
ATOM     33  H5  UNL     1     -11.209 -22.408 -12.576  1.00  0.00     0.190 HD
BRANCH  31  34
HETATM   34  C21 UNL     1     -10.169 -21.286 -14.493  1.00  0.00     0.222 C 
HETATM   35 BR1  UNL     1     -12.026 -21.175 -14.049  1.00  0.00    -0.069 Br
HETATM   36 BR2  UNL     1      -9.918 -22.244 -16.147  1.00  0.00    -0.069 Br
ENDBRANCH  31  34
ENDBRANCH  11  30
TORSDOF 8
ENDMDL
MODEL 3
REMARK VINA RESULT: -8.936795326      1.087      1.163
REMARK  8 active torsions:
REMARK  status: ('A' for Active; 'I' for Inactive)
REMARK    1  A    between atoms: C10_10  and  C11_11 
REMARK    2  A    between atoms: C11_11  and  C12_12 
REMARK       I    between atoms: C12_12  and  N1_14 
REMARK    3  A    between atoms: N1_14  and  C13_16 
REMARK    4  A    between atoms: C13_16  and  C14_17 
REMARK    5  A    between atoms: C14_17  and  C15_18 
REMARK    6  A    between atoms: C15_18  and  N2_19 
REMARK    7  A    between atoms: N4_29  and  N5_30 
REMARK       I    between atoms: N5_30  and  C20_32 
REMARK    8  A    between atoms: C20_32  and  C21_34 
ROOT
HETATM    1  C1  UNL     1     -11.538 -20.996  -9.169  1.00  0.00     0.018 C 
HETATM    2  C2  UNL     1     -10.731 -22.206  -8.845  1.00  0.00    -0.016 C 
HETATM    3  C3  UNL     1      -9.656 -21.758  -7.820  1.00  0.00     0.018 C 
HETATM    4  C4  UNL     1     -11.580 -23.264  -8.109  1.00  0.00     0.003 A 
HETATM    5  C5  UNL     1     -12.710 -23.830  -8.847  1.00  0.00     0.013 A 
HETATM    6  C6  UNL     1     -11.379 -24.225  -9.288  1.00  0.00     0.021 A 
HETATM    7  C7  UNL     1     -10.331 -23.215  -9.811  1.00  0.00     0.060 C 
HETATM    8  C8  UNL     1      -8.916 -23.745  -9.277  1.00  0.00     0.036 C 
HETATM    9  C9  UNL     1      -8.720 -24.946 -10.201  1.00  0.00     0.030 C 
HETATM   10  C10 UNL     1      -9.438 -24.569 -11.411  1.00  0.00     0.112 C 
HETATM   11  N4  UNL     1     -10.102 -23.245 -11.129  1.00  0.00    -0.309 N 
ENDROOT
BRANCH  10  12
HETATM   12  C11 UNL     1     -10.326 -25.589 -11.960  1.00  0.00     0.129 C 
BRANCH  12  13
HETATM   13  C12 UNL     1     -10.026 -25.758 -13.431  1.00  0.00     0.219 C 
HETATM   14  O1  UNL     1     -10.776 -25.270 -14.312  1.00  0.00    -0.274 OA
HETATM   15  N1  UNL     1      -8.871 -26.491 -13.788  1.00  0.00    -0.361 N 
ATOM     16  H1  UNL     1      -8.294 -26.832 -13.020  1.00  0.00     0.162 HD
BRANCH  15  17
HETATM   17  C13 UNL     1      -8.429 -26.803 -15.099  1.00  0.00     0.124 C 
BRANCH  17  18
HETATM   18  C14 UNL     1      -7.342 -27.860 -14.976  1.00  0.00     0.039 C 
BRANCH  18  19
HETATM   19  C15 UNL     1      -6.943 -28.409 -16.295  1.00  0.00     0.122 C 
BRANCH  19  20
HETATM   20  N2  UNL     1      -5.531 -28.626 -16.372  1.00  0.00    -0.380 N 
HETATM   21  C16 UNL     1      -4.939 -29.728 -16.177  1.00  0.00     0.081 C 
HETATM   22  C17 UNL     1      -5.453 -31.088 -15.819  1.00  0.00     0.106 C 
HETATM   23  N3  UNL     1      -3.514 -29.941 -16.297  1.00  0.00    -0.316 N 
HETATM   24  C18 UNL     1      -4.618 -31.952 -16.739  1.00  0.00     0.181 C 
HETATM   25 CL1  UNL     1      -4.501 -33.592 -16.047  1.00  0.00    -0.115 Cl
HETATM   26  C19 UNL     1      -3.310 -31.262 -16.768  1.00  0.00     0.241 C 
HETATM   27  O2  UNL     1      -2.252 -31.813 -17.156  1.00  0.00    -0.271 OA
ATOM     28  H3  UNL     1      -2.784 -29.262 -16.081  1.00  0.00     0.170 HD
ATOM     29  H2  UNL     1      -4.950 -27.821 -16.605  1.00  0.00     0.160 HD
ENDBRANCH  19  20
ENDBRANCH  18  19
ENDBRANCH  17  18
ENDBRANCH  15  17
ENDBRANCH  12  13
ENDBRANCH  10  12
BRANCH  11  30
HETATM   30  N5  UNL     1     -10.194 -22.598 -12.247  1.00  0.00    -0.269 N 
HETATM   31  C20 UNL     1      -9.386 -22.052 -13.245  1.00  0.00     0.260 C 
HETATM   32  O3  UNL     1      -8.190 -21.991 -13.442  1.00  0.00    -0.270 OA
ATOM     33  H5  UNL     1     -11.175 -22.433 -12.470  1.00  0.00     0.190 HD
BRANCH  31  34
HETATM   34  C21 UNL     1     -10.168 -21.322 -14.411  1.00  0.00     0.222 C 
HETATM   35 BR1  UNL     1     -12.042 -21.355 -14.030  1.00  0.00    -0.069 Br
HETATM   36 BR2  UNL     1      -9.783 -22.303 -16.026  1.00  0.00    -0.069 Br
ENDBRANCH  31  34
ENDBRANCH  11  30
TORSDOF 8
ENDMDL
MODEL 4
REMARK VINA RESULT: -8.918111162      6.047      7.188
REMARK  8 active torsions:
REMARK  status: ('A' for Active; 'I' for Inactive)
REMARK    1  A    between atoms: C10_10  and  C11_11 
REMARK    2  A    between atoms: C11_11  and  C12_12 
REMARK       I    between atoms: C12_12  and  N1_14 
REMARK    3  A    between atoms: N1_14  and  C13_16 
REMARK    4  A    between atoms: C13_16  and  C14_17 
REMARK    5  A    between atoms: C14_17  and  C15_18 
REMARK    6  A    between atoms: C15_18  and  N2_19 
REMARK    7  A    between atoms: N4_29  and  N5_30 
REMARK       I    between atoms: N5_30  and  C20_32 
REMARK    8  A    between atoms: C20_32  and  C21_34 
ROOT
HETATM    1  C1  UNL     1     -10.114 -22.058 -12.100  1.00  0.00     0.018 C 
HETATM    2  C2  UNL     1     -11.059 -22.739 -11.170  1.00  0.00    -0.016 C 
HETATM    3  C3  UNL     1     -12.197 -21.725 -10.878  1.00  0.00     0.018 C 
HETATM    4  C4  UNL     1     -11.748 -23.940 -11.851  1.00  0.00     0.003 A 
HETATM    5  C5  UNL     1     -10.882 -25.040 -12.277  1.00  0.00     0.013 A 
HETATM    6  C6  UNL     1     -11.075 -24.880 -10.843  1.00  0.00     0.021 A 
HETATM    7  C7  UNL     1     -10.659 -23.604 -10.073  1.00  0.00     0.060 C 
HETATM    8  C8  UNL     1     -11.786 -23.385  -8.956  1.00  0.00     0.036 C 
HETATM    9  C9  UNL     1     -11.413 -24.505  -7.984  1.00  0.00     0.030 C 
HETATM   10  C10 UNL     1      -9.977 -24.657  -8.171  1.00  0.00     0.112 C 
HETATM   11  N4  UNL     1      -9.582 -23.725  -9.289  1.00  0.00    -0.309 N 
ENDROOT
BRANCH  10  12
HETATM   12  C11 UNL     1      -9.503 -26.028  -8.329  1.00  0.00     0.129 C 
BRANCH  12  13
HETATM   13  C12 UNL     1      -8.581 -26.362  -7.180  1.00  0.00     0.219 C 
HETATM   14  O1  UNL     1      -8.149 -25.471  -6.408  1.00  0.00    -0.274 OA
HETATM   15  N1  UNL     1      -8.213 -27.715  -7.002  1.00  0.00    -0.361 N 
ATOM     16  H1  UNL     1      -8.626 -28.387  -7.649  1.00  0.00     0.162 HD
BRANCH  15  17
HETATM   17  C13 UNL     1      -7.332 -28.240  -6.021  1.00  0.00     0.124 C 
BRANCH  17  18
HETATM   18  C14 UNL     1      -6.933 -29.639  -6.467  1.00  0.00     0.039 C 
BRANCH  18  19
HETATM   19  C15 UNL     1      -5.475 -29.876  -6.326  1.00  0.00     0.122 C 
BRANCH  19  20
HETATM   20  N2  UNL     1      -4.836 -30.002  -7.600  1.00  0.00    -0.380 N 
HETATM   21  C16 UNL     1      -3.590 -30.100  -7.798  1.00  0.00     0.081 C 
HETATM   22  C17 UNL     1      -2.428 -30.115  -6.854  1.00  0.00     0.106 C 
HETATM   23  N3  UNL     1      -2.961 -30.267  -9.090  1.00  0.00    -0.316 N 
HETATM   24  C18 UNL     1      -1.595 -31.227  -7.454  1.00  0.00     0.181 C 
HETATM   25 CL1  UNL     1       0.111 -30.989  -6.990  1.00  0.00    -0.115 Cl
HETATM   26  C19 UNL     1      -1.806 -31.069  -8.910  1.00  0.00     0.241 C 
HETATM   27  O2  UNL     1      -1.054 -31.583  -9.772  1.00  0.00    -0.271 OA
ATOM     28  H3  UNL     1      -3.290 -29.878  -9.973  1.00  0.00     0.170 HD
ATOM     29  H2  UNL     1      -5.440 -30.013  -8.423  1.00  0.00     0.160 HD
ENDBRANCH  19  20
ENDBRANCH  18  19
ENDBRANCH  17  18
ENDBRANCH  15  17
ENDBRANCH  12  13
ENDBRANCH  10  12
BRANCH  11  30
HETATM   30  N5  UNL     1      -8.358 -23.351  -9.085  1.00  0.00    -0.269 N 
HETATM   31  C20 UNL     1      -7.607 -22.548  -8.228  1.00  0.00     0.260 C 
HETATM   32  O3  UNL     1      -7.857 -21.847  -7.269  1.00  0.00    -0.270 OA
ATOM     33  H5  UNL     1      -7.746 -23.786  -9.774  1.00  0.00     0.190 HD
BRANCH  31  34
HETATM   34  C21 UNL     1      -6.058 -22.497  -8.549  1.00  0.00     0.222 C 
HETATM   35 BR1  UNL     1      -5.232 -24.106  -7.928  1.00  0.00    -0.069 Br
HETATM   36 BR2  UNL     1      -5.355 -20.964  -7.614  1.00  0.00    -0.069 Br
ENDBRANCH  31  34
ENDBRANCH  11  30
TORSDOF 8
ENDMDL
MODEL 5
REMARK VINA RESULT: -8.721512139      3.126      4.225
REMARK  8 active torsions:
REMARK  status: ('A' for Active; 'I' for Inactive)
REMARK    1  A    between atoms: C10_10  and  C11_11 
REMARK    2  A    between atoms: C11_11  and  C12_12 
REMARK       I    between atoms: C12_12  and  N1_14 
REMARK    3  A    between atoms: N1_14  and  C13_16 
REMARK    4  A    between atoms: C13_16  and  C14_17 
REMARK    5  A    between atoms: C14_17  and  C15_18 
REMARK    6  A    between atoms: C15_18  and  N2_19 
REMARK    7  A    between atoms: N4_29  and  N5_30 
REMARK       I    between atoms: N5_30  and  C20_32 
REMARK    8  A    between atoms: C20_32  and  C21_34 
ROOT
HETATM    1  C1  UNL     1     -10.387 -21.919 -10.490  1.00  0.00     0.018 C 
HETATM    2  C2  UNL     1     -10.871 -22.726 -11.645  1.00  0.00    -0.016 C 
HETATM    3  C3  UNL     1     -12.409 -22.849 -11.485  1.00  0.00     0.018 C 
HETATM    4  C4  UNL     1     -10.659 -21.979 -12.979  1.00  0.00     0.003 A 
HETATM    5  C5  UNL     1      -9.275 -21.689 -13.357  1.00  0.00     0.013 A 
HETATM    6  C6  UNL     1      -9.693 -23.082 -13.428  1.00  0.00     0.021 A 
HETATM    7  C7  UNL     1     -10.179 -23.880 -12.194  1.00  0.00     0.060 C 
HETATM    8  C8  UNL     1     -11.349 -24.834 -12.730  1.00  0.00     0.036 C 
HETATM    9  C9  UNL     1     -10.518 -25.865 -13.494  1.00  0.00     0.030 C 
HETATM   10  C10 UNL     1      -9.245 -25.872 -12.787  1.00  0.00     0.112 C 
HETATM   11  N4  UNL     1      -9.329 -24.802 -11.728  1.00  0.00    -0.309 N 
ENDROOT
BRANCH  10  12
HETATM   12  C11 UNL     1      -8.055 -25.800 -13.628  1.00  0.00     0.129 C 
BRANCH  12  13
HETATM   13  C12 UNL     1      -8.139 -26.875 -14.687  1.00  0.00     0.219 C 
HETATM   14  O1  UNL     1      -8.915 -26.766 -15.668  1.00  0.00    -0.274 OA
HETATM   15  N1  UNL     1      -7.316 -28.013 -14.538  1.00  0.00    -0.361 N 
ATOM     16  H1  UNL     1      -6.689 -28.019 -13.733  1.00  0.00     0.162 HD
BRANCH  15  17
HETATM   17  C13 UNL     1      -7.267 -29.150 -15.386  1.00  0.00     0.124 C 
BRANCH  17  18
HETATM   18  C14 UNL     1      -6.140 -28.927 -16.384  1.00  0.00     0.039 C 
BRANCH  18  19
HETATM   19  C15 UNL     1      -5.294 -30.134 -16.551  1.00  0.00     0.122 C 
BRANCH  19  20
HETATM   20  N2  UNL     1      -5.242 -30.557 -17.917  1.00  0.00    -0.380 N 
HETATM   21  C16 UNL     1      -4.209 -30.582 -18.647  1.00  0.00     0.081 C 
HETATM   22  C17 UNL     1      -2.786 -30.204 -18.374  1.00  0.00     0.106 C 
HETATM   23  N3  UNL     1      -4.164 -31.050 -20.014  1.00  0.00    -0.316 N 
HETATM   24  C18 UNL     1      -2.059 -31.351 -19.044  1.00  0.00     0.181 C 
HETATM   25 CL1  UNL     1      -0.417 -30.816 -19.490  1.00  0.00    -0.115 Cl
HETATM   26  C19 UNL     1      -2.895 -31.643 -20.229  1.00  0.00     0.241 C 
HETATM   27  O2  UNL     1      -2.484 -32.306 -21.211  1.00  0.00    -0.271 OA
ATOM     28  H3  UNL     1      -4.913 -30.969 -20.702  1.00  0.00     0.170 HD
ATOM     29  H2  UNL     1      -6.117 -30.867 -18.340  1.00  0.00     0.160 HD
ENDBRANCH  19  20
ENDBRANCH  18  19
ENDBRANCH  17  18
ENDBRANCH  15  17
ENDBRANCH  12  13
ENDBRANCH  10  12
BRANCH  11  30
HETATM   30  N5  UNL     1      -8.577 -25.161 -10.736  1.00  0.00    -0.269 N 
HETATM   31  C20 UNL     1      -8.639 -25.375  -9.359  1.00  0.00     0.260 C 
HETATM   32  O3  UNL     1      -9.511 -25.299  -8.518  1.00  0.00    -0.270 OA
ATOM     33  H5  UNL     1      -7.632 -25.347 -11.071  1.00  0.00     0.190 HD
BRANCH  31  34
HETATM   34  C21 UNL     1      -7.272 -25.810  -8.690  1.00  0.00     0.222 C 
HETATM   35 BR1  UNL     1      -7.637 -26.770  -7.077  1.00  0.00    -0.069 Br
HETATM   36 BR2  UNL     1      -6.305 -24.185  -8.313  1.00  0.00    -0.069 Br
ENDBRANCH  31  34
ENDBRANCH  11  30
TORSDOF 8
ENDMDL
