MODEL 1
REMARK VINA RESULT: -4.265945227      0.000      0.000
REMARK  6 active torsions:
REMARK  status: ('A' for Active; 'I' for Inactive)
REMARK    1  A    between atoms: O1_2  and  C2_3 
REMARK    2  A    between atoms: C2_3  and  C3_4 
REMARK    3  A    between atoms: C2_3  and  C5_14 
REMARK    4  A    between atoms: C3_4  and  N1_5 
REMARK    5  A    between atoms: C3_4  and  C4_9 
REMARK    6  A    between atoms: C4_9  and  N2_10 
ROOT
HETATM    1  C3  UNL     1     -29.164  46.707 -25.166  1.00  0.00     0.237 C 
ENDROOT
BRANCH   1   2
HETATM    2  C2  UNL     1     -28.838  46.931 -23.729  1.00  0.00     0.157 C 
BRANCH   2   3
HETATM    3  O1  UNL     1     -27.441  46.896 -23.607  1.00  0.00    -0.388 OA
HETATM    4  C1  UNL     1     -26.990  46.040 -22.626  1.00  0.00     0.202 C 
ENDBRANCH   2   3
BRANCH   2   5
HETATM    5  C5  UNL     1     -29.481  48.088 -23.062  1.00  0.00     0.017 A 
HETATM    6  C6  UNL     1     -28.935  48.850 -21.948  1.00  0.00     0.007 A 
HETATM    7  C7  UNL     1     -30.003  47.810 -21.647  1.00  0.00     0.007 A 
ENDBRANCH   2   5
ENDBRANCH   1   2
BRANCH   1   8
HETATM    8  N1  UNL     1     -30.579  46.577 -25.433  1.00  0.00    -0.071 N 
ATOM      9  H13 UNL     1     -30.883  45.613 -25.296  1.00  0.00     0.274 HD
ATOM     10  H12 UNL     1     -31.125  47.034 -24.703  1.00  0.00     0.274 HD
ATOM     11  H11 UNL     1     -30.858  46.913 -26.355  1.00  0.00     0.274 HD
ENDBRANCH   1   8
BRANCH   1  12
HETATM   12  C4  UNL     1     -28.447  47.629 -26.123  1.00  0.00     0.265 C 
BRANCH  12  13
HETATM   13  N2  UNL     1     -27.206  46.977 -26.529  1.00  0.00    -0.077 N 
ATOM     14  H23 UNL     1     -27.303  45.966 -26.620  1.00  0.00     0.274 HD
ATOM     15  H22 UNL     1     -26.954  47.176 -27.497  1.00  0.00     0.274 HD
ATOM     16  H21 UNL     1     -26.479  47.247 -25.867  1.00  0.00     0.274 HD
ENDBRANCH  12  13
ENDBRANCH   1  12
TORSDOF 6
ENDMDL
MODEL 2
REMARK VINA RESULT: -4.131670388      2.468      4.033
REMARK  6 active torsions:
REMARK  status: ('A' for Active; 'I' for Inactive)
REMARK    1  A    between atoms: O1_2  and  C2_3 
REMARK    2  A    between atoms: C2_3  and  C3_4 
REMARK    3  A    between atoms: C2_3  and  C5_14 
REMARK    4  A    between atoms: C3_4  and  N1_5 
REMARK    5  A    between atoms: C3_4  and  C4_9 
REMARK    6  A    between atoms: C4_9  and  N2_10 
ROOT
HETATM    1  C3  UNL     1     -29.297  47.124 -22.935  1.00  0.00     0.237 C 
ENDROOT
BRANCH   1   2
HETATM    2  C2  UNL     1     -29.084  46.771 -24.367  1.00  0.00     0.157 C 
BRANCH   2   3
HETATM    3  O1  UNL     1     -30.274  47.060 -25.050  1.00  0.00    -0.388 OA
HETATM    4  C1  UNL     1     -30.856  45.961 -25.643  1.00  0.00     0.202 C 
ENDBRANCH   2   3
BRANCH   2   5
HETATM    5  C5  UNL     1     -27.861  47.299 -25.019  1.00  0.00     0.017 A 
HETATM    6  C6  UNL     1     -27.807  48.039 -26.272  1.00  0.00     0.007 A 
HETATM    7  C7  UNL     1     -27.443  46.563 -26.298  1.00  0.00     0.007 A 
ENDBRANCH   2   5
ENDBRANCH   1   2
BRANCH   1   8
HETATM    8  N1  UNL     1     -28.742  46.165 -22.006  1.00  0.00    -0.071 N 
ATOM      9  H13 UNL     1     -28.424  45.331 -22.498  1.00  0.00     0.274 HD
ATOM     10  H12 UNL     1     -27.851  46.497 -21.637  1.00  0.00     0.274 HD
ATOM     11  H11 UNL     1     -29.373  45.914 -21.246  1.00  0.00     0.274 HD
ENDBRANCH   1   8
BRANCH   1  12
HETATM   12  C4  UNL     1     -28.980  48.560 -22.589  1.00  0.00     0.265 C 
BRANCH  12  13
HETATM   13  N2  UNL     1     -29.442  48.804 -21.226  1.00  0.00    -0.077 N 
ATOM     14  H23 UNL     1     -29.962  48.017 -20.838  1.00  0.00     0.274 HD
ATOM     15  H22 UNL     1     -28.681  48.813 -20.546  1.00  0.00     0.274 HD
ATOM     16  H21 UNL     1     -29.980  49.670 -21.229  1.00  0.00     0.274 HD
ENDBRANCH  12  13
ENDBRANCH   1  12
TORSDOF 6
ENDMDL
MODEL 3
REMARK VINA RESULT: -3.893204682      2.441      3.887
REMARK  6 active torsions:
REMARK  status: ('A' for Active; 'I' for Inactive)
REMARK    1  A    between atoms: O1_2  and  C2_3 
REMARK    2  A    between atoms: C2_3  and  C3_4 
REMARK    3  A    between atoms: C2_3  and  C5_14 
REMARK    4  A    between atoms: C3_4  and  N1_5 
REMARK    5  A    between atoms: C3_4  and  C4_9 
REMARK    6  A    between atoms: C4_9  and  N2_10 
ROOT
HETATM    1  C3  UNL     1     -29.354  47.281 -22.584  1.00  0.00     0.237 C 
ENDROOT
BRANCH   1   2
HETATM    2  C2  UNL     1     -28.454  47.707 -23.693  1.00  0.00     0.157 C 
BRANCH   2   3
HETATM    3  O1  UNL     1     -27.265  48.169 -23.111  1.00  0.00    -0.388 OA
HETATM    4  C1  UNL     1     -26.929  49.454 -23.477  1.00  0.00     0.202 C 
ENDBRANCH   2   3
BRANCH   2   5
HETATM    5  C5  UNL     1     -28.257  46.751 -24.809  1.00  0.00     0.017 A 
HETATM    6  C6  UNL     1     -27.512  47.002 -26.034  1.00  0.00     0.007 A 
HETATM    7  C7  UNL     1     -29.029  47.088 -26.091  1.00  0.00     0.007 A 
ENDBRANCH   2   5
ENDBRANCH   1   2
BRANCH   1   8
HETATM    8  N1  UNL     1     -28.898  46.104 -21.878  1.00  0.00    -0.071 N 
ATOM      9  H13 UNL     1     -27.893  45.979 -22.000  1.00  0.00     0.274 HD
ATOM     10  H12 UNL     1     -28.931  46.255 -20.870  1.00  0.00     0.274 HD
ATOM     11  H11 UNL     1     -29.398  45.251 -22.130  1.00  0.00     0.274 HD
ENDBRANCH   1   8
BRANCH   1  12
HETATM   12  C4  UNL     1     -29.803  48.399 -21.674  1.00  0.00     0.265 C 
BRANCH  12  13
HETATM   13  N2  UNL     1     -28.944  48.388 -20.494  1.00  0.00    -0.077 N 
ATOM     14  H23 UNL     1     -29.251  47.720 -19.787  1.00  0.00     0.274 HD
ATOM     15  H22 UNL     1     -28.027  47.980 -20.676  1.00  0.00     0.274 HD
ATOM     16  H21 UNL     1     -28.889  49.342 -20.138  1.00  0.00     0.274 HD
ENDBRANCH  12  13
ENDBRANCH   1  12
TORSDOF 6
ENDMDL
MODEL 4
REMARK VINA RESULT: -3.878765935      2.024      3.567
REMARK  6 active torsions:
REMARK  status: ('A' for Active; 'I' for Inactive)
REMARK    1  A    between atoms: O1_2  and  C2_3 
REMARK    2  A    between atoms: C2_3  and  C3_4 
REMARK    3  A    between atoms: C2_3  and  C5_14 
REMARK    4  A    between atoms: C3_4  and  N1_5 
REMARK    5  A    between atoms: C3_4  and  C4_9 
REMARK    6  A    between atoms: C4_9  and  N2_10 
ROOT
HETATM    1  C3  UNL     1     -28.065  46.548 -26.113  1.00  0.00     0.237 C 
ENDROOT
BRANCH   1   2
HETATM    2  C2  UNL     1     -29.426  46.253 -25.583  1.00  0.00     0.157 C 
BRANCH   2   3
HETATM    3  O1  UNL     1     -29.719  47.231 -24.620  1.00  0.00    -0.388 OA
HETATM    4  C1  UNL     1     -29.280  46.913 -23.353  1.00  0.00     0.202 C 
ENDBRANCH   2   3
BRANCH   2   5
HETATM    5  C5  UNL     1     -30.505  46.030 -26.574  1.00  0.00     0.017 A 
HETATM    6  C6  UNL     1     -31.907  45.774 -26.277  1.00  0.00     0.007 A 
HETATM    7  C7  UNL     1     -31.027  44.589 -26.645  1.00  0.00     0.007 A 
ENDBRANCH   2   5
ENDBRANCH   1   2
BRANCH   1   8
HETATM    8  N1  UNL     1     -27.574  45.560 -27.049  1.00  0.00    -0.071 N 
ATOM      9  H13 UNL     1     -27.129  44.788 -26.553  1.00  0.00     0.274 HD
ATOM     10  H12 UNL     1     -28.350  45.061 -27.483  1.00  0.00     0.274 HD
ATOM     11  H11 UNL     1     -26.947  45.939 -27.759  1.00  0.00     0.274 HD
ENDBRANCH   1   8
BRANCH   1  12
HETATM   12  C4  UNL     1     -27.865  47.973 -26.573  1.00  0.00     0.265 C 
BRANCH  12  13
HETATM   13  N2  UNL     1     -26.970  48.628 -25.625  1.00  0.00    -0.077 N 
ATOM     14  H23 UNL     1     -27.190  48.404 -24.654  1.00  0.00     0.274 HD
ATOM     15  H22 UNL     1     -26.026  48.243 -25.642  1.00  0.00     0.274 HD
ATOM     16  H21 UNL     1     -26.993  49.630 -25.814  1.00  0.00     0.274 HD
ENDBRANCH  12  13
ENDBRANCH   1  12
TORSDOF 6
ENDMDL
MODEL 5
REMARK VINA RESULT: -3.772398489      0.641      1.689
REMARK  6 active torsions:
REMARK  status: ('A' for Active; 'I' for Inactive)
REMARK    1  A    between atoms: O1_2  and  C2_3 
REMARK    2  A    between atoms: C2_3  and  C3_4 
REMARK    3  A    between atoms: C2_3  and  C5_14 
REMARK    4  A    between atoms: C3_4  and  N1_5 
REMARK    5  A    between atoms: C3_4  and  C4_9 
REMARK    6  A    between atoms: C4_9  and  N2_10 
ROOT
HETATM    1  C3  UNL     1     -28.697  47.472 -25.407  1.00  0.00     0.237 C 
ENDROOT
BRANCH   1   2
HETATM    2  C2  UNL     1     -28.640  47.276 -23.931  1.00  0.00     0.157 C 
BRANCH   2   3
HETATM    3  O1  UNL     1     -27.291  47.113 -23.584  1.00  0.00    -0.388 OA
HETATM    4  C1  UNL     1     -27.060  46.056 -22.730  1.00  0.00     0.202 C 
ENDBRANCH   2   3
BRANCH   2   5
HETATM    5  C5  UNL     1     -29.373  48.253 -23.091  1.00  0.00     0.017 A 
HETATM    6  C6  UNL     1     -28.923  48.804 -21.821  1.00  0.00     0.007 A 
HETATM    7  C7  UNL     1     -29.948  47.681 -21.789  1.00  0.00     0.007 A 
ENDBRANCH   2   5
ENDBRANCH   1   2
BRANCH   1   8
HETATM    8  N1  UNL     1     -27.479  48.007 -25.975  1.00  0.00    -0.071 N 
ATOM      9  H13 UNL     1     -26.895  48.418 -25.248  1.00  0.00     0.274 HD
ATOM     10  H12 UNL     1     -26.865  47.252 -26.282  1.00  0.00     0.274 HD
ATOM     11  H11 UNL     1     -27.634  48.674 -26.731  1.00  0.00     0.274 HD
ENDBRANCH   1   8
BRANCH   1  12
HETATM   12  C4  UNL     1     -29.263  46.301 -26.175  1.00  0.00     0.265 C 
BRANCH  12  13
HETATM   13  N2  UNL     1     -30.718  46.371 -26.091  1.00  0.00    -0.077 N 
ATOM     14  H23 UNL     1     -31.042  46.924 -25.297  1.00  0.00     0.274 HD
ATOM     15  H22 UNL     1     -31.130  46.942 -26.829  1.00  0.00     0.274 HD
ATOM     16  H21 UNL     1     -31.077  45.417 -26.081  1.00  0.00     0.274 HD
ENDBRANCH  12  13
ENDBRANCH   1  12
TORSDOF 6
ENDMDL
