MODEL 1
REMARK VINA RESULT: -5.478846906      0.000      0.000
REMARK  8 active torsions:
REMARK  status: ('A' for Active; 'I' for Inactive)
REMARK    1  A    between atoms: C2_2  and  C3_3 
REMARK    2  A    between atoms: C3_3  and  C4_4 
REMARK    3  A    between atoms: C6_7  and  C7_8 
REMARK    4  A    between atoms: C7_8  and  N1_9 
REMARK       I    between atoms: N1_9  and  C8_11 
REMARK    5  A    between atoms: C8_11  and  O3_13 
REMARK    6  A    between atoms: O3_13  and  C9_14 
REMARK    7  A    between atoms: C18_25  and  S1_26 
REMARK    8  A    between atoms: C20_28  and  O5_29 
ROOT
HETATM    1  C3  UNL     1      -7.831  -3.042   0.993  1.00  0.00     0.075 A 
HETATM    2  C6  UNL     1      -7.042  -3.546  -0.163  1.00  0.00    -0.038 A 
HETATM    3  C13 UNL     1      -6.414  -4.682  -0.145  1.00  0.00     0.061 A 
HETATM    4  C14 UNL     1      -6.391  -5.637   0.957  1.00  0.00     0.183 A 
HETATM    5  O4  UNL     1      -5.759  -6.714   0.954  1.00  0.00    -0.288 OA
HETATM    6  C15 UNL     1      -7.194  -5.224   2.104  1.00  0.00     0.026 A 
HETATM    7  C16 UNL     1      -7.294  -6.088   3.199  1.00  0.00     0.041 A 
HETATM    8  C17 UNL     1      -8.091  -5.773   4.273  1.00  0.00     0.054 A 
HETATM    9 CL1  UNL     1      -8.220  -6.845   5.643  1.00  0.00    -0.083 Cl
HETATM   10  C18 UNL     1      -8.790  -4.588   4.250  1.00  0.00     0.055 A 
HETATM   11  C20 UNL     1      -8.714  -3.718   3.195  1.00  0.00     0.092 A 
HETATM   12  C21 UNL     1      -7.880  -4.074   2.104  1.00  0.00     0.011 A 
ENDROOT
BRANCH   2  13
HETATM   13  C7  UNL     1      -7.052  -2.751  -1.440  1.00  0.00     0.160 C 
BRANCH  13  14
HETATM   14  N1  UNL     1      -7.539  -3.470  -2.576  1.00  0.00    -0.333 N 
HETATM   15  C8  UNL     1      -8.756  -2.984  -3.237  1.00  0.00     0.361 C 
HETATM   16  O2  UNL     1      -9.331  -1.963  -2.795  1.00  0.00    -0.238 OA
ATOM     17  H1  UNL     1      -7.053  -4.300  -2.918  1.00  0.00     0.165 HD
BRANCH  15  18
HETATM   18  O3  UNL     1      -9.279  -3.616  -4.324  1.00  0.00    -0.294 OA
BRANCH  18  19
HETATM   19  C9  UNL     1      -9.983  -4.810  -4.237  1.00  0.00     0.061 C 
HETATM   20  C10 UNL     1     -11.223  -4.743  -5.104  1.00  0.00     0.046 C 
HETATM   21  C11 UNL     1     -10.423  -5.174  -2.846  1.00  0.00     0.046 C 
HETATM   22  C12 UNL     1      -9.068  -5.925  -4.724  1.00  0.00     0.046 C 
ENDBRANCH  18  19
ENDBRANCH  15  18
ENDBRANCH  13  14
ENDBRANCH   2  13
BRANCH   1  23
HETATM   23  C2  UNL     1      -7.084  -1.894   1.643  1.00  0.00     0.023 C 
HETATM   24  C1  UNL     1      -5.644  -1.995   1.906  1.00  0.00     0.007 C 
ENDBRANCH   1  23
BRANCH   1  25
HETATM   25  C4  UNL     1      -9.202  -2.689   0.657  1.00  0.00     0.140 C 
HETATM   26  C5  UNL     1     -10.285  -3.564   0.266  1.00  0.00     0.092 C 
HETATM   27  O1  UNL     1      -9.540  -1.466   0.692  1.00  0.00    -0.297 OA
ENDBRANCH   1  25
BRANCH  11  28
HETATM   28  O5  UNL     1      -9.427  -2.531   3.175  1.00  0.00    -0.359 OA
ATOM     29  H5  UNL     1      -9.386  -1.910   3.894  1.00  0.00     0.217 HD
ENDBRANCH  11  28
BRANCH  10  30
HETATM   30  S1  UNL     1      -9.858  -4.106   5.624  1.00  0.00    -0.130 SA
HETATM   31  C19 UNL     1      -8.883  -3.328   6.929  1.00  0.00     0.095 C 
ENDBRANCH  10  30
TORSDOF 8
ENDMDL
MODEL 2
REMARK VINA RESULT: -5.450651006      1.802      2.554
REMARK  8 active torsions:
REMARK  status: ('A' for Active; 'I' for Inactive)
REMARK    1  A    between atoms: C2_2  and  C3_3 
REMARK    2  A    between atoms: C3_3  and  C4_4 
REMARK    3  A    between atoms: C6_7  and  C7_8 
REMARK    4  A    between atoms: C7_8  and  N1_9 
REMARK       I    between atoms: N1_9  and  C8_11 
REMARK    5  A    between atoms: C8_11  and  O3_13 
REMARK    6  A    between atoms: O3_13  and  C9_14 
REMARK    7  A    between atoms: C18_25  and  S1_26 
REMARK    8  A    between atoms: C20_28  and  O5_29 
ROOT
HETATM    1  C3  UNL     1      -8.504  -3.017  -1.023  1.00  0.00     0.075 A 
HETATM    2  C6  UNL     1      -7.623  -3.926  -1.806  1.00  0.00    -0.038 A 
HETATM    3  C13 UNL     1      -6.855  -4.812  -1.250  1.00  0.00     0.061 A 
HETATM    4  C14 UNL     1      -6.742  -5.079   0.180  1.00  0.00     0.183 A 
HETATM    5  O4  UNL     1      -5.977  -5.925   0.688  1.00  0.00    -0.288 OA
HETATM    6  C15 UNL     1      -7.624  -4.256   0.999  1.00  0.00     0.026 A 
HETATM    7  C16 UNL     1      -7.645  -4.464   2.381  1.00  0.00     0.041 A 
HETATM    8  C17 UNL     1      -8.508  -3.759   3.187  1.00  0.00     0.054 A 
HETATM    9 CL1  UNL     1      -8.538  -4.013   4.912  1.00  0.00    -0.083 Cl
HETATM   10  C18 UNL     1      -9.352  -2.842   2.605  1.00  0.00     0.055 A 
HETATM   11  C20 UNL     1      -9.357  -2.612   1.255  1.00  0.00     0.092 A 
HETATM   12  C21 UNL     1      -8.453  -3.355   0.454  1.00  0.00     0.011 A 
ENDROOT
BRANCH   2  13
HETATM   13  C7  UNL     1      -7.697  -3.880  -3.307  1.00  0.00     0.160 C 
BRANCH  13  14
HETATM   14  N1  UNL     1      -8.104  -5.110  -3.913  1.00  0.00    -0.333 N 
HETATM   15  C8  UNL     1      -9.285  -5.099  -4.784  1.00  0.00     0.361 C 
HETATM   16  O2  UNL     1      -9.900  -4.025  -4.973  1.00  0.00    -0.238 OA
ATOM     17  H1  UNL     1      -7.586  -5.973  -3.743  1.00  0.00     0.165 HD
BRANCH  15  18
HETATM   18  O3  UNL     1      -9.732  -6.231  -5.395  1.00  0.00    -0.294 OA
BRANCH  18  19
HETATM   19  C9  UNL     1     -11.050  -6.662  -5.315  1.00  0.00     0.061 C 
HETATM   20  C10 UNL     1     -11.169  -8.064  -5.877  1.00  0.00     0.046 C 
HETATM   21  C11 UNL     1     -12.034  -5.795  -6.051  1.00  0.00     0.046 C 
HETATM   22  C12 UNL     1     -11.453  -6.653  -3.848  1.00  0.00     0.046 C 
ENDBRANCH  18  19
ENDBRANCH  15  18
ENDBRANCH  13  14
ENDBRANCH   2  13
BRANCH   1  23
HETATM   23  C2  UNL     1      -7.930  -1.614  -1.060  1.00  0.00     0.023 C 
HETATM   24  C1  UNL     1      -6.491  -1.391  -0.879  1.00  0.00     0.007 C 
ENDBRANCH   1  23
BRANCH   1  25
HETATM   25  C4  UNL     1      -9.898  -3.054  -1.438  1.00  0.00     0.140 C 
HETATM   26  C5  UNL     1     -10.847  -4.137  -1.302  1.00  0.00     0.092 C 
HETATM   27  O1  UNL     1     -10.393  -2.029  -2.001  1.00  0.00    -0.297 OA
ENDBRANCH   1  25
BRANCH  11  28
HETATM   28  O5  UNL     1     -10.216  -1.692   0.675  1.00  0.00    -0.359 OA
ATOM     29  H5  UNL     1     -10.340  -1.648  -0.266  1.00  0.00     0.217 HD
ENDBRANCH  11  28
BRANCH  10  30
HETATM   30  S1  UNL     1     -10.513  -1.879   3.597  1.00  0.00    -0.130 SA
HETATM   31  C19 UNL     1     -12.085  -2.755   3.744  1.00  0.00     0.095 C 
ENDBRANCH  10  30
TORSDOF 8
ENDMDL
MODEL 3
REMARK VINA RESULT: -5.164886307      2.608      3.687
REMARK  8 active torsions:
REMARK  status: ('A' for Active; 'I' for Inactive)
REMARK    1  A    between atoms: C2_2  and  C3_3 
REMARK    2  A    between atoms: C3_3  and  C4_4 
REMARK    3  A    between atoms: C6_7  and  C7_8 
REMARK    4  A    between atoms: C7_8  and  N1_9 
REMARK       I    between atoms: N1_9  and  C8_11 
REMARK    5  A    between atoms: C8_11  and  O3_13 
REMARK    6  A    between atoms: O3_13  and  C9_14 
REMARK    7  A    between atoms: C18_25  and  S1_26 
REMARK    8  A    between atoms: C20_28  and  O5_29 
ROOT
HETATM    1  C3  UNL     1     -10.173  -2.687  -1.174  1.00  0.00     0.075 A 
HETATM    2  C6  UNL     1      -9.833  -3.680  -2.229  1.00  0.00    -0.038 A 
HETATM    3  C13 UNL     1      -8.766  -4.417  -2.183  1.00  0.00     0.061 A 
HETATM    4  C14 UNL     1      -7.766  -4.421  -1.121  1.00  0.00     0.183 A 
HETATM    5  O4  UNL     1      -6.736  -5.127  -1.114  1.00  0.00    -0.288 OA
HETATM    6  C15 UNL     1      -8.072  -3.506  -0.027  1.00  0.00     0.026 A 
HETATM    7  C16 UNL     1      -7.214  -3.466   1.076  1.00  0.00     0.041 A 
HETATM    8  C17 UNL     1      -7.496  -2.669   2.160  1.00  0.00     0.054 A 
HETATM    9 CL1  UNL     1      -6.429  -2.614   3.538  1.00  0.00    -0.083 Cl
HETATM   10  C18 UNL     1      -8.643  -1.910   2.139  1.00  0.00     0.055 A 
HETATM   11  C20 UNL     1      -9.505  -1.923   1.075  1.00  0.00     0.092 A 
HETATM   12  C21 UNL     1      -9.181  -2.755  -0.028  1.00  0.00     0.011 A 
ENDROOT
BRANCH   2  13
HETATM   13  C7  UNL     1     -10.813  -3.905  -3.346  1.00  0.00     0.160 C 
BRANCH  13  14
HETATM   14  N1  UNL     1     -10.581  -5.097  -4.100  1.00  0.00    -0.333 N 
HETATM   15  C8  UNL     1     -11.309  -5.275  -5.362  1.00  0.00     0.361 C 
HETATM   16  O2  UNL     1     -12.107  -4.389  -5.743  1.00  0.00    -0.238 OA
ATOM     17  H1  UNL     1      -9.925  -5.806  -3.769  1.00  0.00     0.165 HD
BRANCH  15  18
HETATM   18  O3  UNL     1     -11.139  -6.384  -6.134  1.00  0.00    -0.294 OA
BRANCH  18  19
HETATM   19  C9  UNL     1     -11.954  -7.505  -6.037  1.00  0.00     0.061 C 
HETATM   20  C10 UNL     1     -11.496  -8.562  -7.020  1.00  0.00     0.046 C 
HETATM   21  C11 UNL     1     -13.410  -7.240  -6.303  1.00  0.00     0.046 C 
HETATM   22  C12 UNL     1     -11.846  -8.034  -4.614  1.00  0.00     0.046 C 
ENDBRANCH  18  19
ENDBRANCH  15  18
ENDBRANCH  13  14
ENDBRANCH   2  13
BRANCH   1  23
HETATM   23  C2  UNL     1      -9.955  -1.288  -1.716  1.00  0.00     0.023 C 
HETATM   24  C1  UNL     1      -8.694  -0.934  -2.379  1.00  0.00     0.007 C 
ENDBRANCH   1  23
BRANCH   1  25
HETATM   25  C4  UNL     1     -11.506  -2.861  -0.616  1.00  0.00     0.140 C 
HETATM   26  C5  UNL     1     -12.005  -3.947   0.199  1.00  0.00     0.092 C 
HETATM   27  O1  UNL     1     -12.383  -1.973  -0.849  1.00  0.00    -0.297 OA
ENDBRANCH   1  25
BRANCH  11  28
HETATM   28  O5  UNL     1     -10.662  -1.161   1.063  1.00  0.00    -0.359 OA
ATOM     29  H5  UNL     1     -11.356  -1.295   1.699  1.00  0.00     0.217 HD
ENDBRANCH  11  28
BRANCH  10  30
HETATM   30  S1  UNL     1      -9.081  -0.839   3.525  1.00  0.00    -0.130 SA
HETATM   31  C19 UNL     1     -10.210  -1.697   4.643  1.00  0.00     0.095 C 
ENDBRANCH  10  30
TORSDOF 8
ENDMDL
MODEL 4
REMARK VINA RESULT: -5.117518075      3.038      4.417
REMARK  8 active torsions:
REMARK  status: ('A' for Active; 'I' for Inactive)
REMARK    1  A    between atoms: C2_2  and  C3_3 
REMARK    2  A    between atoms: C3_3  and  C4_4 
REMARK    3  A    between atoms: C6_7  and  C7_8 
REMARK    4  A    between atoms: C7_8  and  N1_9 
REMARK       I    between atoms: N1_9  and  C8_11 
REMARK    5  A    between atoms: C8_11  and  O3_13 
REMARK    6  A    between atoms: O3_13  and  C9_14 
REMARK    7  A    between atoms: C18_25  and  S1_26 
REMARK    8  A    between atoms: C20_28  and  O5_29 
ROOT
HETATM    1  C3  UNL     1      -8.893  -3.092  -1.346  1.00  0.00     0.075 A 
HETATM    2  C6  UNL     1      -9.878  -3.810  -2.199  1.00  0.00    -0.038 A 
HETATM    3  C13 UNL     1     -11.073  -4.111  -1.793  1.00  0.00     0.061 A 
HETATM    4  C14 UNL     1     -11.647  -3.791  -0.491  1.00  0.00     0.183 A 
HETATM    5  O4  UNL     1     -12.795  -4.114  -0.119  1.00  0.00    -0.288 OA
HETATM    6  C15 UNL     1     -10.747  -3.037   0.374  1.00  0.00     0.026 A 
HETATM    7  C16 UNL     1     -11.209  -2.623   1.627  1.00  0.00     0.041 A 
HETATM    8  C17 UNL     1     -10.421  -1.854   2.450  1.00  0.00     0.054 A 
HETATM    9 CL1  UNL     1     -10.992  -1.335   4.014  1.00  0.00    -0.083 Cl
HETATM   10  C18 UNL     1      -9.166  -1.498   2.016  1.00  0.00     0.055 A 
HETATM   11  C20 UNL     1      -8.680  -1.886   0.795  1.00  0.00     0.092 A 
HETATM   12  C21 UNL     1      -9.519  -2.681  -0.027  1.00  0.00     0.011 A 
ENDROOT
BRANCH   2  13
HETATM   13  C7  UNL     1      -9.506  -4.115  -3.624  1.00  0.00     0.160 C 
BRANCH  13  14
HETATM   14  N1  UNL     1     -10.608  -4.508  -4.447  1.00  0.00    -0.333 N 
HETATM   15  C8  UNL     1     -10.451  -5.693  -5.300  1.00  0.00     0.361 C 
HETATM   16  O2  UNL     1      -9.369  -6.323  -5.285  1.00  0.00    -0.238 OA
ATOM     17  H1  UNL     1     -11.480  -3.978  -4.442  1.00  0.00     0.165 HD
BRANCH  15  18
HETATM   18  O3  UNL     1     -11.455  -6.128  -6.110  1.00  0.00    -0.294 OA
BRANCH  18  19
HETATM   19  C9  UNL     1     -12.064  -7.367  -5.960  1.00  0.00     0.061 C 
HETATM   20  C10 UNL     1     -12.003  -7.800  -4.510  1.00  0.00     0.046 C 
HETATM   21  C11 UNL     1     -11.453  -8.465  -6.786  1.00  0.00     0.046 C 
HETATM   22  C12 UNL     1     -13.514  -7.227  -6.401  1.00  0.00     0.046 C 
ENDBRANCH  18  19
ENDBRANCH  15  18
ENDBRANCH  13  14
ENDBRANCH   2  13
BRANCH   1  23
HETATM   23  C2  UNL     1      -7.812  -4.061  -0.911  1.00  0.00     0.023 C 
HETATM   24  C1  UNL     1      -7.260  -5.038  -1.857  1.00  0.00     0.007 C 
ENDBRANCH   1  23
BRANCH   1  25
HETATM   25  C4  UNL     1      -8.344  -1.895  -1.967  1.00  0.00     0.140 C 
HETATM   26  C5  UNL     1      -9.020  -0.657  -2.283  1.00  0.00     0.092 C 
HETATM   27  O1  UNL     1      -7.118  -1.889  -2.296  1.00  0.00    -0.297 OA
ENDBRANCH   1  25
BRANCH  11  28
HETATM   28  O5  UNL     1      -7.418  -1.518   0.361  1.00  0.00    -0.359 OA
ATOM     29  H5  UNL     1      -7.239  -0.649   0.019  1.00  0.00     0.217 HD
ENDBRANCH  11  28
BRANCH  10  30
HETATM   30  S1  UNL     1      -8.073  -0.488   3.039  1.00  0.00    -0.130 SA
HETATM   31  C19 UNL     1      -7.140  -1.535   4.176  1.00  0.00     0.095 C 
ENDBRANCH  10  30
TORSDOF 8
ENDMDL
MODEL 5
REMARK VINA RESULT: -5.070028983      4.365      6.002
REMARK  8 active torsions:
REMARK  status: ('A' for Active; 'I' for Inactive)
REMARK    1  A    between atoms: C2_2  and  C3_3 
REMARK    2  A    between atoms: C3_3  and  C4_4 
REMARK    3  A    between atoms: C6_7  and  C7_8 
REMARK    4  A    between atoms: C7_8  and  N1_9 
REMARK       I    between atoms: N1_9  and  C8_11 
REMARK    5  A    between atoms: C8_11  and  O3_13 
REMARK    6  A    between atoms: O3_13  and  C9_14 
REMARK    7  A    between atoms: C18_25  and  S1_26 
REMARK    8  A    between atoms: C20_28  and  O5_29 
ROOT
HETATM    1  C3  UNL     1      -8.181  -1.309  -1.668  1.00  0.00     0.075 A 
HETATM    2  C6  UNL     1      -8.275  -2.443  -0.709  1.00  0.00    -0.038 A 
HETATM    3  C13 UNL     1      -7.285  -2.811   0.044  1.00  0.00     0.061 A 
HETATM    4  C14 UNL     1      -5.966  -2.189   0.100  1.00  0.00     0.183 A 
HETATM    5  O4  UNL     1      -5.024  -2.580   0.821  1.00  0.00    -0.288 OA
HETATM    6  C15 UNL     1      -5.828  -1.033  -0.779  1.00  0.00     0.026 A 
HETATM    7  C16 UNL     1      -4.626  -0.321  -0.768  1.00  0.00     0.041 A 
HETATM    8  C17 UNL     1      -4.472   0.814  -1.529  1.00  0.00     0.054 A 
HETATM    9 CL1  UNL     1      -2.975   1.707  -1.519  1.00  0.00    -0.083 Cl
HETATM   10  C18 UNL     1      -5.527   1.235  -2.305  1.00  0.00     0.055 A 
HETATM   11  C20 UNL     1      -6.719   0.560  -2.341  1.00  0.00     0.092 A 
HETATM   12  C21 UNL     1      -6.841  -0.607  -1.545  1.00  0.00     0.011 A 
ENDROOT
BRANCH   2  13
HETATM   13  C7  UNL     1      -9.601  -3.130  -0.538  1.00  0.00     0.160 C 
BRANCH  13  14
HETATM   14  N1  UNL     1      -9.705  -4.385  -1.216  1.00  0.00    -0.333 N 
HETATM   15  C8  UNL     1     -10.625  -4.485  -2.356  1.00  0.00     0.361 C 
HETATM   16  O2  UNL     1     -11.289  -3.481  -2.702  1.00  0.00    -0.238 OA
ATOM     17  H1  UNL     1      -9.154  -5.189  -0.916  1.00  0.00     0.165 HD
BRANCH  15  18
HETATM   18  O3  UNL     1     -10.777  -5.646  -3.051  1.00  0.00    -0.294 OA
BRANCH  18  19
HETATM   19  C9  UNL     1     -10.498  -5.757  -4.407  1.00  0.00     0.061 C 
HETATM   20  C10 UNL     1      -9.003  -5.671  -4.635  1.00  0.00     0.046 C 
HETATM   21  C11 UNL     1     -11.147  -4.706  -5.264  1.00  0.00     0.046 C 
HETATM   22  C12 UNL     1     -11.020  -7.107  -4.878  1.00  0.00     0.046 C 
ENDBRANCH  18  19
ENDBRANCH  15  18
ENDBRANCH  13  14
ENDBRANCH   2  13
BRANCH   1  23
HETATM   23  C2  UNL     1      -8.139  -1.854  -3.082  1.00  0.00     0.023 C 
HETATM   24  C1  UNL     1      -7.322  -3.030  -3.404  1.00  0.00     0.007 C 
ENDBRANCH   1  23
BRANCH   1  25
HETATM   25  C4  UNL     1      -9.222  -0.308  -1.493  1.00  0.00     0.140 C 
HETATM   26  C5  UNL     1      -9.419   0.599  -0.384  1.00  0.00     0.092 C 
HETATM   27  O1  UNL     1     -10.099  -0.177  -2.402  1.00  0.00    -0.297 OA
ENDBRANCH   1  25
BRANCH  11  28
HETATM   28  O5  UNL     1      -7.780   0.994  -3.119  1.00  0.00    -0.359 OA
ATOM     29  H5  UNL     1      -8.366   0.383  -3.552  1.00  0.00     0.217 HD
ENDBRANCH  11  28
BRANCH  10  30
HETATM   30  S1  UNL     1      -5.402   2.715  -3.331  1.00  0.00    -0.130 SA
HETATM   31  C19 UNL     1      -5.811   4.182  -2.362  1.00  0.00     0.095 C 
ENDBRANCH  10  30
TORSDOF 8
ENDMDL
