MODEL 1
REMARK VINA RESULT: -7.623813064      0.000      0.000
REMARK  12 active torsions:
REMARK  status: ('A' for Active; 'I' for Inactive)
REMARK    1  A    between atoms: C2_2  and  C3_4 
REMARK    2  A    between atoms: C3_4  and  N1_5 
REMARK    3  A    between atoms: C3_4  and  C4_9 
REMARK    4  A    between atoms: C4_9  and  O2_10 
REMARK    5  A    between atoms: C4_9  and  N2_12 
REMARK    6  A    between atoms: N2_12  and  C6_14 
REMARK    7  A    between atoms: C7_17  and  N4_18 
REMARK    8  A    between atoms: C9_27  and  C10_28 
REMARK    9  A    between atoms: C11_33  and  S1_34 
REMARK   10  A    between atoms: S1_34  and  C12_35 
REMARK   11  A    between atoms: N13_46  and  O3_47 
REMARK   12  A    between atoms: N14_49  and  N15_50 
ROOT
HETATM    1  C6  UNL     1       8.977   7.801 -33.008  1.00  0.00     0.138 A 
HETATM    2  N3  UNL     1       7.679   8.008 -33.384  1.00  0.00    -0.176 N 
ATOM      3  H3  UNL     1       7.051   7.208 -33.444  1.00  0.00     0.186 HD
HETATM    4  C7  UNL     1       7.205   9.219 -33.674  1.00  0.00     0.679 A 
HETATM    5  N5  UNL     1       7.994  10.308 -33.609  1.00  0.00    -0.176 N 
ATOM      6  H5  UNL     1       7.635  11.237 -33.831  1.00  0.00     0.186 HD
HETATM    7  C8  UNL     1       9.267  10.123 -33.243  1.00  0.00     0.132 A 
HETATM    8  N6  UNL     1      10.045  11.133 -33.170  1.00  0.00    -0.384 N 
ATOM      9  H61 UNL     1      11.016  10.992 -32.891  1.00  0.00     0.157 HD
ATOM     10  H62 UNL     1       9.653  12.047 -33.398  1.00  0.00     0.157 HD
HETATM   11  C9  UNL     1       9.806   8.863 -32.930  1.00  0.00     0.100 A 
ENDROOT
BRANCH  11  12
HETATM   12  C10 UNL     1      11.227   8.794 -32.548  1.00  0.00     0.161 A 
HETATM   13  N7  UNL     1      12.280   8.743 -33.389  1.00  0.00    -0.281 N 
HETATM   14  N8  UNL     1      13.386   8.669 -32.676  1.00  0.00    -0.276 N 
ATOM     15  H7  UNL     1      12.229   8.759 -34.407  1.00  0.00     0.188 HD
HETATM   16  C11 UNL     1      13.119   8.667 -31.362  1.00  0.00     0.188 A 
ATOM     17  H8  UNL     1      14.325   8.619 -33.072  1.00  0.00     0.189 HD
HETATM   18  N14 UNL     1      11.738   8.747 -31.320  1.00  0.00    -0.220 N 
BRANCH  16  19
HETATM   19  S1  UNL     1      14.148   8.589 -29.930  1.00  0.00    -0.025 SA
BRANCH  19  20
HETATM   20  C12 UNL     1      15.862   8.800 -30.171  1.00  0.00     0.167 A 
HETATM   21  C13 UNL     1      16.534   9.358 -29.121  1.00  0.00     0.169 A 
HETATM   22  N9  UNL     1      15.822   9.715 -27.943  1.00  0.00    -0.079 NA
HETATM   23  N10 UNL     1      17.917   9.600 -29.214  1.00  0.00    -0.175 N 
HETATM   24  C14 UNL     1      18.692   9.293 -30.368  1.00  0.00     0.693 A 
ATOM     25  H10 UNL     1      18.390  10.017 -28.412  1.00  0.00     0.185 HD
HETATM   26  N11 UNL     1      19.961   9.530 -30.416  1.00  0.00    -0.233 N 
HETATM   27  N12 UNL     1      17.996   8.716 -31.452  1.00  0.00    -0.105 N 
ATOM     28 2H11 UNL     1      20.464   9.947 -29.632  1.00  0.00     0.174 HD
ATOM     29 1H11 UNL     1      20.516   9.311 -31.243  1.00  0.00     0.174 HD
HETATM   30  N13 UNL     1      16.593   8.479 -31.337  1.00  0.00    -0.139 N 
ATOM     31  H12 UNL     1      18.492   8.471 -32.310  1.00  0.00     0.208 HD
BRANCH  30  32
HETATM   32  O3  UNL     1      16.065   7.888 -32.429  1.00  0.00    -0.267 OA
ATOM     33  H3  UNL     1      16.547   7.707 -33.227  1.00  0.00     0.247 HD
ENDBRANCH  30  32
ENDBRANCH  19  20
ENDBRANCH  16  19
BRANCH  18  34
HETATM   34  N15 UNL     1      11.025   8.760 -30.116  1.00  0.00    -0.335 N 
ATOM     35 2H15 UNL     1      10.073   9.119 -30.049  1.00  0.00     0.177 HD
ATOM     36 1H15 UNL     1      11.357   8.440 -29.206  1.00  0.00     0.177 HD
ENDBRANCH  18  34
ENDBRANCH  11  12
BRANCH   1  37
HETATM   37  N2  UNL     1       9.389   6.442 -32.720  1.00  0.00    -0.342 N 
HETATM   38  C5  UNL     1       9.692   5.668 -33.914  1.00  0.00     0.154 C 
BRANCH  37  39
HETATM   39  C4  UNL     1       9.414   6.018 -31.386  1.00  0.00     0.259 C 
BRANCH  39  40
HETATM   40  C3  UNL     1       8.971   4.660 -30.985  1.00  0.00     0.300 C 
BRANCH  40  41
HETATM   41  C2  UNL     1       7.507   4.491 -30.777  1.00  0.00     0.157 C 
HETATM   42  C1  UNL     1       6.549   4.145 -31.861  1.00  0.00     0.093 C 
HETATM   43  O1  UNL     1       6.989   4.629 -29.656  1.00  0.00    -0.296 OA
ENDBRANCH  40  41
BRANCH  40  44
HETATM   44  N1  UNL     1       9.514   4.482 -29.582  1.00  0.00    -0.064 N 
ATOM     45  H13 UNL     1       9.063   5.055 -28.869  1.00  0.00     0.275 HD
ATOM     46  H12 UNL     1       9.291   3.588 -29.144  1.00  0.00     0.275 HD
ATOM     47  H11 UNL     1      10.509   4.661 -29.713  1.00  0.00     0.275 HD
ENDBRANCH  40  44
ENDBRANCH  39  40
BRANCH  39  48
HETATM   48  O2  UNL     1       8.753   6.995 -30.584  1.00  0.00    -0.374 OA
ATOM     49  H2  UNL     1       8.517   7.743 -31.121  1.00  0.00     0.212 HD
ENDBRANCH  39  48
ENDBRANCH  37  39
ENDBRANCH   1  37
BRANCH   4  50
HETATM   50  N4  UNL     1       5.977   9.395 -34.028  1.00  0.00    -0.234 N 
ATOM     51  H42 UNL     1       5.253   9.110 -33.368  1.00  0.00     0.174 HD
ATOM     52  H41 UNL     1       5.736   9.802 -34.931  1.00  0.00     0.174 HD
ENDBRANCH   4  50
TORSDOF 12
ENDMDL
MODEL 2
REMARK VINA RESULT: -7.598260859      1.843      2.497
REMARK  12 active torsions:
REMARK  status: ('A' for Active; 'I' for Inactive)
REMARK    1  A    between atoms: C2_2  and  C3_4 
REMARK    2  A    between atoms: C3_4  and  N1_5 
REMARK    3  A    between atoms: C3_4  and  C4_9 
REMARK    4  A    between atoms: C4_9  and  O2_10 
REMARK    5  A    between atoms: C4_9  and  N2_12 
REMARK    6  A    between atoms: N2_12  and  C6_14 
REMARK    7  A    between atoms: C7_17  and  N4_18 
REMARK    8  A    between atoms: C9_27  and  C10_28 
REMARK    9  A    between atoms: C11_33  and  S1_34 
REMARK   10  A    between atoms: S1_34  and  C12_35 
REMARK   11  A    between atoms: N13_46  and  O3_47 
REMARK   12  A    between atoms: N14_49  and  N15_50 
ROOT
HETATM    1  C6  UNL     1      10.617   9.770 -33.273  1.00  0.00     0.138 A 
HETATM    2  N3  UNL     1       9.941  10.460 -34.240  1.00  0.00    -0.176 N 
ATOM      3  H3  UNL     1       9.257   9.964 -34.811  1.00  0.00     0.186 HD
HETATM    4  C7  UNL     1      10.143  11.758 -34.465  1.00  0.00     0.679 A 
HETATM    5  N5  UNL     1      11.034  12.458 -33.738  1.00  0.00    -0.176 N 
ATOM      6  H5  UNL     1      11.192  13.451 -33.906  1.00  0.00     0.186 HD
HETATM    7  C8  UNL     1      11.704  11.798 -32.787  1.00  0.00     0.132 A 
HETATM    8  N6  UNL     1      12.558  12.430 -32.077  1.00  0.00    -0.384 N 
ATOM      9  H61 UNL     1      13.069  11.926 -31.352  1.00  0.00     0.157 HD
ATOM     10  H62 UNL     1      12.691  13.422 -32.272  1.00  0.00     0.157 HD
HETATM   11  C9  UNL     1      11.521  10.430 -32.520  1.00  0.00     0.100 A 
ENDROOT
BRANCH  11  12
HETATM   12  C10 UNL     1      12.329   9.820 -31.449  1.00  0.00     0.161 A 
HETATM   13  N7  UNL     1      12.071   9.868 -30.126  1.00  0.00    -0.281 N 
HETATM   14  N8  UNL     1      13.028   9.225 -29.487  1.00  0.00    -0.276 N 
ATOM     15  H7  UNL     1      11.270  10.326 -29.692  1.00  0.00     0.188 HD
HETATM   16  C11 UNL     1      13.939   8.736 -30.339  1.00  0.00     0.188 A 
ATOM     17  H8  UNL     1      13.069   9.114 -28.474  1.00  0.00     0.189 HD
HETATM   18  N14 UNL     1      13.462   9.133 -31.576  1.00  0.00    -0.220 N 
BRANCH  16  19
HETATM   19  S1  UNL     1      15.419   7.803 -30.105  1.00  0.00    -0.025 SA
BRANCH  19  20
HETATM   20  C12 UNL     1      16.931   8.628 -30.383  1.00  0.00     0.167 A 
HETATM   21  C13 UNL     1      17.613   8.989 -29.256  1.00  0.00     0.169 A 
HETATM   22  N9  UNL     1      17.071   8.678 -27.978  1.00  0.00    -0.079 NA
HETATM   23  N10 UNL     1      18.833   9.683 -29.359  1.00  0.00    -0.175 N 
HETATM   24  C14 UNL     1      19.425  10.049 -30.601  1.00  0.00     0.693 A 
ATOM     25  H10 UNL     1      19.318   9.937 -28.499  1.00  0.00     0.185 HD
HETATM   26  N11 UNL     1      20.546  10.686 -30.656  1.00  0.00    -0.233 N 
HETATM   27  N12 UNL     1      18.718   9.675 -31.765  1.00  0.00    -0.105 N 
ATOM     28 2H11 UNL     1      21.058  10.957 -29.815  1.00  0.00     0.174 HD
ATOM     29 1H11 UNL     1      20.971  10.949 -31.546  1.00  0.00     0.174 HD
HETATM   30  N13 UNL     1      17.483   8.970 -31.637  1.00  0.00    -0.139 N 
ATOM     31  H12 UNL     1      19.087   9.905 -32.688  1.00  0.00     0.208 HD
BRANCH  30  32
HETATM   32  O3  UNL     1      16.937   8.641 -32.826  1.00  0.00    -0.267 OA
ATOM     33  H3  UNL     1      17.285   8.907 -33.669  1.00  0.00     0.247 HD
ENDBRANCH  30  32
ENDBRANCH  19  20
ENDBRANCH  16  19
BRANCH  18  34
HETATM   34  N15 UNL     1      14.131   8.837 -32.769  1.00  0.00    -0.335 N 
ATOM     35 2H15 UNL     1      13.902   8.021 -33.335  1.00  0.00     0.177 HD
ATOM     36 1H15 UNL     1      14.895   9.367 -33.187  1.00  0.00     0.177 HD
ENDBRANCH  18  34
ENDBRANCH  11  12
BRANCH   1  37
HETATM   37  N2  UNL     1      10.323   8.360 -33.117  1.00  0.00    -0.342 N 
HETATM   38  C5  UNL     1      10.657   7.570 -34.292  1.00  0.00     0.154 C 
BRANCH  37  39
HETATM   39  C4  UNL     1       9.737   7.925 -31.922  1.00  0.00     0.259 C 
BRANCH  39  40
HETATM   40  C3  UNL     1      10.011   6.582 -31.356  1.00  0.00     0.300 C 
BRANCH  40  41
HETATM   41  C2  UNL     1       8.849   5.653 -31.301  1.00  0.00     0.157 C 
HETATM   42  C1  UNL     1       8.449   4.894 -30.086  1.00  0.00     0.093 C 
HETATM   43  O1  UNL     1       8.125   5.457 -32.292  1.00  0.00    -0.296 OA
ENDBRANCH  40  41
BRANCH  40  44
HETATM   44  N1  UNL     1      10.285   6.836 -29.888  1.00  0.00    -0.064 N 
ATOM     45  H13 UNL     1       9.501   6.644 -29.264  1.00  0.00     0.275 HD
ATOM     46  H12 UNL     1      10.924   6.175 -29.448  1.00  0.00     0.275 HD
ATOM     47  H11 UNL     1      10.603   7.805 -29.895  1.00  0.00     0.275 HD
ENDBRANCH  40  44
ENDBRANCH  39  40
BRANCH  39  48
HETATM   48  O2  UNL     1       8.328   8.134 -32.004  1.00  0.00    -0.374 OA
ATOM     49  H2  UNL     1       8.083   8.320 -32.902  1.00  0.00     0.212 HD
ENDBRANCH  39  48
ENDBRANCH  37  39
ENDBRANCH   1  37
BRANCH   4  50
HETATM   50  N4  UNL     1       9.495  12.392 -35.382  1.00  0.00    -0.234 N 
ATOM     51  H42 UNL     1       8.763  13.036 -35.082  1.00  0.00     0.174 HD
ATOM     52  H41 UNL     1       9.705  12.257 -36.371  1.00  0.00     0.174 HD
ENDBRANCH   4  50
TORSDOF 12
ENDMDL
MODEL 3
REMARK VINA RESULT: -7.462075336      2.657      4.411
REMARK  12 active torsions:
REMARK  status: ('A' for Active; 'I' for Inactive)
REMARK    1  A    between atoms: C2_2  and  C3_4 
REMARK    2  A    between atoms: C3_4  and  N1_5 
REMARK    3  A    between atoms: C3_4  and  C4_9 
REMARK    4  A    between atoms: C4_9  and  O2_10 
REMARK    5  A    between atoms: C4_9  and  N2_12 
REMARK    6  A    between atoms: N2_12  and  C6_14 
REMARK    7  A    between atoms: C7_17  and  N4_18 
REMARK    8  A    between atoms: C9_27  and  C10_28 
REMARK    9  A    between atoms: C11_33  and  S1_34 
REMARK   10  A    between atoms: S1_34  and  C12_35 
REMARK   11  A    between atoms: N13_46  and  O3_47 
REMARK   12  A    between atoms: N14_49  and  N15_50 
ROOT
HETATM    1  C6  UNL     1      10.849   8.162 -32.735  1.00  0.00     0.138 A 
HETATM    2  N3  UNL     1       9.824   7.576 -33.424  1.00  0.00    -0.176 N 
ATOM      3  H3  UNL     1       9.704   7.801 -34.411  1.00  0.00     0.186 HD
HETATM    4  C7  UNL     1       8.977   6.720 -32.854  1.00  0.00     0.679 A 
HETATM    5  N5  UNL     1       9.094   6.390 -31.554  1.00  0.00    -0.176 N 
ATOM      6  H5  UNL     1       8.448   5.735 -31.113  1.00  0.00     0.186 HD
HETATM    7  C8  UNL     1      10.091   6.954 -30.865  1.00  0.00     0.132 A 
HETATM    8  N6  UNL     1      10.233   6.664 -29.629  1.00  0.00    -0.384 N 
ATOM      9  H61 UNL     1      10.994   7.094 -29.103  1.00  0.00     0.157 HD
ATOM     10  H62 UNL     1       9.569   6.006 -29.219  1.00  0.00     0.157 HD
HETATM   11  C9  UNL     1      11.005   7.861 -31.428  1.00  0.00     0.100 A 
ENDROOT
BRANCH  11  12
HETATM   12  C10 UNL     1      12.055   8.418 -30.557  1.00  0.00     0.161 A 
HETATM   13  N7  UNL     1      11.967   9.543 -29.819  1.00  0.00    -0.281 N 
HETATM   14  N8  UNL     1      13.111   9.724 -29.190  1.00  0.00    -0.276 N 
ATOM     15  H7  UNL     1      11.152  10.153 -29.758  1.00  0.00     0.188 HD
HETATM   16  C11 UNL     1      13.985   8.750 -29.479  1.00  0.00     0.188 A 
ATOM     17  H8  UNL     1      13.307  10.506 -28.564  1.00  0.00     0.189 HD
HETATM   18  N14 UNL     1      13.279   7.939 -30.349  1.00  0.00    -0.220 N 
BRANCH  16  19
HETATM   19  S1  UNL     1      15.644   8.437 -28.964  1.00  0.00    -0.025 SA
BRANCH  19  20
HETATM   20  C12 UNL     1      16.921   8.999 -30.010  1.00  0.00     0.167 A 
HETATM   21  C13 UNL     1      18.024   9.489 -29.372  1.00  0.00     0.169 A 
HETATM   22  N9  UNL     1      18.062   9.506 -27.950  1.00  0.00    -0.079 NA
HETATM   23  N10 UNL     1      19.107   9.994 -30.116  1.00  0.00    -0.175 N 
HETATM   24  C14 UNL     1      19.131  10.033 -31.539  1.00  0.00     0.693 A 
ATOM     25  H10 UNL     1      19.916  10.352 -29.610  1.00  0.00     0.185 HD
HETATM   26  N11 UNL     1      20.143  10.504 -32.187  1.00  0.00    -0.233 N 
HETATM   27  N12 UNL     1      17.989   9.525 -32.197  1.00  0.00    -0.105 N 
ATOM     28 2H11 UNL     1      20.968  10.871 -31.712  1.00  0.00     0.174 HD
ATOM     29 1H11 UNL     1      20.160  10.532 -33.207  1.00  0.00     0.174 HD
HETATM   30  N13 UNL     1      16.903   9.016 -31.423  1.00  0.00    -0.139 N 
ATOM     31  H12 UNL     1      17.941   9.522 -33.217  1.00  0.00     0.208 HD
BRANCH  30  32
HETATM   32  O3  UNL     1      15.898   8.528 -32.179  1.00  0.00    -0.267 OA
ATOM     33  H3  UNL     1      15.304   7.841 -31.902  1.00  0.00     0.247 HD
ENDBRANCH  30  32
ENDBRANCH  19  20
ENDBRANCH  16  19
BRANCH  18  34
HETATM   34  N15 UNL     1      13.833   6.786 -30.918  1.00  0.00    -0.335 N 
ATOM     35 2H15 UNL     1      14.191   6.766 -31.872  1.00  0.00     0.177 HD
ATOM     36 1H15 UNL     1      13.931   5.874 -30.474  1.00  0.00     0.177 HD
ENDBRANCH  18  34
ENDBRANCH  11  12
BRANCH   1  37
HETATM   37  N2  UNL     1      11.708   9.082 -33.451  1.00  0.00    -0.342 N 
HETATM   38  C5  UNL     1      11.499  10.472 -33.081  1.00  0.00     0.154 C 
BRANCH  37  39
HETATM   39  C4  UNL     1      12.585   8.567 -34.415  1.00  0.00     0.259 C 
BRANCH  39  40
HETATM   40  C3  UNL     1      12.122   7.667 -35.498  1.00  0.00     0.300 C 
BRANCH  40  41
HETATM   41  C2  UNL     1      13.192   7.019 -36.305  1.00  0.00     0.157 C 
HETATM   42  C1  UNL     1      13.445   7.316 -37.740  1.00  0.00     0.093 C 
HETATM   43  O1  UNL     1      13.959   6.175 -35.810  1.00  0.00    -0.296 OA
ENDBRANCH  40  41
BRANCH  40  44
HETATM   44  N1  UNL     1      11.475   8.590 -36.510  1.00  0.00    -0.064 N 
ATOM     45  H13 UNL     1      11.856   8.529 -37.455  1.00  0.00     0.275 HD
ATOM     46  H12 UNL     1      10.522   8.341 -36.774  1.00  0.00     0.275 HD
ATOM     47  H11 UNL     1      11.575   9.501 -36.063  1.00  0.00     0.275 HD
ENDBRANCH  40  44
ENDBRANCH  39  40
BRANCH  39  48
HETATM   48  O2  UNL     1      13.702   7.981 -33.748  1.00  0.00    -0.374 OA
ATOM     49  H2  UNL     1      13.396   7.405 -33.058  1.00  0.00     0.212 HD
ENDBRANCH  39  48
ENDBRANCH  37  39
ENDBRANCH   1  37
BRANCH   4  50
HETATM   50  N4  UNL     1       8.016   6.178 -33.521  1.00  0.00    -0.234 N 
ATOM     51  H42 UNL     1       7.094   6.611 -33.455  1.00  0.00     0.174 HD
ATOM     52  H41 UNL     1       8.167   5.348 -34.094  1.00  0.00     0.174 HD
ENDBRANCH   4  50
TORSDOF 12
ENDMDL
MODEL 4
REMARK VINA RESULT: -7.259217128      2.695      4.437
REMARK  12 active torsions:
REMARK  status: ('A' for Active; 'I' for Inactive)
REMARK    1  A    between atoms: C2_2  and  C3_4 
REMARK    2  A    between atoms: C3_4  and  N1_5 
REMARK    3  A    between atoms: C3_4  and  C4_9 
REMARK    4  A    between atoms: C4_9  and  O2_10 
REMARK    5  A    between atoms: C4_9  and  N2_12 
REMARK    6  A    between atoms: N2_12  and  C6_14 
REMARK    7  A    between atoms: C7_17  and  N4_18 
REMARK    8  A    between atoms: C9_27  and  C10_28 
REMARK    9  A    between atoms: C11_33  and  S1_34 
REMARK   10  A    between atoms: S1_34  and  C12_35 
REMARK   11  A    between atoms: N13_46  and  O3_47 
REMARK   12  A    between atoms: N14_49  and  N15_50 
ROOT
HETATM    1  C6  UNL     1      10.709   8.170 -32.619  1.00  0.00     0.138 A 
HETATM    2  N3  UNL     1       9.722   7.563 -33.345  1.00  0.00    -0.176 N 
ATOM      3  H3  UNL     1       9.579   7.847 -34.313  1.00  0.00     0.186 HD
HETATM    4  C7  UNL     1       8.941   6.613 -32.833  1.00  0.00     0.679 A 
HETATM    5  N5  UNL     1       9.090   6.203 -31.560  1.00  0.00    -0.176 N 
ATOM      6  H5  UNL     1       8.494   5.476 -31.163  1.00  0.00     0.186 HD
HETATM    7  C8  UNL     1      10.051   6.786 -30.835  1.00  0.00     0.132 A 
HETATM    8  N6  UNL     1      10.222   6.421 -29.623  1.00  0.00    -0.384 N 
ATOM      9  H61 UNL     1      10.955   6.867 -29.070  1.00  0.00     0.157 HD
ATOM     10  H62 UNL     1       9.608   5.692 -29.258  1.00  0.00     0.157 HD
HETATM   11  C9  UNL     1      10.895   7.791 -31.337  1.00  0.00     0.100 A 
ENDROOT
BRANCH  11  12
HETATM   12  C10 UNL     1      11.910   8.359 -30.431  1.00  0.00     0.161 A 
HETATM   13  N7  UNL     1      11.765   9.446 -29.648  1.00  0.00    -0.281 N 
HETATM   14  N8  UNL     1      12.893   9.653 -29.000  1.00  0.00    -0.276 N 
ATOM     15  H7  UNL     1      10.921  10.015 -29.570  1.00  0.00     0.188 HD
HETATM   16  C11 UNL     1      13.814   8.733 -29.320  1.00  0.00     0.188 A 
ATOM     17  H8  UNL     1      13.047  10.415 -28.340  1.00  0.00     0.189 HD
HETATM   18  N14 UNL     1      13.153   7.928 -30.231  1.00  0.00    -0.220 N 
BRANCH  16  19
HETATM   19  S1  UNL     1      15.481   8.475 -28.801  1.00  0.00    -0.025 SA
BRANCH  19  20
HETATM   20  C12 UNL     1      16.741   9.049 -29.860  1.00  0.00     0.167 A 
HETATM   21  C13 UNL     1      17.897   9.429 -29.239  1.00  0.00     0.169 A 
HETATM   22  N9  UNL     1      17.996   9.332 -27.823  1.00  0.00    -0.079 NA
HETATM   23  N10 UNL     1      18.973   9.933 -29.992  1.00  0.00    -0.175 N 
HETATM   24  C14 UNL     1      18.939  10.082 -31.408  1.00  0.00     0.693 A 
ATOM     25  H10 UNL     1      19.822  10.207 -29.498  1.00  0.00     0.185 HD
HETATM   26  N11 UNL     1      19.947  10.549 -32.065  1.00  0.00    -0.233 N 
HETATM   27  N12 UNL     1      17.744   9.688 -32.048  1.00  0.00    -0.105 N 
ATOM     28 2H11 UNL     1      20.811  10.833 -31.602  1.00  0.00     0.174 HD
ATOM     29 1H11 UNL     1      19.922  10.655 -33.079  1.00  0.00     0.174 HD
HETATM   30  N13 UNL     1      16.664   9.178 -31.265  1.00  0.00    -0.139 N 
ATOM     31  H12 UNL     1      17.652   9.768 -33.061  1.00  0.00     0.208 HD
BRANCH  30  32
HETATM   32  O3  UNL     1      15.602   8.805 -32.008  1.00  0.00    -0.267 OA
ATOM     33  H3  UNL     1      15.616   8.105 -32.649  1.00  0.00     0.247 HD
ENDBRANCH  30  32
ENDBRANCH  19  20
ENDBRANCH  16  19
BRANCH  18  34
HETATM   34  N15 UNL     1      13.766   6.827 -30.841  1.00  0.00    -0.335 N 
ATOM     35 2H15 UNL     1      13.386   5.884 -30.773  1.00  0.00     0.177 HD
ATOM     36 1H15 UNL     1      14.625   6.834 -31.390  1.00  0.00     0.177 HD
ENDBRANCH  18  34
ENDBRANCH  11  12
BRANCH   1  37
HETATM   37  N2  UNL     1      11.497   9.195 -33.272  1.00  0.00    -0.342 N 
HETATM   38  C5  UNL     1      12.698   8.678 -33.908  1.00  0.00     0.154 C 
BRANCH  37  39
HETATM   39  C4  UNL     1      11.065  10.525 -33.195  1.00  0.00     0.259 C 
BRANCH  39  40
HETATM   40  C3  UNL     1       9.834  10.992 -33.878  1.00  0.00     0.300 C 
BRANCH  40  41
HETATM   41  C2  UNL     1       9.890  11.021 -35.364  1.00  0.00     0.157 C 
HETATM   42  C1  UNL     1       9.506   9.876 -36.233  1.00  0.00     0.093 C 
HETATM   43  O1  UNL     1      10.264  12.033 -35.982  1.00  0.00    -0.296 OA
ENDBRANCH  40  41
BRANCH  40  44
HETATM   44  N1  UNL     1       9.744  12.465 -33.533  1.00  0.00    -0.064 N 
ATOM     45  H13 UNL     1       8.802  12.855 -33.552  1.00  0.00     0.275 HD
ATOM     46  H12 UNL     1       9.923  12.690 -32.555  1.00  0.00     0.275 HD
ATOM     47  H11 UNL     1      10.396  12.880 -34.198  1.00  0.00     0.275 HD
ENDBRANCH  40  44
ENDBRANCH  39  40
BRANCH  39  48
HETATM   48  O2  UNL     1      12.156  11.379 -33.533  1.00  0.00    -0.374 OA
ATOM     49  H2  UNL     1      12.838  10.873 -33.959  1.00  0.00     0.212 HD
ENDBRANCH  39  48
ENDBRANCH  37  39
ENDBRANCH   1  37
BRANCH   4  50
HETATM   50  N4  UNL     1       8.015   6.052 -33.533  1.00  0.00    -0.234 N 
ATOM     51  H42 UNL     1       7.270   6.650 -33.894  1.00  0.00     0.174 HD
ATOM     52  H41 UNL     1       8.022   5.050 -33.722  1.00  0.00     0.174 HD
ENDBRANCH   4  50
TORSDOF 12
ENDMDL
MODEL 5
REMARK VINA RESULT: -6.926010364      3.017      4.850
REMARK  12 active torsions:
REMARK  status: ('A' for Active; 'I' for Inactive)
REMARK    1  A    between atoms: C2_2  and  C3_4 
REMARK    2  A    between atoms: C3_4  and  N1_5 
REMARK    3  A    between atoms: C3_4  and  C4_9 
REMARK    4  A    between atoms: C4_9  and  O2_10 
REMARK    5  A    between atoms: C4_9  and  N2_12 
REMARK    6  A    between atoms: N2_12  and  C6_14 
REMARK    7  A    between atoms: C7_17  and  N4_18 
REMARK    8  A    between atoms: C9_27  and  C10_28 
REMARK    9  A    between atoms: C11_33  and  S1_34 
REMARK   10  A    between atoms: S1_34  and  C12_35 
REMARK   11  A    between atoms: N13_46  and  O3_47 
REMARK   12  A    between atoms: N14_49  and  N15_50 
ROOT
HETATM    1  C6  UNL     1       6.249   7.863 -35.087  1.00  0.00     0.138 A 
HETATM    2  N3  UNL     1       5.697   7.738 -36.333  1.00  0.00    -0.176 N 
ATOM      3  H3  UNL     1       4.805   7.254 -36.428  1.00  0.00     0.186 HD
HETATM    4  C7  UNL     1       6.284   8.225 -37.425  1.00  0.00     0.679 A 
HETATM    5  N5  UNL     1       7.461   8.873 -37.351  1.00  0.00    -0.176 N 
ATOM      6  H5  UNL     1       7.914   9.248 -38.185  1.00  0.00     0.186 HD
HETATM    7  C8  UNL     1       8.014   9.005 -36.141  1.00  0.00     0.132 A 
HETATM    8  N6  UNL     1       9.131   9.615 -36.033  1.00  0.00    -0.384 N 
ATOM      9  H61 UNL     1       9.553   9.716 -35.109  1.00  0.00     0.157 HD
ATOM     10  H62 UNL     1       9.556   9.977 -36.886  1.00  0.00     0.157 HD
HETATM   11  C9  UNL     1       7.429   8.506 -34.965  1.00  0.00     0.100 A 
ENDROOT
BRANCH  11  12
HETATM   12  C10 UNL     1       8.146   8.711 -33.694  1.00  0.00     0.161 A 
HETATM   13  N7  UNL     1       8.106   9.817 -32.922  1.00  0.00    -0.281 N 
HETATM   14  N8  UNL     1       8.891   9.632 -31.880  1.00  0.00    -0.276 N 
ATOM     15  H7  UNL     1       7.559  10.656 -33.114  1.00  0.00     0.188 HD
HETATM   16  C11 UNL     1       9.472   8.425 -31.916  1.00  0.00     0.188 A 
ATOM     17  H8  UNL     1       9.037  10.319 -31.140  1.00  0.00     0.189 HD
HETATM   18  N14 UNL     1       8.975   7.869 -33.082  1.00  0.00    -0.220 N 
BRANCH  16  19
HETATM   19  S1  UNL     1      10.601   7.605 -30.834  1.00  0.00    -0.025 SA
BRANCH  19  20
HETATM   20  C12 UNL     1      12.210   8.265 -30.716  1.00  0.00     0.167 A 
HETATM   21  C13 UNL     1      12.645   8.517 -29.446  1.00  0.00     0.169 A 
HETATM   22  N9  UNL     1      11.793   8.232 -28.343  1.00  0.00    -0.079 NA
HETATM   23  N10 UNL     1      13.919   9.074 -29.232  1.00  0.00    -0.175 N 
HETATM   24  C14 UNL     1      14.818   9.408 -30.285  1.00  0.00     0.693 A 
ATOM     25  H10 UNL     1      14.215   9.249 -28.272  1.00  0.00     0.185 HD
HETATM   26  N11 UNL     1      15.979   9.919 -30.049  1.00  0.00    -0.233 N 
HETATM   27  N12 UNL     1      14.366   9.148 -31.597  1.00  0.00    -0.105 N 
ATOM     28 2H11 UNL     1      16.306  10.108 -29.101  1.00  0.00     0.174 HD
ATOM     29 1H11 UNL     1      16.623  10.159 -30.804  1.00  0.00     0.174 HD
HETATM   30  N13 UNL     1      13.070   8.581 -31.792  1.00  0.00    -0.139 N 
ATOM     31  H12 UNL     1      14.960   9.363 -32.399  1.00  0.00     0.208 HD
BRANCH  30  32
HETATM   32  O3  UNL     1      12.785   8.348 -33.090  1.00  0.00    -0.267 OA
ATOM     33  H3  UNL     1      13.411   8.028 -33.728  1.00  0.00     0.247 HD
ENDBRANCH  30  32
ENDBRANCH  19  20
ENDBRANCH  16  19
BRANCH  18  34
HETATM   34  N15 UNL     1       9.342   6.591 -33.519  1.00  0.00    -0.335 N 
ATOM     35 2H15 UNL     1       9.590   6.396 -34.489  1.00  0.00     0.177 HD
ATOM     36 1H15 UNL     1       9.392   5.744 -32.953  1.00  0.00     0.177 HD
ENDBRANCH  18  34
ENDBRANCH  11  12
BRANCH   1  37
HETATM   37  N2  UNL     1       5.529   7.292 -33.968  1.00  0.00    -0.342 N 
HETATM   38  C5  UNL     1       5.892   5.910 -33.697  1.00  0.00     0.154 C 
BRANCH  37  39
HETATM   39  C4  UNL     1       4.571   8.077 -33.315  1.00  0.00     0.259 C 
BRANCH  39  40
HETATM   40  C3  UNL     1       3.440   8.704 -34.042  1.00  0.00     0.300 C 
BRANCH  40  41
HETATM   41  C2  UNL     1       3.593  10.151 -34.353  1.00  0.00     0.157 C 
HETATM   42  C1  UNL     1       2.669  11.208 -33.862  1.00  0.00     0.093 C 
HETATM   43  O1  UNL     1       4.528  10.570 -35.057  1.00  0.00    -0.296 OA
ENDBRANCH  40  41
BRANCH  40  44
HETATM   44  N1  UNL     1       2.302   8.711 -33.042  1.00  0.00    -0.064 N 
ATOM     45  H13 UNL     1       1.708   7.882 -33.060  1.00  0.00     0.275 HD
ATOM     46  H12 UNL     1       2.584   8.607 -32.068  1.00  0.00     0.275 HD
ATOM     47  H11 UNL     1       1.829   9.587 -33.264  1.00  0.00     0.275 HD
ENDBRANCH  40  44
ENDBRANCH  39  40
BRANCH  39  48
HETATM   48  O2  UNL     1       5.245   9.062 -32.534  1.00  0.00    -0.374 OA
ATOM     49  H2  UNL     1       4.666   9.381 -31.851  1.00  0.00     0.212 HD
ENDBRANCH  39  48
ENDBRANCH  37  39
ENDBRANCH   1  37
BRANCH   4  50
HETATM   50  N4  UNL     1       5.748   8.096 -38.591  1.00  0.00    -0.234 N 
ATOM     51  H42 UNL     1       4.805   7.710 -38.636  1.00  0.00     0.174 HD
ATOM     52  H41 UNL     1       6.246   8.367 -39.439  1.00  0.00     0.174 HD
ENDBRANCH   4  50
TORSDOF 12
ENDMDL
