MODEL 1
REMARK VINA RESULT: -6.845924781      0.000      0.000
REMARK  5 active torsions:
REMARK  status: ('A' for Active; 'I' for Inactive)
REMARK    1  A    between atoms: C2_2  and  S1_3 
REMARK    2  A    between atoms: S1_3  and  C3_4 
REMARK    3  A    between atoms: C8_10  and  N1_11 
REMARK    4  A    between atoms: C9_12  and  O1_13 
REMARK    5  A    between atoms: C10_15  and  C11_16 
ROOT
HETATM    1  N1  UNL     1     -15.424   8.490  -8.368  1.00  0.00    -0.251 N 
HETATM    2  C9  UNL     1     -16.361   9.221  -8.952  1.00  0.00     0.164 A 
HETATM    3  C10 UNL     1     -17.614   9.195  -8.411  1.00  0.00     0.047 A 
HETATM    4  S2  UNL     1     -17.426   8.136  -7.091  1.00  0.00    -0.028 SA
HETATM    5  C15 UNL     1     -15.774   7.783  -7.295  1.00  0.00     0.297 A 
HETATM    6  O2  UNL     1     -15.021   7.013  -6.586  1.00  0.00    -0.259 OA
ENDROOT
BRANCH   1   7
HETATM    7  C8  UNL     1     -14.029   8.410  -8.827  1.00  0.00     0.062 A 
HETATM    8  C3  UNL     1     -13.657   7.337  -9.607  1.00  0.00     0.029 A 
HETATM    9  C4  UNL     1     -12.339   7.307 -10.011  1.00  0.00     0.040 A 
HETATM   10  C5  UNL     1     -11.442   8.291  -9.658  1.00  0.00     0.012 A 
HETATM   11 BR1  UNL     1      -9.614   8.247 -10.223  1.00  0.00    -0.051 Br
HETATM   12  C6  UNL     1     -11.843   9.336  -8.887  1.00  0.00     0.021 A 
HETATM   13  C7  UNL     1     -13.152   9.408  -8.458  1.00  0.00     0.033 A 
BRANCH   8  14
HETATM   14  S1  UNL     1     -14.816   6.062 -10.062  1.00  0.00    -0.128 SA
BRANCH  14  15
HETATM   15  C2  UNL     1     -13.989   4.710 -10.949  1.00  0.00     0.075 C 
HETATM   16  C1  UNL     1     -14.535   3.359 -10.488  1.00  0.00     0.016 C 
ENDBRANCH  14  15
ENDBRANCH   8  14
ENDBRANCH   1   7
BRANCH   2  17
HETATM   17  O1  UNL     1     -16.096  10.021 -10.114  1.00  0.00    -0.345 OA
ATOM     18  H1  UNL     1     -16.662  10.011 -10.877  1.00  0.00     0.219 HD
ENDBRANCH   2  17
BRANCH   3  19
HETATM   19  C11 UNL     1     -18.845   9.936  -8.893  1.00  0.00    -0.013 C 
HETATM   20  C12 UNL     1     -20.024   9.305  -8.201  1.00  0.00     0.020 C 
HETATM   21  C13 UNL     1     -18.679  11.394  -8.632  1.00  0.00     0.020 C 
HETATM   22  C14 UNL     1     -19.045   9.699 -10.385  1.00  0.00     0.020 C 
ENDBRANCH   3  19
TORSDOF 5
ENDMDL
MODEL 2
REMARK VINA RESULT: -6.624217945      1.573      3.007
REMARK  5 active torsions:
REMARK  status: ('A' for Active; 'I' for Inactive)
REMARK    1  A    between atoms: C2_2  and  S1_3 
REMARK    2  A    between atoms: S1_3  and  C3_4 
REMARK    3  A    between atoms: C8_10  and  N1_11 
REMARK    4  A    between atoms: C9_12  and  O1_13 
REMARK    5  A    between atoms: C10_15  and  C11_16 
ROOT
HETATM    1  N1  UNL     1     -15.625   8.059  -8.880  1.00  0.00    -0.251 N 
HETATM    2  C9  UNL     1     -16.476   9.023  -9.194  1.00  0.00     0.164 A 
HETATM    3  C10 UNL     1     -17.783   8.854  -8.835  1.00  0.00     0.047 A 
HETATM    4  S2  UNL     1     -17.763   7.336  -8.064  1.00  0.00    -0.028 SA
HETATM    5  C15 UNL     1     -16.105   6.996  -8.237  1.00  0.00     0.297 A 
HETATM    6  O2  UNL     1     -15.451   5.957  -7.844  1.00  0.00    -0.259 OA
ENDROOT
BRANCH   1   7
HETATM    7  C8  UNL     1     -14.188   8.088  -9.194  1.00  0.00     0.062 A 
HETATM    8  C3  UNL     1     -13.323   8.612  -8.258  1.00  0.00     0.029 A 
HETATM    9  C4  UNL     1     -11.987   8.617  -8.599  1.00  0.00     0.040 A 
HETATM   10  C5  UNL     1     -11.538   8.129  -9.807  1.00  0.00     0.012 A 
HETATM   11 BR1  UNL     1      -9.683   8.137 -10.276  1.00  0.00    -0.051 Br
HETATM   12  C6  UNL     1     -12.419   7.619 -10.708  1.00  0.00     0.021 A 
HETATM   13  C7  UNL     1     -13.765   7.593 -10.410  1.00  0.00     0.033 A 
BRANCH   8  14
HETATM   14  S1  UNL     1     -13.904   9.245  -6.696  1.00  0.00    -0.128 SA
BRANCH  14  15
HETATM   15  C2  UNL     1     -14.369  10.996  -6.831  1.00  0.00     0.075 C 
HETATM   16  C1  UNL     1     -15.747  11.230  -6.213  1.00  0.00     0.016 C 
ENDBRANCH  14  15
ENDBRANCH   8  14
ENDBRANCH   1   7
BRANCH   2  17
HETATM   17  O1  UNL     1     -16.068  10.212  -9.886  1.00  0.00    -0.345 OA
ATOM     18  H1  UNL     1     -15.761  10.196 -10.785  1.00  0.00     0.219 HD
ENDBRANCH   2  17
BRANCH   3  19
HETATM   19  C11 UNL     1     -18.939   9.803  -9.081  1.00  0.00    -0.013 C 
HETATM   20  C12 UNL     1     -20.133   9.216  -8.376  1.00  0.00     0.020 C 
HETATM   21  C13 UNL     1     -18.561  11.172  -8.628  1.00  0.00     0.020 C 
HETATM   22  C14 UNL     1     -19.285   9.829 -10.565  1.00  0.00     0.020 C 
ENDBRANCH   3  19
TORSDOF 5
ENDMDL
MODEL 3
REMARK VINA RESULT: -6.600663440      2.728      4.471
REMARK  5 active torsions:
REMARK  status: ('A' for Active; 'I' for Inactive)
REMARK    1  A    between atoms: C2_2  and  S1_3 
REMARK    2  A    between atoms: S1_3  and  C3_4 
REMARK    3  A    between atoms: C8_10  and  N1_11 
REMARK    4  A    between atoms: C9_12  and  O1_13 
REMARK    5  A    between atoms: C10_15  and  C11_16 
ROOT
HETATM    1  N1  UNL     1     -15.124   7.720  -8.837  1.00  0.00    -0.251 N 
HETATM    2  C9  UNL     1     -15.164   7.573  -7.521  1.00  0.00     0.164 A 
HETATM    3  C10 UNL     1     -15.631   8.621  -6.782  1.00  0.00     0.047 A 
HETATM    4  S2  UNL     1     -15.998   9.782  -7.973  1.00  0.00    -0.028 SA
HETATM    5  C15 UNL     1     -15.541   8.879  -9.341  1.00  0.00     0.297 A 
HETATM    6  O2  UNL     1     -15.582   9.223 -10.583  1.00  0.00    -0.259 OA
ENDROOT
BRANCH   1   7
HETATM    7  C8  UNL     1     -14.649   6.688  -9.771  1.00  0.00     0.062 A 
HETATM    8  C3  UNL     1     -13.367   6.791 -10.265  1.00  0.00     0.029 A 
HETATM    9  C4  UNL     1     -12.969   5.800 -11.137  1.00  0.00     0.040 A 
HETATM   10  C5  UNL     1     -13.802   4.764 -11.498  1.00  0.00     0.012 A 
HETATM   11 BR1  UNL     1     -13.245   3.389 -12.706  1.00  0.00    -0.051 Br
HETATM   12  C6  UNL     1     -15.062   4.693 -10.991  1.00  0.00     0.021 A 
HETATM   13  C7  UNL     1     -15.504   5.662 -10.115  1.00  0.00     0.033 A 
BRANCH   8  14
HETATM   14  S1  UNL     1     -12.289   8.133  -9.800  1.00  0.00    -0.128 SA
BRANCH  14  15
HETATM   15  C2  UNL     1     -11.472   8.851 -11.255  1.00  0.00     0.075 C 
HETATM   16  C1  UNL     1     -12.513   9.315 -12.275  1.00  0.00     0.016 C 
ENDBRANCH  14  15
ENDBRANCH   8  14
ENDBRANCH   1   7
BRANCH   2  17
HETATM   17  O1  UNL     1     -14.740   6.367  -6.871  1.00  0.00    -0.345 OA
ATOM     18  H1  UNL     1     -14.383   6.363  -5.990  1.00  0.00     0.219 HD
ENDBRANCH   2  17
BRANCH   3  19
HETATM   19  C11 UNL     1     -15.772   8.700  -5.275  1.00  0.00    -0.013 C 
HETATM   20  C12 UNL     1     -15.769  10.163  -4.919  1.00  0.00     0.020 C 
HETATM   21  C13 UNL     1     -16.996   7.961  -4.853  1.00  0.00     0.020 C 
HETATM   22  C14 UNL     1     -14.546   8.091  -4.604  1.00  0.00     0.020 C 
ENDBRANCH   3  19
TORSDOF 5
ENDMDL
MODEL 4
REMARK VINA RESULT: -6.578400005      2.391      4.187
REMARK  5 active torsions:
REMARK  status: ('A' for Active; 'I' for Inactive)
REMARK    1  A    between atoms: C2_2  and  S1_3 
REMARK    2  A    between atoms: S1_3  and  C3_4 
REMARK    3  A    between atoms: C8_10  and  N1_11 
REMARK    4  A    between atoms: C9_12  and  O1_13 
REMARK    5  A    between atoms: C10_15  and  C11_16 
ROOT
HETATM    1  N1  UNL     1     -15.380   8.166  -9.697  1.00  0.00    -0.251 N 
HETATM    2  C9  UNL     1     -15.626   6.919  -9.322  1.00  0.00     0.164 A 
HETATM    3  C10 UNL     1     -16.913   6.600  -8.996  1.00  0.00     0.047 A 
HETATM    4  S2  UNL     1     -17.732   8.074  -9.230  1.00  0.00    -0.028 SA
HETATM    5  C15 UNL     1     -16.404   9.015  -9.728  1.00  0.00     0.297 A 
HETATM    6  O2  UNL     1     -16.379  10.260 -10.059  1.00  0.00    -0.259 OA
ENDROOT
BRANCH   1   7
HETATM    7  C8  UNL     1     -14.051   8.668 -10.079  1.00  0.00     0.062 A 
HETATM    8  C3  UNL     1     -13.175   9.030  -9.079  1.00  0.00     0.029 A 
HETATM    9  C4  UNL     1     -11.943   9.494  -9.489  1.00  0.00     0.040 A 
HETATM   10  C5  UNL     1     -11.602   9.593 -10.820  1.00  0.00     0.012 A 
HETATM   11 BR1  UNL     1      -9.891  10.236 -11.385  1.00  0.00    -0.051 Br
HETATM   12  C6  UNL     1     -12.492   9.227 -11.781  1.00  0.00     0.021 A 
HETATM   13  C7  UNL     1     -13.736   8.757 -11.420  1.00  0.00     0.033 A 
BRANCH   8  14
HETATM   14  S1  UNL     1     -13.615   8.904  -7.357  1.00  0.00    -0.128 SA
BRANCH  14  15
HETATM   15  C2  UNL     1     -14.568  10.353  -6.817  1.00  0.00     0.075 C 
HETATM   16  C1  UNL     1     -15.873   9.913  -6.152  1.00  0.00     0.016 C 
ENDBRANCH  14  15
ENDBRANCH   8  14
ENDBRANCH   1   7
BRANCH   2  17
HETATM   17  O1  UNL     1     -14.598   5.922  -9.253  1.00  0.00    -0.345 OA
ATOM     18  H1  UNL     1     -14.152   5.707  -8.442  1.00  0.00     0.219 HD
ENDBRANCH   2  17
BRANCH   3  19
HETATM   19  C11 UNL     1     -17.445   5.256  -8.539  1.00  0.00    -0.013 C 
HETATM   20  C12 UNL     1     -16.875   4.227  -9.478  1.00  0.00     0.020 C 
HETATM   21  C13 UNL     1     -17.098   5.049  -7.104  1.00  0.00     0.020 C 
HETATM   22  C14 UNL     1     -18.958   5.208  -8.715  1.00  0.00     0.020 C 
ENDBRANCH   3  19
TORSDOF 5
ENDMDL
MODEL 5
REMARK VINA RESULT: -6.506293555      2.491      4.414
REMARK  5 active torsions:
REMARK  status: ('A' for Active; 'I' for Inactive)
REMARK    1  A    between atoms: C2_2  and  S1_3 
REMARK    2  A    between atoms: S1_3  and  C3_4 
REMARK    3  A    between atoms: C8_10  and  N1_11 
REMARK    4  A    between atoms: C9_12  and  O1_13 
REMARK    5  A    between atoms: C10_15  and  C11_16 
ROOT
HETATM    1  N1  UNL     1     -15.150   7.643  -8.841  1.00  0.00    -0.251 N 
HETATM    2  C9  UNL     1     -15.214   7.499  -7.526  1.00  0.00     0.164 A 
HETATM    3  C10 UNL     1     -15.622   8.575  -6.792  1.00  0.00     0.047 A 
HETATM    4  S2  UNL     1     -15.902   9.755  -7.987  1.00  0.00    -0.028 SA
HETATM    5  C15 UNL     1     -15.488   8.825  -9.350  1.00  0.00     0.297 A 
HETATM    6  O2  UNL     1     -15.494   9.170 -10.592  1.00  0.00    -0.259 OA
ENDROOT
BRANCH   1   7
HETATM    7  C8  UNL     1     -14.731   6.582  -9.771  1.00  0.00     0.062 A 
HETATM    8  C3  UNL     1     -15.629   5.582 -10.070  1.00  0.00     0.029 A 
HETATM    9  C4  UNL     1     -15.189   4.611 -10.945  1.00  0.00     0.040 A 
HETATM   10  C5  UNL     1     -13.924   4.635 -11.491  1.00  0.00     0.012 A 
HETATM   11 BR1  UNL     1     -13.318   3.287 -12.706  1.00  0.00    -0.051 Br
HETATM   12  C6  UNL     1     -13.063   5.638 -11.173  1.00  0.00     0.021 A 
HETATM   13  C7  UNL     1     -13.458   6.630 -10.301  1.00  0.00     0.033 A 
BRANCH   8  14
HETATM   14  S1  UNL     1     -17.265   5.549  -9.364  1.00  0.00    -0.128 SA
BRANCH  14  15
HETATM   15  C2  UNL     1     -18.371   6.712 -10.216  1.00  0.00     0.075 C 
HETATM   16  C1  UNL     1     -19.030   7.654  -9.209  1.00  0.00     0.016 C 
ENDBRANCH  14  15
ENDBRANCH   8  14
ENDBRANCH   1   7
BRANCH   2  17
HETATM   17  O1  UNL     1     -14.872   6.269  -6.871  1.00  0.00    -0.345 OA
ATOM     18  H1  UNL     1     -14.033   6.136  -6.447  1.00  0.00     0.219 HD
ENDBRANCH   2  17
BRANCH   3  19
HETATM   19  C11 UNL     1     -15.774   8.664  -5.287  1.00  0.00    -0.013 C 
HETATM   20  C12 UNL     1     -15.750  10.128  -4.938  1.00  0.00     0.020 C 
HETATM   21  C13 UNL     1     -17.013   7.946  -4.871  1.00  0.00     0.020 C 
HETATM   22  C14 UNL     1     -14.563   8.039  -4.603  1.00  0.00     0.020 C 
ENDBRANCH   3  19
TORSDOF 5
ENDMDL
