MODEL 1
REMARK VINA RESULT: -3.245036420      0.000      0.000
REMARK  4 active torsions:
REMARK  status: ('A' for Active; 'I' for Inactive)
REMARK    1  A    between atoms: C3_4  and  C4_5 
REMARK    2  A    between atoms: C5_6  and  C6_7 
REMARK    3  A    between atoms: C17_19  and  N2_20 
REMARK    4  A    between atoms: N2_20  and  C18_22 
ROOT
HETATM    1 CL1  UNL     1      12.879   2.038 -20.583  1.00  0.00    -0.082 Cl
HETATM    2  C1  UNL     1      12.220   0.428 -20.769  1.00  0.00     0.061 A 
HETATM    3  C2  UNL     1      12.551  -0.322 -21.883  1.00  0.00     0.037 A 
HETATM    4  C3  UNL     1      12.069  -1.603 -22.100  1.00  0.00    -0.035 A 
HETATM    5  C15 UNL     1      11.211  -2.147 -21.140  1.00  0.00     0.014 A 
HETATM    6  C16 UNL     1      10.870  -1.421 -20.029  1.00  0.00     0.032 A 
HETATM    7  C17 UNL     1      11.371  -0.136 -19.839  1.00  0.00     0.050 A 
ENDROOT
BRANCH   4   8
HETATM    8  C4  UNL     1      12.392  -2.408 -23.247  1.00  0.00     0.008 C 
HETATM    9  C5  UNL     1      13.397  -3.240 -23.281  1.00  0.00    -0.019 C 
BRANCH   9  10
HETATM   10  C6  UNL     1      13.794  -4.094 -24.404  1.00  0.00     0.031 C 
HETATM   11  C7  UNL     1      14.498  -5.326 -23.908  1.00  0.00     0.015 C 
HETATM   12  C8  UNL     1      15.926  -5.082 -23.600  1.00  0.00     0.045 C 
HETATM   13  C9  UNL     1      16.492  -3.767 -23.974  1.00  0.00     0.058 C 
HETATM   14  N1  UNL     1      15.928  -3.058 -25.042  1.00  0.00    -0.388 N 
HETATM   15  C10 UNL     1      16.815  -2.746 -26.128  1.00  0.00     0.122 C 
HETATM   16  C14 UNL     1      14.593  -3.363 -25.445  1.00  0.00     0.091 C 
HETATM   17  C11 UNL     1      17.047  -3.992 -26.929  1.00  0.00     0.020 C 
HETATM   18  C12 UNL     1      15.821  -4.819 -27.109  1.00  0.00     0.004 C 
HETATM   19  C13 UNL     1      14.535  -4.127 -26.748  1.00  0.00     0.026 C 
ENDBRANCH   9  10
ENDBRANCH   4   8
BRANCH   7  20
HETATM   20  N2  UNL     1      11.009   0.617 -18.688  1.00  0.00    -0.384 N 
ATOM     21  H2  UNL     1      10.090   1.059 -18.689  1.00  0.00     0.160 HD
BRANCH  20  22
HETATM   22  C18 UNL     1      11.830   0.806 -17.523  1.00  0.00     0.081 C 
HETATM   23  C19 UNL     1      13.159   0.071 -17.776  1.00  0.00     0.025 C 
HETATM   24  C20 UNL     1      12.851  -1.402 -17.789  1.00  0.00     0.002 C 
HETATM   25  C21 UNL     1      12.623  -1.824 -16.350  1.00  0.00     0.000 C 
HETATM   26  C22 UNL     1      12.201  -0.658 -15.508  1.00  0.00     0.002 C 
HETATM   27  C23 UNL     1      11.228   0.270 -16.249  1.00  0.00     0.025 C 
ENDBRANCH  20  22
ENDBRANCH   7  20
TORSDOF 4
ENDMDL
MODEL 2
REMARK VINA RESULT: -3.141260160      4.318      6.271
REMARK  4 active torsions:
REMARK  status: ('A' for Active; 'I' for Inactive)
REMARK    1  A    between atoms: C3_4  and  C4_5 
REMARK    2  A    between atoms: C5_6  and  C6_7 
REMARK    3  A    between atoms: C17_19  and  N2_20 
REMARK    4  A    between atoms: N2_20  and  C18_22 
ROOT
HETATM    1 CL1  UNL     1      16.133  -4.190 -15.862  1.00  0.00    -0.082 Cl
HETATM    2  C1  UNL     1      15.708  -3.638 -17.466  1.00  0.00     0.061 A 
HETATM    3  C2  UNL     1      14.451  -3.914 -17.973  1.00  0.00     0.037 A 
HETATM    4  C3  UNL     1      14.043  -3.510 -19.235  1.00  0.00    -0.035 A 
HETATM    5  C15 UNL     1      14.953  -2.793 -20.016  1.00  0.00     0.014 A 
HETATM    6  C16 UNL     1      16.204  -2.511 -19.533  1.00  0.00     0.032 A 
HETATM    7  C17 UNL     1      16.585  -2.929 -18.262  1.00  0.00     0.050 A 
ENDROOT
BRANCH   4   8
HETATM    8  C4  UNL     1      12.744  -3.780 -19.792  1.00  0.00     0.008 C 
HETATM    9  C5  UNL     1      12.186  -3.037 -20.710  1.00  0.00    -0.019 C 
BRANCH   9  10
HETATM   10  C6  UNL     1      10.874  -3.241 -21.328  1.00  0.00     0.031 C 
HETATM   11  C7  UNL     1      10.325  -4.594 -20.969  1.00  0.00     0.015 C 
HETATM   12  C8  UNL     1      10.882  -5.677 -21.813  1.00  0.00     0.045 C 
HETATM   13  C9  UNL     1      11.726  -5.284 -22.962  1.00  0.00     0.058 C 
HETATM   14  N1  UNL     1      11.530  -4.032 -23.559  1.00  0.00    -0.388 N 
HETATM   15  C10 UNL     1      11.196  -4.047 -24.955  1.00  0.00     0.122 C 
HETATM   16  C14 UNL     1      10.880  -3.006 -22.811  1.00  0.00     0.091 C 
HETATM   17  C11 UNL     1       9.764  -4.466 -25.100  1.00  0.00     0.020 C 
HETATM   18  C12 UNL     1       8.866  -3.877 -24.068  1.00  0.00     0.004 C 
HETATM   19  C13 UNL     1       9.467  -2.744 -23.281  1.00  0.00     0.026 C 
ENDBRANCH   9  10
ENDBRANCH   4   8
BRANCH   7  20
HETATM   20  N2  UNL     1      17.887  -2.641 -17.767  1.00  0.00    -0.384 N 
ATOM     21  H2  UNL     1      17.984  -2.497 -16.761  1.00  0.00     0.160 HD
BRANCH  20  22
HETATM   22  C18 UNL     1      19.078  -2.534 -18.565  1.00  0.00     0.081 C 
HETATM   23  C19 UNL     1      19.457  -1.044 -18.625  1.00  0.00     0.025 C 
HETATM   24  C20 UNL     1      18.393  -0.352 -19.434  1.00  0.00     0.002 C 
HETATM   25  C21 UNL     1      18.633  -0.710 -20.888  1.00  0.00     0.000 C 
HETATM   26  C22 UNL     1      19.387  -2.000 -21.007  1.00  0.00     0.002 C 
HETATM   27  C23 UNL     1      18.922  -3.040 -19.977  1.00  0.00     0.025 C 
ENDBRANCH  20  22
ENDBRANCH   7  20
TORSDOF 4
ENDMDL
MODEL 3
REMARK VINA RESULT: -3.112711743      2.048      2.770
REMARK  4 active torsions:
REMARK  status: ('A' for Active; 'I' for Inactive)
REMARK    1  A    between atoms: C3_4  and  C4_5 
REMARK    2  A    between atoms: C5_6  and  C6_7 
REMARK    3  A    between atoms: C17_19  and  N2_20 
REMARK    4  A    between atoms: N2_20  and  C18_22 
ROOT
HETATM    1 CL1  UNL     1      11.902  -3.756 -16.595  1.00  0.00    -0.082 Cl
HETATM    2  C1  UNL     1      12.721  -3.053 -17.971  1.00  0.00     0.061 A 
HETATM    3  C2  UNL     1      12.910  -3.810 -19.114  1.00  0.00     0.037 A 
HETATM    4  C3  UNL     1      13.550  -3.322 -20.243  1.00  0.00    -0.035 A 
HETATM    5  C15 UNL     1      14.019  -2.006 -20.208  1.00  0.00     0.014 A 
HETATM    6  C16 UNL     1      13.843  -1.240 -19.086  1.00  0.00     0.032 A 
HETATM    7  C17 UNL     1      13.196  -1.757 -17.968  1.00  0.00     0.050 A 
ENDROOT
BRANCH   4   8
HETATM    8  C4  UNL     1      13.763  -4.081 -21.446  1.00  0.00     0.008 C 
HETATM    9  C5  UNL     1      13.790  -3.549 -22.637  1.00  0.00    -0.019 C 
BRANCH   9  10
HETATM   10  C6  UNL     1      14.000  -4.247 -23.908  1.00  0.00     0.031 C 
HETATM   11  C7  UNL     1      14.791  -5.508 -23.694  1.00  0.00     0.015 C 
HETATM   12  C8  UNL     1      16.248  -5.257 -23.599  1.00  0.00     0.045 C 
HETATM   13  C9  UNL     1      16.728  -3.890 -23.895  1.00  0.00     0.058 C 
HETATM   14  N1  UNL     1      15.985  -3.074 -24.758  1.00  0.00    -0.388 N 
HETATM   15  C10 UNL     1      16.672  -2.606 -25.929  1.00  0.00     0.122 C 
HETATM   16  C14 UNL     1      14.604  -3.370 -24.967  1.00  0.00     0.091 C 
HETATM   17  C11 UNL     1      16.778  -3.738 -26.906  1.00  0.00     0.020 C 
HETATM   18  C12 UNL     1      15.548  -4.575 -26.981  1.00  0.00     0.004 C 
HETATM   19  C13 UNL     1      14.334  -3.972 -26.328  1.00  0.00     0.026 C 
ENDBRANCH   9  10
ENDBRANCH   4   8
BRANCH   7  20
HETATM   20  N2  UNL     1      13.022  -0.961 -16.802  1.00  0.00    -0.384 N 
ATOM     21  H2  UNL     1      13.529  -1.244 -15.963  1.00  0.00     0.160 HD
BRANCH  20  22
HETATM   22  C18 UNL     1      12.191   0.208 -16.707  1.00  0.00     0.081 C 
HETATM   23  C19 UNL     1      11.276   0.220 -17.945  1.00  0.00     0.025 C 
HETATM   24  C20 UNL     1      12.155   0.473 -19.139  1.00  0.00     0.002 C 
HETATM   25  C21 UNL     1      12.530   1.943 -19.115  1.00  0.00     0.000 C 
HETATM   26  C22 UNL     1      12.440   2.498 -17.726  1.00  0.00     0.002 C 
HETATM   27  C23 UNL     1      12.954   1.507 -16.671  1.00  0.00     0.025 C 
ENDBRANCH  20  22
ENDBRANCH   7  20
TORSDOF 4
ENDMDL
MODEL 4
REMARK VINA RESULT: -3.099295592      2.211      8.404
REMARK  4 active torsions:
REMARK  status: ('A' for Active; 'I' for Inactive)
REMARK    1  A    between atoms: C3_4  and  C4_5 
REMARK    2  A    between atoms: C5_6  and  C6_7 
REMARK    3  A    between atoms: C17_19  and  N2_20 
REMARK    4  A    between atoms: N2_20  and  C18_22 
ROOT
HETATM    1 CL1  UNL     1      11.917  -6.039 -25.002  1.00  0.00    -0.082 Cl
HETATM    2  C1  UNL     1      12.260  -4.496 -24.253  1.00  0.00     0.061 A 
HETATM    3  C2  UNL     1      11.727  -4.207 -23.009  1.00  0.00     0.037 A 
HETATM    4  C3  UNL     1      11.954  -3.007 -22.354  1.00  0.00    -0.035 A 
HETATM    5  C15 UNL     1      12.760  -2.059 -22.990  1.00  0.00     0.014 A 
HETATM    6  C16 UNL     1      13.297  -2.325 -24.222  1.00  0.00     0.032 A 
HETATM    7  C17 UNL     1      13.051  -3.540 -24.856  1.00  0.00     0.050 A 
ENDROOT
BRANCH   4   8
HETATM    8  C4  UNL     1      11.415  -2.674 -21.062  1.00  0.00     0.008 C 
HETATM    9  C5  UNL     1      12.149  -2.294 -20.052  1.00  0.00    -0.019 C 
BRANCH   9  10
HETATM   10  C6  UNL     1      11.683  -1.939 -18.710  1.00  0.00     0.031 C 
HETATM   11  C7  UNL     1      10.327  -1.292 -18.775  1.00  0.00     0.015 C 
HETATM   12  C8  UNL     1      10.399   0.147 -19.123  1.00  0.00     0.045 C 
HETATM   13  C9  UNL     1      11.739   0.772 -19.179  1.00  0.00     0.058 C 
HETATM   14  N1  UNL     1      12.775   0.240 -18.401  1.00  0.00    -0.388 N 
HETATM   15  C10 UNL     1      13.378   1.138 -17.457  1.00  0.00     0.122 C 
HETATM   16  C14 UNL     1      12.672  -1.108 -17.944  1.00  0.00     0.091 C 
HETATM   17  C11 UNL     1      12.444   1.312 -16.297  1.00  0.00     0.020 C 
HETATM   18  C12 UNL     1      11.771   0.049 -15.883  1.00  0.00     0.004 C 
HETATM   19  C13 UNL     1      12.367  -1.204 -16.466  1.00  0.00     0.026 C 
ENDBRANCH   9  10
ENDBRANCH   4   8
BRANCH   7  20
HETATM   20  N2  UNL     1      13.604  -3.810 -26.138  1.00  0.00    -0.384 N 
ATOM     21  H2  UNL     1      12.980  -3.735 -26.942  1.00  0.00     0.160 HD
BRANCH  20  22
HETATM   22  C18 UNL     1      14.970  -4.179 -26.396  1.00  0.00     0.081 C 
HETATM   23  C19 UNL     1      15.349  -5.270 -25.378  1.00  0.00     0.025 C 
HETATM   24  C20 UNL     1      15.380  -4.617 -24.024  1.00  0.00     0.002 C 
HETATM   25  C21 UNL     1      16.649  -3.788 -23.956  1.00  0.00     0.000 C 
HETATM   26  C22 UNL     1      17.118  -3.410 -25.328  1.00  0.00     0.002 C 
HETATM   27  C23 UNL     1      15.953  -3.044 -26.259  1.00  0.00     0.025 C 
ENDBRANCH  20  22
ENDBRANCH   7  20
TORSDOF 4
ENDMDL
MODEL 5
REMARK VINA RESULT: -3.033085911      1.050      1.399
REMARK  4 active torsions:
REMARK  status: ('A' for Active; 'I' for Inactive)
REMARK    1  A    between atoms: C3_4  and  C4_5 
REMARK    2  A    between atoms: C5_6  and  C6_7 
REMARK    3  A    between atoms: C17_19  and  N2_20 
REMARK    4  A    between atoms: N2_20  and  C18_22 
ROOT
HETATM    1 CL1  UNL     1       9.430  -1.724 -19.223  1.00  0.00    -0.082 Cl
HETATM    2  C1  UNL     1      10.780  -1.202 -20.206  1.00  0.00     0.061 A 
HETATM    3  C2  UNL     1      11.136  -1.935 -21.323  1.00  0.00     0.037 A 
HETATM    4  C3  UNL     1      12.192  -1.585 -22.149  1.00  0.00    -0.035 A 
HETATM    5  C15 UNL     1      12.919  -0.436 -21.825  1.00  0.00     0.014 A 
HETATM    6  C16 UNL     1      12.583   0.305 -20.722  1.00  0.00     0.032 A 
HETATM    7  C17 UNL     1      11.516  -0.073 -19.911  1.00  0.00     0.050 A 
ENDROOT
BRANCH   4   8
HETATM    8  C4  UNL     1      12.589  -2.325 -23.317  1.00  0.00     0.008 C 
HETATM    9  C5  UNL     1      13.360  -3.378 -23.274  1.00  0.00    -0.019 C 
BRANCH   9  10
HETATM   10  C6  UNL     1      13.810  -4.185 -24.410  1.00  0.00     0.031 C 
HETATM   11  C7  UNL     1      14.564  -5.395 -23.933  1.00  0.00     0.015 C 
HETATM   12  C8  UNL     1      15.976  -5.091 -23.601  1.00  0.00     0.045 C 
HETATM   13  C9  UNL     1      16.484  -3.743 -23.938  1.00  0.00     0.058 C 
HETATM   14  N1  UNL     1      15.900  -3.037 -24.997  1.00  0.00    -0.388 N 
HETATM   15  C10 UNL     1      16.784  -2.659 -26.064  1.00  0.00     0.122 C 
HETATM   16  C14 UNL     1      14.586  -3.394 -25.423  1.00  0.00     0.091 C 
HETATM   17  C11 UNL     1      17.083  -3.874 -26.890  1.00  0.00     0.020 C 
HETATM   18  C12 UNL     1      15.899  -4.753 -27.104  1.00  0.00     0.004 C 
HETATM   19  C13 UNL     1      14.578  -4.130 -26.745  1.00  0.00     0.026 C 
ENDBRANCH   9  10
ENDBRANCH   4   8
BRANCH   7  20
HETATM   20  N2  UNL     1      11.175   0.695 -18.763  1.00  0.00    -0.384 N 
ATOM     21  H2  UNL     1      10.295   1.209 -18.789  1.00  0.00     0.160 HD
BRANCH  20  22
HETATM   22  C18 UNL     1      11.969   0.806 -17.569  1.00  0.00     0.081 C 
HETATM   23  C19 UNL     1      13.247  -0.023 -17.791  1.00  0.00     0.025 C 
HETATM   24  C20 UNL     1      12.832  -1.468 -17.840  1.00  0.00     0.002 C 
HETATM   25  C21 UNL     1      12.525  -1.893 -16.416  1.00  0.00     0.000 C 
HETATM   26  C22 UNL     1      12.162  -0.712 -15.568  1.00  0.00     0.002 C 
HETATM   27  C23 UNL     1      11.286   0.297 -16.325  1.00  0.00     0.025 C 
ENDBRANCH  20  22
ENDBRANCH   7  20
TORSDOF 4
ENDMDL
