MODEL 1
REMARK VINA RESULT: -7.324565977      0.000      0.000
REMARK  2 active torsions:
REMARK  status: ('A' for Active; 'I' for Inactive)
REMARK    1  A    between atoms: N2_12  and  C9_13 
REMARK    2  A    between atoms: C9_13  and  C10_14 
ROOT
HETATM    1  C1  UNL     1       7.339  -6.606  -2.545  1.00  0.00     0.008 C 
HETATM    2  C2  UNL     1       6.991  -6.690  -1.268  1.00  0.00    -0.017 C 
HETATM    3  C3  UNL     1       7.201  -8.094  -0.774  1.00  0.00    -0.008 C 
HETATM    4  C4  UNL     1       7.699  -7.986   0.627  1.00  0.00     0.042 C 
HETATM    5  C5  UNL     1       7.683  -9.268   1.393  1.00  0.00     0.233 C 
HETATM    6  N1  UNL     1       6.516 -10.067   1.179  1.00  0.00    -0.075 N 
ATOM      7  H11 UNL     1       6.227 -10.571   2.018  1.00  0.00     0.277 HD
ATOM      8  H12 UNL     1       6.699 -10.876   0.586  1.00  0.00     0.277 HD
HETATM    9  C6  UNL     1       5.479  -9.222   0.657  1.00  0.00     0.239 C 
HETATM   10  C7  UNL     1       5.901  -8.866  -0.774  1.00  0.00     0.041 C 
HETATM   11  C8  UNL     1       4.800  -8.191  -1.518  1.00  0.00     0.124 C 
HETATM   12  N2  UNL     1       4.626  -8.648  -2.867  1.00  0.00    -0.411 N 
HETATM   13  C13 UNL     1       5.453  -8.057  -3.855  1.00  0.00     0.120 C 
HETATM   14  C14 UNL     1       6.855  -8.621  -3.915  1.00  0.00     0.062 C 
HETATM   15  C15 UNL     1       7.813  -7.921  -3.029  1.00  0.00     0.084 C 
HETATM   16  O1  UNL     1       9.068  -7.692  -3.616  1.00  0.00    -0.376 OA
HETATM   17  C16 UNL     1       9.930  -7.456  -2.533  1.00  0.00     0.169 C 
HETATM   18  C17 UNL     1       9.562  -8.561  -1.581  1.00  0.00     0.035 C 
HETATM   19  C18 UNL     1       8.113  -8.699  -1.748  1.00  0.00     0.039 C 
ENDROOT
BRANCH  12  20
HETATM   20  C9  UNL     1       3.255  -8.822  -3.216  1.00  0.00     0.121 C 
BRANCH  20  21
HETATM   21  C10 UNL     1       3.059  -8.559  -4.688  1.00  0.00     0.003 A 
HETATM   22  C11 UNL     1       1.936  -7.660  -5.117  1.00  0.00     0.007 A 
HETATM   23  C12 UNL     1       1.920  -9.104  -5.447  1.00  0.00     0.007 A 
ENDBRANCH  20  21
ENDBRANCH  12  20
TORSDOF 2
ENDMDL
MODEL 2
REMARK VINA RESULT: -7.283045477      2.308      5.856
REMARK  2 active torsions:
REMARK  status: ('A' for Active; 'I' for Inactive)
REMARK    1  A    between atoms: N2_12  and  C9_13 
REMARK    2  A    between atoms: C9_13  and  C10_14 
ROOT
HETATM    1  C1  UNL     1       5.505  -6.894  -1.298  1.00  0.00     0.008 C 
HETATM    2  C2  UNL     1       6.577  -6.506  -1.975  1.00  0.00    -0.017 C 
HETATM    3  C3  UNL     1       7.278  -7.704  -2.550  1.00  0.00    -0.008 C 
HETATM    4  C4  UNL     1       7.781  -7.302  -3.895  1.00  0.00     0.042 C 
HETATM    5  C5  UNL     1       8.761  -8.252  -4.502  1.00  0.00     0.233 C 
HETATM    6  N1  UNL     1       9.721  -8.777  -3.580  1.00  0.00    -0.075 N 
ATOM      7  H11 UNL     1      10.636  -8.922  -4.006  1.00  0.00     0.277 HD
ATOM      8  H12 UNL     1       9.531  -9.746  -3.325  1.00  0.00     0.277 HD
HETATM    9  C6  UNL     1       9.775  -7.907  -2.438  1.00  0.00     0.239 C 
HETATM   10  C7  UNL     1       8.452  -8.107  -1.687  1.00  0.00     0.041 C 
HETATM   11  C8  UNL     1       8.474  -7.446  -0.352  1.00  0.00     0.124 C 
HETATM   12  N2  UNL     1       7.916  -8.231   0.710  1.00  0.00    -0.411 N 
HETATM   13  C13 UNL     1       6.509  -8.179   0.875  1.00  0.00     0.120 C 
HETATM   14  C14 UNL     1       5.734  -9.051  -0.087  1.00  0.00     0.062 C 
HETATM   15  C15 UNL     1       5.378  -8.367  -1.351  1.00  0.00     0.084 C 
HETATM   16  O1  UNL     1       4.070  -8.630  -1.792  1.00  0.00    -0.376 OA
HETATM   17  C16 UNL     1       4.079  -8.292  -3.154  1.00  0.00     0.169 C 
HETATM   18  C17 UNL     1       5.347  -8.939  -3.639  1.00  0.00     0.035 C 
HETATM   19  C18 UNL     1       6.276  -8.773  -2.519  1.00  0.00     0.039 C 
ENDROOT
BRANCH  12  20
HETATM   20  C9  UNL     1       8.692  -8.171   1.905  1.00  0.00     0.121 C 
BRANCH  20  21
HETATM   21  C10 UNL     1       9.242  -6.780   2.094  1.00  0.00     0.003 A 
HETATM   22  C11 UNL     1       9.701  -6.365   3.462  1.00  0.00     0.007 A 
HETATM   23  C12 UNL     1       8.517  -5.733   2.835  1.00  0.00     0.007 A 
ENDBRANCH  20  21
ENDBRANCH  12  20
TORSDOF 2
ENDMDL
MODEL 3
REMARK VINA RESULT: -7.211251944      2.127      5.705
REMARK  2 active torsions:
REMARK  status: ('A' for Active; 'I' for Inactive)
REMARK    1  A    between atoms: N2_12  and  C9_13 
REMARK    2  A    between atoms: C9_13  and  C10_14 
ROOT
HETATM    1  C1  UNL     1       5.559  -6.962  -1.270  1.00  0.00     0.008 C 
HETATM    2  C2  UNL     1       6.643  -6.568  -1.924  1.00  0.00    -0.017 C 
HETATM    3  C3  UNL     1       7.288  -7.747  -2.598  1.00  0.00    -0.008 C 
HETATM    4  C4  UNL     1       7.801  -7.262  -3.911  1.00  0.00     0.042 C 
HETATM    5  C5  UNL     1       8.734  -8.203  -4.600  1.00  0.00     0.233 C 
HETATM    6  N1  UNL     1       9.675  -8.841  -3.730  1.00  0.00    -0.075 N 
ATOM      7  H11 UNL     1      10.580  -8.991  -4.175  1.00  0.00     0.277 HD
ATOM      8  H12 UNL     1       9.443  -9.817  -3.551  1.00  0.00     0.277 HD
HETATM    9  C6  UNL     1       9.773  -8.066  -2.524  1.00  0.00     0.239 C 
HETATM   10  C7  UNL     1       8.447  -8.268  -1.780  1.00  0.00     0.041 C 
HETATM   11  C8  UNL     1       8.506  -7.715  -0.397  1.00  0.00     0.124 C 
HETATM   12  N2  UNL     1       7.919  -8.557   0.605  1.00  0.00    -0.411 N 
HETATM   13  C13 UNL     1       6.517  -8.456   0.786  1.00  0.00     0.120 C 
HETATM   14  C14 UNL     1       5.699  -9.215  -0.235  1.00  0.00     0.062 C 
HETATM   15  C15 UNL     1       5.366  -8.419  -1.438  1.00  0.00     0.084 C 
HETATM   16  O1  UNL     1       4.046  -8.589  -1.886  1.00  0.00    -0.376 OA
HETATM   17  C16 UNL     1       4.062  -8.145  -3.217  1.00  0.00     0.169 C 
HETATM   18  C17 UNL     1       5.298  -8.806  -3.764  1.00  0.00     0.035 C 
HETATM   19  C18 UNL     1       6.239  -8.770  -2.642  1.00  0.00     0.039 C 
ENDROOT
BRANCH  12  20
HETATM   20  C9  UNL     1       8.703  -8.625   1.794  1.00  0.00     0.121 C 
BRANCH  20  21
HETATM   21  C10 UNL     1       8.911 -10.063   2.195  1.00  0.00     0.003 A 
HETATM   22  C11 UNL     1      10.239 -10.706   1.916  1.00  0.00     0.007 A 
HETATM   23  C12 UNL     1       9.017 -11.155   1.211  1.00  0.00     0.007 A 
ENDBRANCH  20  21
ENDBRANCH  12  20
TORSDOF 2
ENDMDL
MODEL 4
REMARK VINA RESULT: -6.920979672      2.369      6.024
REMARK  2 active torsions:
REMARK  status: ('A' for Active; 'I' for Inactive)
REMARK    1  A    between atoms: N2_12  and  C9_13 
REMARK    2  A    between atoms: C9_13  and  C10_14 
ROOT
HETATM    1  C1  UNL     1       5.609  -7.012  -1.257  1.00  0.00     0.008 C 
HETATM    2  C2  UNL     1       6.645  -6.577  -1.961  1.00  0.00    -0.017 C 
HETATM    3  C3  UNL     1       7.303  -7.732  -2.665  1.00  0.00    -0.008 C 
HETATM    4  C4  UNL     1       7.734  -7.230  -4.000  1.00  0.00     0.042 C 
HETATM    5  C5  UNL     1       8.670  -8.136  -4.732  1.00  0.00     0.233 C 
HETATM    6  N1  UNL     1       9.674  -8.735  -3.908  1.00  0.00    -0.075 N 
ATOM      7  H11 UNL     1      10.563  -8.851  -4.395  1.00  0.00     0.277 HD
ATOM      8  H12 UNL     1       9.490  -9.719  -3.718  1.00  0.00     0.277 HD
HETATM    9  C6  UNL     1       9.799  -7.955  -2.708  1.00  0.00     0.239 C 
HETATM   10  C7  UNL     1       8.518  -8.206  -1.902  1.00  0.00     0.041 C 
HETATM   11  C8  UNL     1       8.620  -7.650  -0.524  1.00  0.00     0.124 C 
HETATM   12  N2  UNL     1       8.115  -8.512   0.505  1.00  0.00    -0.411 N 
HETATM   13  C13 UNL     1       6.719  -8.465   0.752  1.00  0.00     0.120 C 
HETATM   14  C14 UNL     1       5.885  -9.257  -0.230  1.00  0.00     0.062 C 
HETATM   15  C15 UNL     1       5.465  -8.475  -1.416  1.00  0.00     0.084 C 
HETATM   16  O1  UNL     1       4.133  -8.697  -1.801  1.00  0.00    -0.376 OA
HETATM   17  C16 UNL     1       4.069  -8.255  -3.132  1.00  0.00     0.169 C 
HETATM   18  C17 UNL     1       5.302  -8.869  -3.736  1.00  0.00     0.035 C 
HETATM   19  C18 UNL     1       6.293  -8.794  -2.660  1.00  0.00     0.039 C 
ENDROOT
BRANCH  12  20
HETATM   20  C9  UNL     1       8.955  -8.547   1.655  1.00  0.00     0.121 C 
BRANCH  20  21
HETATM   21  C10 UNL     1      10.346  -8.092   1.294  1.00  0.00     0.003 A 
HETATM   22  C11 UNL     1      11.519  -8.753   1.959  1.00  0.00     0.007 A 
HETATM   23  C12 UNL     1      11.201  -7.331   2.222  1.00  0.00     0.007 A 
ENDBRANCH  20  21
ENDBRANCH  12  20
TORSDOF 2
ENDMDL
MODEL 5
REMARK VINA RESULT: -6.800793078      2.159      5.563
REMARK  2 active torsions:
REMARK  status: ('A' for Active; 'I' for Inactive)
REMARK    1  A    between atoms: N2_12  and  C9_13 
REMARK    2  A    between atoms: C9_13  and  C10_14 
ROOT
HETATM    1  C1  UNL     1       7.554  -6.852  -0.410  1.00  0.00     0.008 C 
HETATM    2  C2  UNL     1       6.667  -6.639  -1.372  1.00  0.00    -0.017 C 
HETATM    3  C3  UNL     1       6.219  -7.952  -1.952  1.00  0.00    -0.008 C 
HETATM    4  C4  UNL     1       4.765  -7.816  -2.249  1.00  0.00     0.042 C 
HETATM    5  C5  UNL     1       4.201  -8.903  -3.105  1.00  0.00     0.233 C 
HETATM    6  N1  UNL     1       5.050  -9.302  -4.184  1.00  0.00    -0.075 N 
ATOM      7  H11 UNL     1       4.526  -9.563  -5.020  1.00  0.00     0.277 HD
ATOM      8  H12 UNL     1       5.501 -10.202  -4.017  1.00  0.00     0.277 HD
HETATM    9  C6  UNL     1       5.995  -8.249  -4.431  1.00  0.00     0.239 C 
HETATM   10  C7  UNL     1       6.957  -8.252  -3.237  1.00  0.00     0.041 C 
HETATM   11  C8  UNL     1       8.133  -7.369  -3.478  1.00  0.00     0.124 C 
HETATM   12  N2  UNL     1       9.390  -7.929  -3.075  1.00  0.00    -0.411 N 
HETATM   13  C13 UNL     1       9.750  -7.782  -1.711  1.00  0.00     0.120 C 
HETATM   14  C14 UNL     1       9.086  -8.772  -0.780  1.00  0.00     0.062 C 
HETATM   15  C15 UNL     1       7.787  -8.304  -0.246  1.00  0.00     0.084 C 
HETATM   16  O1  UNL     1       7.600  -8.578   1.118  1.00  0.00    -0.376 OA
HETATM   17  C16 UNL     1       6.213  -8.484   1.313  1.00  0.00     0.169 C 
HETATM   18  C17 UNL     1       5.670  -9.266   0.148  1.00  0.00     0.035 C 
HETATM   19  C18 UNL     1       6.591  -8.950  -0.945  1.00  0.00     0.039 C 
ENDROOT
BRANCH  12  20
HETATM   20  C9  UNL     1      10.426  -7.697  -4.026  1.00  0.00     0.121 C 
BRANCH  20  21
HETATM   21  C10 UNL     1      11.454  -6.755  -3.453  1.00  0.00     0.003 A 
HETATM   22  C11 UNL     1      12.177  -5.823  -4.381  1.00  0.00     0.007 A 
HETATM   23  C12 UNL     1      12.899  -6.915  -3.690  1.00  0.00     0.007 A 
ENDBRANCH  20  21
ENDBRANCH  12  20
TORSDOF 2
ENDMDL
