MODEL 1
REMARK VINA RESULT: -6.763820706      0.000      0.000
REMARK  14 active torsions:
REMARK  status: ('A' for Active; 'I' for Inactive)
REMARK    1  A    between atoms: C2_2  and  C3_3 
REMARK    2  A    between atoms: C3_3  and  O2_5 
REMARK    3  A    between atoms: O2_5  and  C4_6 
REMARK    4  A    between atoms: C4_6  and  C5_8 
REMARK    5  A    between atoms: C5_8  and  O4_9 
REMARK    6  A    between atoms: O4_9  and  C6_10 
REMARK    7  A    between atoms: C6_10  and  C7_12 
REMARK    8  A    between atoms: C7_12  and  C8_13 
REMARK    9  A    between atoms: C8_13  and  C9_14 
REMARK   10  A    between atoms: C14_20  and  O7_22 
REMARK   11  A    between atoms: C16_24  and  O8_25 
REMARK   12  A    between atoms: C21_33  and  C22_34 
REMARK   13  A    between atoms: C22_34  and  O11_35 
REMARK   14  A    between atoms: C25_39  and  O12_40 
ROOT
HETATM    1  C5  UNL     1     -31.261   7.814 -27.377  1.00  0.00     0.185 C 
HETATM    2  C12 UNL     1     -30.481   8.881 -28.046  1.00  0.00     0.140 C 
HETATM    3  C13 UNL     1     -30.586   8.506 -29.532  1.00  0.00     0.174 C 
HETATM    4  O6  UNL     1     -29.562   8.331 -30.162  1.00  0.00    -0.294 OA
HETATM    5  C14 UNL     1     -31.929   8.365 -30.162  1.00  0.00     0.150 C 
HETATM    6  C15 UNL     1     -32.059   7.184 -31.094  1.00  0.00     0.058 C 
HETATM    7  C16 UNL     1     -32.979   8.465 -29.091  1.00  0.00     0.127 C 
HETATM    8  C17 UNL     1     -33.924   7.332 -29.060  1.00  0.00     0.019 C 
HETATM    9  C18 UNL     1     -35.221   7.376 -28.846  1.00  0.00     0.051 C 
HETATM   10  C19 UNL     1     -36.084   8.488 -28.581  1.00  0.00     0.172 C 
HETATM   11  O9  UNL     1     -36.896   8.831 -29.529  1.00  0.00    -0.291 OA
HETATM   12  C20 UNL     1     -36.169   9.309 -27.334  1.00  0.00     0.251 C 
HETATM   13  O10 UNL     1     -35.255  10.287 -27.187  1.00  0.00    -0.370 OA
HETATM   14  C21 UNL     1     -34.140  10.134 -26.461  1.00  0.00     0.083 C 
HETATM   15  C23 UNL     1     -33.169  11.264 -26.765  1.00  0.00     0.043 C 
HETATM   16  C24 UNL     1     -31.700  10.772 -26.654  1.00  0.00     0.043 C 
HETATM   17  C25 UNL     1     -31.489   9.901 -27.764  1.00  0.00     0.086 C 
HETATM   18  C26 UNL     1     -32.450   8.704 -27.710  1.00  0.00     0.074 C 
HETATM   19  C27 UNL     1     -33.421   8.818 -26.618  1.00  0.00     0.060 C 
ENDROOT
BRANCH   1  20
HETATM   20  C4  UNL     1     -30.922   7.507 -26.006  1.00  0.00     0.304 C 
HETATM   21  O3  UNL     1     -29.899   7.916 -25.445  1.00  0.00    -0.261 OA
BRANCH  20  22
HETATM   22  O2  UNL     1     -31.726   6.710 -25.157  1.00  0.00    -0.243 OA
BRANCH  22  23
HETATM   23  C3  UNL     1     -31.309   6.296 -23.909  1.00  0.00     0.265 C 
HETATM   24  O1  UNL     1     -30.686   5.214 -23.823  1.00  0.00    -0.265 OA
BRANCH  23  25
HETATM   25  C2  UNL     1     -31.592   7.116 -22.678  1.00  0.00     0.107 C 
HETATM   26  C1  UNL     1     -32.597   8.174 -22.985  1.00  0.00     0.015 C 
ENDBRANCH  23  25
ENDBRANCH  22  23
ENDBRANCH  20  22
ENDBRANCH   1  20
BRANCH   1  27
HETATM   27  O4  UNL     1     -31.360   6.523 -28.010  1.00  0.00    -0.297 OA
BRANCH  27  28
HETATM   28  C6  UNL     1     -30.369   5.614 -27.705  1.00  0.00     0.260 C 
HETATM   29  O5  UNL     1     -30.753   4.561 -27.086  1.00  0.00    -0.265 OA
BRANCH  28  30
HETATM   30  C7  UNL     1     -28.966   5.823 -28.066  1.00  0.00     0.111 C 
BRANCH  30  31
HETATM   31  C8  UNL     1     -28.506   4.836 -29.069  1.00  0.00     0.013 C 
BRANCH  31  32
HETATM   32  C9  UNL     1     -28.173   5.436 -30.422  1.00  0.00    -0.022 C 
HETATM   33  C10 UNL     1     -26.769   5.221 -30.860  1.00  0.00     0.009 C 
HETATM   34  C11 UNL     1     -29.131   4.803 -31.407  1.00  0.00     0.009 C 
ENDBRANCH  31  32
ENDBRANCH  30  31
ENDBRANCH  28  30
ENDBRANCH  27  28
ENDBRANCH   1  27
BRANCH  17  35
HETATM   35  O12 UNL     1     -31.708  10.734 -28.914  1.00  0.00    -0.388 OA
ATOM     36  H12 UNL     1     -32.041  10.223 -29.643  1.00  0.00     0.210 HD
ENDBRANCH  17  35
BRANCH   7  37
HETATM   37  O8  UNL     1     -33.761   9.574 -29.497  1.00  0.00    -0.381 OA
ATOM     38  H8  UNL     1     -34.612   9.398 -29.114  1.00  0.00     0.211 HD
ENDBRANCH   7  37
BRANCH   5  39
HETATM   39  O7  UNL     1     -31.999   9.439 -31.106  1.00  0.00    -0.379 OA
ATOM     40  H7  UNL     1     -32.732   9.217 -31.669  1.00  0.00     0.211 HD
ENDBRANCH   5  39
BRANCH  14  41
HETATM   41  C22 UNL     1     -34.464  10.303 -24.982  1.00  0.00     0.202 C 
BRANCH  41  42
HETATM   42  O11 UNL     1     -34.326  11.572 -24.492  1.00  0.00    -0.398 OA
ATOM     43  H11 UNL     1     -34.542  11.681 -23.573  1.00  0.00     0.209 HD
ENDBRANCH  41  42
ENDBRANCH  14  41
TORSDOF 14
ENDMDL
MODEL 2
REMARK VINA RESULT: -6.702764399      0.738      1.010
REMARK  14 active torsions:
REMARK  status: ('A' for Active; 'I' for Inactive)
REMARK    1  A    between atoms: C2_2  and  C3_3 
REMARK    2  A    between atoms: C3_3  and  O2_5 
REMARK    3  A    between atoms: O2_5  and  C4_6 
REMARK    4  A    between atoms: C4_6  and  C5_8 
REMARK    5  A    between atoms: C5_8  and  O4_9 
REMARK    6  A    between atoms: O4_9  and  C6_10 
REMARK    7  A    between atoms: C6_10  and  C7_12 
REMARK    8  A    between atoms: C7_12  and  C8_13 
REMARK    9  A    between atoms: C8_13  and  C9_14 
REMARK   10  A    between atoms: C14_20  and  O7_22 
REMARK   11  A    between atoms: C16_24  and  O8_25 
REMARK   12  A    between atoms: C21_33  and  C22_34 
REMARK   13  A    between atoms: C22_34  and  O11_35 
REMARK   14  A    between atoms: C25_39  and  O12_40 
ROOT
HETATM    1  C5  UNL     1     -31.204   7.717 -27.398  1.00  0.00     0.185 C 
HETATM    2  C12 UNL     1     -30.426   8.805 -28.034  1.00  0.00     0.140 C 
HETATM    3  C13 UNL     1     -30.580   8.510 -29.534  1.00  0.00     0.174 C 
HETATM    4  O6  UNL     1     -29.579   8.353 -30.202  1.00  0.00    -0.294 OA
HETATM    5  C14 UNL     1     -31.943   8.425 -30.129  1.00  0.00     0.150 C 
HETATM    6  C15 UNL     1     -32.120   7.297 -31.118  1.00  0.00     0.058 C 
HETATM    7  C16 UNL     1     -32.960   8.484 -29.023  1.00  0.00     0.127 C 
HETATM    8  C17 UNL     1     -33.922   7.366 -29.023  1.00  0.00     0.019 C 
HETATM    9  C18 UNL     1     -35.212   7.419 -28.768  1.00  0.00     0.051 C 
HETATM   10  C19 UNL     1     -36.047   8.529 -28.420  1.00  0.00     0.172 C 
HETATM   11  O9  UNL     1     -36.881   8.934 -29.323  1.00  0.00    -0.291 OA
HETATM   12  C20 UNL     1     -36.081   9.284 -27.130  1.00  0.00     0.251 C 
HETATM   13  O10 UNL     1     -35.147  10.238 -26.959  1.00  0.00    -0.370 OA
HETATM   14  C21 UNL     1     -34.014  10.029 -26.276  1.00  0.00     0.083 C 
HETATM   15  C23 UNL     1     -33.033  11.159 -26.549  1.00  0.00     0.043 C 
HETATM   16  C24 UNL     1     -31.570  10.638 -26.508  1.00  0.00     0.043 C 
HETATM   17  C25 UNL     1     -31.406   9.824 -27.669  1.00  0.00     0.086 C 
HETATM   18  C26 UNL     1     -32.386   8.641 -27.648  1.00  0.00     0.074 C 
HETATM   19  C27 UNL     1     -33.323   8.712 -26.523  1.00  0.00     0.060 C 
ENDROOT
BRANCH   1  20
HETATM   20  C4  UNL     1     -30.831   7.332 -26.056  1.00  0.00     0.304 C 
HETATM   21  O3  UNL     1     -29.704   7.514 -25.580  1.00  0.00    -0.261 OA
BRANCH  20  22
HETATM   22  O2  UNL     1     -31.714   6.710 -25.142  1.00  0.00    -0.243 OA
BRANCH  22  23
HETATM   23  C3  UNL     1     -31.277   6.079 -23.995  1.00  0.00     0.265 C 
HETATM   24  O1  UNL     1     -31.315   6.717 -22.919  1.00  0.00    -0.265 OA
BRANCH  23  25
HETATM   25  C2  UNL     1     -30.765   4.664 -24.029  1.00  0.00     0.107 C 
HETATM   26  C1  UNL     1     -31.487   3.832 -23.023  1.00  0.00     0.015 C 
ENDBRANCH  23  25
ENDBRANCH  22  23
ENDBRANCH  20  22
ENDBRANCH   1  20
BRANCH   1  27
HETATM   27  O4  UNL     1     -31.344   6.462 -28.095  1.00  0.00    -0.297 OA
BRANCH  27  28
HETATM   28  C6  UNL     1     -30.357   5.524 -27.872  1.00  0.00     0.260 C 
HETATM   29  O5  UNL     1     -30.738   4.446 -27.296  1.00  0.00    -0.265 OA
BRANCH  28  30
HETATM   30  C7  UNL     1     -28.964   5.732 -28.268  1.00  0.00     0.111 C 
BRANCH  30  31
HETATM   31  C8  UNL     1     -28.545   4.777 -29.318  1.00  0.00     0.013 C 
BRANCH  31  32
HETATM   32  C9  UNL     1     -28.100   5.433 -30.612  1.00  0.00    -0.022 C 
HETATM   33  C10 UNL     1     -26.688   5.157 -30.986  1.00  0.00     0.009 C 
HETATM   34  C11 UNL     1     -29.036   4.917 -31.684  1.00  0.00     0.009 C 
ENDBRANCH  31  32
ENDBRANCH  30  31
ENDBRANCH  28  30
ENDBRANCH  27  28
ENDBRANCH   1  27
BRANCH  17  35
HETATM   35  O12 UNL     1     -31.645  10.720 -28.766  1.00  0.00    -0.388 OA
ATOM     36  H12 UNL     1     -31.305  11.587 -28.574  1.00  0.00     0.210 HD
ENDBRANCH  17  35
BRANCH   7  37
HETATM   37  O8  UNL     1     -33.734   9.625 -29.347  1.00  0.00    -0.381 OA
ATOM     38  H8  UNL     1     -34.448   9.270 -29.863  1.00  0.00     0.211 HD
ENDBRANCH   7  37
BRANCH   5  39
HETATM   39  O7  UNL     1     -32.022   9.548 -31.013  1.00  0.00    -0.379 OA
ATOM     40  H7  UNL     1     -31.665   9.233 -31.836  1.00  0.00     0.211 HD
ENDBRANCH   5  39
BRANCH  14  41
HETATM   41  C22 UNL     1     -34.292  10.125 -24.781  1.00  0.00     0.202 C 
BRANCH  41  42
HETATM   42  O11 UNL     1     -33.638   9.212 -24.001  1.00  0.00    -0.398 OA
ATOM     43  H11 UNL     1     -32.896   9.549 -23.512  1.00  0.00     0.209 HD
ENDBRANCH  41  42
ENDBRANCH  14  41
TORSDOF 14
ENDMDL
MODEL 3
REMARK VINA RESULT: -6.575882015      1.235      1.639
REMARK  14 active torsions:
REMARK  status: ('A' for Active; 'I' for Inactive)
REMARK    1  A    between atoms: C2_2  and  C3_3 
REMARK    2  A    between atoms: C3_3  and  O2_5 
REMARK    3  A    between atoms: O2_5  and  C4_6 
REMARK    4  A    between atoms: C4_6  and  C5_8 
REMARK    5  A    between atoms: C5_8  and  O4_9 
REMARK    6  A    between atoms: O4_9  and  C6_10 
REMARK    7  A    between atoms: C6_10  and  C7_12 
REMARK    8  A    between atoms: C7_12  and  C8_13 
REMARK    9  A    between atoms: C8_13  and  C9_14 
REMARK   10  A    between atoms: C14_20  and  O7_22 
REMARK   11  A    between atoms: C16_24  and  O8_25 
REMARK   12  A    between atoms: C21_33  and  C22_34 
REMARK   13  A    between atoms: C22_34  and  O11_35 
REMARK   14  A    between atoms: C25_39  and  O12_40 
ROOT
HETATM    1  C5  UNL     1     -30.814   7.264 -28.034  1.00  0.00     0.185 C 
HETATM    2  C12 UNL     1     -30.148   8.523 -28.439  1.00  0.00     0.140 C 
HETATM    3  C13 UNL     1     -30.363   8.554 -29.960  1.00  0.00     0.174 C 
HETATM    4  O6  UNL     1     -29.391   8.627 -30.684  1.00  0.00    -0.294 OA
HETATM    5  C14 UNL     1     -31.747   8.495 -30.507  1.00  0.00     0.150 C 
HETATM    6  C15 UNL     1     -31.901   7.602 -31.716  1.00  0.00     0.058 C 
HETATM    7  C16 UNL     1     -32.704   8.229 -29.379  1.00  0.00     0.127 C 
HETATM    8  C17 UNL     1     -33.587   7.067 -29.592  1.00  0.00     0.019 C 
HETATM    9  C18 UNL     1     -34.861   6.961 -29.283  1.00  0.00     0.051 C 
HETATM   10  C19 UNL     1     -35.750   7.898 -28.663  1.00  0.00     0.172 C 
HETATM   11  O9  UNL     1     -36.657   8.424 -29.421  1.00  0.00    -0.291 OA
HETATM   12  C20 UNL     1     -35.765   8.344 -27.237  1.00  0.00     0.251 C 
HETATM   13  O10 UNL     1     -34.890   9.308 -26.893  1.00  0.00    -0.370 OA
HETATM   14  C21 UNL     1     -33.710   9.044 -26.317  1.00  0.00     0.083 C 
HETATM   15  C23 UNL     1     -32.825  10.279 -26.368  1.00  0.00     0.043 C 
HETATM   16  C24 UNL     1     -31.330   9.880 -26.500  1.00  0.00     0.043 C 
HETATM   17  C25 UNL     1     -31.174   9.356 -27.818  1.00  0.00     0.086 C 
HETATM   18  C26 UNL     1     -32.068   8.124 -28.026  1.00  0.00     0.074 C 
HETATM   19  C27 UNL     1     -32.945   7.872 -26.879  1.00  0.00     0.060 C 
ENDROOT
BRANCH   1  20
HETATM   20  C4  UNL     1     -30.343   6.623 -26.827  1.00  0.00     0.304 C 
HETATM   21  O3  UNL     1     -29.224   6.821 -26.339  1.00  0.00    -0.261 OA
BRANCH  20  22
HETATM   22  O2  UNL     1     -31.111   5.706 -26.072  1.00  0.00    -0.243 OA
BRANCH  22  23
HETATM   23  C3  UNL     1     -30.575   4.947 -25.052  1.00  0.00     0.265 C 
HETATM   24  O1  UNL     1     -29.685   4.116 -25.340  1.00  0.00    -0.265 OA
BRANCH  23  25
HETATM   25  C2  UNL     1     -31.043   5.107 -23.630  1.00  0.00     0.107 C 
HETATM   26  C1  UNL     1     -31.355   3.774 -23.038  1.00  0.00     0.015 C 
ENDBRANCH  23  25
ENDBRANCH  22  23
ENDBRANCH  20  22
ENDBRANCH   1  20
BRANCH   1  27
HETATM   27  O4  UNL     1     -30.905   6.186 -28.988  1.00  0.00    -0.297 OA
BRANCH  27  28
HETATM   28  C6  UNL     1     -29.839   5.313 -29.030  1.00  0.00     0.260 C 
HETATM   29  O5  UNL     1     -30.029   4.178 -28.468  1.00  0.00    -0.265 OA
BRANCH  28  30
HETATM   30  C7  UNL     1     -28.569   5.646 -29.676  1.00  0.00     0.111 C 
BRANCH  30  31
HETATM   31  C8  UNL     1     -28.589   5.323 -31.121  1.00  0.00     0.013 C 
BRANCH  31  32
HETATM   32  C9  UNL     1     -27.481   4.386 -31.562  1.00  0.00    -0.022 C 
HETATM   33  C10 UNL     1     -27.469   4.092 -33.020  1.00  0.00     0.009 C 
HETATM   34  C11 UNL     1     -26.185   5.050 -31.152  1.00  0.00     0.009 C 
ENDBRANCH  31  32
ENDBRANCH  30  31
ENDBRANCH  28  30
ENDBRANCH  27  28
ENDBRANCH   1  27
BRANCH  17  35
HETATM   35  O12 UNL     1     -31.533  10.450 -28.678  1.00  0.00    -0.388 OA
ATOM     36  H12 UNL     1     -30.871  10.586 -29.346  1.00  0.00     0.210 HD
ENDBRANCH  17  35
BRANCH   7  37
HETATM   37  O8  UNL     1     -33.571   9.349 -29.409  1.00  0.00    -0.381 OA
ATOM     38  H8  UNL     1     -34.160   9.154 -30.128  1.00  0.00     0.211 HD
ENDBRANCH   7  37
BRANCH   5  39
HETATM   39  O7  UNL     1     -31.951   9.776 -31.114  1.00  0.00    -0.379 OA
ATOM     40  H7  UNL     1     -32.620  10.191 -30.582  1.00  0.00     0.211 HD
ENDBRANCH   5  39
BRANCH  14  41
HETATM   41  C22 UNL     1     -33.912   8.786 -24.829  1.00  0.00     0.202 C 
BRANCH  41  42
HETATM   42  O11 UNL     1     -33.669   7.506 -24.416  1.00  0.00    -0.398 OA
ATOM     43  H11 UNL     1     -34.249   7.177 -23.738  1.00  0.00     0.209 HD
ENDBRANCH  41  42
ENDBRANCH  14  41
TORSDOF 14
ENDMDL
MODEL 4
REMARK VINA RESULT: -6.175320834      1.460      1.895
REMARK  14 active torsions:
REMARK  status: ('A' for Active; 'I' for Inactive)
REMARK    1  A    between atoms: C2_2  and  C3_3 
REMARK    2  A    between atoms: C3_3  and  O2_5 
REMARK    3  A    between atoms: O2_5  and  C4_6 
REMARK    4  A    between atoms: C4_6  and  C5_8 
REMARK    5  A    between atoms: C5_8  and  O4_9 
REMARK    6  A    between atoms: O4_9  and  C6_10 
REMARK    7  A    between atoms: C6_10  and  C7_12 
REMARK    8  A    between atoms: C7_12  and  C8_13 
REMARK    9  A    between atoms: C8_13  and  C9_14 
REMARK   10  A    between atoms: C14_20  and  O7_22 
REMARK   11  A    between atoms: C16_24  and  O8_25 
REMARK   12  A    between atoms: C21_33  and  C22_34 
REMARK   13  A    between atoms: C22_34  and  O11_35 
REMARK   14  A    between atoms: C25_39  and  O12_40 
ROOT
HETATM    1  C5  UNL     1     -31.957   7.974 -26.143  1.00  0.00     0.185 C 
HETATM    2  C12 UNL     1     -31.305   9.297 -26.272  1.00  0.00     0.140 C 
HETATM    3  C13 UNL     1     -30.778   9.285 -27.715  1.00  0.00     0.174 C 
HETATM    4  O6  UNL     1     -29.591   9.462 -27.903  1.00  0.00    -0.294 OA
HETATM    5  C14 UNL     1     -31.726   9.058 -28.841  1.00  0.00     0.150 C 
HETATM    6  C15 UNL     1     -31.204   8.139 -29.919  1.00  0.00     0.058 C 
HETATM    7  C16 UNL     1     -33.072   8.696 -28.277  1.00  0.00     0.127 C 
HETATM    8  C17 UNL     1     -33.632   7.437 -28.801  1.00  0.00     0.019 C 
HETATM    9  C18 UNL     1     -34.883   7.187 -29.118  1.00  0.00     0.051 C 
HETATM   10  C19 UNL     1     -36.046   8.021 -29.049  1.00  0.00     0.172 C 
HETATM   11  O9  UNL     1     -36.534   8.429 -30.176  1.00  0.00    -0.291 OA
HETATM   12  C20 UNL     1     -36.776   8.480 -27.829  1.00  0.00     0.251 C 
HETATM   13  O10 UNL     1     -36.266   9.543 -27.180  1.00  0.00    -0.370 OA
HETATM   14  C21 UNL     1     -35.479   9.425 -26.103  1.00  0.00     0.083 C 
HETATM   15  C23 UNL     1     -34.798  10.755 -25.814  1.00  0.00     0.043 C 
HETATM   16  C24 UNL     1     -33.388  10.531 -25.205  1.00  0.00     0.043 C 
HETATM   17  C25 UNL     1     -32.578  10.013 -26.260  1.00  0.00     0.086 C 
HETATM   18  C26 UNL     1     -33.144   8.683 -26.780  1.00  0.00     0.074 C 
HETATM   19  C27 UNL     1     -34.429   8.344 -26.162  1.00  0.00     0.060 C 
ENDROOT
BRANCH   1  20
HETATM   20  C4  UNL     1     -32.053   7.408 -24.817  1.00  0.00     0.304 C 
HETATM   21  O3  UNL     1     -32.490   6.274 -24.586  1.00  0.00    -0.261 OA
BRANCH  20  22
HETATM   22  O2  UNL     1     -31.652   8.086 -23.642  1.00  0.00    -0.243 OA
BRANCH  22  23
HETATM   23  C3  UNL     1     -32.365   8.018 -22.462  1.00  0.00     0.265 C 
HETATM   24  O1  UNL     1     -31.953   7.243 -21.569  1.00  0.00    -0.265 OA
BRANCH  23  25
HETATM   25  C2  UNL     1     -33.603   8.846 -22.247  1.00  0.00     0.107 C 
HETATM   26  C1  UNL     1     -33.834   9.058 -20.789  1.00  0.00     0.015 C 
ENDBRANCH  23  25
ENDBRANCH  22  23
ENDBRANCH  20  22
ENDBRANCH   1  20
BRANCH   1  27
HETATM   27  O4  UNL     1     -31.483   6.882 -26.956  1.00  0.00    -0.297 OA
BRANCH  27  28
HETATM   28  C6  UNL     1     -30.331   6.255 -26.528  1.00  0.00     0.260 C 
HETATM   29  O5  UNL     1     -29.493   6.998 -25.908  1.00  0.00    -0.265 OA
BRANCH  28  30
HETATM   30  C7  UNL     1     -30.074   4.832 -26.755  1.00  0.00     0.111 C 
BRANCH  30  31
HETATM   31  C8  UNL     1     -28.938   4.622 -27.680  1.00  0.00     0.013 C 
BRANCH  31  32
HETATM   32  C9  UNL     1     -29.118   5.269 -29.040  1.00  0.00    -0.022 C 
HETATM   33  C10 UNL     1     -27.863   5.404 -29.827  1.00  0.00     0.009 C 
HETATM   34  C11 UNL     1     -30.112   4.405 -29.785  1.00  0.00     0.009 C 
ENDBRANCH  31  32
ENDBRANCH  30  31
ENDBRANCH  28  30
ENDBRANCH  27  28
ENDBRANCH   1  27
BRANCH  17  35
HETATM   35  O12 UNL     1     -32.592  11.047 -27.256  1.00  0.00    -0.388 OA
ATOM     36  H12 UNL     1     -32.975  10.731 -28.066  1.00  0.00     0.210 HD
ENDBRANCH  17  35
BRANCH   7  37
HETATM   37  O8  UNL     1     -33.925   9.707 -28.783  1.00  0.00    -0.381 OA
ATOM     38  H8  UNL     1     -34.236  10.147 -28.000  1.00  0.00     0.211 HD
ENDBRANCH   7  37
BRANCH   5  39
HETATM   39  O7  UNL     1     -31.743  10.299 -29.556  1.00  0.00    -0.379 OA
ATOM     40  H7  UNL     1     -31.642  10.964 -28.884  1.00  0.00     0.211 HD
ENDBRANCH   5  39
BRANCH  14  41
HETATM   41  C22 UNL     1     -36.333   9.164 -24.869  1.00  0.00     0.202 C 
BRANCH  41  42
HETATM   42  O11 UNL     1     -36.875  10.275 -24.283  1.00  0.00    -0.398 OA
ATOM     43  H11 UNL     1     -37.748  10.163 -23.923  1.00  0.00     0.209 HD
ENDBRANCH  41  42
ENDBRANCH  14  41
TORSDOF 14
ENDMDL
MODEL 5
REMARK VINA RESULT: -6.113864934      1.910      5.913
REMARK  14 active torsions:
REMARK  status: ('A' for Active; 'I' for Inactive)
REMARK    1  A    between atoms: C2_2  and  C3_3 
REMARK    2  A    between atoms: C3_3  and  O2_5 
REMARK    3  A    between atoms: O2_5  and  C4_6 
REMARK    4  A    between atoms: C4_6  and  C5_8 
REMARK    5  A    between atoms: C5_8  and  O4_9 
REMARK    6  A    between atoms: O4_9  and  C6_10 
REMARK    7  A    between atoms: C6_10  and  C7_12 
REMARK    8  A    between atoms: C7_12  and  C8_13 
REMARK    9  A    between atoms: C8_13  and  C9_14 
REMARK   10  A    between atoms: C14_20  and  O7_22 
REMARK   11  A    between atoms: C16_24  and  O8_25 
REMARK   12  A    between atoms: C21_33  and  C22_34 
REMARK   13  A    between atoms: C22_34  and  O11_35 
REMARK   14  A    between atoms: C25_39  and  O12_40 
ROOT
HETATM    1  C5  UNL     1     -32.196   7.573 -28.686  1.00  0.00     0.185 C 
HETATM    2  C12 UNL     1     -31.113   8.500 -29.087  1.00  0.00     0.140 C 
HETATM    3  C13 UNL     1     -31.541   9.829 -28.446  1.00  0.00     0.174 C 
HETATM    4  O6  UNL     1     -31.683  10.801 -29.160  1.00  0.00    -0.294 OA
HETATM    5  C14 UNL     1     -31.770   9.896 -26.975  1.00  0.00     0.150 C 
HETATM    6  C15 UNL     1     -32.985  10.695 -26.570  1.00  0.00     0.058 C 
HETATM    7  C16 UNL     1     -31.690   8.505 -26.408  1.00  0.00     0.127 C 
HETATM    8  C17 UNL     1     -32.868   8.104 -25.617  1.00  0.00     0.019 C 
HETATM    9  C18 UNL     1     -32.883   7.410 -24.499  1.00  0.00     0.051 C 
HETATM   10  C19 UNL     1     -31.809   6.846 -23.738  1.00  0.00     0.172 C 
HETATM   11  O9  UNL     1     -31.539   7.414 -22.607  1.00  0.00    -0.291 OA
HETATM   12  C20 UNL     1     -30.955   5.670 -24.087  1.00  0.00     0.251 C 
HETATM   13  O10 UNL     1     -29.927   5.894 -24.927  1.00  0.00    -0.370 OA
HETATM   14  C21 UNL     1     -30.000   5.648 -26.242  1.00  0.00     0.083 C 
HETATM   15  C23 UNL     1     -28.831   6.312 -26.955  1.00  0.00     0.043 C 
HETATM   16  C24 UNL     1     -29.244   6.766 -28.381  1.00  0.00     0.043 C 
HETATM   17  C25 UNL     1     -30.138   7.864 -28.204  1.00  0.00     0.086 C 
HETATM   18  C26 UNL     1     -31.380   7.435 -27.410  1.00  0.00     0.074 C 
HETATM   19  C27 UNL     1     -31.281   6.055 -26.924  1.00  0.00     0.060 C 
ENDROOT
BRANCH   1  20
HETATM   20  C4  UNL     1     -32.442   6.433 -29.540  1.00  0.00     0.304 C 
HETATM   21  O3  UNL     1     -33.188   5.495 -29.233  1.00  0.00    -0.261 OA
BRANCH  20  22
HETATM   22  O2  UNL     1     -31.860   6.269 -30.819  1.00  0.00    -0.243 OA
BRANCH  22  23
HETATM   23  C3  UNL     1     -31.474   5.038 -31.310  1.00  0.00     0.265 C 
HETATM   24  O1  UNL     1     -32.147   4.535 -32.238  1.00  0.00    -0.265 OA
BRANCH  23  25
HETATM   25  C2  UNL     1     -30.279   4.313 -30.751  1.00  0.00     0.107 C 
HETATM   26  C1  UNL     1     -29.050   4.684 -31.510  1.00  0.00     0.015 C 
ENDBRANCH  23  25
ENDBRANCH  22  23
ENDBRANCH  20  22
ENDBRANCH   1  20
BRANCH   1  27
HETATM   27  O4  UNL     1     -33.511   8.107 -28.430  1.00  0.00    -0.297 OA
BRANCH  27  28
HETATM   28  C6  UNL     1     -34.347   8.225 -29.521  1.00  0.00     0.260 C 
HETATM   29  O5  UNL     1     -35.397   7.494 -29.496  1.00  0.00    -0.265 OA
BRANCH  28  30
HETATM   30  C7  UNL     1     -34.067   9.129 -30.638  1.00  0.00     0.111 C 
BRANCH  30  31
HETATM   31  C8  UNL     1     -34.352   8.489 -31.942  1.00  0.00     0.013 C 
BRANCH  31  32
HETATM   32  C9  UNL     1     -33.362   8.844 -33.036  1.00  0.00    -0.022 C 
HETATM   33  C10 UNL     1     -32.068   9.384 -32.541  1.00  0.00     0.009 C 
HETATM   34  C11 UNL     1     -33.131   7.570 -33.819  1.00  0.00     0.009 C 
ENDBRANCH  31  32
ENDBRANCH  30  31
ENDBRANCH  28  30
ENDBRANCH  27  28
ENDBRANCH   1  27
BRANCH  17  35
HETATM   35  O12 UNL     1     -29.354   8.851 -27.514  1.00  0.00    -0.388 OA
ATOM     36  H12 UNL     1     -28.622   8.446 -27.063  1.00  0.00     0.210 HD
ENDBRANCH  17  35
BRANCH   7  37
HETATM   37  O8  UNL     1     -30.636   8.592 -25.466  1.00  0.00    -0.381 OA
ATOM     38  H8  UNL     1     -30.005   9.160 -25.892  1.00  0.00     0.211 HD
ENDBRANCH   7  37
BRANCH   5  39
HETATM   39  O7  UNL     1     -30.731  10.752 -26.486  1.00  0.00    -0.379 OA
ATOM     40  H7  UNL     1     -31.094  11.146 -25.701  1.00  0.00     0.211 HD
ENDBRANCH   5  39
BRANCH  14  41
HETATM   41  C22 UNL     1     -29.800   4.159 -26.497  1.00  0.00     0.202 C 
BRANCH  41  42
HETATM   42  O11 UNL     1     -28.502   3.728 -26.478  1.00  0.00    -0.398 OA
ATOM     43  H11 UNL     1     -28.180   3.363 -27.294  1.00  0.00     0.209 HD
ENDBRANCH  41  42
ENDBRANCH  14  41
TORSDOF 14
ENDMDL
