MODEL 1
REMARK VINA RESULT: -7.609038563      0.000      0.000
REMARK  10 active torsions:
REMARK  status: ('A' for Active; 'I' for Inactive)
REMARK    1  A    between atoms: O1_2  and  C2_3 
REMARK    2  A    between atoms: C4_5  and  C5_6 
REMARK    3  A    between atoms: C5_6  and  N1_7 
REMARK    4  A    between atoms: C5_6  and  C18_36 
REMARK    5  A    between atoms: N1_7  and  C6_9 
REMARK    6  A    between atoms: C7_12  and  N3_13 
REMARK    7  A    between atoms: C12_23  and  N6_24 
REMARK    8  A    between atoms: C15_27  and  N7_28 
REMARK    9  A    between atoms: C23_44  and  O2_45 
REMARK   10  A    between atoms: C25_47  and  O3_48 
ROOT
HETATM    1  C6  UNL     1     -30.709   7.933 -29.140  1.00  0.00     0.707 A 
HETATM    2  N2  UNL     1     -31.692   8.277 -29.975  1.00  0.00    -0.021 N 
ATOM      3  H2  UNL     1     -32.349   8.996 -29.672  1.00  0.00     0.203 HD
HETATM    4  C7  UNL     1     -31.870   7.722 -31.212  1.00  0.00     0.709 A 
HETATM    5  N5  UNL     1     -30.984   6.789 -31.555  1.00  0.00    -0.021 N 
ATOM      6  H5  UNL     1     -31.070   6.342 -32.467  1.00  0.00     0.203 HD
HETATM    7  C12 UNL     1     -29.974   6.411 -30.739  1.00  0.00     0.709 A 
HETATM    8  N8  UNL     1     -29.842   6.991 -29.526  1.00  0.00    -0.021 N 
ATOM      9  H8  UNL     1     -29.082   6.710 -28.906  1.00  0.00     0.203 HD
ENDROOT
BRANCH   1  10
HETATM   10  N1  UNL     1     -30.635   8.528 -27.994  1.00  0.00    -0.216 N 
ATOM     11  H1  UNL     1     -29.737   8.911 -27.699  1.00  0.00     0.178 HD
BRANCH  10  12
HETATM   12  C5  UNL     1     -31.776   8.672 -27.114  1.00  0.00     0.139 C 
BRANCH  12  13
HETATM   13  C4  UNL     1     -31.481   7.726 -25.974  1.00  0.00    -0.029 A 
HETATM   14  C3  UNL     1     -31.860   7.932 -24.695  1.00  0.00     0.049 A 
HETATM   15  C2  UNL     1     -31.557   7.014 -23.660  1.00  0.00     0.104 A 
HETATM   16  C25 UNL     1     -30.829   5.840 -23.982  1.00  0.00     0.135 A 
HETATM   17  C23 UNL     1     -30.457   5.655 -25.280  1.00  0.00     0.104 A 
HETATM   18  C22 UNL     1     -30.762   6.561 -26.270  1.00  0.00     0.049 A 
BRANCH  15  19
HETATM   19  O1  UNL     1     -31.921   7.216 -22.453  1.00  0.00    -0.353 OA
HETATM   20  C1  UNL     1     -32.374   7.663 -21.335  1.00  0.00     0.210 C 
ENDBRANCH  15  19
BRANCH  16  21
HETATM   21  O3  UNL     1     -30.530   4.933 -22.963  1.00  0.00    -0.351 OA
HETATM   22  C26 UNL     1     -31.290   3.741 -22.916  1.00  0.00     0.210 C 
ENDBRANCH  16  21
BRANCH  17  23
HETATM   23  O2  UNL     1     -29.746   4.503 -25.584  1.00  0.00    -0.353 OA
HETATM   24  C24 UNL     1     -29.051   4.418 -26.801  1.00  0.00     0.210 C 
ENDBRANCH  17  23
ENDBRANCH  12  13
BRANCH  12  25
HETATM   25  C18 UNL     1     -31.881  10.015 -26.500  1.00  0.00     0.038 C 
HETATM   26  C19 UNL     1     -33.240  10.651 -26.557  1.00  0.00     0.128 C 
HETATM   27  N9  UNL     1     -32.925  12.021 -26.182  1.00  0.00    -0.381 N 
HETATM   28  C20 UNL     1     -31.700  12.305 -26.471  1.00  0.00     0.089 C 
ATOM     29  H9  UNL     1     -33.583  12.669 -25.749  1.00  0.00     0.160 HD
HETATM   30  N10 UNL     1     -31.024  13.533 -26.260  1.00  0.00    -0.088 NA
HETATM   31  C21 UNL     1     -31.046  11.101 -27.098  1.00  0.00     0.081 C 
ENDBRANCH  12  25
ENDBRANCH  10  12
ENDBRANCH   1  10
BRANCH   4  32
HETATM   32  N3  UNL     1     -32.937   8.160 -32.039  1.00  0.00    -0.213 N 
HETATM   33  C8  UNL     1     -32.637   8.654 -33.364  1.00  0.00     0.168 C 
HETATM   34  C9  UNL     1     -33.971   8.828 -34.085  1.00  0.00     0.252 C 
HETATM   35  N4  UNL     1     -34.718   9.819 -33.361  1.00  0.00    -0.072 N 
HETATM   36  C10 UNL     1     -34.997   9.446 -32.005  1.00  0.00     0.252 C 
ATOM     37  H42 UNL     1     -34.249  10.723 -33.399  1.00  0.00     0.277 HD
ATOM     38  H41 UNL     1     -35.578  10.054 -33.855  1.00  0.00     0.277 HD
HETATM   39  C11 UNL     1     -34.300   8.141 -31.603  1.00  0.00     0.168 C 
ENDBRANCH   4  32
BRANCH   7  40
HETATM   40  N6  UNL     1     -29.040   5.424 -31.141  1.00  0.00    -0.217 N 
HETATM   41  C13 UNL     1     -29.171   4.699 -32.359  1.00  0.00     0.143 C 
HETATM   42  C14 UNL     1     -28.100   3.673 -32.520  1.00  0.00     0.053 C 
HETATM   43  C15 UNL     1     -26.724   4.114 -32.151  1.00  0.00     0.186 C 
HETATM   44  C16 UNL     1     -26.672   5.238 -31.147  1.00  0.00     0.053 C 
HETATM   45  C17 UNL     1     -27.911   5.137 -30.280  1.00  0.00     0.143 C 
BRANCH  43  46
HETATM   46  N7  UNL     1     -25.905   4.448 -33.331  1.00  0.00    -0.075 N 
ATOM     47  H73 UNL     1     -25.368   5.300 -33.175  1.00  0.00     0.274 HD
ATOM     48  H72 UNL     1     -25.136   3.788 -33.442  1.00  0.00     0.274 HD
ATOM     49  H71 UNL     1     -26.461   4.514 -34.184  1.00  0.00     0.274 HD
ENDBRANCH  43  46
ENDBRANCH   7  40
TORSDOF 10
ENDMDL
MODEL 2
REMARK VINA RESULT: -7.472617293      4.937     10.054
REMARK  10 active torsions:
REMARK  status: ('A' for Active; 'I' for Inactive)
REMARK    1  A    between atoms: O1_2  and  C2_3 
REMARK    2  A    between atoms: C4_5  and  C5_6 
REMARK    3  A    between atoms: C5_6  and  N1_7 
REMARK    4  A    between atoms: C5_6  and  C18_36 
REMARK    5  A    between atoms: N1_7  and  C6_9 
REMARK    6  A    between atoms: C7_12  and  N3_13 
REMARK    7  A    between atoms: C12_23  and  N6_24 
REMARK    8  A    between atoms: C15_27  and  N7_28 
REMARK    9  A    between atoms: C23_44  and  O2_45 
REMARK   10  A    between atoms: C25_47  and  O3_48 
ROOT
HETATM    1  C6  UNL     1     -35.061   8.961 -22.959  1.00  0.00     0.707 A 
HETATM    2  N2  UNL     1     -36.154   8.238 -22.699  1.00  0.00    -0.021 N 
ATOM      3  H2  UNL     1     -36.248   7.331 -23.154  1.00  0.00     0.203 HD
HETATM    4  C7  UNL     1     -37.153   8.644 -21.859  1.00  0.00     0.709 A 
HETATM    5  N5  UNL     1     -36.978   9.836 -21.293  1.00  0.00    -0.021 N 
ATOM      6  H5  UNL     1     -37.693  10.187 -20.657  1.00  0.00     0.203 HD
HETATM    7  C12 UNL     1     -35.887  10.599 -21.529  1.00  0.00     0.709 A 
HETATM    8  N8  UNL     1     -34.928  10.153 -22.368  1.00  0.00    -0.021 N 
ATOM      9  H8  UNL     1     -34.103  10.724 -22.551  1.00  0.00     0.203 HD
ENDROOT
BRANCH   1  10
HETATM   10  N1  UNL     1     -34.178   8.475 -23.769  1.00  0.00    -0.216 N 
ATOM     11  H1  UNL     1     -34.258   7.498 -24.050  1.00  0.00     0.178 HD
BRANCH  10  12
HETATM   12  C5  UNL     1     -33.081   9.263 -24.292  1.00  0.00     0.139 C 
BRANCH  12  13
HETATM   13  C4  UNL     1     -32.096   8.233 -24.791  1.00  0.00    -0.029 A 
HETATM   14  C3  UNL     1     -31.528   8.251 -26.015  1.00  0.00     0.049 A 
HETATM   15  C2  UNL     1     -30.609   7.259 -26.437  1.00  0.00     0.104 A 
HETATM   16  C25 UNL     1     -30.277   6.213 -25.539  1.00  0.00     0.135 A 
HETATM   17  C23 UNL     1     -30.863   6.216 -24.309  1.00  0.00     0.104 A 
HETATM   18  C22 UNL     1     -31.753   7.191 -23.920  1.00  0.00     0.049 A 
BRANCH  15  19
HETATM   19  O1  UNL     1     -30.077   7.284 -27.597  1.00  0.00    -0.353 OA
HETATM   20  C1  UNL     1     -29.799   7.275 -28.853  1.00  0.00     0.210 C 
ENDBRANCH  15  19
BRANCH  16  21
HETATM   21  O3  UNL     1     -29.370   5.234 -25.952  1.00  0.00    -0.351 OA
HETATM   22  C26 UNL     1     -29.888   4.142 -26.685  1.00  0.00     0.210 C 
ENDBRANCH  16  21
BRANCH  17  23
HETATM   23  O2  UNL     1     -30.529   5.188 -23.438  1.00  0.00    -0.353 OA
HETATM   24  C24 UNL     1     -31.393   4.090 -23.300  1.00  0.00     0.210 C 
ENDBRANCH  17  23
ENDBRANCH  12  13
BRANCH  12  25
HETATM   25  C18 UNL     1     -33.448  10.070 -25.478  1.00  0.00     0.038 C 
HETATM   26  C19 UNL     1     -33.551  11.551 -25.250  1.00  0.00     0.128 C 
HETATM   27  N9  UNL     1     -34.215  11.977 -26.471  1.00  0.00    -0.381 N 
HETATM   28  C20 UNL     1     -34.912  11.016 -26.974  1.00  0.00     0.089 C 
ATOM     29  H9  UNL     1     -34.140  12.911 -26.876  1.00  0.00     0.160 HD
HETATM   30  N10 UNL     1     -35.698  11.042 -28.153  1.00  0.00    -0.088 NA
HETATM   31  C21 UNL     1     -34.779   9.797 -26.099  1.00  0.00     0.081 C 
ENDBRANCH  12  25
ENDBRANCH  10  12
ENDBRANCH   1  10
BRANCH   4  32
HETATM   32  N3  UNL     1     -38.273   7.803 -21.631  1.00  0.00    -0.213 N 
HETATM   33  C8  UNL     1     -39.163   8.105 -20.533  1.00  0.00     0.168 C 
HETATM   34  C9  UNL     1     -40.374   7.187 -20.677  1.00  0.00     0.252 C 
HETATM   35  N4  UNL     1     -39.900   5.837 -20.552  1.00  0.00    -0.072 N 
HETATM   36  C10 UNL     1     -38.947   5.471 -21.558  1.00  0.00     0.252 C 
ATOM     37  H42 UNL     1     -39.521   5.673 -19.619  1.00  0.00     0.277 HD
ATOM     38  H41 UNL     1     -40.679   5.181 -20.536  1.00  0.00     0.277 HD
HETATM   39  C11 UNL     1     -38.546   6.656 -22.444  1.00  0.00     0.168 C 
ENDBRANCH   4  32
BRANCH   7  40
HETATM   40  N6  UNL     1     -35.726  11.859 -20.899  1.00  0.00    -0.217 N 
HETATM   41  C13 UNL     1     -35.315  13.022 -21.611  1.00  0.00     0.143 C 
HETATM   42  C14 UNL     1     -35.156  14.203 -20.713  1.00  0.00     0.053 C 
HETATM   43  C15 UNL     1     -36.228  14.388 -19.694  1.00  0.00     0.186 C 
HETATM   44  C16 UNL     1     -36.950  13.123 -19.304  1.00  0.00     0.053 C 
HETATM   45  C17 UNL     1     -35.983  11.969 -19.479  1.00  0.00     0.143 C 
BRANCH  43  46
HETATM   46  N7  UNL     1     -37.199  15.428 -20.082  1.00  0.00    -0.075 N 
ATOM     47  H73 UNL     1     -36.725  16.283 -20.373  1.00  0.00     0.274 HD
ATOM     48  H72 UNL     1     -37.660  15.190 -20.960  1.00  0.00     0.274 HD
ATOM     49  H71 UNL     1     -37.880  15.617 -19.347  1.00  0.00     0.274 HD
ENDBRANCH  43  46
ENDBRANCH   7  40
TORSDOF 10
ENDMDL
MODEL 3
REMARK VINA RESULT: -7.419800943      5.404     10.086
REMARK  10 active torsions:
REMARK  status: ('A' for Active; 'I' for Inactive)
REMARK    1  A    between atoms: O1_2  and  C2_3 
REMARK    2  A    between atoms: C4_5  and  C5_6 
REMARK    3  A    between atoms: C5_6  and  N1_7 
REMARK    4  A    between atoms: C5_6  and  C18_36 
REMARK    5  A    between atoms: N1_7  and  C6_9 
REMARK    6  A    between atoms: C7_12  and  N3_13 
REMARK    7  A    between atoms: C12_23  and  N6_24 
REMARK    8  A    between atoms: C15_27  and  N7_28 
REMARK    9  A    between atoms: C23_44  and  O2_45 
REMARK   10  A    between atoms: C25_47  and  O3_48 
ROOT
HETATM    1  C6  UNL     1     -35.925   8.404 -23.199  1.00  0.00     0.707 A 
HETATM    2  N2  UNL     1     -36.768   7.373 -23.299  1.00  0.00    -0.021 N 
ATOM      3  H2  UNL     1     -36.593   6.678 -24.024  1.00  0.00     0.203 HD
HETATM    4  C7  UNL     1     -37.853   7.194 -22.486  1.00  0.00     0.709 A 
HETATM    5  N5  UNL     1     -38.034   8.131 -21.557  1.00  0.00    -0.021 N 
ATOM      6  H5  UNL     1     -38.828   8.047 -20.923  1.00  0.00     0.203 HD
HETATM    7  C12 UNL     1     -37.205   9.190 -21.423  1.00  0.00     0.709 A 
HETATM    8  N8  UNL     1     -36.147   9.321 -22.252  1.00  0.00    -0.021 N 
ATOM      9  H8  UNL     1     -35.518  10.118 -22.156  1.00  0.00     0.203 HD
ENDROOT
BRANCH   1  10
HETATM   10  N1  UNL     1     -34.930   8.469 -24.021  1.00  0.00    -0.216 N 
ATOM     11  H1  UNL     1     -34.936   7.867 -24.845  1.00  0.00     0.178 HD
BRANCH  10  12
HETATM   12  C5  UNL     1     -33.807   9.362 -23.820  1.00  0.00     0.139 C 
BRANCH  12  13
HETATM   13  C4  UNL     1     -32.630   8.602 -24.382  1.00  0.00    -0.029 A 
HETATM   14  C3  UNL     1     -32.023   8.891 -25.552  1.00  0.00     0.049 A 
HETATM   15  C2  UNL     1     -30.921   8.146 -26.037  1.00  0.00     0.104 A 
HETATM   16  C25 UNL     1     -30.441   7.058 -25.263  1.00  0.00     0.135 A 
HETATM   17  C23 UNL     1     -31.070   6.785 -24.086  1.00  0.00     0.104 A 
HETATM   18  C22 UNL     1     -32.140   7.523 -23.634  1.00  0.00     0.049 A 
BRANCH  15  19
HETATM   19  O1  UNL     1     -30.353   8.428 -27.145  1.00  0.00    -0.353 OA
HETATM   20  C1  UNL     1     -29.964   8.537 -28.367  1.00  0.00     0.210 C 
ENDBRANCH  15  19
BRANCH  16  21
HETATM   21  O3  UNL     1     -29.353   6.323 -25.739  1.00  0.00    -0.351 OA
HETATM   22  C26 UNL     1     -29.635   5.232 -26.593  1.00  0.00     0.210 C 
ENDBRANCH  16  21
BRANCH  17  23
HETATM   23  O2  UNL     1     -30.591   5.720 -23.337  1.00  0.00    -0.353 OA
HETATM   24  C24 UNL     1     -31.248   4.480 -23.397  1.00  0.00     0.210 C 
ENDBRANCH  17  23
ENDBRANCH  12  13
BRANCH  12  25
HETATM   25  C18 UNL     1     -33.895  10.607 -24.617  1.00  0.00     0.038 C 
HETATM   26  C19 UNL     1     -34.167  11.860 -23.837  1.00  0.00     0.128 C 
HETATM   27  N9  UNL     1     -34.501  12.789 -24.904  1.00  0.00    -0.381 N 
HETATM   28  C20 UNL     1     -34.959  12.160 -25.933  1.00  0.00     0.089 C 
ATOM     29  H9  UNL     1     -34.388  13.801 -24.848  1.00  0.00     0.160 HD
HETATM   30  N10 UNL     1     -35.391  12.714 -27.164  1.00  0.00    -0.088 NA
HETATM   31  C21 UNL     1     -34.980  10.682 -25.641  1.00  0.00     0.081 C 
ENDBRANCH  12  25
ENDBRANCH  10  12
ENDBRANCH   1  10
BRANCH   4  32
HETATM   32  N3  UNL     1     -38.688   6.059 -22.656  1.00  0.00    -0.213 N 
HETATM   33  C8  UNL     1     -38.729   5.058 -21.614  1.00  0.00     0.168 C 
HETATM   34  C9  UNL     1     -39.862   4.098 -21.965  1.00  0.00     0.252 C 
HETATM   35  N4  UNL     1     -39.519   3.476 -23.213  1.00  0.00    -0.072 N 
HETATM   36  C10 UNL     1     -39.380   4.406 -24.295  1.00  0.00     0.252 C 
ATOM     37  H42 UNL     1     -38.678   2.908 -23.114  1.00  0.00     0.277 HD
ATOM     38  H41 UNL     1     -40.191   2.746 -23.449  1.00  0.00     0.277 HD
HETATM   39  C11 UNL     1     -39.483   5.863 -23.831  1.00  0.00     0.168 C 
ENDBRANCH   4  32
BRANCH   7  40
HETATM   40  N6  UNL     1     -37.419  10.164 -20.414  1.00  0.00    -0.217 N 
HETATM   41  C13 UNL     1     -36.357  10.922 -19.847  1.00  0.00     0.143 C 
HETATM   42  C14 UNL     1     -36.831  11.830 -18.762  1.00  0.00     0.053 C 
HETATM   43  C15 UNL     1     -38.099  12.563 -19.043  1.00  0.00     0.186 C 
HETATM   44  C16 UNL     1     -39.010  11.886 -20.036  1.00  0.00     0.053 C 
HETATM   45  C17 UNL     1     -38.767  10.393 -19.939  1.00  0.00     0.143 C 
BRANCH  43  46
HETATM   46  N7  UNL     1     -37.862  13.962 -19.442  1.00  0.00    -0.075 N 
ATOM     47  H73 UNL     1     -36.908  14.250 -19.224  1.00  0.00     0.274 HD
ATOM     48  H72 UNL     1     -37.834  14.055 -20.457  1.00  0.00     0.274 HD
ATOM     49  H71 UNL     1     -38.542  14.604 -19.032  1.00  0.00     0.274 HD
ENDBRANCH  43  46
ENDBRANCH   7  40
TORSDOF 10
ENDMDL
MODEL 4
REMARK VINA RESULT: -7.379744548      5.180      9.580
REMARK  10 active torsions:
REMARK  status: ('A' for Active; 'I' for Inactive)
REMARK    1  A    between atoms: O1_2  and  C2_3 
REMARK    2  A    between atoms: C4_5  and  C5_6 
REMARK    3  A    between atoms: C5_6  and  N1_7 
REMARK    4  A    between atoms: C5_6  and  C18_36 
REMARK    5  A    between atoms: N1_7  and  C6_9 
REMARK    6  A    between atoms: C7_12  and  N3_13 
REMARK    7  A    between atoms: C12_23  and  N6_24 
REMARK    8  A    between atoms: C15_27  and  N7_28 
REMARK    9  A    between atoms: C23_44  and  O2_45 
REMARK   10  A    between atoms: C25_47  and  O3_48 
ROOT
HETATM    1  C6  UNL     1     -35.730   8.600 -23.509  1.00  0.00     0.707 A 
HETATM    2  N2  UNL     1     -35.789   9.512 -22.536  1.00  0.00    -0.021 N 
ATOM      3  H2  UNL     1     -35.092  10.257 -22.534  1.00  0.00     0.203 HD
HETATM    4  C7  UNL     1     -36.727   9.506 -21.542  1.00  0.00     0.709 A 
HETATM    5  N5  UNL     1     -37.611   8.512 -21.593  1.00  0.00    -0.021 N 
ATOM      6  H5  UNL     1     -38.333   8.460 -20.876  1.00  0.00     0.203 HD
HETATM    7  C12 UNL     1     -37.587   7.568 -22.561  1.00  0.00     0.709 A 
HETATM    8  N8  UNL     1     -36.639   7.618 -23.520  1.00  0.00    -0.021 N 
ATOM      9  H8  UNL     1     -36.615   6.909 -24.253  1.00  0.00     0.203 HD
ENDROOT
BRANCH   1  10
HETATM   10  N1  UNL     1     -34.800   8.706 -24.400  1.00  0.00    -0.216 N 
ATOM     11  H1  UNL     1     -34.897   8.187 -25.273  1.00  0.00     0.178 HD
BRANCH  10  12
HETATM   12  C5  UNL     1     -33.625   9.532 -24.209  1.00  0.00     0.139 C 
BRANCH  12  13
HETATM   13  C4  UNL     1     -32.489   8.675 -24.715  1.00  0.00    -0.029 A 
HETATM   14  C3  UNL     1     -31.873   8.849 -25.903  1.00  0.00     0.049 A 
HETATM   15  C2  UNL     1     -30.811   8.016 -26.333  1.00  0.00     0.104 A 
HETATM   16  C25 UNL     1     -30.383   6.964 -25.483  1.00  0.00     0.135 A 
HETATM   17  C23 UNL     1     -31.021   6.809 -24.289  1.00  0.00     0.104 A 
HETATM   18  C22 UNL     1     -32.050   7.630 -23.891  1.00  0.00     0.049 A 
BRANCH  15  19
HETATM   19  O1  UNL     1     -30.234   8.189 -27.459  1.00  0.00    -0.353 OA
HETATM   20  C1  UNL     1     -29.898   8.292 -28.697  1.00  0.00     0.210 C 
ENDBRANCH  15  19
BRANCH  16  21
HETATM   21  O3  UNL     1     -29.335   6.143 -25.905  1.00  0.00    -0.351 OA
HETATM   22  C26 UNL     1     -29.677   4.989 -26.646  1.00  0.00     0.210 C 
ENDBRANCH  16  21
BRANCH  17  23
HETATM   23  O2  UNL     1     -30.592   5.778 -23.464  1.00  0.00    -0.353 OA
HETATM   24  C24 UNL     1     -31.340   4.591 -23.395  1.00  0.00     0.210 C 
ENDBRANCH  17  23
ENDBRANCH  12  13
BRANCH  12  25
HETATM   25  C18 UNL     1     -33.615  10.746 -25.055  1.00  0.00     0.038 C 
HETATM   26  C19 UNL     1     -33.809  12.046 -24.330  1.00  0.00     0.128 C 
HETATM   27  N9  UNL     1     -34.064  12.952 -25.438  1.00  0.00    -0.381 N 
HETATM   28  C20 UNL     1     -34.552  12.315 -26.448  1.00  0.00     0.089 C 
ATOM     29  H9  UNL     1     -33.882  13.956 -25.420  1.00  0.00     0.160 HD
HETATM   30  N10 UNL     1     -34.928  12.848 -27.707  1.00  0.00    -0.088 NA
HETATM   31  C21 UNL     1     -34.680  10.855 -26.099  1.00  0.00     0.081 C 
ENDBRANCH  12  25
ENDBRANCH  10  12
ENDBRANCH   1  10
BRANCH   4  32
HETATM   32  N3  UNL     1     -36.720  10.526 -20.555  1.00  0.00    -0.213 N 
HETATM   33  C8  UNL     1     -37.980  10.976 -20.005  1.00  0.00     0.168 C 
HETATM   34  C9  UNL     1     -37.650  11.889 -18.828  1.00  0.00     0.252 C 
HETATM   35  N4  UNL     1     -36.927  13.014 -19.354  1.00  0.00    -0.072 N 
HETATM   36  C10 UNL     1     -35.694  12.653 -19.990  1.00  0.00     0.252 C 
ATOM     37  H42 UNL     1     -37.515  13.557 -19.986  1.00  0.00     0.277 HD
ATOM     38  H41 UNL     1     -36.769  13.712 -18.628  1.00  0.00     0.277 HD
HETATM   39  C11 UNL     1     -35.511  11.135 -20.092  1.00  0.00     0.168 C 
ENDBRANCH   4  32
BRANCH   7  40
HETATM   40  N6  UNL     1     -38.552   6.529 -22.593  1.00  0.00    -0.217 N 
HETATM   41  C13 UNL     1     -38.993   5.935 -23.809  1.00  0.00     0.143 C 
HETATM   42  C14 UNL     1     -40.057   4.915 -23.582  1.00  0.00     0.053 C 
HETATM   43  C15 UNL     1     -39.832   3.993 -22.432  1.00  0.00     0.186 C 
HETATM   44  C16 UNL     1     -38.950   4.550 -21.343  1.00  0.00     0.053 C 
HETATM   45  C17 UNL     1     -39.113   6.057 -21.346  1.00  0.00     0.143 C 
BRANCH  43  46
HETATM   46  N7  UNL     1     -39.338   2.672 -22.859  1.00  0.00    -0.075 N 
ATOM     47  H73 UNL     1     -40.106   2.069 -23.153  1.00  0.00     0.274 HD
ATOM     48  H72 UNL     1     -38.834   2.736 -23.744  1.00  0.00     0.274 HD
ATOM     49  H71 UNL     1     -38.768   2.219 -22.144  1.00  0.00     0.274 HD
ENDBRANCH  43  46
ENDBRANCH   7  40
TORSDOF 10
ENDMDL
MODEL 5
REMARK VINA RESULT: -7.340294677      4.558      9.050
REMARK  10 active torsions:
REMARK  status: ('A' for Active; 'I' for Inactive)
REMARK    1  A    between atoms: O1_2  and  C2_3 
REMARK    2  A    between atoms: C4_5  and  C5_6 
REMARK    3  A    between atoms: C5_6  and  N1_7 
REMARK    4  A    between atoms: C5_6  and  C18_36 
REMARK    5  A    between atoms: N1_7  and  C6_9 
REMARK    6  A    between atoms: C7_12  and  N3_13 
REMARK    7  A    between atoms: C12_23  and  N6_24 
REMARK    8  A    between atoms: C15_27  and  N7_28 
REMARK    9  A    between atoms: C23_44  and  O2_45 
REMARK   10  A    between atoms: C25_47  and  O3_48 
ROOT
HETATM    1  C6  UNL     1     -35.333   9.507 -24.686  1.00  0.00     0.707 A 
HETATM    2  N2  UNL     1     -35.390  10.556 -23.862  1.00  0.00    -0.021 N 
ATOM      3  H2  UNL     1     -34.754  11.335 -24.032  1.00  0.00     0.203 HD
HETATM    4  C7  UNL     1     -36.250  10.648 -22.803  1.00  0.00     0.709 A 
HETATM    5  N5  UNL     1     -37.057   9.604 -22.627  1.00  0.00    -0.021 N 
ATOM      6  H5  UNL     1     -37.719   9.621 -21.852  1.00  0.00     0.203 HD
HETATM    7  C12 UNL     1     -37.032   8.522 -23.438  1.00  0.00     0.709 A 
HETATM    8  N8  UNL     1     -36.163   8.480 -24.470  1.00  0.00    -0.021 N 
ATOM      9  H8  UNL     1     -36.139   7.667 -25.085  1.00  0.00     0.203 HD
ENDROOT
BRANCH   1  10
HETATM   10  N1  UNL     1     -34.481   9.530 -25.657  1.00  0.00    -0.216 N 
ATOM     11  H1  UNL     1     -34.784   9.219 -26.580  1.00  0.00     0.178 HD
BRANCH  10  12
HETATM   12  C5  UNL     1     -33.114   9.979 -25.488  1.00  0.00     0.139 C 
BRANCH  12  13
HETATM   13  C4  UNL     1     -32.396   8.768 -24.943  1.00  0.00    -0.029 A 
HETATM   14  C3  UNL     1     -31.651   7.925 -25.689  1.00  0.00     0.049 A 
HETATM   15  C2  UNL     1     -30.997   6.799 -25.130  1.00  0.00     0.104 A 
HETATM   16  C25 UNL     1     -31.131   6.555 -23.739  1.00  0.00     0.135 A 
HETATM   17  C23 UNL     1     -31.888   7.420 -23.008  1.00  0.00     0.104 A 
HETATM   18  C22 UNL     1     -32.515   8.507 -23.572  1.00  0.00     0.049 A 
BRANCH  15  19
HETATM   19  O1  UNL     1     -30.294   6.007 -25.843  1.00  0.00    -0.353 OA
HETATM   20  C1  UNL     1     -29.782   5.251 -26.749  1.00  0.00     0.210 C 
ENDBRANCH  15  19
BRANCH  16  21
HETATM   21  O3  UNL     1     -30.485   5.446 -23.186  1.00  0.00    -0.351 OA
HETATM   22  C26 UNL     1     -31.175   4.213 -23.222  1.00  0.00     0.210 C 
ENDBRANCH  16  21
BRANCH  17  23
HETATM   23  O2  UNL     1     -32.011   7.171 -21.648  1.00  0.00    -0.353 OA
HETATM   24  C24 UNL     1     -32.746   8.059 -20.846  1.00  0.00     0.210 C 
ENDBRANCH  17  23
ENDBRANCH  12  13
BRANCH  12  25
HETATM   25  C18 UNL     1     -32.439  10.303 -26.765  1.00  0.00     0.038 C 
HETATM   26  C19 UNL     1     -31.818  11.668 -26.844  1.00  0.00     0.128 C 
HETATM   27  N9  UNL     1     -31.546  11.771 -28.269  1.00  0.00    -0.381 N 
HETATM   28  C20 UNL     1     -32.352  11.024 -28.944  1.00  0.00     0.089 C 
ATOM     29  H9  UNL     1     -30.817  12.355 -28.678  1.00  0.00     0.160 HD
HETATM   30  N10 UNL     1     -32.401  10.856 -30.351  1.00  0.00    -0.088 NA
HETATM   31  C21 UNL     1     -33.285  10.317 -27.996  1.00  0.00     0.081 C 
ENDBRANCH  12  25
ENDBRANCH  10  12
ENDBRANCH   1  10
BRANCH   4  32
HETATM   32  N3  UNL     1     -36.249  11.810 -21.987  1.00  0.00    -0.213 N 
HETATM   33  C8  UNL     1     -35.538  12.983 -22.443  1.00  0.00     0.168 C 
HETATM   34  C9  UNL     1     -35.902  14.120 -21.491  1.00  0.00     0.252 C 
HETATM   35  N4  UNL     1     -35.428  13.749 -20.188  1.00  0.00    -0.072 N 
HETATM   36  C10 UNL     1     -36.024  12.546 -19.684  1.00  0.00     0.252 C 
ATOM     37  H42 UNL     1     -34.410  13.679 -20.180  1.00  0.00     0.277 HD
ATOM     38  H41 UNL     1     -35.550  14.516 -19.528  1.00  0.00     0.277 HD
HETATM   39  C11 UNL     1     -36.917  11.858 -20.722  1.00  0.00     0.168 C 
ENDBRANCH   4  32
BRANCH   7  40
HETATM   40  N6  UNL     1     -37.915   7.432 -23.230  1.00  0.00    -0.217 N 
HETATM   41  C13 UNL     1     -37.818   6.220 -23.970  1.00  0.00     0.143 C 
HETATM   42  C14 UNL     1     -38.899   5.256 -23.613  1.00  0.00     0.053 C 
HETATM   43  C15 UNL     1     -39.194   5.128 -22.157  1.00  0.00     0.186 C 
HETATM   44  C16 UNL     1     -38.839   6.341 -21.334  1.00  0.00     0.053 C 
HETATM   45  C17 UNL     1     -38.956   7.556 -22.233  1.00  0.00     0.143 C 
BRANCH  43  46
HETATM   46  N7  UNL     1     -38.593   3.919 -21.566  1.00  0.00    -0.075 N 
ATOM     47  H73 UNL     1     -38.363   3.233 -22.285  1.00  0.00     0.274 HD
ATOM     48  H72 UNL     1     -37.654   4.110 -21.216  1.00  0.00     0.274 HD
ATOM     49  H71 UNL     1     -39.179   3.508 -20.839  1.00  0.00     0.274 HD
ENDBRANCH  43  46
ENDBRANCH   7  40
TORSDOF 10
ENDMDL
