MODEL 1
REMARK VINA RESULT: -8.387154569      0.000      0.000
REMARK  12 active torsions:
REMARK  status: ('A' for Active; 'I' for Inactive)
REMARK    1  A    between atoms: C2_2  and  S1_4 
REMARK    2  A    between atoms: S1_4  and  C3_5 
REMARK    3  A    between atoms: C3_5  and  C4_6 
REMARK    4  A    between atoms: C4_6  and  C5_7 
REMARK    5  A    between atoms: C5_7  and  C6_8 
REMARK    6  A    between atoms: C6_8  and  C7_9 
REMARK    7  A    between atoms: C7_9  and  C8_10 
REMARK    8  A    between atoms: C8_10  and  C9_11 
REMARK    9  A    between atoms: C9_11  and  C10_12 
REMARK       I    between atoms: C10_12  and  N1_14 
REMARK   10  A    between atoms: N1_14  and  C11_16 
REMARK   11  A    between atoms: C27_33  and  O3_34 
REMARK   12  A    between atoms: C33_41  and  N2_43 
ROOT
HETATM    1  C11 UNL     1      15.249 -37.934  11.341  1.00  0.00     0.124 C 
HETATM    2  C12 UNL     1      14.680 -39.039  10.519  1.00  0.00     0.029 C 
HETATM    3  C13 UNL     1      15.805 -39.459   9.552  1.00  0.00     0.012 C 
HETATM    4  C14 UNL     1      16.803 -40.219  10.340  1.00  0.00    -0.031 C 
HETATM    5  C15 UNL     1      15.981 -41.232  11.164  1.00  0.00     0.016 C 
HETATM    6  C16 UNL     1      17.860 -40.965   9.622  1.00  0.00     0.034 C 
HETATM    7  C17 UNL     1      19.228 -40.746  10.273  1.00  0.00     0.001 C 
HETATM    8  C18 UNL     1      19.206 -40.849  11.747  1.00  0.00     0.006 C 
HETATM    9  C19 UNL     1      18.225 -39.932  12.386  1.00  0.00     0.009 C 
HETATM   10  C20 UNL     1      17.436 -39.212  11.284  1.00  0.00     0.036 C 
HETATM   11  C21 UNL     1      16.556 -38.266  11.982  1.00  0.00     0.124 C 
HETATM   12  C22 UNL     1      17.309 -36.951  12.184  1.00  0.00     0.054 C 
HETATM   13  F1  UNL     1      16.281 -38.711  13.284  1.00  0.00    -0.241 F 
HETATM   14  C23 UNL     1      20.245 -41.775   9.757  1.00  0.00    -0.035 C 
HETATM   15  C24 UNL     1      19.881 -43.175  10.032  1.00  0.00     0.016 C 
HETATM   16  C25 UNL     1      21.542 -41.468  10.492  1.00  0.00     0.012 C 
HETATM   17  C26 UNL     1      22.714 -42.174   9.798  1.00  0.00     0.033 C 
HETATM   18  C27 UNL     1      22.836 -41.608   8.426  1.00  0.00     0.126 C 
HETATM   19  C28 UNL     1      21.585 -41.965   7.630  1.00  0.00    -0.017 C 
HETATM   20  C29 UNL     1      21.743 -41.224   6.294  1.00  0.00     0.018 C 
HETATM   21  C30 UNL     1      21.521 -43.421   7.310  1.00  0.00     0.018 C 
HETATM   22  C31 UNL     1      20.394 -41.411   8.303  1.00  0.00     0.007 C 
HETATM   23  C32 UNL     1      19.105 -41.714   7.641  1.00  0.00     0.045 C 
HETATM   24  C33 UNL     1      17.954 -40.821   8.143  1.00  0.00     0.125 C 
HETATM   25  C34 UNL     1      18.231 -39.466   7.608  1.00  0.00     0.046 C 
ENDROOT
BRANCH   1  26
HETATM   26  N1  UNL     1      14.233 -37.547  12.300  1.00  0.00    -0.353 N 
HETATM   27  C10 UNL     1      13.754 -36.257  12.497  1.00  0.00     0.217 C 
HETATM   28  O2  UNL     1      14.193 -35.306  11.820  1.00  0.00    -0.274 OA
ATOM     29  H1  UNL     1      13.835 -38.285  12.882  1.00  0.00     0.163 HD
BRANCH  27  30
HETATM   30  C9  UNL     1      12.720 -35.990  13.509  1.00  0.00     0.103 C 
BRANCH  30  31
HETATM   31  C8  UNL     1      11.741 -37.141  13.508  1.00  0.00     0.009 C 
BRANCH  31  32
HETATM   32  C7  UNL     1      11.061 -37.290  12.136  1.00  0.00     0.000 C 
BRANCH  32  33
HETATM   33  C6  UNL     1      10.415 -38.633  12.150  1.00  0.00     0.000 C 
BRANCH  33  34
HETATM   34  C5  UNL     1      11.114 -39.748  11.503  1.00  0.00     0.001 C 
BRANCH  34  35
HETATM   35  C4  UNL     1      11.845 -40.764  12.267  1.00  0.00     0.010 C 
BRANCH  35  36
HETATM   36  C3  UNL     1      12.342 -41.988  11.597  1.00  0.00     0.082 C 
BRANCH  36  37
HETATM   37  S1  UNL     1      11.905 -42.099   9.850  1.00  0.00    -0.093 SA
BRANCH  37  38
HETATM   38  C2  UNL     1      13.311 -42.338   8.824  1.00  0.00     0.182 C 
HETATM   39  C1  UNL     1      14.176 -43.528   8.961  1.00  0.00     0.104 C 
HETATM   40  O1  UNL     1      13.644 -41.536   7.948  1.00  0.00    -0.286 OA
ENDBRANCH  37  38
ENDBRANCH  36  37
ENDBRANCH  35  36
ENDBRANCH  34  35
ENDBRANCH  33  34
ENDBRANCH  32  33
ENDBRANCH  31  32
ENDBRANCH  30  31
ENDBRANCH  27  30
ENDBRANCH   1  26
BRANCH  24  41
HETATM   41  N2  UNL     1      16.823 -41.473   7.452  1.00  0.00    -0.070 N 
ATOM     42  H23 UNL     1      16.013 -41.560   8.067  1.00  0.00     0.275 HD
ATOM     43  H22 UNL     1      16.420 -40.862   6.742  1.00  0.00     0.275 HD
ATOM     44  H21 UNL     1      17.087 -42.375   7.058  1.00  0.00     0.275 HD
ENDBRANCH  24  41
BRANCH  18  45
HETATM   45  O3  UNL     1      22.879 -40.218   8.509  1.00  0.00    -0.395 OA
ATOM     46  H3  UNL     1      23.180 -39.866   7.679  1.00  0.00     0.210 HD
ENDBRANCH  18  45
TORSDOF 12
ENDMDL
MODEL 2
REMARK VINA RESULT: -8.267014135      2.912      5.138
REMARK  12 active torsions:
REMARK  status: ('A' for Active; 'I' for Inactive)
REMARK    1  A    between atoms: C2_2  and  S1_4 
REMARK    2  A    between atoms: S1_4  and  C3_5 
REMARK    3  A    between atoms: C3_5  and  C4_6 
REMARK    4  A    between atoms: C4_6  and  C5_7 
REMARK    5  A    between atoms: C5_7  and  C6_8 
REMARK    6  A    between atoms: C6_8  and  C7_9 
REMARK    7  A    between atoms: C7_9  and  C8_10 
REMARK    8  A    between atoms: C8_10  and  C9_11 
REMARK    9  A    between atoms: C9_11  and  C10_12 
REMARK       I    between atoms: C10_12  and  N1_14 
REMARK   10  A    between atoms: N1_14  and  C11_16 
REMARK   11  A    between atoms: C27_33  and  O3_34 
REMARK   12  A    between atoms: C33_41  and  N2_43 
ROOT
HETATM    1  C11 UNL     1      15.757 -40.935  10.204  1.00  0.00     0.124 C 
HETATM    2  C12 UNL     1      16.957 -41.258  11.025  1.00  0.00     0.029 C 
HETATM    3  C13 UNL     1      17.835 -42.166  10.140  1.00  0.00     0.012 C 
HETATM    4  C14 UNL     1      18.459 -41.305   9.108  1.00  0.00    -0.031 C 
HETATM    5  C15 UNL     1      19.016 -40.090   9.879  1.00  0.00     0.016 C 
HETATM    6  C16 UNL     1      19.551 -41.862   8.281  1.00  0.00     0.034 C 
HETATM    7  C17 UNL     1      19.362 -41.504   6.804  1.00  0.00     0.001 C 
HETATM    8  C18 UNL     1      18.992 -40.090   6.579  1.00  0.00     0.006 C 
HETATM    9  C19 UNL     1      17.776 -39.675   7.327  1.00  0.00     0.009 C 
HETATM   10  C20 UNL     1      17.322 -40.842   8.213  1.00  0.00     0.036 C 
HETATM   11  C21 UNL     1      16.076 -40.395   8.850  1.00  0.00     0.124 C 
HETATM   12  C22 UNL     1      14.902 -40.744   7.933  1.00  0.00     0.054 C 
HETATM   13  F1  UNL     1      16.039 -38.995   8.940  1.00  0.00    -0.241 F 
HETATM   14  C23 UNL     1      20.650 -41.773   6.012  1.00  0.00    -0.035 C 
HETATM   15  C24 UNL     1      21.816 -40.999   6.473  1.00  0.00     0.016 C 
HETATM   16  C25 UNL     1      20.340 -41.357   4.581  1.00  0.00     0.012 C 
HETATM   17  C26 UNL     1      21.407 -41.919   3.632  1.00  0.00     0.033 C 
HETATM   18  C27 UNL     1      21.327 -43.405   3.690  1.00  0.00     0.126 C 
HETATM   19  C28 UNL     1      21.710 -43.867   5.093  1.00  0.00    -0.017 C 
HETATM   20  C29 UNL     1      21.462 -45.383   5.091  1.00  0.00     0.018 C 
HETATM   21  C30 UNL     1      23.163 -43.670   5.370  1.00  0.00     0.018 C 
HETATM   22  C31 UNL     1      20.790 -43.270   6.080  1.00  0.00     0.007 C 
HETATM   23  C32 UNL     1      21.074 -43.620   7.491  1.00  0.00     0.045 C 
HETATM   24  C33 UNL     1      19.895 -43.302   8.431  1.00  0.00     0.125 C 
HETATM   25  C34 UNL     1      18.840 -44.291   8.106  1.00  0.00     0.046 C 
ENDROOT
BRANCH   1  26
HETATM   26  N1  UNL     1      14.930 -40.038  10.989  1.00  0.00    -0.353 N 
HETATM   27  C10 UNL     1      13.616 -40.277  11.375  1.00  0.00     0.217 C 
HETATM   28  O2  UNL     1      13.042 -41.336  11.054  1.00  0.00    -0.274 OA
ATOM     29  H1  UNL     1      15.349 -39.156  11.283  1.00  0.00     0.163 HD
BRANCH  27  30
HETATM   30  C9  UNL     1      12.879 -39.283  12.170  1.00  0.00     0.103 C 
BRANCH  30  31
HETATM   31  C8  UNL     1      13.875 -38.467  12.960  1.00  0.00     0.009 C 
BRANCH  31  32
HETATM   32  C7  UNL     1      13.924 -37.014  12.458  1.00  0.00     0.000 C 
BRANCH  32  33
HETATM   33  C6  UNL     1      15.337 -36.572  12.636  1.00  0.00     0.000 C 
BRANCH  33  34
HETATM   34  C5  UNL     1      16.369 -37.185  11.792  1.00  0.00     0.001 C 
BRANCH  34  35
HETATM   35  C4  UNL     1      17.527 -37.886  12.355  1.00  0.00     0.010 C 
BRANCH  35  36
HETATM   36  C3  UNL     1      17.395 -38.655  13.615  1.00  0.00     0.082 C 
BRANCH  36  37
HETATM   37  S1  UNL     1      18.758 -38.407  14.773  1.00  0.00    -0.093 SA
BRANCH  37  38
HETATM   38  C2  UNL     1      20.051 -39.573  14.541  1.00  0.00     0.182 C 
HETATM   39  C1  UNL     1      20.081 -40.474  13.370  1.00  0.00     0.104 C 
HETATM   40  O1  UNL     1      20.988 -39.699  15.333  1.00  0.00    -0.286 OA
ENDBRANCH  37  38
ENDBRANCH  36  37
ENDBRANCH  35  36
ENDBRANCH  34  35
ENDBRANCH  33  34
ENDBRANCH  32  33
ENDBRANCH  31  32
ENDBRANCH  30  31
ENDBRANCH  27  30
ENDBRANCH   1  26
BRANCH  24  41
HETATM   41  N2  UNL     1      20.541 -43.582   9.730  1.00  0.00    -0.070 N 
ATOM     42  H23 UNL     1      21.346 -44.198   9.619  1.00  0.00     0.275 HD
ATOM     43  H22 UNL     1      21.020 -42.757  10.092  1.00  0.00     0.275 HD
ATOM     44  H21 UNL     1      19.880 -43.955  10.411  1.00  0.00     0.275 HD
ENDBRANCH  24  41
BRANCH  18  45
HETATM   45  O3  UNL     1      20.007 -43.799   3.482  1.00  0.00    -0.395 OA
ATOM     46  H3  UNL     1      19.995 -44.550   2.900  1.00  0.00     0.210 HD
ENDBRANCH  18  45
TORSDOF 12
ENDMDL
MODEL 3
REMARK VINA RESULT: -8.237537941      1.764      2.343
REMARK  12 active torsions:
REMARK  status: ('A' for Active; 'I' for Inactive)
REMARK    1  A    between atoms: C2_2  and  S1_4 
REMARK    2  A    between atoms: S1_4  and  C3_5 
REMARK    3  A    between atoms: C3_5  and  C4_6 
REMARK    4  A    between atoms: C4_6  and  C5_7 
REMARK    5  A    between atoms: C5_7  and  C6_8 
REMARK    6  A    between atoms: C6_8  and  C7_9 
REMARK    7  A    between atoms: C7_9  and  C8_10 
REMARK    8  A    between atoms: C8_10  and  C9_11 
REMARK    9  A    between atoms: C9_11  and  C10_12 
REMARK       I    between atoms: C10_12  and  N1_14 
REMARK   10  A    between atoms: N1_14  and  C11_16 
REMARK   11  A    between atoms: C27_33  and  O3_34 
REMARK   12  A    between atoms: C33_41  and  N2_43 
ROOT
HETATM    1  C11 UNL     1      15.431 -37.687  11.236  1.00  0.00     0.124 C 
HETATM    2  C12 UNL     1      14.820 -38.859  10.548  1.00  0.00     0.029 C 
HETATM    3  C13 UNL     1      15.898 -39.379   9.576  1.00  0.00     0.012 C 
HETATM    4  C14 UNL     1      16.927 -40.070  10.387  1.00  0.00    -0.031 C 
HETATM    5  C15 UNL     1      16.138 -40.994  11.339  1.00  0.00     0.016 C 
HETATM    6  C16 UNL     1      17.946 -40.890   9.696  1.00  0.00     0.034 C 
HETATM    7  C17 UNL     1      19.344 -40.623  10.262  1.00  0.00     0.001 C 
HETATM    8  C18 UNL     1      19.388 -40.587  11.738  1.00  0.00     0.006 C 
HETATM    9  C19 UNL     1      18.442 -39.605  12.331  1.00  0.00     0.009 C 
HETATM   10  C20 UNL     1      17.608 -38.985  11.203  1.00  0.00     0.036 C 
HETATM   11  C21 UNL     1      16.764 -37.969  11.846  1.00  0.00     0.124 C 
HETATM   12  C22 UNL     1      17.533 -36.648  11.889  1.00  0.00     0.054 C 
HETATM   13  F1  UNL     1      16.546 -38.287  13.195  1.00  0.00    -0.241 F 
HETATM   14  C23 UNL     1      20.331 -41.705   9.799  1.00  0.00    -0.035 C 
HETATM   15  C24 UNL     1      19.973 -43.071  10.222  1.00  0.00     0.016 C 
HETATM   16  C25 UNL     1      21.662 -41.342  10.443  1.00  0.00     0.012 C 
HETATM   17  C26 UNL     1      22.798 -42.122   9.768  1.00  0.00     0.033 C 
HETATM   18  C27 UNL     1      22.860 -41.689   8.345  1.00  0.00     0.126 C 
HETATM   19  C28 UNL     1      21.572 -42.107   7.643  1.00  0.00    -0.017 C 
HETATM   20  C29 UNL     1      21.674 -41.497   6.236  1.00  0.00     0.018 C 
HETATM   21  C30 UNL     1      21.487 -43.586   7.464  1.00  0.00     0.018 C 
HETATM   22  C31 UNL     1      20.416 -41.482   8.313  1.00  0.00     0.007 C 
HETATM   23  C32 UNL     1      19.096 -41.834   7.741  1.00  0.00     0.045 C 
HETATM   24  C33 UNL     1      17.974 -40.886   8.207  1.00  0.00     0.125 C 
HETATM   25  C34 UNL     1      18.233 -39.591   7.535  1.00  0.00     0.046 C 
ENDROOT
BRANCH   1  26
HETATM   26  N1  UNL     1      14.461 -37.202  12.199  1.00  0.00    -0.353 N 
HETATM   27  C10 UNL     1      14.046 -35.882  12.336  1.00  0.00     0.217 C 
HETATM   28  O2  UNL     1      14.506 -34.991  11.595  1.00  0.00    -0.274 OA
ATOM     29  H1  UNL     1      14.048 -37.888  12.831  1.00  0.00     0.163 HD
BRANCH  27  30
HETATM   30  C9  UNL     1      13.055 -35.514  13.358  1.00  0.00     0.103 C 
BRANCH  30  31
HETATM   31  C8  UNL     1      11.991 -36.586  13.404  1.00  0.00     0.009 C 
BRANCH  31  32
HETATM   32  C7  UNL     1      11.261 -36.699  12.054  1.00  0.00     0.000 C 
BRANCH  32  33
HETATM   33  C6  UNL     1      10.609 -38.040  12.060  1.00  0.00     0.000 C 
BRANCH  33  34
HETATM   34  C5  UNL     1      11.435 -39.216  11.762  1.00  0.00     0.001 C 
BRANCH  34  35
HETATM   35  C4  UNL     1      11.235 -40.504  12.435  1.00  0.00     0.010 C 
BRANCH  35  36
HETATM   36  C3  UNL     1      10.503 -40.570  13.721  1.00  0.00     0.082 C 
BRANCH  36  37
HETATM   37  S1  UNL     1      11.556 -40.893  15.150  1.00  0.00    -0.093 SA
BRANCH  37  38
HETATM   38  C2  UNL     1      12.685 -39.582  15.456  1.00  0.00     0.182 C 
HETATM   39  C1  UNL     1      13.981 -39.496  14.751  1.00  0.00     0.104 C 
HETATM   40  O1  UNL     1      12.459 -38.679  16.265  1.00  0.00    -0.286 OA
ENDBRANCH  37  38
ENDBRANCH  36  37
ENDBRANCH  35  36
ENDBRANCH  34  35
ENDBRANCH  33  34
ENDBRANCH  32  33
ENDBRANCH  31  32
ENDBRANCH  30  31
ENDBRANCH  27  30
ENDBRANCH   1  26
BRANCH  24  41
HETATM   41  N2  UNL     1      16.809 -41.591   7.632  1.00  0.00    -0.070 N 
ATOM     42  H23 UNL     1      16.112 -41.798   8.347  1.00  0.00     0.275 HD
ATOM     43  H22 UNL     1      16.255 -40.971   7.042  1.00  0.00     0.275 HD
ATOM     44  H21 UNL     1      17.085 -42.433   7.128  1.00  0.00     0.275 HD
ENDBRANCH  24  41
BRANCH  18  45
HETATM   45  O3  UNL     1      22.914 -40.297   8.294  1.00  0.00    -0.395 OA
ATOM     46  H3  UNL     1      23.521 -40.034   7.612  1.00  0.00     0.210 HD
ENDBRANCH  18  45
TORSDOF 12
ENDMDL
MODEL 4
REMARK VINA RESULT: -8.080979457      1.697      2.189
REMARK  12 active torsions:
REMARK  status: ('A' for Active; 'I' for Inactive)
REMARK    1  A    between atoms: C2_2  and  S1_4 
REMARK    2  A    between atoms: S1_4  and  C3_5 
REMARK    3  A    between atoms: C3_5  and  C4_6 
REMARK    4  A    between atoms: C4_6  and  C5_7 
REMARK    5  A    between atoms: C5_7  and  C6_8 
REMARK    6  A    between atoms: C6_8  and  C7_9 
REMARK    7  A    between atoms: C7_9  and  C8_10 
REMARK    8  A    between atoms: C8_10  and  C9_11 
REMARK    9  A    between atoms: C9_11  and  C10_12 
REMARK       I    between atoms: C10_12  and  N1_14 
REMARK   10  A    between atoms: N1_14  and  C11_16 
REMARK   11  A    between atoms: C27_33  and  O3_34 
REMARK   12  A    between atoms: C33_41  and  N2_43 
ROOT
HETATM    1  C11 UNL     1      15.419 -37.767  11.248  1.00  0.00     0.124 C 
HETATM    2  C12 UNL     1      14.809 -38.903  10.501  1.00  0.00     0.029 C 
HETATM    3  C13 UNL     1      15.904 -39.402   9.537  1.00  0.00     0.012 C 
HETATM    4  C14 UNL     1      16.902 -40.139  10.347  1.00  0.00    -0.031 C 
HETATM    5  C15 UNL     1      16.076 -41.086  11.243  1.00  0.00     0.016 C 
HETATM    6  C16 UNL     1      17.927 -40.948   9.651  1.00  0.00     0.034 C 
HETATM    7  C17 UNL     1      19.313 -40.724  10.262  1.00  0.00     0.001 C 
HETATM    8  C18 UNL     1      19.320 -40.745  11.740  1.00  0.00     0.006 C 
HETATM    9  C19 UNL     1      18.373 -39.770  12.345  1.00  0.00     0.009 C 
HETATM   10  C20 UNL     1      17.577 -39.096  11.221  1.00  0.00     0.036 C 
HETATM   11  C21 UNL     1      16.732 -38.092  11.880  1.00  0.00     0.124 C 
HETATM   12  C22 UNL     1      17.518 -36.785  11.993  1.00  0.00     0.054 C 
HETATM   13  F1  UNL     1      16.474 -38.457  13.211  1.00  0.00    -0.241 F 
HETATM   14  C23 UNL     1      20.296 -41.803   9.785  1.00  0.00    -0.035 C 
HETATM   15  C24 UNL     1      19.908 -43.178  10.146  1.00  0.00     0.016 C 
HETATM   16  C25 UNL     1      21.615 -41.485  10.475  1.00  0.00     0.012 C 
HETATM   17  C26 UNL     1      22.757 -42.256   9.800  1.00  0.00     0.033 C 
HETATM   18  C27 UNL     1      22.862 -41.771   8.396  1.00  0.00     0.126 C 
HETATM   19  C28 UNL     1      21.587 -42.143   7.646  1.00  0.00    -0.017 C 
HETATM   20  C29 UNL     1      21.733 -41.482   6.267  1.00  0.00     0.018 C 
HETATM   21  C30 UNL     1      21.485 -43.613   7.410  1.00  0.00     0.018 C 
HETATM   22  C31 UNL     1      20.423 -41.526   8.311  1.00  0.00     0.007 C 
HETATM   23  C32 UNL     1      19.113 -41.835   7.692  1.00  0.00     0.045 C 
HETATM   24  C33 UNL     1      17.994 -40.889   8.166  1.00  0.00     0.125 C 
HETATM   25  C34 UNL     1      18.288 -39.574   7.549  1.00  0.00     0.046 C 
ENDROOT
BRANCH   1  26
HETATM   26  N1  UNL     1      14.432 -37.303  12.204  1.00  0.00    -0.353 N 
HETATM   27  C10 UNL     1      14.004 -35.989  12.354  1.00  0.00     0.217 C 
HETATM   28  O2  UNL     1      14.468 -35.084  11.633  1.00  0.00    -0.274 OA
ATOM     29  H1  UNL     1      14.016 -38.001  12.820  1.00  0.00     0.163 HD
BRANCH  27  30
HETATM   30  C9  UNL     1      12.996 -35.643  13.367  1.00  0.00     0.103 C 
BRANCH  30  31
HETATM   31  C8  UNL     1      12.003 -36.778  13.462  1.00  0.00     0.009 C 
BRANCH  31  32
HETATM   32  C7  UNL     1      11.191 -36.915  12.162  1.00  0.00     0.000 C 
BRANCH  32  33
HETATM   33  C6  UNL     1      10.584 -38.276  12.207  1.00  0.00     0.000 C 
BRANCH  33  34
HETATM   34  C5  UNL     1      11.236 -39.353  11.455  1.00  0.00     0.001 C 
BRANCH  34  35
HETATM   35  C4  UNL     1      11.821 -40.526  12.112  1.00  0.00     0.010 C 
BRANCH  35  36
HETATM   36  C3  UNL     1      12.698 -40.360  13.294  1.00  0.00     0.082 C 
BRANCH  36  37
HETATM   37  S1  UNL     1      11.871 -40.655  14.871  1.00  0.00    -0.093 SA
BRANCH  37  38
HETATM   38  C2  UNL     1      10.198 -41.150  14.664  1.00  0.00     0.182 C 
HETATM   39  C1  UNL     1       9.822 -42.573  14.534  1.00  0.00     0.104 C 
HETATM   40  O1  UNL     1       9.263 -40.346  14.618  1.00  0.00    -0.286 OA
ENDBRANCH  37  38
ENDBRANCH  36  37
ENDBRANCH  35  36
ENDBRANCH  34  35
ENDBRANCH  33  34
ENDBRANCH  32  33
ENDBRANCH  31  32
ENDBRANCH  30  31
ENDBRANCH  27  30
ENDBRANCH   1  26
BRANCH  24  41
HETATM   41  N2  UNL     1      16.834 -41.553   7.535  1.00  0.00    -0.070 N 
ATOM     42  H23 UNL     1      16.722 -41.262   6.564  1.00  0.00     0.275 HD
ATOM     43  H22 UNL     1      17.011 -42.546   7.385  1.00  0.00     0.275 HD
ATOM     44  H21 UNL     1      15.976 -41.407   8.067  1.00  0.00     0.275 HD
ENDBRANCH  24  41
BRANCH  18  45
HETATM   45  O3  UNL     1      22.937 -40.379   8.399  1.00  0.00    -0.395 OA
ATOM     46  H3  UNL     1      22.180 -40.028   8.854  1.00  0.00     0.210 HD
ENDBRANCH  18  45
TORSDOF 12
ENDMDL
MODEL 5
REMARK VINA RESULT: -8.011922535      2.575      4.675
REMARK  12 active torsions:
REMARK  status: ('A' for Active; 'I' for Inactive)
REMARK    1  A    between atoms: C2_2  and  S1_4 
REMARK    2  A    between atoms: S1_4  and  C3_5 
REMARK    3  A    between atoms: C3_5  and  C4_6 
REMARK    4  A    between atoms: C4_6  and  C5_7 
REMARK    5  A    between atoms: C5_7  and  C6_8 
REMARK    6  A    between atoms: C6_8  and  C7_9 
REMARK    7  A    between atoms: C7_9  and  C8_10 
REMARK    8  A    between atoms: C8_10  and  C9_11 
REMARK    9  A    between atoms: C9_11  and  C10_12 
REMARK       I    between atoms: C10_12  and  N1_14 
REMARK   10  A    between atoms: N1_14  and  C11_16 
REMARK   11  A    between atoms: C27_33  and  O3_34 
REMARK   12  A    between atoms: C33_41  and  N2_43 
ROOT
HETATM    1  C11 UNL     1      15.736 -40.985  10.312  1.00  0.00     0.124 C 
HETATM    2  C12 UNL     1      16.964 -41.288  11.099  1.00  0.00     0.029 C 
HETATM    3  C13 UNL     1      17.845 -42.157  10.178  1.00  0.00     0.012 C 
HETATM    4  C14 UNL     1      18.420 -41.264   9.146  1.00  0.00    -0.031 C 
HETATM    5  C15 UNL     1      18.963 -40.046   9.923  1.00  0.00     0.016 C 
HETATM    6  C16 UNL     1      19.507 -41.777   8.284  1.00  0.00     0.034 C 
HETATM    7  C17 UNL     1      19.272 -41.402   6.819  1.00  0.00     0.001 C 
HETATM    8  C18 UNL     1      18.860 -39.996   6.625  1.00  0.00     0.006 C 
HETATM    9  C19 UNL     1      17.651 -39.626   7.408  1.00  0.00     0.009 C 
HETATM   10  C20 UNL     1      17.250 -40.819   8.286  1.00  0.00     0.036 C 
HETATM   11  C21 UNL     1      16.008 -40.416   8.959  1.00  0.00     0.124 C 
HETATM   12  C22 UNL     1      14.823 -40.783   8.065  1.00  0.00     0.054 C 
HETATM   13  F1  UNL     1      15.936 -39.019   9.073  1.00  0.00    -0.241 F 
HETATM   14  C23 UNL     1      20.548 -41.623   5.992  1.00  0.00    -0.035 C 
HETATM   15  C24 UNL     1      21.703 -40.825   6.437  1.00  0.00     0.016 C 
HETATM   16  C25 UNL     1      20.192 -41.194   4.575  1.00  0.00     0.012 C 
HETATM   17  C26 UNL     1      21.251 -41.712   3.593  1.00  0.00     0.033 C 
HETATM   18  C27 UNL     1      21.213 -43.200   3.629  1.00  0.00     0.126 C 
HETATM   19  C28 UNL     1      21.642 -43.673   5.015  1.00  0.00    -0.017 C 
HETATM   20  C29 UNL     1      21.435 -45.195   4.993  1.00  0.00     0.018 C 
HETATM   21  C30 UNL     1      23.095 -43.440   5.261  1.00  0.00     0.018 C 
HETATM   22  C31 UNL     1      20.730 -43.117   6.032  1.00  0.00     0.007 C 
HETATM   23  C32 UNL     1      21.057 -43.481   7.430  1.00  0.00     0.045 C 
HETATM   24  C33 UNL     1      19.894 -43.210   8.403  1.00  0.00     0.125 C 
HETATM   25  C34 UNL     1      18.858 -44.223   8.087  1.00  0.00     0.046 C 
ENDROOT
BRANCH   1  26
HETATM   26  N1  UNL     1      14.905 -40.124  11.130  1.00  0.00    -0.353 N 
HETATM   27  C10 UNL     1      13.652 -40.451  11.638  1.00  0.00     0.217 C 
HETATM   28  O2  UNL     1      13.146 -41.566  11.409  1.00  0.00    -0.274 OA
ATOM     29  H1  UNL     1      15.270 -39.197  11.352  1.00  0.00     0.163 HD
BRANCH  27  30
HETATM   30  C9  UNL     1      12.902 -39.484  12.455  1.00  0.00     0.103 C 
BRANCH  30  31
HETATM   31  C8  UNL     1      12.008 -38.678  11.542  1.00  0.00     0.009 C 
BRANCH  31  32
HETATM   32  C7  UNL     1      11.518 -37.396  12.238  1.00  0.00     0.000 C 
BRANCH  32  33
HETATM   33  C6  UNL     1      12.608 -37.006  13.177  1.00  0.00     0.000 C 
BRANCH  33  34
HETATM   34  C5  UNL     1      13.356 -35.775  12.902  1.00  0.00     0.001 C 
BRANCH  34  35
HETATM   35  C4  UNL     1      14.784 -35.783  12.566  1.00  0.00     0.010 C 
BRANCH  35  36
HETATM   36  C3  UNL     1      15.296 -36.680  11.504  1.00  0.00     0.082 C 
BRANCH  36  37
HETATM   37  S1  UNL     1      16.988 -37.246  11.773  1.00  0.00    -0.093 SA
BRANCH  37  38
HETATM   38  C2  UNL     1      17.117 -38.337  13.144  1.00  0.00     0.182 C 
HETATM   39  C1  UNL     1      18.427 -38.711  13.716  1.00  0.00     0.104 C 
HETATM   40  O1  UNL     1      16.134 -38.841  13.693  1.00  0.00    -0.286 OA
ENDBRANCH  37  38
ENDBRANCH  36  37
ENDBRANCH  35  36
ENDBRANCH  34  35
ENDBRANCH  33  34
ENDBRANCH  32  33
ENDBRANCH  31  32
ENDBRANCH  30  31
ENDBRANCH  27  30
ENDBRANCH   1  26
BRANCH  24  41
HETATM   41  N2  UNL     1      20.578 -43.492   9.682  1.00  0.00    -0.070 N 
ATOM     42  H23 UNL     1      21.585 -43.355   9.601  1.00  0.00     0.275 HD
ATOM     43  H22 UNL     1      20.374 -42.775  10.378  1.00  0.00     0.275 HD
ATOM     44  H21 UNL     1      20.357 -44.423  10.034  1.00  0.00     0.275 HD
ENDBRANCH  24  41
BRANCH  18  45
HETATM   45  O3  UNL     1      19.899 -43.627   3.446  1.00  0.00    -0.395 OA
ATOM     46  H3  UNL     1      19.830 -44.539   3.703  1.00  0.00     0.210 HD
ENDBRANCH  18  45
TORSDOF 12
ENDMDL
