MODEL 1
REMARK VINA RESULT: -8.208461029      0.000      0.000
REMARK  10 active torsions:
REMARK  status: ('A' for Active; 'I' for Inactive)
REMARK    1  A    between atoms: C2_2  and  C3_3 
REMARK    2  A    between atoms: C3_3  and  C4_4 
REMARK    3  A    between atoms: C4_4  and  C5_5 
REMARK    4  A    between atoms: C6_8  and  O1_9 
REMARK    5  A    between atoms: C24_33  and  C25_34 
REMARK       I    between atoms: C25_34  and  N4_36 
REMARK    6  A    between atoms: N4_36  and  C26_38 
REMARK    7  A    between atoms: C26_38  and  C27_39 
REMARK    8  A    between atoms: C26_38  and  C31_43 
REMARK    9  A    between atoms: C27_39  and  C28_40 
REMARK   10  A    between atoms: C28_40  and  C29_41 
ROOT
HETATM    1  C5  UNL     1      20.288 -43.046  10.911  1.00  0.00     0.176 C 
HETATM    2  N1  UNL     1      20.892 -43.918   9.890  1.00  0.00    -0.357 N 
ATOM      3  H1  UNL     1      21.833 -43.676   9.581  1.00  0.00     0.162 HD
HETATM    4  C6  UNL     1      20.303 -45.055   9.294  1.00  0.00     0.147 C 
HETATM    5  C7  UNL     1      19.030 -45.332   8.623  1.00  0.00     0.018 A 
HETATM    6  C8  UNL     1      19.236 -46.204   7.510  1.00  0.00     0.039 A 
HETATM    7  C9  UNL     1      18.260 -46.638   6.673  1.00  0.00     0.037 A 
HETATM    8 CL1  UNL     1      18.588 -47.712   5.323  1.00  0.00    -0.084 Cl
HETATM    9  C10 UNL     1      16.998 -46.181   6.953  1.00  0.00     0.053 A 
HETATM   10  C11 UNL     1      16.711 -45.312   8.040  1.00  0.00     0.030 A 
HETATM   11  C12 UNL     1      17.741 -44.899   8.867  1.00  0.00     0.045 A 
HETATM   12  N2  UNL     1      15.315 -45.016   8.026  1.00  0.00    -0.386 N 
ATOM     13  H2  UNL     1      14.714 -45.825   7.873  1.00  0.00     0.160 HD
HETATM   14  C13 UNL     1      14.599 -43.757   8.194  1.00  0.00     0.077 C 
HETATM   15  C14 UNL     1      14.087 -43.646   9.607  1.00  0.00     0.032 C 
HETATM   16  C15 UNL     1      15.464 -42.612   7.748  1.00  0.00     0.024 C 
HETATM   17  C16 UNL     1      15.702 -41.668   8.908  1.00  0.00     0.002 C 
HETATM   18  C17 UNL     1      16.312 -40.370   8.467  1.00  0.00     0.007 C 
HETATM   19  C18 UNL     1      17.817 -40.468   8.569  1.00  0.00     0.021 C 
HETATM   20  C19 UNL     1      18.468 -39.367   7.753  1.00  0.00    -0.011 C 
HETATM   21  C20 UNL     1      17.958 -39.528   6.320  1.00  0.00     0.010 C 
HETATM   22  C21 UNL     1      19.940 -39.708   7.675  1.00  0.00     0.024 C 
HETATM   23  C22 UNL     1      20.529 -39.787   9.069  1.00  0.00     0.127 C 
HETATM   24  N3  UNL     1      19.790 -40.697   9.907  1.00  0.00    -0.337 N 
HETATM   25  C23 UNL     1      20.535 -41.621  10.714  1.00  0.00     0.243 C 
HETATM   26  O2  UNL     1      21.524 -41.071  11.307  1.00  0.00    -0.271 OA
HETATM   27  C24 UNL     1      18.362 -40.645   9.941  1.00  0.00     0.183 C 
ENDROOT
BRANCH  27  28
HETATM   28  C25 UNL     1      17.819 -39.755  10.977  1.00  0.00     0.241 C 
HETATM   29  O3  UNL     1      18.044 -38.526  10.900  1.00  0.00    -0.271 OA
HETATM   30  N4  UNL     1      17.042 -40.177  12.086  1.00  0.00    -0.354 N 
ATOM     31  H4  UNL     1      16.835 -41.172  12.178  1.00  0.00     0.162 HD
BRANCH  30  32
HETATM   32  C26 UNL     1      16.528 -39.283  13.090  1.00  0.00     0.087 C 
BRANCH  32  33
HETATM   33  C27 UNL     1      17.511 -38.226  13.522  1.00  0.00     0.025 C 
BRANCH  33  34
HETATM   34  C28 UNL     1      18.152 -38.567  14.857  1.00  0.00     0.002 C 
BRANCH  34  35
HETATM   35  C29 UNL     1      19.656 -38.614  14.633  1.00  0.00    -0.004 C 
HETATM   36  C30 UNL     1      20.046 -40.026  14.260  1.00  0.00     0.005 C 
ENDBRANCH  34  35
ENDBRANCH  33  34
ENDBRANCH  32  33
BRANCH  32  37
HETATM   37  C31 UNL     1      15.317 -38.574  12.520  1.00  0.00     0.000 C 
HETATM   38  C32 UNL     1      14.044 -39.056  13.184  1.00  0.00     0.011 C 
HETATM   39  C33 UNL     1      15.446 -37.087  12.582  1.00  0.00     0.011 C 
ENDBRANCH  32  37
ENDBRANCH  30  32
ENDBRANCH  27  28
BRANCH   1  40
HETATM   40  C4  UNL     1      20.835 -43.516  12.225  1.00  0.00     0.035 C 
BRANCH  40  41
HETATM   41  C3  UNL     1      22.043 -44.371  12.200  1.00  0.00     0.002 C 
BRANCH  41  42
HETATM   42  C2  UNL     1      22.130 -45.219  13.492  1.00  0.00    -0.004 C 
HETATM   43  C1  UNL     1      21.175 -44.580  14.489  1.00  0.00     0.005 C 
ENDBRANCH  41  42
ENDBRANCH  40  41
ENDBRANCH   1  40
BRANCH   4  44
HETATM   44  O1  UNL     1      21.151 -46.076   9.396  1.00  0.00    -0.346 OA
ATOM     45  H1  UNL     1      21.224 -46.495   8.547  1.00  0.00     0.219 HD
ENDBRANCH   4  44
TORSDOF 10
ENDMDL
MODEL 2
REMARK VINA RESULT: -8.126337189      0.607      2.036
REMARK  10 active torsions:
REMARK  status: ('A' for Active; 'I' for Inactive)
REMARK    1  A    between atoms: C2_2  and  C3_3 
REMARK    2  A    between atoms: C3_3  and  C4_4 
REMARK    3  A    between atoms: C4_4  and  C5_5 
REMARK    4  A    between atoms: C6_8  and  O1_9 
REMARK    5  A    between atoms: C24_33  and  C25_34 
REMARK       I    between atoms: C25_34  and  N4_36 
REMARK    6  A    between atoms: N4_36  and  C26_38 
REMARK    7  A    between atoms: C26_38  and  C27_39 
REMARK    8  A    between atoms: C26_38  and  C31_43 
REMARK    9  A    between atoms: C27_39  and  C28_40 
REMARK   10  A    between atoms: C28_40  and  C29_41 
ROOT
HETATM    1  C5  UNL     1      20.401 -43.055  10.829  1.00  0.00     0.176 C 
HETATM    2  N1  UNL     1      20.881 -44.056   9.862  1.00  0.00    -0.357 N 
ATOM      3  H1  UNL     1      21.828 -43.930   9.505  1.00  0.00     0.162 HD
HETATM    4  C6  UNL     1      20.165 -45.171   9.375  1.00  0.00     0.147 C 
HETATM    5  C7  UNL     1      18.846 -45.374   8.767  1.00  0.00     0.018 A 
HETATM    6  C8  UNL     1      18.927 -46.342   7.720  1.00  0.00     0.039 A 
HETATM    7  C9  UNL     1      17.882 -46.741   6.950  1.00  0.00     0.037 A 
HETATM    8 CL1  UNL     1      18.056 -47.939   5.679  1.00  0.00    -0.084 Cl
HETATM    9  C10 UNL     1      16.681 -46.145   7.233  1.00  0.00     0.053 A 
HETATM   10  C11 UNL     1      16.519 -45.172   8.257  1.00  0.00     0.030 A 
HETATM   11  C12 UNL     1      17.615 -44.801   9.017  1.00  0.00     0.045 A 
HETATM   12  N2  UNL     1      15.157 -44.745   8.264  1.00  0.00    -0.386 N 
ATOM     13  H2  UNL     1      14.478 -45.501   8.193  1.00  0.00     0.160 HD
HETATM   14  C13 UNL     1      14.570 -43.413   8.355  1.00  0.00     0.077 C 
HETATM   15  C14 UNL     1      14.126 -43.148   9.770  1.00  0.00     0.032 C 
HETATM   16  C15 UNL     1      15.522 -42.394   7.795  1.00  0.00     0.024 C 
HETATM   17  C16 UNL     1      15.891 -41.393   8.870  1.00  0.00     0.002 C 
HETATM   18  C17 UNL     1      16.604 -40.197   8.310  1.00  0.00     0.007 C 
HETATM   19  C18 UNL     1      18.096 -40.432   8.372  1.00  0.00     0.021 C 
HETATM   20  C19 UNL     1      18.815 -39.464   7.453  1.00  0.00    -0.011 C 
HETATM   21  C20 UNL     1      18.237 -39.681   6.053  1.00  0.00     0.010 C 
HETATM   22  C21 UNL     1      20.244 -39.950   7.356  1.00  0.00     0.024 C 
HETATM   23  C22 UNL     1      20.876 -39.982   8.732  1.00  0.00     0.127 C 
HETATM   24  N3  UNL     1      20.088 -40.751   9.662  1.00  0.00    -0.337 N 
HETATM   25  C23 UNL     1      20.773 -41.680  10.514  1.00  0.00     0.243 C 
HETATM   26  O2  UNL     1      21.832 -41.185  11.032  1.00  0.00    -0.271 OA
HETATM   27  C24 UNL     1      18.674 -40.559   9.735  1.00  0.00     0.183 C 
ENDROOT
BRANCH  27  28
HETATM   28  C25 UNL     1      18.257 -39.545  10.716  1.00  0.00     0.241 C 
HETATM   29  O3  UNL     1      17.838 -38.439  10.304  1.00  0.00    -0.271 OA
HETATM   30  N4  UNL     1      18.288 -39.714  12.124  1.00  0.00    -0.354 N 
ATOM     31  H4  UNL     1      18.619 -40.605  12.494  1.00  0.00     0.162 HD
BRANCH  30  32
HETATM   32  C26 UNL     1      17.879 -38.701  13.061  1.00  0.00     0.087 C 
BRANCH  32  33
HETATM   33  C27 UNL     1      16.557 -38.985  13.723  1.00  0.00     0.025 C 
BRANCH  33  34
HETATM   34  C28 UNL     1      15.388 -38.539  12.860  1.00  0.00     0.002 C 
BRANCH  34  35
HETATM   35  C29 UNL     1      14.761 -39.794  12.272  1.00  0.00    -0.004 C 
HETATM   36  C30 UNL     1      13.823 -39.391  11.159  1.00  0.00     0.005 C 
ENDBRANCH  34  35
ENDBRANCH  33  34
ENDBRANCH  32  33
BRANCH  32  37
HETATM   37  C31 UNL     1      18.927 -38.612  14.151  1.00  0.00     0.000 C 
HETATM   38  C32 UNL     1      18.279 -38.495  15.516  1.00  0.00     0.011 C 
HETATM   39  C33 UNL     1      19.903 -39.742  14.097  1.00  0.00     0.011 C 
ENDBRANCH  32  37
ENDBRANCH  30  32
ENDBRANCH  27  28
BRANCH   1  40
HETATM   40  C4  UNL     1      20.952 -43.476  12.159  1.00  0.00     0.035 C 
BRANCH  40  41
HETATM   41  C3  UNL     1      22.077 -44.439  12.162  1.00  0.00     0.002 C 
BRANCH  41  42
HETATM   42  C2  UNL     1      22.076 -45.262  13.474  1.00  0.00    -0.004 C 
HETATM   43  C1  UNL     1      21.147 -44.537  14.436  1.00  0.00     0.005 C 
ENDBRANCH  41  42
ENDBRANCH  40  41
ENDBRANCH   1  40
BRANCH   4  44
HETATM   44  O1  UNL     1      20.916 -46.259   9.529  1.00  0.00    -0.346 OA
ATOM     45  H1  UNL     1      20.863 -46.539  10.435  1.00  0.00     0.219 HD
ENDBRANCH   4  44
TORSDOF 10
ENDMDL
MODEL 3
REMARK VINA RESULT: -8.078630217      1.223      2.057
REMARK  10 active torsions:
REMARK  status: ('A' for Active; 'I' for Inactive)
REMARK    1  A    between atoms: C2_2  and  C3_3 
REMARK    2  A    between atoms: C3_3  and  C4_4 
REMARK    3  A    between atoms: C4_4  and  C5_5 
REMARK    4  A    between atoms: C6_8  and  O1_9 
REMARK    5  A    between atoms: C24_33  and  C25_34 
REMARK       I    between atoms: C25_34  and  N4_36 
REMARK    6  A    between atoms: N4_36  and  C26_38 
REMARK    7  A    between atoms: C26_38  and  C27_39 
REMARK    8  A    between atoms: C26_38  and  C31_43 
REMARK    9  A    between atoms: C27_39  and  C28_40 
REMARK   10  A    between atoms: C28_40  and  C29_41 
ROOT
HETATM    1  C5  UNL     1      20.235 -42.982  11.017  1.00  0.00     0.176 C 
HETATM    2  N1  UNL     1      20.848 -43.855  10.002  1.00  0.00    -0.357 N 
ATOM      3  H1  UNL     1      21.793 -43.613   9.702  1.00  0.00     0.162 HD
HETATM    4  C6  UNL     1      20.265 -44.991   9.401  1.00  0.00     0.147 C 
HETATM    5  C7  UNL     1      18.998 -45.269   8.718  1.00  0.00     0.018 A 
HETATM    6  C8  UNL     1      19.215 -46.141   7.607  1.00  0.00     0.039 A 
HETATM    7  C9  UNL     1      18.247 -46.575   6.761  1.00  0.00     0.037 A 
HETATM    8 CL1  UNL     1      18.588 -47.649   5.415  1.00  0.00    -0.084 Cl
HETATM    9  C10 UNL     1      16.983 -46.117   7.028  1.00  0.00     0.053 A 
HETATM   10  C11 UNL     1      16.685 -45.247   8.112  1.00  0.00     0.030 A 
HETATM   11  C12 UNL     1      17.707 -44.834   8.949  1.00  0.00     0.045 A 
HETATM   12  N2  UNL     1      15.289 -44.950   8.084  1.00  0.00    -0.386 N 
ATOM     13  H2  UNL     1      14.690 -45.759   7.925  1.00  0.00     0.160 HD
HETATM   14  C13 UNL     1      14.572 -43.691   8.245  1.00  0.00     0.077 C 
HETATM   15  C14 UNL     1      14.047 -43.579   9.652  1.00  0.00     0.032 C 
HETATM   16  C15 UNL     1      15.443 -42.547   7.807  1.00  0.00     0.024 C 
HETATM   17  C16 UNL     1      15.669 -41.602   8.969  1.00  0.00     0.002 C 
HETATM   18  C17 UNL     1      16.284 -40.305   8.533  1.00  0.00     0.007 C 
HETATM   19  C18 UNL     1      17.788 -40.403   8.650  1.00  0.00     0.021 C 
HETATM   20  C19 UNL     1      18.448 -39.304   7.840  1.00  0.00    -0.011 C 
HETATM   21  C20 UNL     1      17.952 -39.464   6.402  1.00  0.00     0.010 C 
HETATM   22  C21 UNL     1      19.920 -39.645   7.777  1.00  0.00     0.024 C 
HETATM   23  C22 UNL     1      20.495 -39.724   9.176  1.00  0.00     0.127 C 
HETATM   24  N3  UNL     1      19.747 -40.633  10.008  1.00  0.00    -0.337 N 
HETATM   25  C23 UNL     1      20.484 -41.557  10.822  1.00  0.00     0.243 C 
HETATM   26  O2  UNL     1      21.467 -41.007  11.425  1.00  0.00    -0.271 OA
HETATM   27  C24 UNL     1      18.320 -40.581  10.027  1.00  0.00     0.183 C 
ENDROOT
BRANCH  27  28
HETATM   28  C25 UNL     1      17.766 -39.690  11.057  1.00  0.00     0.241 C 
HETATM   29  O3  UNL     1      18.308 -39.657  12.186  1.00  0.00    -0.271 OA
HETATM   30  N4  UNL     1      16.642 -38.842  10.882  1.00  0.00    -0.354 N 
ATOM     31  H4  UNL     1      16.179 -38.840   9.973  1.00  0.00     0.162 HD
BRANCH  30  32
HETATM   32  C26 UNL     1      16.118 -37.984  11.912  1.00  0.00     0.087 C 
BRANCH  32  33
HETATM   33  C27 UNL     1      15.828 -36.582  11.445  1.00  0.00     0.025 C 
BRANCH  33  34
HETATM   34  C28 UNL     1      14.815 -35.889  12.341  1.00  0.00     0.002 C 
BRANCH  34  35
HETATM   35  C29 UNL     1      14.459 -34.568  11.678  1.00  0.00    -0.004 C 
HETATM   36  C30 UNL     1      15.620 -34.129  10.816  1.00  0.00     0.005 C 
ENDBRANCH  34  35
ENDBRANCH  33  34
ENDBRANCH  32  33
BRANCH  32  37
HETATM   37  C31 UNL     1      14.817 -38.579  12.408  1.00  0.00     0.000 C 
HETATM   38  C32 UNL     1      14.128 -39.365  11.312  1.00  0.00     0.011 C 
HETATM   39  C33 UNL     1      14.999 -39.396  13.646  1.00  0.00     0.011 C 
ENDBRANCH  32  37
ENDBRANCH  30  32
ENDBRANCH  27  28
BRANCH   1  40
HETATM   40  C4  UNL     1      20.769 -43.451  12.337  1.00  0.00     0.035 C 
BRANCH  40  41
HETATM   41  C3  UNL     1      21.963 -44.326  12.322  1.00  0.00     0.002 C 
BRANCH  41  42
HETATM   42  C2  UNL     1      21.917 -45.320  13.508  1.00  0.00    -0.004 C 
HETATM   43  C1  UNL     1      21.149 -44.625  14.622  1.00  0.00     0.005 C 
ENDBRANCH  41  42
ENDBRANCH  40  41
ENDBRANCH   1  40
BRANCH   4  44
HETATM   44  O1  UNL     1      21.111 -46.013   9.511  1.00  0.00    -0.346 OA
ATOM     45  H1  UNL     1      20.722 -46.670  10.076  1.00  0.00     0.219 HD
ENDBRANCH   4  44
TORSDOF 10
ENDMDL
MODEL 4
REMARK VINA RESULT: -7.983891867      3.495      6.813
REMARK  10 active torsions:
REMARK  status: ('A' for Active; 'I' for Inactive)
REMARK    1  A    between atoms: C2_2  and  C3_3 
REMARK    2  A    between atoms: C3_3  and  C4_4 
REMARK    3  A    between atoms: C4_4  and  C5_5 
REMARK    4  A    between atoms: C6_8  and  O1_9 
REMARK    5  A    between atoms: C24_33  and  C25_34 
REMARK       I    between atoms: C25_34  and  N4_36 
REMARK    6  A    between atoms: N4_36  and  C26_38 
REMARK    7  A    between atoms: C26_38  and  C27_39 
REMARK    8  A    between atoms: C26_38  and  C31_43 
REMARK    9  A    between atoms: C27_39  and  C28_40 
REMARK   10  A    between atoms: C28_40  and  C29_41 
ROOT
HETATM    1  C5  UNL     1      21.368 -42.163   6.579  1.00  0.00     0.176 C 
HETATM    2  N1  UNL     1      21.396 -43.299   5.643  1.00  0.00    -0.357 N 
ATOM      3  H1  UNL     1      20.509 -43.555   5.209  1.00  0.00     0.162 HD
HETATM    4  C6  UNL     1      22.522 -44.071   5.285  1.00  0.00     0.147 C 
HETATM    5  C7  UNL     1      23.563 -44.794   6.023  1.00  0.00     0.018 A 
HETATM    6  C8  UNL     1      23.870 -46.025   5.367  1.00  0.00     0.039 A 
HETATM    7  C9  UNL     1      24.779 -46.932   5.807  1.00  0.00     0.037 A 
HETATM    8 CL1  UNL     1      25.106 -48.427   4.947  1.00  0.00    -0.084 Cl
HETATM    9  C10 UNL     1      25.427 -46.601   6.969  1.00  0.00     0.053 A 
HETATM   10  C11 UNL     1      25.177 -45.396   7.681  1.00  0.00     0.030 A 
HETATM   11  C12 UNL     1      24.241 -44.502   7.190  1.00  0.00     0.045 A 
HETATM   12  N2  UNL     1      25.997 -45.382   8.849  1.00  0.00    -0.386 N 
ATOM     13  H2  UNL     1      26.963 -45.667   8.689  1.00  0.00     0.160 HD
HETATM   14  C13 UNL     1      25.693 -45.030  10.230  1.00  0.00     0.077 C 
HETATM   15  C14 UNL     1      26.155 -43.624  10.512  1.00  0.00     0.032 C 
HETATM   16  C15 UNL     1      24.239 -45.282  10.515  1.00  0.00     0.024 C 
HETATM   17  C16 UNL     1      23.564 -43.987  10.915  1.00  0.00     0.002 C 
HETATM   18  C17 UNL     1      22.194 -44.214  11.484  1.00  0.00     0.007 C 
HETATM   19  C18 UNL     1      21.171 -44.109  10.376  1.00  0.00     0.021 C 
HETATM   20  C19 UNL     1      19.862 -44.736  10.813  1.00  0.00    -0.011 C 
HETATM   21  C20 UNL     1      20.178 -46.183  11.195  1.00  0.00     0.010 C 
HETATM   22  C21 UNL     1      19.006 -44.847   9.572  1.00  0.00     0.024 C 
HETATM   23  C22 UNL     1      18.789 -43.475   8.967  1.00  0.00     0.127 C 
HETATM   24  N3  UNL     1      20.038 -42.797   8.725  1.00  0.00    -0.337 N 
HETATM   25  C23 UNL     1      20.207 -42.134   7.463  1.00  0.00     0.243 C 
HETATM   26  O2  UNL     1      19.182 -41.450   7.125  1.00  0.00    -0.271 OA
HETATM   27  C24 UNL     1      21.050 -42.775   9.732  1.00  0.00     0.183 C 
ENDROOT
BRANCH  27  28
HETATM   28  C25 UNL     1      20.968 -41.620  10.639  1.00  0.00     0.241 C 
HETATM   29  O3  UNL     1      21.666 -40.609  10.399  1.00  0.00    -0.271 OA
HETATM   30  N4  UNL     1      20.146 -41.549  11.793  1.00  0.00    -0.354 N 
ATOM     31  H4  UNL     1      19.561 -42.353  12.017  1.00  0.00     0.162 HD
BRANCH  30  32
HETATM   32  C26 UNL     1      20.091 -40.406  12.667  1.00  0.00     0.087 C 
BRANCH  32  33
HETATM   33  C27 UNL     1      18.861 -39.558  12.480  1.00  0.00     0.025 C 
BRANCH  33  34
HETATM   34  C28 UNL     1      17.718 -40.352  11.868  1.00  0.00     0.002 C 
BRANCH  34  35
HETATM   35  C29 UNL     1      16.423 -39.719  12.351  1.00  0.00    -0.004 C 
HETATM   36  C30 UNL     1      16.744 -38.738  13.455  1.00  0.00     0.005 C 
ENDBRANCH  34  35
ENDBRANCH  33  34
ENDBRANCH  32  33
BRANCH  32  37
HETATM   37  C31 UNL     1      20.090 -40.903  14.098  1.00  0.00     0.000 C 
HETATM   38  C32 UNL     1      20.734 -42.270  14.198  1.00  0.00     0.011 C 
HETATM   39  C33 UNL     1      20.715 -39.926  15.040  1.00  0.00     0.011 C 
ENDBRANCH  32  37
ENDBRANCH  30  32
ENDBRANCH  27  28
BRANCH   1  40
HETATM   40  C4  UNL     1      21.435 -40.931   5.729  1.00  0.00     0.035 C 
BRANCH  40  41
HETATM   41  C3  UNL     1      21.519 -41.112   4.262  1.00  0.00     0.002 C 
BRANCH  41  42
HETATM   42  C2  UNL     1      20.139 -40.858   3.608  1.00  0.00    -0.004 C 
HETATM   43  C1  UNL     1      19.926 -41.982   2.605  1.00  0.00     0.005 C 
ENDBRANCH  41  42
ENDBRANCH  40  41
ENDBRANCH   1  40
BRANCH   4  44
HETATM   44  O1  UNL     1      22.601 -44.118   3.957  1.00  0.00    -0.346 OA
ATOM     45  H1  UNL     1      21.739 -43.946   3.596  1.00  0.00     0.219 HD
ENDBRANCH   4  44
TORSDOF 10
ENDMDL
MODEL 5
REMARK VINA RESULT: -7.965123017      2.993      4.126
REMARK  10 active torsions:
REMARK  status: ('A' for Active; 'I' for Inactive)
REMARK    1  A    between atoms: C2_2  and  C3_3 
REMARK    2  A    between atoms: C3_3  and  C4_4 
REMARK    3  A    between atoms: C4_4  and  C5_5 
REMARK    4  A    between atoms: C6_8  and  O1_9 
REMARK    5  A    between atoms: C24_33  and  C25_34 
REMARK       I    between atoms: C25_34  and  N4_36 
REMARK    6  A    between atoms: N4_36  and  C26_38 
REMARK    7  A    between atoms: C26_38  and  C27_39 
REMARK    8  A    between atoms: C26_38  and  C31_43 
REMARK    9  A    between atoms: C27_39  and  C28_40 
REMARK   10  A    between atoms: C28_40  and  C29_41 
ROOT
HETATM    1  C5  UNL     1      24.013 -44.339   9.372  1.00  0.00     0.176 C 
HETATM    2  N1  UNL     1      24.813 -44.615   8.167  1.00  0.00    -0.357 N 
ATOM      3  H1  UNL     1      25.541 -43.938   7.937  1.00  0.00     0.162 HD
HETATM    4  C6  UNL     1      24.676 -45.718   7.297  1.00  0.00     0.147 C 
HETATM    5  C7  UNL     1      23.563 -46.333   6.568  1.00  0.00     0.018 A 
HETATM    6  C8  UNL     1      23.992 -46.751   5.271  1.00  0.00     0.039 A 
HETATM    7  C9  UNL     1      23.196 -47.342   4.344  1.00  0.00     0.037 A 
HETATM    8 CL1  UNL     1      23.793 -47.832   2.767  1.00  0.00    -0.084 Cl
HETATM    9  C10 UNL     1      21.892 -47.530   4.721  1.00  0.00     0.053 A 
HETATM   10  C11 UNL     1      21.387 -47.140   5.992  1.00  0.00     0.030 A 
HETATM   11  C12 UNL     1      22.240 -46.544   6.904  1.00  0.00     0.045 A 
HETATM   12  N2  UNL     1      19.997 -47.456   6.044  1.00  0.00    -0.386 N 
ATOM     13  H2  UNL     1      19.761 -48.381   5.684  1.00  0.00     0.160 HD
HETATM   14  C13 UNL     1      18.855 -46.687   6.521  1.00  0.00     0.077 C 
HETATM   15  C14 UNL     1      18.484 -47.134   7.912  1.00  0.00     0.032 C 
HETATM   16  C15 UNL     1      19.136 -45.217   6.389  1.00  0.00     0.024 C 
HETATM   17  C16 UNL     1      19.086 -44.561   7.753  1.00  0.00     0.002 C 
HETATM   18  C17 UNL     1      19.074 -43.063   7.662  1.00  0.00     0.007 C 
HETATM   19  C18 UNL     1      20.493 -42.548   7.747  1.00  0.00     0.021 C 
HETATM   20  C19 UNL     1      20.561 -41.119   7.244  1.00  0.00    -0.011 C 
HETATM   21  C20 UNL     1      20.019 -41.135   5.813  1.00  0.00     0.010 C 
HETATM   22  C21 UNL     1      22.029 -40.789   7.093  1.00  0.00     0.024 C 
HETATM   23  C22 UNL     1      22.735 -40.942   8.424  1.00  0.00     0.127 C 
HETATM   24  N3  UNL     1      22.513 -42.246   8.998  1.00  0.00    -0.337 N 
HETATM   25  C23 UNL     1      23.643 -42.937   9.547  1.00  0.00     0.243 C 
HETATM   26  O2  UNL     1      24.380 -42.183  10.269  1.00  0.00    -0.271 OA
HETATM   27  C24 UNL     1      21.197 -42.800   9.032  1.00  0.00     0.183 C 
ENDROOT
BRANCH  27  28
HETATM   28  C25 UNL     1      20.446 -42.487  10.257  1.00  0.00     0.241 C 
HETATM   29  O3  UNL     1      20.357 -43.357  11.153  1.00  0.00    -0.271 OA
HETATM   30  N4  UNL     1      19.796 -41.254  10.520  1.00  0.00    -0.354 N 
ATOM     31  H4  UNL     1      19.852 -40.521   9.814  1.00  0.00     0.162 HD
BRANCH  30  32
HETATM   32  C26 UNL     1      19.062 -40.978  11.727  1.00  0.00     0.087 C 
BRANCH  32  33
HETATM   33  C27 UNL     1      19.776 -40.046  12.671  1.00  0.00     0.025 C 
BRANCH  33  34
HETATM   34  C28 UNL     1      20.301 -40.779  13.894  1.00  0.00     0.002 C 
BRANCH  34  35
HETATM   35  C29 UNL     1      20.634 -39.726  14.940  1.00  0.00    -0.004 C 
HETATM   36  C30 UNL     1      19.566 -38.658  14.909  1.00  0.00     0.005 C 
ENDBRANCH  34  35
ENDBRANCH  33  34
ENDBRANCH  32  33
BRANCH  32  37
HETATM   37  C31 UNL     1      17.750 -40.324  11.346  1.00  0.00     0.000 C 
HETATM   38  C32 UNL     1      16.848 -41.302  10.621  1.00  0.00     0.011 C 
HETATM   39  C33 UNL     1      17.063 -39.701  12.517  1.00  0.00     0.011 C 
ENDBRANCH  32  37
ENDBRANCH  30  32
ENDBRANCH  27  28
BRANCH   1  40
HETATM   40  C4  UNL     1      24.830 -44.833  10.527  1.00  0.00     0.035 C 
BRANCH  40  41
HETATM   41  C3  UNL     1      24.160 -45.703  11.520  1.00  0.00     0.002 C 
BRANCH  41  42
HETATM   42  C2  UNL     1      23.974 -44.949  12.859  1.00  0.00    -0.004 C 
HETATM   43  C1  UNL     1      22.532 -45.183  13.287  1.00  0.00     0.005 C 
ENDBRANCH  41  42
ENDBRANCH  40  41
ENDBRANCH   1  40
BRANCH   4  44
HETATM   44  O1  UNL     1      25.869 -46.287   7.141  1.00  0.00    -0.346 OA
ATOM     45  H1  UNL     1      25.929 -47.032   7.726  1.00  0.00     0.219 HD
ENDBRANCH   4  44
TORSDOF 10
ENDMDL
