MODEL 1
REMARK VINA RESULT: -7.765598275      0.000      0.000
REMARK  1 active torsions:
REMARK  status: ('A' for Active; 'I' for Inactive)
REMARK       I    between atoms: C1_2  and  N1_3 
REMARK       I    between atoms: C1_2  and  N2_12 
REMARK    1  A    between atoms: N2_12  and  C6_14 
ROOT
HETATM    1  O1  UNL     1     -15.043   6.384   9.777  1.00  0.00    -0.247 OA
HETATM    2  C1  UNL     1     -15.283   5.188   9.473  1.00  0.00     0.321 C 
HETATM    3  N1  UNL     1     -14.442   4.521   8.572  1.00  0.00    -0.303 N 
ATOM      4  H1  UNL     1     -14.533   4.729   7.577  1.00  0.00     0.171 HD
HETATM    5  C2  UNL     1     -13.566   3.665   8.936  1.00  0.00     0.109 C 
HETATM    6  C3  UNL     1     -13.326   3.269  10.331  1.00  0.00     0.071 C 
HETATM    7  C4  UNL     1     -12.062   2.512  10.434  1.00  0.00     0.022 C 
HETATM    8  C5  UNL     1     -11.889   1.633   9.231  1.00  0.00     0.147 C 
HETATM    9  S1  UNL     1     -12.449   2.754   7.946  1.00  0.00     0.187 S 
HETATM   10  O2  UNL     1     -13.146   2.006   6.856  1.00  0.00    -0.221 OA
HETATM   11  O3  UNL     1     -11.348   3.626   7.456  1.00  0.00    -0.221 OA
HETATM   12  N2  UNL     1     -16.393   4.516  10.036  1.00  0.00    -0.338 N 
ATOM     13  H2  UNL     1     -16.585   3.545   9.788  1.00  0.00     0.164 HD
ENDROOT
BRANCH  12  14
HETATM   14  C6  UNL     1     -17.267   5.224  10.978  1.00  0.00     0.086 C 
HETATM   15  C7  UNL     1     -18.663   4.710  10.909  1.00  0.00     0.025 C 
HETATM   16  C8  UNL     1     -19.287   4.636  12.256  1.00  0.00     0.002 C 
HETATM   17  C9  UNL     1     -18.907   5.753  13.201  1.00  0.00     0.000 C 
HETATM   18  C10 UNL     1     -17.410   5.822  13.401  1.00  0.00     0.002 C 
HETATM   19  C11 UNL     1     -16.686   5.016  12.335  1.00  0.00     0.025 C 
ENDBRANCH  12  14
TORSDOF 1
ENDMDL
MODEL 2
REMARK VINA RESULT: -7.280660485      0.922      1.002
REMARK  1 active torsions:
REMARK  status: ('A' for Active; 'I' for Inactive)
REMARK       I    between atoms: C1_2  and  N1_3 
REMARK       I    between atoms: C1_2  and  N2_12 
REMARK    1  A    between atoms: N2_12  and  C6_14 
ROOT
HETATM    1  O1  UNL     1     -14.926   6.753   9.993  1.00  0.00    -0.247 OA
HETATM    2  C1  UNL     1     -14.955   5.630   9.428  1.00  0.00     0.321 C 
HETATM    3  N1  UNL     1     -13.896   5.247   8.594  1.00  0.00    -0.303 N 
ATOM      4  H1  UNL     1     -13.844   5.649   7.659  1.00  0.00     0.171 HD
HETATM    5  C2  UNL     1     -12.992   4.418   8.951  1.00  0.00     0.109 C 
HETATM    6  C3  UNL     1     -12.941   3.763  10.266  1.00  0.00     0.071 C 
HETATM    7  C4  UNL     1     -11.626   3.120  10.464  1.00  0.00     0.022 C 
HETATM    8  C5  UNL     1     -11.141   2.533   9.172  1.00  0.00     0.147 C 
HETATM    9  S1  UNL     1     -11.615   3.841   8.038  1.00  0.00     0.187 S 
HETATM   10  O2  UNL     1     -12.017   3.277   6.714  1.00  0.00    -0.221 OA
HETATM   11  O3  UNL     1     -10.569   4.894   7.942  1.00  0.00    -0.221 OA
HETATM   12  N2  UNL     1     -16.049   4.757   9.631  1.00  0.00    -0.338 N 
ATOM     13  H2  UNL     1     -16.070   3.846   9.172  1.00  0.00     0.164 HD
ENDROOT
BRANCH  12  14
HETATM   14  C6  UNL     1     -17.153   5.169  10.506  1.00  0.00     0.086 C 
HETATM   15  C7  UNL     1     -18.452   4.616  10.031  1.00  0.00     0.025 C 
HETATM   16  C8  UNL     1     -19.311   4.185  11.164  1.00  0.00     0.002 C 
HETATM   17  C9  UNL     1     -19.232   5.056  12.396  1.00  0.00     0.000 C 
HETATM   18  C10 UNL     1     -17.815   5.151  12.916  1.00  0.00     0.002 C 
HETATM   19  C11 UNL     1     -16.824   4.667  11.870  1.00  0.00     0.025 C 
ENDBRANCH  12  14
TORSDOF 1
ENDMDL
MODEL 3
REMARK VINA RESULT: -7.237401897      1.150      1.478
REMARK  1 active torsions:
REMARK  status: ('A' for Active; 'I' for Inactive)
REMARK       I    between atoms: C1_2  and  N1_3 
REMARK       I    between atoms: C1_2  and  N2_12 
REMARK    1  A    between atoms: N2_12  and  C6_14 
ROOT
HETATM    1  O1  UNL     1     -15.472   6.382  10.654  1.00  0.00    -0.247 OA
HETATM    2  C1  UNL     1     -15.384   5.401   9.873  1.00  0.00     0.321 C 
HETATM    3  N1  UNL     1     -14.155   5.107   9.266  1.00  0.00    -0.303 N 
ATOM      4  H1  UNL     1     -13.851   5.683   8.481  1.00  0.00     0.171 HD
HETATM    5  C2  UNL     1     -13.399   4.153   9.650  1.00  0.00     0.109 C 
HETATM    6  C3  UNL     1     -13.709   3.246  10.764  1.00  0.00     0.071 C 
HETATM    7  C4  UNL     1     -12.509   2.471  11.139  1.00  0.00     0.022 C 
HETATM    8  C5  UNL     1     -11.721   2.116   9.914  1.00  0.00     0.147 C 
HETATM    9  S1  UNL     1     -11.849   3.659   9.005  1.00  0.00     0.187 S 
HETATM   10  O2  UNL     1     -11.908   3.405   7.534  1.00  0.00    -0.221 OA
HETATM   11  O3  UNL     1     -10.785   4.621   9.399  1.00  0.00    -0.221 OA
HETATM   12  N2  UNL     1     -16.516   4.597   9.606  1.00  0.00    -0.338 N 
ATOM     13  H2  UNL     1     -16.443   3.801   8.972  1.00  0.00     0.164 HD
ENDROOT
BRANCH  12  14
HETATM   14  C6  UNL     1     -17.798   4.915  10.247  1.00  0.00     0.086 C 
HETATM   15  C7  UNL     1     -18.944   4.416   9.437  1.00  0.00     0.025 C 
HETATM   16  C8  UNL     1     -20.025   3.868  10.296  1.00  0.00     0.002 C 
HETATM   17  C9  UNL     1     -20.245   4.604  11.598  1.00  0.00     0.000 C 
HETATM   18  C10 UNL     1     -18.984   4.643  12.430  1.00  0.00     0.002 C 
HETATM   19  C11 UNL     1     -17.772   4.271  11.591  1.00  0.00     0.025 C 
ENDBRANCH  12  14
TORSDOF 1
ENDMDL
MODEL 4
REMARK VINA RESULT: -7.049078358      2.194      3.150
REMARK  1 active torsions:
REMARK  status: ('A' for Active; 'I' for Inactive)
REMARK       I    between atoms: C1_2  and  N1_3 
REMARK       I    between atoms: C1_2  and  N2_12 
REMARK    1  A    between atoms: N2_12  and  C6_14 
ROOT
HETATM    1  O1  UNL     1     -14.883   2.684   9.977  1.00  0.00    -0.247 OA
HETATM    2  C1  UNL     1     -14.519   3.854  10.260  1.00  0.00     0.321 C 
HETATM    3  N1  UNL     1     -13.190   4.237  10.038  1.00  0.00    -0.303 N 
ATOM      4  H1  UNL     1     -12.477   3.922  10.695  1.00  0.00     0.171 HD
HETATM    5  C2  UNL     1     -12.828   4.964   9.052  1.00  0.00     0.109 C 
HETATM    6  C3  UNL     1     -13.745   5.489   8.029  1.00  0.00     0.071 C 
HETATM    7  C4  UNL     1     -12.980   6.017   6.882  1.00  0.00     0.022 C 
HETATM    8  C5  UNL     1     -11.727   6.686   7.363  1.00  0.00     0.147 C 
HETATM    9  S1  UNL     1     -11.224   5.526   8.637  1.00  0.00     0.187 S 
HETATM   10  O2  UNL     1     -10.567   6.237   9.774  1.00  0.00    -0.221 OA
HETATM   11  O3  UNL     1     -10.406   4.415   8.080  1.00  0.00    -0.221 OA
HETATM   12  N2  UNL     1     -15.443   4.779  10.797  1.00  0.00    -0.338 N 
ATOM     13  H2  UNL     1     -15.146   5.728  11.025  1.00  0.00     0.164 HD
ENDROOT
BRANCH  12  14
HETATM   14  C6  UNL     1     -16.833   4.366  11.026  1.00  0.00     0.086 C 
HETATM   15  C7  UNL     1     -17.330   4.850  12.344  1.00  0.00     0.025 C 
HETATM   16  C8  UNL     1     -18.744   5.299  12.266  1.00  0.00     0.002 C 
HETATM   17  C9  UNL     1     -19.625   4.487  11.345  1.00  0.00     0.000 C 
HETATM   18  C10 UNL     1     -19.080   4.467   9.935  1.00  0.00     0.002 C 
HETATM   19  C11 UNL     1     -17.636   4.940   9.908  1.00  0.00     0.025 C 
ENDBRANCH  12  14
TORSDOF 1
ENDMDL
MODEL 5
REMARK VINA RESULT: -7.005271799      1.717      2.162
REMARK  1 active torsions:
REMARK  status: ('A' for Active; 'I' for Inactive)
REMARK       I    between atoms: C1_2  and  N1_3 
REMARK       I    between atoms: C1_2  and  N2_12 
REMARK    1  A    between atoms: N2_12  and  C6_14 
ROOT
HETATM    1  O1  UNL     1     -16.668   6.065  11.288  1.00  0.00    -0.247 OA
HETATM    2  C1  UNL     1     -16.401   5.320  10.311  1.00  0.00     0.321 C 
HETATM    3  N1  UNL     1     -15.155   5.427   9.679  1.00  0.00    -0.303 N 
ATOM      4  H1  UNL     1     -14.997   6.212   9.046  1.00  0.00     0.171 HD
HETATM    5  C2  UNL     1     -14.208   4.589   9.856  1.00  0.00     0.109 C 
HETATM    6  C3  UNL     1     -14.295   3.415  10.736  1.00  0.00     0.071 C 
HETATM    7  C4  UNL     1     -12.951   2.842  10.955  1.00  0.00     0.022 C 
HETATM    8  C5  UNL     1     -12.141   2.936   9.696  1.00  0.00     0.147 C 
HETATM    9  S1  UNL     1     -12.608   4.581   9.149  1.00  0.00     0.187 S 
HETATM   10  O2  UNL     1     -12.653   4.651   7.657  1.00  0.00    -0.221 OA
HETATM   11  O3  UNL     1     -11.755   5.631   9.767  1.00  0.00    -0.221 OA
HETATM   12  N2  UNL     1     -17.351   4.378   9.851  1.00  0.00    -0.338 N 
ATOM     13  H2  UNL     1     -17.132   3.774   9.059  1.00  0.00     0.164 HD
ENDROOT
BRANCH  12  14
HETATM   14  C6  UNL     1     -18.653   4.275  10.521  1.00  0.00     0.086 C 
HETATM   15  C7  UNL     1     -19.557   3.336   9.800  1.00  0.00     0.025 C 
HETATM   16  C8  UNL     1     -20.360   2.516  10.744  1.00  0.00     0.002 C 
HETATM   17  C9  UNL     1     -20.809   3.234  11.996  1.00  0.00     0.000 C 
HETATM   18  C10 UNL     1     -19.633   3.787  12.768  1.00  0.00     0.002 C 
HETATM   19  C11 UNL     1     -18.381   3.798  11.907  1.00  0.00     0.025 C 
ENDBRANCH  12  14
TORSDOF 1
ENDMDL
