MODEL 1
REMARK VINA RESULT: -8.217237926      0.000      0.000
REMARK  1 active torsions:
REMARK  status: ('A' for Active; 'I' for Inactive)
REMARK       I    between atoms: C1_2  and  N1_3 
REMARK       I    between atoms: C1_2  and  N3_18 
REMARK    1  A    between atoms: N1_3  and  N2_5 
ROOT
HETATM    1  N2  UNL     1     -15.085   5.151   8.944  1.00  0.00    -0.304 N 
ATOM      2  H2  UNL     1     -14.965   6.063   8.504  1.00  0.00     0.186 HD
HETATM    3  C2  UNL     1     -14.118   4.302   8.868  1.00  0.00     0.012 C 
HETATM    4  C3  UNL     1     -12.863   4.595   8.179  1.00  0.00     0.033 C 
HETATM    5  C4  UNL     1     -11.772   5.106   9.055  1.00  0.00     0.011 C 
HETATM    6  C5  UNL     1     -11.709   4.543  10.419  1.00  0.00     0.005 C 
HETATM    7  C6  UNL     1     -12.026   3.089  10.541  1.00  0.00    -0.013 C 
HETATM    8  C7  UNL     1     -11.512   2.245   9.430  1.00  0.00     0.009 C 
HETATM    9  C8  UNL     1     -12.420   2.135   8.251  1.00  0.00    -0.013 C 
HETATM   10  C9  UNL     1     -12.354   3.379   7.396  1.00  0.00     0.015 C 
HETATM   11  C10 UNL     1     -13.837   1.845   8.638  1.00  0.00     0.015 C 
HETATM   12  C11 UNL     1     -14.317   2.983   9.516  1.00  0.00     0.034 C 
HETATM   13  C12 UNL     1     -13.508   2.946  10.786  1.00  0.00     0.015 C 
ENDROOT
BRANCH   1  14
HETATM   14  N1  UNL     1     -16.286   4.881   9.597  1.00  0.00    -0.252 N 
HETATM   15  C1  UNL     1     -16.639   5.529  10.807  1.00  0.00     0.337 C 
HETATM   16  O1  UNL     1     -15.831   6.376  11.299  1.00  0.00    -0.245 OA
HETATM   17  N3  UNL     1     -17.854   5.262  11.477  1.00  0.00    -0.329 N 
HETATM   18  C13 UNL     1     -18.842   4.324  11.016  1.00  0.00     0.153 C 
HETATM   19  C16 UNL     1     -18.164   5.966  12.724  1.00  0.00     0.153 C 
HETATM   20  C14 UNL     1     -19.523   3.569  12.140  1.00  0.00     0.187 C 
HETATM   21  O2  UNL     1     -19.728   4.328  13.269  1.00  0.00    -0.388 OA
HETATM   22  C15 UNL     1     -18.552   4.917  13.735  1.00  0.00     0.187 C 
ATOM     23  H1  UNL     1     -16.927   4.199   9.194  1.00  0.00     0.191 HD
ENDBRANCH   1  14
TORSDOF 1
ENDMDL
MODEL 2
REMARK VINA RESULT: -8.094579566      0.911      1.016
REMARK  1 active torsions:
REMARK  status: ('A' for Active; 'I' for Inactive)
REMARK       I    between atoms: C1_2  and  N1_3 
REMARK       I    between atoms: C1_2  and  N3_18 
REMARK    1  A    between atoms: N1_3  and  N2_5 
ROOT
HETATM    1  N2  UNL     1     -14.793   5.195   9.161  1.00  0.00    -0.304 N 
ATOM      2  H2  UNL     1     -14.531   6.178   9.232  1.00  0.00     0.186 HD
HETATM    3  C2  UNL     1     -13.876   4.335   8.877  1.00  0.00     0.012 C 
HETATM    4  C3  UNL     1     -12.482   4.712   8.651  1.00  0.00     0.033 C 
HETATM    5  C4  UNL     1     -11.604   4.607   9.849  1.00  0.00     0.011 C 
HETATM    6  C5  UNL     1     -11.889   3.491  10.775  1.00  0.00     0.005 C 
HETATM    7  C6  UNL     1     -12.294   2.202  10.139  1.00  0.00    -0.013 C 
HETATM    8  C7  UNL     1     -11.574   1.877   8.879  1.00  0.00     0.009 C 
HETATM    9  C8  UNL     1     -12.185   2.444   7.642  1.00  0.00    -0.013 C 
HETATM   10  C9  UNL     1     -11.862   3.912   7.499  1.00  0.00     0.015 C 
HETATM   11  C10 UNL     1     -13.666   2.229   7.577  1.00  0.00     0.015 C 
HETATM   12  C11 UNL     1     -14.284   2.912   8.780  1.00  0.00     0.034 C 
HETATM   13  C12 UNL     1     -13.797   2.191  10.009  1.00  0.00     0.015 C 
ENDROOT
BRANCH   1  14
HETATM   14  N1  UNL     1     -16.124   4.846   9.377  1.00  0.00    -0.252 N 
HETATM   15  C1  UNL     1     -16.808   5.206  10.564  1.00  0.00     0.337 C 
HETATM   16  O1  UNL     1     -16.178   5.864  11.450  1.00  0.00    -0.245 OA
HETATM   17  N3  UNL     1     -18.158   4.857  10.792  1.00  0.00    -0.329 N 
HETATM   18  C13 UNL     1     -18.968   4.113   9.864  1.00  0.00     0.153 C 
HETATM   19  C16 UNL     1     -18.810   5.260  12.040  1.00  0.00     0.153 C 
HETATM   20  C14 UNL     1     -19.924   3.152  10.541  1.00  0.00     0.187 C 
HETATM   21  O2  UNL     1     -20.445   3.630  11.721  1.00  0.00    -0.388 OA
HETATM   22  C15 UNL     1     -19.452   4.024  12.619  1.00  0.00     0.187 C 
ATOM     23  H1  UNL     1     -16.621   4.317   8.660  1.00  0.00     0.191 HD
ENDBRANCH   1  14
TORSDOF 1
ENDMDL
MODEL 3
REMARK VINA RESULT: -7.258148816      1.278      2.243
REMARK  1 active torsions:
REMARK  status: ('A' for Active; 'I' for Inactive)
REMARK       I    between atoms: C1_2  and  N1_3 
REMARK       I    between atoms: C1_2  and  N3_18 
REMARK    1  A    between atoms: N1_3  and  N2_5 
ROOT
HETATM    1  N2  UNL     1     -14.348   4.182  10.749  1.00  0.00    -0.304 N 
ATOM      2  H2  UNL     1     -14.058   4.224  11.726  1.00  0.00     0.186 HD
HETATM    3  C2  UNL     1     -13.436   4.162   9.838  1.00  0.00     0.012 C 
HETATM    4  C3  UNL     1     -12.009   4.197  10.149  1.00  0.00     0.033 C 
HETATM    5  C4  UNL     1     -11.353   2.862  10.227  1.00  0.00     0.011 C 
HETATM    6  C5  UNL     1     -11.841   1.836   9.283  1.00  0.00     0.005 C 
HETATM    7  C6  UNL     1     -12.191   2.320   7.914  1.00  0.00    -0.013 C 
HETATM    8  C7  UNL     1     -11.283   3.367   7.375  1.00  0.00     0.009 C 
HETATM    9  C8  UNL     1     -11.648   4.766   7.742  1.00  0.00    -0.013 C 
HETATM   10  C9  UNL     1     -11.239   5.081   9.161  1.00  0.00     0.015 C 
HETATM   11  C10 UNL     1     -13.105   5.055   7.544  1.00  0.00     0.015 C 
HETATM   12  C11 UNL     1     -13.886   4.102   8.426  1.00  0.00     0.034 C 
HETATM   13  C12 UNL     1     -13.649   2.708   7.907  1.00  0.00     0.015 C 
ENDROOT
BRANCH   1  14
HETATM   14  N1  UNL     1     -15.712   4.151  10.463  1.00  0.00    -0.252 N 
HETATM   15  C1  UNL     1     -16.685   4.507  11.429  1.00  0.00     0.337 C 
HETATM   16  O1  UNL     1     -16.292   4.862  12.583  1.00  0.00    -0.245 OA
HETATM   17  N3  UNL     1     -18.070   4.478  11.149  1.00  0.00    -0.329 N 
HETATM   18  C13 UNL     1     -18.630   4.092   9.881  1.00  0.00     0.153 C 
HETATM   19  C16 UNL     1     -19.028   4.859  12.189  1.00  0.00     0.153 C 
HETATM   20  C14 UNL     1     -19.926   3.318  10.010  1.00  0.00     0.187 C 
HETATM   21  O2  UNL     1     -20.725   3.747  11.044  1.00  0.00    -0.388 OA
HETATM   22  C15 UNL     1     -20.053   3.756  12.267  1.00  0.00     0.187 C 
ATOM     23  H1  UNL     1     -16.017   3.864   9.533  1.00  0.00     0.191 HD
ENDBRANCH   1  14
TORSDOF 1
ENDMDL
MODEL 4
REMARK VINA RESULT: -7.113623969      1.408      2.683
REMARK  1 active torsions:
REMARK  status: ('A' for Active; 'I' for Inactive)
REMARK       I    between atoms: C1_2  and  N1_3 
REMARK       I    between atoms: C1_2  and  N3_18 
REMARK    1  A    between atoms: N1_3  and  N2_5 
ROOT
HETATM    1  N2  UNL     1     -14.324   2.956   9.750  1.00  0.00    -0.304 N 
ATOM      2  H2  UNL     1     -14.161   1.979   9.993  1.00  0.00     0.186 HD
HETATM    3  C2  UNL     1     -13.309   3.689   9.443  1.00  0.00     0.012 C 
HETATM    4  C3  UNL     1     -11.941   3.177   9.432  1.00  0.00     0.033 C 
HETATM    5  C4  UNL     1     -11.458   2.710   8.102  1.00  0.00     0.011 C 
HETATM    6  C5  UNL     1     -11.933   3.471   6.929  1.00  0.00     0.005 C 
HETATM    7  C6  UNL     1     -12.043   4.950   7.109  1.00  0.00    -0.013 C 
HETATM    8  C7  UNL     1     -10.957   5.558   7.923  1.00  0.00     0.009 C 
HETATM    9  C8  UNL     1     -11.204   5.566   9.395  1.00  0.00    -0.013 C 
HETATM   10  C9  UNL     1     -10.951   4.204   9.996  1.00  0.00     0.015 C 
HETATM   11  C10 UNL     1     -12.579   6.043   9.748  1.00  0.00     0.015 C 
HETATM   12  C11 UNL     1     -13.574   5.106   9.094  1.00  0.00     0.034 C 
HETATM   13  C12 UNL     1     -13.433   5.265   7.603  1.00  0.00     0.015 C 
ENDROOT
BRANCH   1  14
HETATM   14  N1  UNL     1     -15.633   3.434   9.765  1.00  0.00    -0.252 N 
HETATM   15  C1  UNL     1     -16.204   4.010  10.927  1.00  0.00     0.337 C 
HETATM   16  O1  UNL     1     -15.493   4.086  11.977  1.00  0.00    -0.245 OA
HETATM   17  N3  UNL     1     -17.530   4.497  10.953  1.00  0.00    -0.329 N 
HETATM   18  C13 UNL     1     -18.425   4.462   9.827  1.00  0.00     0.153 C 
HETATM   19  C16 UNL     1     -18.063   5.084  12.185  1.00  0.00     0.153 C 
HETATM   20  C14 UNL     1     -19.864   4.184  10.215  1.00  0.00     0.187 C 
HETATM   21  O2  UNL     1     -20.235   4.760  11.407  1.00  0.00    -0.388 OA
HETATM   22  C15 UNL     1     -19.384   4.409  12.456  1.00  0.00     0.187 C 
ATOM     23  H1  UNL     1     -16.195   3.367   8.917  1.00  0.00     0.191 HD
ENDBRANCH   1  14
TORSDOF 1
ENDMDL
MODEL 5
REMARK VINA RESULT: -6.797443518      4.288      6.731
REMARK  1 active torsions:
REMARK  status: ('A' for Active; 'I' for Inactive)
REMARK       I    between atoms: C1_2  and  N1_3 
REMARK       I    between atoms: C1_2  and  N3_18 
REMARK    1  A    between atoms: N1_3  and  N2_5 
ROOT
HETATM    1  N2  UNL     1     -13.124   4.321   6.952  1.00  0.00    -0.304 N 
ATOM      2  H2  UNL     1     -13.196   3.693   6.151  1.00  0.00     0.186 HD
HETATM    3  C2  UNL     1     -13.251   3.824   8.134  1.00  0.00     0.012 C 
HETATM    4  C3  UNL     1     -13.493   2.403   8.371  1.00  0.00     0.033 C 
HETATM    5  C4  UNL     1     -12.270   1.594   8.632  1.00  0.00     0.011 C 
HETATM    6  C5  UNL     1     -11.195   2.261   9.395  1.00  0.00     0.005 C 
HETATM    7  C6  UNL     1     -11.640   3.160  10.502  1.00  0.00    -0.013 C 
HETATM    8  C7  UNL     1     -12.816   2.668  11.267  1.00  0.00     0.009 C 
HETATM    9  C8  UNL     1     -14.141   3.051  10.697  1.00  0.00    -0.013 C 
HETATM   10  C9  UNL     1     -14.495   2.185   9.512  1.00  0.00     0.015 C 
HETATM   11  C10 UNL     1     -14.213   4.500  10.322  1.00  0.00     0.015 C 
HETATM   12  C11 UNL     1     -13.144   4.759   9.281  1.00  0.00     0.034 C 
HETATM   13  C12 UNL     1     -11.807   4.551   9.943  1.00  0.00     0.015 C 
ENDROOT
BRANCH   1  14
HETATM   14  N1  UNL     1     -12.895   5.675   6.715  1.00  0.00    -0.252 N 
HETATM   15  C1  UNL     1     -11.734   6.128   6.041  1.00  0.00     0.337 C 
HETATM   16  O1  UNL     1     -10.887   5.268   5.648  1.00  0.00    -0.245 OA
HETATM   17  N3  UNL     1     -11.492   7.499   5.796  1.00  0.00    -0.329 N 
HETATM   18  C13 UNL     1     -12.378   8.560   6.196  1.00  0.00     0.153 C 
HETATM   19  C16 UNL     1     -10.273   7.905   5.092  1.00  0.00     0.153 C 
HETATM   20  C14 UNL     1     -11.650   9.811   6.643  1.00  0.00     0.187 C 
HETATM   21  O2  UNL     1     -10.503  10.068   5.929  1.00  0.00    -0.388 OA
HETATM   22  C15 UNL     1      -9.625   8.983   5.924  1.00  0.00     0.187 C 
ATOM     23  H1  UNL     1     -13.581   6.358   7.035  1.00  0.00     0.191 HD
ENDBRANCH   1  14
TORSDOF 1
ENDMDL
