MODEL 1
REMARK VINA RESULT: -9.370525436      0.000      0.000
REMARK  14 active torsions:
REMARK  status: ('A' for Active; 'I' for Inactive)
REMARK    1  A    between atoms: C2_2  and  C3_3 
REMARK    2  A    between atoms: C2_2  and  N5_31 
REMARK    3  A    between atoms: C3_3  and  C4_4 
REMARK    4  A    between atoms: C4_4  and  C5_5 
REMARK    5  A    between atoms: C5_5  and  N1_6 
REMARK    6  A    between atoms: C8_9  and  C9_10 
REMARK    7  A    between atoms: C9_10  and  C10_11 
REMARK    8  A    between atoms: C10_11  and  N2_12 
REMARK    9  A    between atoms: N2_12  and  C11_13 
REMARK   10  A    between atoms: N2_12  and  C16_24 
REMARK   11  A    between atoms: C11_13  and  C12_14 
REMARK   12  A    between atoms: C12_14  and  N3_15 
REMARK   13  A    between atoms: C13_16  and  O1_17 
REMARK   14  A    between atoms: N5_31  and  C22_33 
ROOT
HETATM    1  N1  UNL     1      19.315  -7.648 105.907  1.00  0.00    -0.374 N 
HETATM    2  C6  UNL     1      19.291  -6.369 106.454  1.00  0.00     0.063 C 
HETATM    3  C7  UNL     1      19.063  -5.360 105.344  1.00  0.00     0.049 C 
HETATM    4  C8  UNL     1      17.913  -5.754 104.415  1.00  0.00    -0.007 C 
HETATM    5  C20 UNL     1      17.177  -6.951 104.942  1.00  0.00     0.025 C 
HETATM    6  C21 UNL     1      18.092  -8.084 105.322  1.00  0.00     0.127 C 
ENDROOT
BRANCH   4   7
HETATM    7  C9  UNL     1      18.539  -6.092 103.105  1.00  0.00     0.025 C 
BRANCH   7   8
HETATM    8  C10 UNL     1      17.791  -6.590 101.972  1.00  0.00     0.131 C 
BRANCH   8   9
HETATM    9  N2  UNL     1      17.082  -5.673 101.069  1.00  0.00    -0.336 N 
BRANCH   9  10
HETATM   10  C11 UNL     1      17.677  -5.082  99.957  1.00  0.00     0.111 C 
BRANCH  10  11
HETATM   11  C12 UNL     1      18.427  -3.842  99.911  1.00  0.00     0.121 C 
BRANCH  11  12
HETATM   12  N3  UNL     1      18.855  -3.141 101.060  1.00  0.00    -0.252 N 
HETATM   13  C13 UNL     1      18.084  -2.232 101.768  1.00  0.00     0.166 A 
HETATM   14  C14 UNL     1      18.880  -1.684 102.733  1.00  0.00     0.149 A 
HETATM   15  N4  UNL     1      20.084  -2.233 102.619  1.00  0.00    -0.314 N 
HETATM   16  C15 UNL     1      20.076  -3.120 101.601  1.00  0.00     0.332 A 
ATOM     17  H4  UNL     1      20.888  -2.018 103.208  1.00  0.00     0.170 HD
HETATM   18  O2  UNL     1      21.129  -3.771 101.297  1.00  0.00    -0.246 OA
BRANCH  13  19
HETATM   19  O1  UNL     1      16.748  -1.951 101.519  1.00  0.00    -0.345 OA
ATOM     20  H1  UNL     1      16.073  -1.865 102.182  1.00  0.00     0.219 HD
ENDBRANCH  13  19
ENDBRANCH  11  12
ENDBRANCH  10  11
ENDBRANCH   9  10
BRANCH   9  21
HETATM   21  C16 UNL     1      15.715  -5.498 101.490  1.00  0.00     0.149 A 
HETATM   22  C17 UNL     1      14.745  -6.503 101.543  1.00  0.00     0.058 A 
HETATM   23  C18 UNL     1      13.595  -5.902 102.006  1.00  0.00     0.029 A 
HETATM   24  C19 UNL     1      13.881  -4.587 102.218  1.00  0.00     0.144 A 
HETATM   25  O3  UNL     1      15.158  -4.396 101.893  1.00  0.00    -0.306 OA
ENDBRANCH   9  21
ENDBRANCH   8   9
ENDBRANCH   7   8
ENDBRANCH   4   7
BRANCH   1  26
HETATM   26  C5  UNL     1      20.361  -8.533 106.053  1.00  0.00     0.063 C 
BRANCH  26  27
HETATM   27  C4  UNL     1      20.554  -9.105 107.419  1.00  0.00     0.046 C 
BRANCH  27  28
HETATM   28  C3  UNL     1      21.810  -8.681 108.052  1.00  0.00     0.030 C 
BRANCH  28  29
HETATM   29  C2  UNL     1      21.953  -9.163 109.523  1.00  0.00     0.079 C 
HETATM   30  C1  UNL     1      22.735 -10.473 109.355  1.00  0.00     0.032 C 
BRANCH  29  31
HETATM   31  N5  UNL     1      22.402  -8.225 110.401  1.00  0.00    -0.371 N 
ATOM     32  H5  UNL     1      23.403  -8.081 110.274  1.00  0.00     0.161 HD
BRANCH  31  33
HETATM   33  C22 UNL     1      21.978  -7.484 111.311  1.00  0.00     0.118 A 
HETATM   34  N6  UNL     1      20.701  -7.078 111.505  1.00  0.00    -0.350 N 
HETATM   35  C23 UNL     1      20.329  -6.262 112.528  1.00  0.00     0.108 A 
ATOM     36  H6  UNL     1      19.984  -7.398 110.854  1.00  0.00     0.166 HD
HETATM   37  C24 UNL     1      21.283  -5.819 113.416  1.00  0.00     0.027 A 
HETATM   38 BR1  UNL     1      20.819  -4.675 114.873  1.00  0.00    -0.050 Br
HETATM   39  C25 UNL     1      22.606  -6.209 113.256  1.00  0.00     0.043 A 
HETATM   40  C26 UNL     1      22.959  -7.027 112.225  1.00  0.00     0.056 A 
HETATM   41 BR2  UNL     1      24.797  -7.547 111.969  1.00  0.00    -0.047 Br
ENDBRANCH  31  33
ENDBRANCH  29  31
ENDBRANCH  28  29
ENDBRANCH  27  28
ENDBRANCH  26  27
ENDBRANCH   1  26
TORSDOF 14
ENDMDL
MODEL 2
REMARK VINA RESULT: -9.254519555      0.479      1.306
REMARK  14 active torsions:
REMARK  status: ('A' for Active; 'I' for Inactive)
REMARK    1  A    between atoms: C2_2  and  C3_3 
REMARK    2  A    between atoms: C2_2  and  N5_31 
REMARK    3  A    between atoms: C3_3  and  C4_4 
REMARK    4  A    between atoms: C4_4  and  C5_5 
REMARK    5  A    between atoms: C5_5  and  N1_6 
REMARK    6  A    between atoms: C8_9  and  C9_10 
REMARK    7  A    between atoms: C9_10  and  C10_11 
REMARK    8  A    between atoms: C10_11  and  N2_12 
REMARK    9  A    between atoms: N2_12  and  C11_13 
REMARK   10  A    between atoms: N2_12  and  C16_24 
REMARK   11  A    between atoms: C11_13  and  C12_14 
REMARK   12  A    between atoms: C12_14  and  N3_15 
REMARK   13  A    between atoms: C13_16  and  O1_17 
REMARK   14  A    between atoms: N5_31  and  C22_33 
ROOT
HETATM    1  N1  UNL     1      19.400  -7.494 105.893  1.00  0.00    -0.374 N 
HETATM    2  C6  UNL     1      19.346  -6.213 106.434  1.00  0.00     0.063 C 
HETATM    3  C7  UNL     1      19.093  -5.216 105.317  1.00  0.00     0.049 C 
HETATM    4  C8  UNL     1      17.953  -5.642 104.391  1.00  0.00    -0.007 C 
HETATM    5  C20 UNL     1      17.246  -6.854 104.926  1.00  0.00     0.025 C 
HETATM    6  C21 UNL     1      18.188  -7.962 105.311  1.00  0.00     0.127 C 
ENDROOT
BRANCH   4   7
HETATM    7  C9  UNL     1      18.586  -5.973 103.083  1.00  0.00     0.025 C 
BRANCH   7   8
HETATM    8  C10 UNL     1      17.858  -6.535 101.967  1.00  0.00     0.131 C 
BRANCH   8   9
HETATM    9  N2  UNL     1      17.304  -5.674 100.913  1.00  0.00    -0.336 N 
BRANCH   9  10
HETATM   10  C11 UNL     1      18.083  -5.076  99.926  1.00  0.00     0.111 C 
BRANCH  10  11
HETATM   11  C12 UNL     1      18.606  -3.723  99.912  1.00  0.00     0.121 C 
BRANCH  11  12
HETATM   12  N3  UNL     1      18.869  -2.972 101.080  1.00  0.00    -0.252 N 
HETATM   13  C13 UNL     1      20.060  -3.000 101.788  1.00  0.00     0.166 A 
HETATM   14  C14 UNL     1      19.887  -2.238 102.909  1.00  0.00     0.149 A 
HETATM   15  N4  UNL     1      18.645  -1.769 102.886  1.00  0.00    -0.314 N 
HETATM   16  C15 UNL     1      18.019  -2.213 101.776  1.00  0.00     0.332 A 
ATOM     17  H4  UNL     1      18.230  -1.166 103.597  1.00  0.00     0.170 HD
HETATM   18  O2  UNL     1      16.808  -1.894 101.539  1.00  0.00    -0.246 OA
BRANCH  13  19
HETATM   19  O1  UNL     1      21.204  -3.685 101.404  1.00  0.00    -0.345 OA
ATOM     20  H1  UNL     1      22.087  -3.332 101.422  1.00  0.00     0.219 HD
ENDBRANCH  13  19
ENDBRANCH  11  12
ENDBRANCH  10  11
ENDBRANCH   9  10
BRANCH   9  21
HETATM   21  C16 UNL     1      15.873  -5.563 101.044  1.00  0.00     0.149 A 
HETATM   22  C17 UNL     1      15.044  -6.471 101.709  1.00  0.00     0.058 A 
HETATM   23  C18 UNL     1      13.764  -5.974 101.598  1.00  0.00     0.029 A 
HETATM   24  C19 UNL     1      13.840  -4.812 100.890  1.00  0.00     0.144 A 
HETATM   25  O3  UNL     1      15.119  -4.612 100.582  1.00  0.00    -0.306 OA
ENDBRANCH   9  21
ENDBRANCH   8   9
ENDBRANCH   7   8
ENDBRANCH   4   7
BRANCH   1  26
HETATM   26  C5  UNL     1      20.467  -8.353 106.043  1.00  0.00     0.063 C 
BRANCH  26  27
HETATM   27  C4  UNL     1      20.605  -9.004 107.380  1.00  0.00     0.046 C 
BRANCH  27  28
HETATM   28  C3  UNL     1      21.886  -8.711 108.037  1.00  0.00     0.030 C 
BRANCH  28  29
HETATM   29  C2  UNL     1      21.946  -9.189 109.515  1.00  0.00     0.079 C 
HETATM   30  C1  UNL     1      22.659 -10.542 109.384  1.00  0.00     0.032 C 
BRANCH  29  31
HETATM   31  N5  UNL     1      22.412  -8.270 110.404  1.00  0.00    -0.371 N 
ATOM     32  H5  UNL     1      23.421  -8.164 110.297  1.00  0.00     0.161 HD
BRANCH  31  33
HETATM   33  C22 UNL     1      21.999  -7.516 111.308  1.00  0.00     0.118 A 
HETATM   34  N6  UNL     1      20.726  -7.101 111.508  1.00  0.00    -0.350 N 
HETATM   35  C23 UNL     1      20.366  -6.271 112.523  1.00  0.00     0.108 A 
ATOM     36  H6  UNL     1      20.002  -7.426 110.866  1.00  0.00     0.166 HD
HETATM   37  C24 UNL     1      21.329  -5.822 113.397  1.00  0.00     0.027 A 
HETATM   38 BR1  UNL     1      20.882  -4.657 114.843  1.00  0.00    -0.050 Br
HETATM   39  C25 UNL     1      22.649  -6.220 113.232  1.00  0.00     0.043 A 
HETATM   40  C26 UNL     1      22.990  -7.052 112.208  1.00  0.00     0.056 A 
HETATM   41 BR2  UNL     1      24.823  -7.584 111.944  1.00  0.00    -0.047 Br
ENDBRANCH  31  33
ENDBRANCH  29  31
ENDBRANCH  28  29
ENDBRANCH  27  28
ENDBRANCH  26  27
ENDBRANCH   1  26
TORSDOF 14
ENDMDL
MODEL 3
REMARK VINA RESULT: -9.105380939      1.152      1.575
REMARK  14 active torsions:
REMARK  status: ('A' for Active; 'I' for Inactive)
REMARK    1  A    between atoms: C2_2  and  C3_3 
REMARK    2  A    between atoms: C2_2  and  N5_31 
REMARK    3  A    between atoms: C3_3  and  C4_4 
REMARK    4  A    between atoms: C4_4  and  C5_5 
REMARK    5  A    between atoms: C5_5  and  N1_6 
REMARK    6  A    between atoms: C8_9  and  C9_10 
REMARK    7  A    between atoms: C9_10  and  C10_11 
REMARK    8  A    between atoms: C10_11  and  N2_12 
REMARK    9  A    between atoms: N2_12  and  C11_13 
REMARK   10  A    between atoms: N2_12  and  C16_24 
REMARK   11  A    between atoms: C11_13  and  C12_14 
REMARK   12  A    between atoms: C12_14  and  N3_15 
REMARK   13  A    between atoms: C13_16  and  O1_17 
REMARK   14  A    between atoms: N5_31  and  C22_33 
ROOT
HETATM    1  N1  UNL     1      19.367  -7.808 105.900  1.00  0.00    -0.374 N 
HETATM    2  C6  UNL     1      19.343  -6.608 106.603  1.00  0.00     0.063 C 
HETATM    3  C7  UNL     1      19.220  -5.460 105.617  1.00  0.00     0.049 C 
HETATM    4  C8  UNL     1      18.125  -5.691 104.574  1.00  0.00    -0.007 C 
HETATM    5  C20 UNL     1      17.321  -6.917 104.898  1.00  0.00     0.025 C 
HETATM    6  C21 UNL     1      18.176  -8.122 105.188  1.00  0.00     0.127 C 
ENDROOT
BRANCH   4   7
HETATM    7  C9  UNL     1      18.829  -5.887 103.275  1.00  0.00     0.025 C 
BRANCH   7   8
HETATM    8  C10 UNL     1      18.172  -5.777 101.992  1.00  0.00     0.131 C 
BRANCH   8   9
HETATM    9  N2  UNL     1      17.373  -4.592 101.648  1.00  0.00    -0.336 N 
BRANCH   9  10
HETATM   10  C11 UNL     1      17.927  -3.333 101.431  1.00  0.00     0.111 C 
BRANCH  10  11
HETATM   11  C12 UNL     1      18.127  -2.276 102.404  1.00  0.00     0.121 C 
BRANCH  11  12
HETATM   12  N3  UNL     1      19.376  -1.985 102.999  1.00  0.00    -0.252 N 
HETATM   13  C13 UNL     1      20.557  -1.779 102.303  1.00  0.00     0.166 A 
HETATM   14  C14 UNL     1      21.556  -1.643 103.226  1.00  0.00     0.149 A 
HETATM   15  N4  UNL     1      21.009  -1.763 104.430  1.00  0.00    -0.314 N 
HETATM   16  C15 UNL     1      19.681  -1.973 104.299  1.00  0.00     0.332 A 
ATOM     17  H4  UNL     1      21.512  -1.705 105.314  1.00  0.00     0.170 HD
HETATM   18  O2  UNL     1      18.942  -2.124 105.326  1.00  0.00    -0.246 OA
BRANCH  13  19
HETATM   19  O1  UNL     1      20.673  -1.724 100.922  1.00  0.00    -0.345 OA
ATOM     20  H1  UNL     1      20.008  -2.003 100.304  1.00  0.00     0.219 HD
ENDBRANCH  13  19
ENDBRANCH  11  12
ENDBRANCH  10  11
ENDBRANCH   9  10
BRANCH   9  21
HETATM   21  C16 UNL     1      15.975  -4.928 101.556  1.00  0.00     0.149 A 
HETATM   22  C17 UNL     1      15.437  -6.213 101.678  1.00  0.00     0.058 A 
HETATM   23  C18 UNL     1      14.074  -6.073 101.536  1.00  0.00     0.029 A 
HETATM   24  C19 UNL     1      13.820  -4.749 101.338  1.00  0.00     0.144 A 
HETATM   25  O3  UNL     1      14.987  -4.109 101.357  1.00  0.00    -0.306 OA
ENDBRANCH   9  21
ENDBRANCH   8   9
ENDBRANCH   7   8
ENDBRANCH   4   7
BRANCH   1  26
HETATM   26  C5  UNL     1      20.376  -8.743 105.999  1.00  0.00     0.063 C 
BRANCH  26  27
HETATM   27  C4  UNL     1      20.619  -9.307 107.360  1.00  0.00     0.046 C 
BRANCH  27  28
HETATM   28  C3  UNL     1      21.815  -8.755 108.011  1.00  0.00     0.030 C 
BRANCH  28  29
HETATM   29  C2  UNL     1      21.951  -9.169 109.503  1.00  0.00     0.079 C 
HETATM   30  C1  UNL     1      22.757 -10.471 109.401  1.00  0.00     0.032 C 
BRANCH  29  31
HETATM   31  N5  UNL     1      22.375  -8.184 110.342  1.00  0.00    -0.371 N 
ATOM     32  H5  UNL     1      23.359  -7.980 110.168  1.00  0.00     0.161 HD
BRANCH  31  33
HETATM   33  C22 UNL     1      21.943  -7.451 111.255  1.00  0.00     0.118 A 
HETATM   34  N6  UNL     1      20.661  -7.065 111.454  1.00  0.00    -0.350 N 
HETATM   35  C23 UNL     1      20.281  -6.256 112.479  1.00  0.00     0.108 A 
ATOM     36  H6  UNL     1      19.947  -7.394 110.805  1.00  0.00     0.166 HD
HETATM   37  C24 UNL     1      21.231  -5.801 113.365  1.00  0.00     0.027 A 
HETATM   38 BR1  UNL     1      20.755  -4.666 114.825  1.00  0.00    -0.050 Br
HETATM   39  C25 UNL     1      22.560  -6.170 113.200  1.00  0.00     0.043 A 
HETATM   40  C26 UNL     1      22.921  -6.981 112.165  1.00  0.00     0.056 A 
HETATM   41 BR2  UNL     1      24.765  -7.472 111.902  1.00  0.00    -0.047 Br
ENDBRANCH  31  33
ENDBRANCH  29  31
ENDBRANCH  28  29
ENDBRANCH  27  28
ENDBRANCH  26  27
ENDBRANCH   1  26
TORSDOF 14
ENDMDL
MODEL 4
REMARK VINA RESULT: -9.074716840      1.838      2.875
REMARK  14 active torsions:
REMARK  status: ('A' for Active; 'I' for Inactive)
REMARK    1  A    between atoms: C2_2  and  C3_3 
REMARK    2  A    between atoms: C2_2  and  N5_31 
REMARK    3  A    between atoms: C3_3  and  C4_4 
REMARK    4  A    between atoms: C4_4  and  C5_5 
REMARK    5  A    between atoms: C5_5  and  N1_6 
REMARK    6  A    between atoms: C8_9  and  C9_10 
REMARK    7  A    between atoms: C9_10  and  C10_11 
REMARK    8  A    between atoms: C10_11  and  N2_12 
REMARK    9  A    between atoms: N2_12  and  C11_13 
REMARK   10  A    between atoms: N2_12  and  C16_24 
REMARK   11  A    between atoms: C11_13  and  C12_14 
REMARK   12  A    between atoms: C12_14  and  N3_15 
REMARK   13  A    between atoms: C13_16  and  O1_17 
REMARK   14  A    between atoms: N5_31  and  C22_33 
ROOT
HETATM    1  N1  UNL     1      19.460  -8.024 105.939  1.00  0.00    -0.374 N 
HETATM    2  C6  UNL     1      19.224  -6.750 106.446  1.00  0.00     0.063 C 
HETATM    3  C7  UNL     1      18.842  -5.826 105.304  1.00  0.00     0.049 C 
HETATM    4  C8  UNL     1      17.780  -6.430 104.385  1.00  0.00    -0.007 C 
HETATM    5  C20 UNL     1      17.244  -7.715 104.948  1.00  0.00     0.025 C 
HETATM    6  C21 UNL     1      18.329  -8.671 105.365  1.00  0.00     0.127 C 
ENDROOT
BRANCH   4   7
HETATM    7  C9  UNL     1      18.463  -6.702 103.088  1.00  0.00     0.025 C 
BRANCH   7   8
HETATM    8  C10 UNL     1      18.066  -6.093 101.838  1.00  0.00     0.131 C 
BRANCH   8   9
HETATM    9  N2  UNL     1      18.500  -4.734 101.486  1.00  0.00    -0.336 N 
BRANCH   9  10
HETATM   10  C11 UNL     1      17.931  -3.584 102.029  1.00  0.00     0.111 C 
BRANCH  10  11
HETATM   11  C12 UNL     1      18.517  -2.260 102.103  1.00  0.00     0.121 C 
BRANCH  11  12
HETATM   12  N3  UNL     1      19.689  -1.960 102.834  1.00  0.00    -0.252 N 
HETATM   13  C13 UNL     1      20.914  -1.638 102.270  1.00  0.00     0.166 A 
HETATM   14  C14 UNL     1      21.818  -1.533 103.290  1.00  0.00     0.149 A 
HETATM   15  N4  UNL     1      21.173  -1.782 104.424  1.00  0.00    -0.314 N 
HETATM   16  C15 UNL     1      19.877  -2.044 104.154  1.00  0.00     0.332 A 
ATOM     17  H4  UNL     1      21.592  -1.776 105.353  1.00  0.00     0.170 HD
HETATM   18  O2  UNL     1      19.059  -2.318 105.092  1.00  0.00    -0.246 OA
BRANCH  13  19
HETATM   19  O1  UNL     1      21.149  -1.460 100.915  1.00  0.00    -0.345 OA
ATOM     20  H1  UNL     1      21.170  -0.622 100.467  1.00  0.00     0.219 HD
ENDBRANCH  13  19
ENDBRANCH  11  12
ENDBRANCH  10  11
ENDBRANCH   9  10
BRANCH   9  21
HETATM   21  C16 UNL     1      19.582  -4.774 100.534  1.00  0.00     0.149 A 
HETATM   22  C17 UNL     1      19.452  -5.031  99.166  1.00  0.00     0.058 A 
HETATM   23  C18 UNL     1      20.724  -4.962  98.641  1.00  0.00     0.029 A 
HETATM   24  C19 UNL     1      21.572  -4.674  99.668  1.00  0.00     0.144 A 
HETATM   25  O3  UNL     1      20.842  -4.573 100.777  1.00  0.00    -0.306 OA
ENDBRANCH   9  21
ENDBRANCH   8   9
ENDBRANCH   7   8
ENDBRANCH   4   7
BRANCH   1  26
HETATM   26  C5  UNL     1      20.635  -8.721 106.116  1.00  0.00     0.063 C 
BRANCH  26  27
HETATM   27  C4  UNL     1      20.838  -9.339 107.461  1.00  0.00     0.046 C 
BRANCH  27  28
HETATM   28  C3  UNL     1      21.842  -8.639 108.274  1.00  0.00     0.030 C 
BRANCH  28  29
HETATM   29  C2  UNL     1      22.071  -9.290 109.667  1.00  0.00     0.079 C 
HETATM   30  C1  UNL     1      22.881 -10.542 109.305  1.00  0.00     0.032 C 
BRANCH  29  31
HETATM   31  N5  UNL     1      22.534  -8.448 110.631  1.00  0.00    -0.371 N 
ATOM     32  H5  UNL     1      23.553  -8.488 110.666  1.00  0.00     0.161 HD
BRANCH  31  33
HETATM   33  C22 UNL     1      22.110  -7.645 111.486  1.00  0.00     0.118 A 
HETATM   34  N6  UNL     1      20.880  -7.080 111.538  1.00  0.00    -0.350 N 
HETATM   35  C23 UNL     1      20.504  -6.207 112.509  1.00  0.00     0.108 A 
ATOM     36  H6  UNL     1      20.203  -7.322 110.814  1.00  0.00     0.166 HD
HETATM   37  C24 UNL     1      21.405  -5.868 113.494  1.00  0.00     0.027 A 
HETATM   38 BR1  UNL     1      20.932  -4.649 114.886  1.00  0.00    -0.050 Br
HETATM   39  C25 UNL     1      22.679  -6.421 113.482  1.00  0.00     0.043 A 
HETATM   40  C26 UNL     1      23.036  -7.295 112.499  1.00  0.00     0.056 A 
HETATM   41 BR2  UNL     1      24.812  -8.042 112.448  1.00  0.00    -0.047 Br
ENDBRANCH  31  33
ENDBRANCH  29  31
ENDBRANCH  28  29
ENDBRANCH  27  28
ENDBRANCH  26  27
ENDBRANCH   1  26
TORSDOF 14
ENDMDL
MODEL 5
REMARK VINA RESULT: -9.033503972      1.430      3.680
REMARK  14 active torsions:
REMARK  status: ('A' for Active; 'I' for Inactive)
REMARK    1  A    between atoms: C2_2  and  C3_3 
REMARK    2  A    between atoms: C2_2  and  N5_31 
REMARK    3  A    between atoms: C3_3  and  C4_4 
REMARK    4  A    between atoms: C4_4  and  C5_5 
REMARK    5  A    between atoms: C5_5  and  N1_6 
REMARK    6  A    between atoms: C8_9  and  C9_10 
REMARK    7  A    between atoms: C9_10  and  C10_11 
REMARK    8  A    between atoms: C10_11  and  N2_12 
REMARK    9  A    between atoms: N2_12  and  C11_13 
REMARK   10  A    between atoms: N2_12  and  C16_24 
REMARK   11  A    between atoms: C11_13  and  C12_14 
REMARK   12  A    between atoms: C12_14  and  N3_15 
REMARK   13  A    between atoms: C13_16  and  O1_17 
REMARK   14  A    between atoms: N5_31  and  C22_33 
ROOT
HETATM    1  N1  UNL     1      19.027  -7.356 105.813  1.00  0.00    -0.374 N 
HETATM    2  C6  UNL     1      18.899  -6.005 106.122  1.00  0.00     0.063 C 
HETATM    3  C7  UNL     1      18.754  -5.215 104.834  1.00  0.00     0.049 C 
HETATM    4  C8  UNL     1      17.725  -5.824 103.880  1.00  0.00    -0.007 C 
HETATM    5  C20 UNL     1      16.981  -6.951 104.535  1.00  0.00     0.025 C 
HETATM    6  C21 UNL     1      17.891  -7.951 105.197  1.00  0.00     0.127 C 
ENDROOT
BRANCH   4   7
HETATM    7  C9  UNL     1      18.499  -6.348 102.718  1.00  0.00     0.025 C 
BRANCH   7   8
HETATM    8  C10 UNL     1      18.408  -5.791 101.387  1.00  0.00     0.131 C 
BRANCH   8   9
HETATM    9  N2  UNL     1      18.292  -4.341 101.178  1.00  0.00    -0.336 N 
BRANCH   9  10
HETATM   10  C11 UNL     1      17.132  -3.725 100.715  1.00  0.00     0.111 C 
BRANCH  10  11
HETATM   11  C12 UNL     1      15.901  -3.496 101.446  1.00  0.00     0.121 C 
BRANCH  11  12
HETATM   12  N3  UNL     1      14.694  -4.184 101.185  1.00  0.00    -0.252 N 
HETATM   13  C13 UNL     1      13.986  -4.118  99.995  1.00  0.00     0.166 A 
HETATM   14  C14 UNL     1      12.826  -4.819 100.171  1.00  0.00     0.149 A 
HETATM   15  N4  UNL     1      12.826  -5.290 101.412  1.00  0.00    -0.314 N 
HETATM   16  C15 UNL     1      13.960  -4.906 102.036  1.00  0.00     0.332 A 
ATOM     17  H4  UNL     1      12.085  -5.853 101.829  1.00  0.00     0.170 HD
HETATM   18  O2  UNL     1      14.181  -5.237 103.246  1.00  0.00    -0.246 OA
BRANCH  13  19
HETATM   19  O1  UNL     1      14.403  -3.455  98.850  1.00  0.00    -0.345 OA
ATOM     20  H1  UNL     1      14.547  -2.518  98.780  1.00  0.00     0.219 HD
ENDBRANCH  13  19
ENDBRANCH  11  12
ENDBRANCH  10  11
ENDBRANCH   9  10
BRANCH   9  21
HETATM   21  C16 UNL     1      19.520  -3.674 101.531  1.00  0.00     0.149 A 
HETATM   22  C17 UNL     1      20.765  -3.895 100.936  1.00  0.00     0.058 A 
HETATM   23  C18 UNL     1      21.648  -3.046 101.567  1.00  0.00     0.029 A 
HETATM   24  C19 UNL     1      20.942  -2.350 102.503  1.00  0.00     0.144 A 
HETATM   25  O3  UNL     1      19.678  -2.763 102.443  1.00  0.00    -0.306 OA
ENDBRANCH   9  21
ENDBRANCH   8   9
ENDBRANCH   7   8
ENDBRANCH   4   7
BRANCH   1  26
HETATM   26  C5  UNL     1      20.084  -8.144 106.216  1.00  0.00     0.063 C 
BRANCH  26  27
HETATM   27  C4  UNL     1      20.648  -7.849 107.566  1.00  0.00     0.046 C 
BRANCH  27  28
HETATM   28  C3  UNL     1      21.873  -8.605 107.860  1.00  0.00     0.030 C 
BRANCH  28  29
HETATM   29  C2  UNL     1      21.948  -9.113 109.327  1.00  0.00     0.079 C 
HETATM   30  C1  UNL     1      22.703 -10.440 109.167  1.00  0.00     0.032 C 
BRANCH  29  31
HETATM   31  N5  UNL     1      22.386  -8.200 110.236  1.00  0.00    -0.371 N 
ATOM     32  H5  UNL     1      23.386  -8.041 110.114  1.00  0.00     0.161 HD
BRANCH  31  33
HETATM   33  C22 UNL     1      21.954  -7.495 111.170  1.00  0.00     0.118 A 
HETATM   34  N6  UNL     1      20.672  -7.109 111.377  1.00  0.00    -0.350 N 
HETATM   35  C23 UNL     1      20.291  -6.332 112.426  1.00  0.00     0.108 A 
ATOM     36  H6  UNL     1      19.959  -7.415 110.715  1.00  0.00     0.166 HD
HETATM   37  C24 UNL     1      21.240  -5.909 113.330  1.00  0.00     0.027 A 
HETATM   38 BR1  UNL     1      20.764  -4.820 114.824  1.00  0.00    -0.050 Br
HETATM   39  C25 UNL     1      22.568  -6.280 113.158  1.00  0.00     0.043 A 
HETATM   40  C26 UNL     1      22.929  -7.058 112.099  1.00  0.00     0.056 A 
HETATM   41 BR2  UNL     1      24.773  -7.549 111.827  1.00  0.00    -0.047 Br
ENDBRANCH  31  33
ENDBRANCH  29  31
ENDBRANCH  28  29
ENDBRANCH  27  28
ENDBRANCH  26  27
ENDBRANCH   1  26
TORSDOF 14
ENDMDL
