MODEL 1
REMARK VINA RESULT: -5.175319555      0.000      0.000
REMARK  2 active torsions:
REMARK  status: ('A' for Active; 'I' for Inactive)
REMARK    1  A    between atoms: O1_1  and  C1_3 
REMARK    2  A    between atoms: N3_15  and  C7_16 
ROOT
HETATM    1  C1  UNL     1      11.935 -12.357 -28.843  1.00  0.00     0.145 A 
HETATM    2  C2  UNL     1      11.425 -11.321 -28.070  1.00  0.00     0.088 A 
HETATM    3  C3  UNL     1      10.896 -10.428 -28.943  1.00  0.00     0.068 A 
HETATM    4  N1  UNL     1      10.279  -9.257 -28.741  1.00  0.00    -0.331 N 
ATOM      5  H1  UNL     1      10.143  -8.899 -27.796  1.00  0.00     0.168 HD
HETATM    6  C4  UNL     1       9.845  -8.561 -29.801  1.00  0.00     0.177 A 
HETATM    7  S1  UNL     1       9.083  -7.114 -29.552  1.00  0.00    -0.040 SA
HETATM    8  N2  UNL     1      10.023  -9.026 -31.034  1.00  0.00    -0.322 N 
ATOM      9  H2  UNL     1       9.678  -8.467 -31.814  1.00  0.00     0.169 HD
HETATM   10  C5  UNL     1      10.641 -10.207 -31.310  1.00  0.00     0.132 A 
HETATM   11  S2  UNL     1      10.816 -10.699 -32.845  1.00  0.00    -0.058 SA
HETATM   12  C6  UNL     1      11.091 -10.929 -30.230  1.00  0.00     0.102 A 
HETATM   13  N3  UNL     1      11.738 -12.127 -30.154  1.00  0.00    -0.318 N 
ENDROOT
BRANCH  13  14
HETATM   14  C7  UNL     1      12.143 -13.001 -31.240  1.00  0.00     0.096 C 
HETATM   15  C8  UNL     1      10.995 -13.999 -31.548  1.00  0.00     0.052 C 
HETATM   16  C9  UNL     1      11.388 -14.625 -32.898  1.00  0.00     0.169 C 
HETATM   17  O2  UNL     1      12.654 -15.146 -32.824  1.00  0.00    -0.391 OA
HETATM   18  C10 UNL     1      13.191 -15.252 -31.559  1.00  0.00     0.169 C 
HETATM   19  C11 UNL     1      13.278 -13.923 -30.836  1.00  0.00     0.052 C 
ENDBRANCH  13  14
BRANCH   1  20
HETATM   20  O1  UNL     1      12.553 -13.440 -28.221  1.00  0.00    -0.346 OA
ATOM     21  H1  UNL     1      13.316 -13.839 -28.621  1.00  0.00     0.219 HD
ENDBRANCH   1  20
TORSDOF 2
ENDMDL
MODEL 2
REMARK VINA RESULT: -4.997455052      8.460      9.992
REMARK  2 active torsions:
REMARK  status: ('A' for Active; 'I' for Inactive)
REMARK    1  A    between atoms: O1_1  and  C1_3 
REMARK    2  A    between atoms: N3_15  and  C7_16 
ROOT
HETATM    1  C1  UNL     1       6.361 -17.943 -27.659  1.00  0.00     0.145 A 
HETATM    2  C2  UNL     1       6.167 -17.401 -28.924  1.00  0.00     0.088 A 
HETATM    3  C3  UNL     1       6.884 -18.175 -29.777  1.00  0.00     0.068 A 
HETATM    4  N1  UNL     1       7.051 -18.105 -31.103  1.00  0.00    -0.331 N 
ATOM      5  H1  UNL     1       6.595 -17.370 -31.645  1.00  0.00     0.168 HD
HETATM    6  C4  UNL     1       7.828 -19.013 -31.708  1.00  0.00     0.177 A 
HETATM    7  S1  UNL     1       8.033 -18.927 -33.347  1.00  0.00    -0.040 SA
HETATM    8  N2  UNL     1       8.424 -19.971 -31.004  1.00  0.00    -0.322 N 
ATOM      9  H2  UNL     1       9.006 -20.644 -31.501  1.00  0.00     0.169 HD
HETATM   10  C5  UNL     1       8.297 -20.100 -29.654  1.00  0.00     0.132 A 
HETATM   11  S2  UNL     1       9.061 -21.298 -28.873  1.00  0.00    -0.058 SA
HETATM   12  C6  UNL     1       7.503 -19.173 -29.022  1.00  0.00     0.102 A 
HETATM   13  N3  UNL     1       7.170 -19.017 -27.710  1.00  0.00    -0.318 N 
ENDROOT
BRANCH  13  14
HETATM   14  C7  UNL     1       7.582 -19.823 -26.575  1.00  0.00     0.096 C 
HETATM   15  C8  UNL     1       6.419 -20.768 -26.170  1.00  0.00     0.052 C 
HETATM   16  C9  UNL     1       7.069 -21.783 -25.213  1.00  0.00     0.169 C 
HETATM   17  O2  UNL     1       7.711 -21.126 -24.196  1.00  0.00    -0.391 OA
HETATM   18  C10 UNL     1       7.435 -19.780 -24.077  1.00  0.00     0.169 C 
HETATM   19  C11 UNL     1       7.777 -18.989 -25.323  1.00  0.00     0.052 C 
ENDBRANCH  13  14
BRANCH   1  20
HETATM   20  O1  UNL     1       5.742 -17.356 -26.557  1.00  0.00    -0.346 OA
ATOM     21  H1  UNL     1       5.527 -17.889 -25.801  1.00  0.00     0.219 HD
ENDBRANCH   1  20
TORSDOF 2
ENDMDL
MODEL 3
REMARK VINA RESULT: -4.730368001      4.045      5.171
REMARK  2 active torsions:
REMARK  status: ('A' for Active; 'I' for Inactive)
REMARK    1  A    between atoms: O1_1  and  C1_3 
REMARK    2  A    between atoms: N3_15  and  C7_16 
ROOT
HETATM    1  C1  UNL     1      11.365 -13.239 -32.102  1.00  0.00     0.145 A 
HETATM    2  C2  UNL     1      11.628 -12.625 -30.885  1.00  0.00     0.088 A 
HETATM    3  C3  UNL     1      12.230 -13.565 -30.112  1.00  0.00     0.068 A 
HETATM    4  N1  UNL     1      12.691 -13.512 -28.857  1.00  0.00    -0.331 N 
ATOM      5  H1  UNL     1      12.617 -12.651 -28.314  1.00  0.00     0.168 HD
HETATM    6  C4  UNL     1      13.252 -14.606 -28.325  1.00  0.00     0.177 A 
HETATM    7  S1  UNL     1      13.822 -14.540 -26.774  1.00  0.00    -0.040 SA
HETATM    8  N2  UNL     1      13.348 -15.728 -29.032  1.00  0.00    -0.322 N 
ATOM      9  H2  UNL     1      13.782 -16.540 -28.592  1.00  0.00     0.169 HD
HETATM   10  C5  UNL     1      12.900 -15.851 -30.312  1.00  0.00     0.132 A 
HETATM   11  S2  UNL     1      13.058 -17.259 -31.101  1.00  0.00    -0.058 SA
HETATM   12  C6  UNL     1      12.323 -14.734 -30.868  1.00  0.00     0.102 A 
HETATM   13  N3  UNL     1      11.782 -14.518 -32.101  1.00  0.00    -0.318 N 
ENDROOT
BRANCH  13  14
HETATM   14  C7  UNL     1      11.665 -15.451 -33.207  1.00  0.00     0.096 C 
HETATM   15  C8  UNL     1      11.990 -14.713 -34.534  1.00  0.00     0.052 C 
HETATM   16  C9  UNL     1      12.167 -15.843 -35.564  1.00  0.00     0.169 C 
HETATM   17  O2  UNL     1      11.063 -16.655 -35.565  1.00  0.00    -0.391 OA
HETATM   18  C10 UNL     1       9.960 -16.178 -34.890  1.00  0.00     0.169 C 
HETATM   19  C11 UNL     1      10.233 -15.900 -33.425  1.00  0.00     0.052 C 
ENDBRANCH  13  14
BRANCH   1  20
HETATM   20  O1  UNL     1      10.741 -12.516 -33.117  1.00  0.00    -0.346 OA
ATOM     21  H1  UNL     1      10.719 -12.869 -33.999  1.00  0.00     0.219 HD
ENDBRANCH   1  20
TORSDOF 2
ENDMDL
MODEL 4
REMARK VINA RESULT: -4.687432663      2.436      3.531
REMARK  2 active torsions:
REMARK  status: ('A' for Active; 'I' for Inactive)
REMARK    1  A    between atoms: O1_1  and  C1_3 
REMARK    2  A    between atoms: N3_15  and  C7_16 
ROOT
HETATM    1  C1  UNL     1      11.581 -13.044 -32.708  1.00  0.00     0.145 A 
HETATM    2  C2  UNL     1      11.092 -11.780 -32.401  1.00  0.00     0.088 A 
HETATM    3  C3  UNL     1      11.246 -11.634 -31.060  1.00  0.00     0.068 A 
HETATM    4  N1  UNL     1      10.945 -10.617 -30.243  1.00  0.00    -0.331 N 
ATOM      5  H1  UNL     1      10.522  -9.765 -30.611  1.00  0.00     0.168 HD
HETATM    6  C4  UNL     1      11.206 -10.737 -28.935  1.00  0.00     0.177 A 
HETATM    7  S1  UNL     1      10.835  -9.480 -27.926  1.00  0.00    -0.040 SA
HETATM    8  N2  UNL     1      11.756 -11.848 -28.454  1.00  0.00    -0.322 N 
ATOM      9  H2  UNL     1      11.940 -11.901 -27.452  1.00  0.00     0.169 HD
HETATM   10  C5  UNL     1      12.087 -12.919 -29.227  1.00  0.00     0.132 A 
HETATM   11  S2  UNL     1      12.754 -14.236 -28.557  1.00  0.00    -0.058 SA
HETATM   12  C6  UNL     1      11.823 -12.807 -30.572  1.00  0.00     0.102 A 
HETATM   13  N3  UNL     1      12.025 -13.674 -31.605  1.00  0.00    -0.318 N 
ENDROOT
BRANCH  13  14
HETATM   14  C7  UNL     1      12.599 -15.007 -31.561  1.00  0.00     0.096 C 
HETATM   15  C8  UNL     1      14.076 -14.942 -32.036  1.00  0.00     0.052 C 
HETATM   16  C9  UNL     1      14.665 -16.305 -31.631  1.00  0.00     0.169 C 
HETATM   17  O2  UNL     1      13.897 -17.319 -32.142  1.00  0.00    -0.391 OA
HETATM   18  C10 UNL     1      12.966 -16.954 -33.091  1.00  0.00     0.169 C 
HETATM   19  C11 UNL     1      11.968 -15.933 -32.582  1.00  0.00     0.052 C 
ENDBRANCH  13  14
BRANCH   1  20
HETATM   20  O1  UNL     1      11.557 -13.489 -34.028  1.00  0.00    -0.346 OA
ATOM     21  H1  UNL     1      12.020 -14.284 -34.263  1.00  0.00     0.219 HD
ENDBRANCH   1  20
TORSDOF 2
ENDMDL
MODEL 5
REMARK VINA RESULT: -4.661396012      2.709      4.136
REMARK  2 active torsions:
REMARK  status: ('A' for Active; 'I' for Inactive)
REMARK    1  A    between atoms: O1_1  and  C1_3 
REMARK    2  A    between atoms: N3_15  and  C7_16 
ROOT
HETATM    1  C1  UNL     1      11.682 -13.666 -33.391  1.00  0.00     0.145 A 
HETATM    2  C2  UNL     1      11.227 -12.411 -33.007  1.00  0.00     0.088 A 
HETATM    3  C3  UNL     1      11.465 -12.318 -31.674  1.00  0.00     0.068 A 
HETATM    4  N1  UNL     1      11.227 -11.330 -30.802  1.00  0.00    -0.331 N 
ATOM      5  H1  UNL     1      10.790 -10.461 -31.111  1.00  0.00     0.168 HD
HETATM    6  C4  UNL     1      11.568 -11.502 -29.519  1.00  0.00     0.177 A 
HETATM    7  S1  UNL     1      11.274 -10.281 -28.442  1.00  0.00    -0.040 SA
HETATM    8  N2  UNL     1      12.136 -12.634 -29.115  1.00  0.00    -0.322 N 
ATOM      9  H2  UNL     1      12.382 -12.727 -28.130  1.00  0.00     0.169 HD
HETATM   10  C5  UNL     1      12.407 -13.677 -29.947  1.00  0.00     0.132 A 
HETATM   11  S2  UNL     1      13.102 -15.024 -29.371  1.00  0.00    -0.058 SA
HETATM   12  C6  UNL     1      12.060 -13.513 -31.268  1.00  0.00     0.102 A 
HETATM   13  N3  UNL     1      12.188 -14.341 -32.343  1.00  0.00    -0.318 N 
ENDROOT
BRANCH  13  14
HETATM   14  C7  UNL     1      12.750 -15.679 -32.386  1.00  0.00     0.096 C 
HETATM   15  C8  UNL     1      13.731 -15.783 -33.585  1.00  0.00     0.052 C 
HETATM   16  C9  UNL     1      14.502 -17.090 -33.333  1.00  0.00     0.169 C 
HETATM   17  O2  UNL     1      13.624 -18.129 -33.164  1.00  0.00    -0.391 OA
HETATM   18  C10 UNL     1      12.313 -17.874 -33.506  1.00  0.00     0.169 C 
HETATM   19  C11 UNL     1      11.706 -16.725 -32.726  1.00  0.00     0.052 C 
ENDBRANCH  13  14
BRANCH   1  20
HETATM   20  O1  UNL     1      11.571 -14.060 -34.723  1.00  0.00    -0.346 OA
ATOM     21  H1  UNL     1      12.356 -14.246 -35.225  1.00  0.00     0.219 HD
ENDBRANCH   1  20
TORSDOF 2
ENDMDL
