MODEL 1
REMARK VINA RESULT: -6.684077029      0.000      0.000
REMARK  7 active torsions:
REMARK  status: ('A' for Active; 'I' for Inactive)
REMARK    1  A    between atoms: C2_2  and  O1_5 
REMARK    2  A    between atoms: O1_5  and  C4_6 
REMARK    3  A    between atoms: N1_9  and  C7_10 
REMARK    4  A    between atoms: C8_14  and  C9_15 
REMARK    5  A    between atoms: C10_18  and  C11_19 
REMARK    6  A    between atoms: C11_19  and  N4_20 
REMARK    7  A    between atoms: N4_20  and  C12_22 
ROOT
HETATM    1  C7  UNL     1      12.991 -15.692  13.868  1.00  0.00     0.099 A 
HETATM    2  S1  UNL     1      11.700 -16.152  14.931  1.00  0.00     0.005 SA
HETATM    3  N2  UNL     1      12.528 -17.202  15.882  1.00  0.00    -0.320 N 
ATOM      4  H2  UNL     1      12.160 -17.733  16.671  1.00  0.00     0.174 HD
HETATM    5  C8  UNL     1      13.769 -17.221  15.419  1.00  0.00     0.115 A 
HETATM    6  C10 UNL     1      14.050 -16.411  14.347  1.00  0.00     0.026 A 
ENDROOT
BRANCH   1   7
HETATM    7  N1  UNL     1      12.846 -14.867  12.740  1.00  0.00    -0.373 N 
HETATM    8  C6  UNL     1      13.195 -13.440  12.830  1.00  0.00     0.126 C 
HETATM    9  C5  UNL     1      14.593 -13.465  12.139  1.00  0.00     0.052 C 
HETATM   10  C4  UNL     1      14.290 -13.674  10.704  1.00  0.00     0.127 C 
HETATM   11  C17 UNL     1      12.988 -14.372  10.380  1.00  0.00     0.052 C 
HETATM   12  C16 UNL     1      12.531 -15.353  11.445  1.00  0.00     0.126 C 
BRANCH  10  13
HETATM   13  O1  UNL     1      14.200 -12.392  10.140  1.00  0.00    -0.360 OA
BRANCH  13  14
HETATM   14  C2  UNL     1      15.063 -12.149   9.116  1.00  0.00     0.130 C 
HETATM   15  C1  UNL     1      15.718 -10.771   9.316  1.00  0.00     0.064 C 
HETATM   16  C3  UNL     1      14.381 -12.172   7.752  1.00  0.00     0.064 C 
HETATM   17 CL1  UNL     1      16.353 -13.352   9.111  1.00  0.00    -0.089 Cl
ENDBRANCH  13  14
ENDBRANCH  10  13
ENDBRANCH   1   7
BRANCH   6  18
HETATM   18  C11 UNL     1      15.505 -16.286  13.877  1.00  0.00     0.158 C 
BRANCH  18  19
HETATM   19  N4  UNL     1      15.628 -17.180  12.772  1.00  0.00    -0.412 N 
ATOM     20  H4  UNL     1      14.748 -17.534  12.398  1.00  0.00     0.153 HD
BRANCH  19  21
HETATM   21  C12 UNL     1      16.746 -17.630  12.144  1.00  0.00     0.091 C 
HETATM   22  C13 UNL     1      16.762 -18.398  10.855  1.00  0.00     0.040 C 
HETATM   23  C14 UNL     1      18.270 -18.847  10.858  1.00  0.00     0.142 C 
HETATM   24  S2  UNL     1      18.979 -17.190  10.971  1.00  0.00     0.146 S 
HETATM   25  O3  UNL     1      19.352 -16.676   9.627  1.00  0.00    -0.228 OA
HETATM   26  O4  UNL     1      20.121 -17.130  11.921  1.00  0.00    -0.228 OA
HETATM   27  C15 UNL     1      17.535 -16.333  11.636  1.00  0.00     0.164 C 
ENDBRANCH  19  21
ENDBRANCH  18  19
ENDBRANCH   6  18
BRANCH   5  28
HETATM   28  C9  UNL     1      14.677 -18.341  15.919  1.00  0.00     0.282 C 
HETATM   29  N3  UNL     1      14.999 -19.434  15.084  1.00  0.00    -0.056 NA
HETATM   30  O2  UNL     1      15.176 -18.323  17.061  1.00  0.00    -0.269 OA
ENDBRANCH   5  28
TORSDOF 7
ENDMDL
MODEL 2
REMARK VINA RESULT: -6.658782981      2.999      6.567
REMARK  7 active torsions:
REMARK  status: ('A' for Active; 'I' for Inactive)
REMARK    1  A    between atoms: C2_2  and  O1_5 
REMARK    2  A    between atoms: O1_5  and  C4_6 
REMARK    3  A    between atoms: N1_9  and  C7_10 
REMARK    4  A    between atoms: C8_14  and  C9_15 
REMARK    5  A    between atoms: C10_18  and  C11_19 
REMARK    6  A    between atoms: C11_19  and  N4_20 
REMARK    7  A    between atoms: N4_20  and  C12_22 
ROOT
HETATM    1  C7  UNL     1      16.562 -17.856  12.994  1.00  0.00     0.099 A 
HETATM    2  S1  UNL     1      17.670 -18.985  13.707  1.00  0.00     0.005 SA
HETATM    3  N2  UNL     1      19.035 -18.516  12.925  1.00  0.00    -0.320 N 
ATOM      4  H2  UNL     1      19.968 -18.912  13.031  1.00  0.00     0.174 HD
HETATM    5  C8  UNL     1      18.680 -17.519  12.128  1.00  0.00     0.115 A 
HETATM    6  C10 UNL     1      17.363 -17.134  12.153  1.00  0.00     0.026 A 
ENDROOT
BRANCH   1   7
HETATM    7  N1  UNL     1      15.174 -17.853  13.206  1.00  0.00    -0.373 N 
HETATM    8  C6  UNL     1      14.617 -18.502  14.404  1.00  0.00     0.126 C 
HETATM    9  C5  UNL     1      14.355 -17.245  15.290  1.00  0.00     0.052 C 
HETATM   10  C4  UNL     1      13.186 -16.588  14.658  1.00  0.00     0.127 C 
HETATM   11  C17 UNL     1      12.976 -16.850  13.183  1.00  0.00     0.052 C 
HETATM   12  C16 UNL     1      14.258 -17.115  12.414  1.00  0.00     0.126 C 
BRANCH  10  13
HETATM   13  O1  UNL     1      12.057 -17.101  15.313  1.00  0.00    -0.360 OA
BRANCH  13  14
HETATM   14  C2  UNL     1      11.304 -16.179  15.973  1.00  0.00     0.130 C 
HETATM   15  C1  UNL     1      10.785 -16.789  17.288  1.00  0.00     0.064 C 
HETATM   16  C3  UNL     1      10.110 -15.698  15.155  1.00  0.00     0.064 C 
HETATM   17 CL1  UNL     1      12.290 -14.778  16.394  1.00  0.00    -0.089 Cl
ENDBRANCH  13  14
ENDBRANCH  10  13
ENDBRANCH   1   7
BRANCH   6  18
HETATM   18  C11 UNL     1      16.941 -15.889  11.364  1.00  0.00     0.158 C 
BRANCH  18  19
HETATM   19  N4  UNL     1      16.982 -14.811  12.296  1.00  0.00    -0.412 N 
ATOM     20  H4  UNL     1      17.917 -14.512  12.575  1.00  0.00     0.153 HD
BRANCH  19  21
HETATM   21  C12 UNL     1      15.960 -14.123  12.869  1.00  0.00     0.091 C 
HETATM   22  C13 UNL     1      16.120 -12.977  13.825  1.00  0.00     0.040 C 
HETATM   23  C14 UNL     1      14.628 -12.857  14.313  1.00  0.00     0.142 C 
HETATM   24  S2  UNL     1      13.895 -12.621  12.679  1.00  0.00     0.146 S 
HETATM   25  O3  UNL     1      13.696 -11.177  12.387  1.00  0.00    -0.228 OA
HETATM   26  O4  UNL     1      12.638 -13.397  12.509  1.00  0.00    -0.228 OA
HETATM   27  C15 UNL     1      15.232 -13.323  11.689  1.00  0.00     0.164 C 
ENDBRANCH  19  21
ENDBRANCH  18  19
ENDBRANCH   6  18
BRANCH   5  28
HETATM   28  C9  UNL     1      19.684 -17.097  11.058  1.00  0.00     0.282 C 
HETATM   29  N3  UNL     1      20.834 -16.353  11.404  1.00  0.00    -0.056 NA
HETATM   30  O2  UNL     1      19.535 -17.403   9.860  1.00  0.00    -0.269 OA
ENDBRANCH   5  28
TORSDOF 7
ENDMDL
MODEL 3
REMARK VINA RESULT: -6.632167192      3.314      6.249
REMARK  7 active torsions:
REMARK  status: ('A' for Active; 'I' for Inactive)
REMARK    1  A    between atoms: C2_2  and  O1_5 
REMARK    2  A    between atoms: O1_5  and  C4_6 
REMARK    3  A    between atoms: N1_9  and  C7_10 
REMARK    4  A    between atoms: C8_14  and  C9_15 
REMARK    5  A    between atoms: C10_18  and  C11_19 
REMARK    6  A    between atoms: C11_19  and  N4_20 
REMARK    7  A    between atoms: N4_20  and  C12_22 
ROOT
HETATM    1  C7  UNL     1      15.126 -12.291  11.210  1.00  0.00     0.099 A 
HETATM    2  S1  UNL     1      15.169 -10.590  10.872  1.00  0.00     0.005 SA
HETATM    3  N2  UNL     1      15.824 -10.655   9.369  1.00  0.00    -0.320 N 
ATOM      4  H2  UNL     1      16.040  -9.866   8.760  1.00  0.00     0.174 HD
HETATM    5  C8  UNL     1      16.018 -11.939   9.105  1.00  0.00     0.115 A 
HETATM    6  C10 UNL     1      15.641 -12.840  10.069  1.00  0.00     0.026 A 
ENDROOT
BRANCH   1   7
HETATM    7  N1  UNL     1      14.750 -12.854  12.440  1.00  0.00    -0.373 N 
HETATM    8  C6  UNL     1      13.327 -13.100  12.726  1.00  0.00     0.126 C 
HETATM    9  C5  UNL     1      13.263 -14.634  12.456  1.00  0.00     0.052 C 
HETATM   10  C4  UNL     1      13.974 -15.241  13.606  1.00  0.00     0.127 C 
HETATM   11  C17 UNL     1      15.004 -14.376  14.299  1.00  0.00     0.052 C 
HETATM   12  C16 UNL     1      15.675 -13.364  13.388  1.00  0.00     0.126 C 
BRANCH  10  13
HETATM   13  O1  UNL     1      12.987 -15.519  14.563  1.00  0.00    -0.360 OA
BRANCH  13  14
HETATM   14  C2  UNL     1      12.914 -16.820  14.956  1.00  0.00     0.130 C 
HETATM   15  C1  UNL     1      11.550 -17.076  15.625  1.00  0.00     0.064 C 
HETATM   16  C3  UNL     1      14.017 -17.203  15.937  1.00  0.00     0.064 C 
HETATM   17 CL1  UNL     1      13.023 -17.885  13.554  1.00  0.00    -0.089 Cl
ENDBRANCH  13  14
ENDBRANCH  10  13
ENDBRANCH   1   7
BRANCH   6  18
HETATM   18  C11 UNL     1      15.705 -14.338   9.746  1.00  0.00     0.158 C 
BRANCH  18  19
HETATM   19  N4  UNL     1      16.869 -14.825  10.410  1.00  0.00    -0.412 N 
ATOM     20  H4  UNL     1      17.713 -14.267  10.275  1.00  0.00     0.153 HD
BRANCH  19  21
HETATM   21  C12 UNL     1      17.021 -15.921  11.197  1.00  0.00     0.091 C 
HETATM   22  C13 UNL     1      16.019 -17.030  11.336  1.00  0.00     0.040 C 
HETATM   23  C14 UNL     1      16.653 -17.778  12.567  1.00  0.00     0.142 C 
HETATM   24  S2  UNL     1      18.272 -18.066  11.823  1.00  0.00     0.146 S 
HETATM   25  O3  UNL     1      18.351 -19.424  11.223  1.00  0.00    -0.228 OA
HETATM   26  O4  UNL     1      19.384 -17.821  12.779  1.00  0.00    -0.228 OA
HETATM   27  C15 UNL     1      18.210 -16.781  10.556  1.00  0.00     0.164 C 
ENDBRANCH  19  21
ENDBRANCH  18  19
ENDBRANCH   6  18
BRANCH   5  28
HETATM   28  C9  UNL     1      16.899 -12.274   7.905  1.00  0.00     0.282 C 
HETATM   29  N3  UNL     1      16.321 -12.636   6.667  1.00  0.00    -0.056 NA
HETATM   30  O2  UNL     1      18.142 -12.224   7.967  1.00  0.00    -0.269 OA
ENDBRANCH   5  28
TORSDOF 7
ENDMDL
MODEL 4
REMARK VINA RESULT: -6.528845065      3.153      6.560
REMARK  7 active torsions:
REMARK  status: ('A' for Active; 'I' for Inactive)
REMARK    1  A    between atoms: C2_2  and  O1_5 
REMARK    2  A    between atoms: O1_5  and  C4_6 
REMARK    3  A    between atoms: N1_9  and  C7_10 
REMARK    4  A    between atoms: C8_14  and  C9_15 
REMARK    5  A    between atoms: C10_18  and  C11_19 
REMARK    6  A    between atoms: C11_19  and  N4_20 
REMARK    7  A    between atoms: N4_20  and  C12_22 
ROOT
HETATM    1  C7  UNL     1      16.403 -17.556  12.443  1.00  0.00     0.099 A 
HETATM    2  S1  UNL     1      17.361 -18.708  13.316  1.00  0.00     0.005 SA
HETATM    3  N2  UNL     1      18.265 -19.271  12.068  1.00  0.00    -0.320 N 
ATOM      4  H2  UNL     1      18.990 -19.987  12.112  1.00  0.00     0.174 HD
HETATM    5  C8  UNL     1      17.864 -18.610  10.993  1.00  0.00     0.115 A 
HETATM    6  C10 UNL     1      16.875 -17.674  11.165  1.00  0.00     0.026 A 
ENDROOT
BRANCH   1   7
HETATM    7  N1  UNL     1      15.338 -16.820  12.989  1.00  0.00    -0.373 N 
HETATM    8  C6  UNL     1      13.979 -17.385  12.979  1.00  0.00     0.126 C 
HETATM    9  C5  UNL     1      13.881 -17.868  14.458  1.00  0.00     0.052 C 
HETATM   10  C4  UNL     1      13.749 -16.620  15.245  1.00  0.00     0.127 C 
HETATM   11  C17 UNL     1      14.320 -15.363  14.626  1.00  0.00     0.052 C 
HETATM   12  C16 UNL     1      15.506 -15.610  13.711  1.00  0.00     0.126 C 
BRANCH  10  13
HETATM   13  O1  UNL     1      12.370 -16.398  15.384  1.00  0.00    -0.360 OA
BRANCH  13  14
HETATM   14  C2  UNL     1      11.960 -16.074  16.640  1.00  0.00     0.130 C 
HETATM   15  C1  UNL     1      10.836 -17.032  17.074  1.00  0.00     0.064 C 
HETATM   16  C3  UNL     1      11.447 -14.642  16.742  1.00  0.00     0.064 C 
HETATM   17 CL1  UNL     1      13.291 -16.269  17.782  1.00  0.00    -0.089 Cl
ENDBRANCH  13  14
ENDBRANCH  10  13
ENDBRANCH   1   7
BRANCH   6  18
HETATM   18  C11 UNL     1      16.488 -16.780   9.981  1.00  0.00     0.158 C 
BRANCH  18  19
HETATM   19  N4  UNL     1      16.950 -15.473  10.319  1.00  0.00    -0.412 N 
ATOM     20  H4  UNL     1      17.930 -15.417  10.597  1.00  0.00     0.153 HD
BRANCH  19  21
HETATM   21  C12 UNL     1      16.277 -14.293  10.327  1.00  0.00     0.091 C 
HETATM   22  C13 UNL     1      16.239 -13.314   9.189  1.00  0.00     0.040 C 
HETATM   23  C14 UNL     1      15.578 -12.098   9.938  1.00  0.00     0.142 C 
HETATM   24  S2  UNL     1      14.091 -12.969  10.476  1.00  0.00     0.146 S 
HETATM   25  O3  UNL     1      12.964 -12.733   9.535  1.00  0.00    -0.228 OA
HETATM   26  O4  UNL     1      13.719 -12.636  11.876  1.00  0.00    -0.228 OA
HETATM   27  C15 UNL     1      14.718 -14.658  10.354  1.00  0.00     0.164 C 
ENDBRANCH  19  21
ENDBRANCH  18  19
ENDBRANCH   6  18
BRANCH   5  28
HETATM   28  C9  UNL     1      18.317 -19.149   9.639  1.00  0.00     0.282 C 
HETATM   29  N3  UNL     1      19.527 -18.707   9.057  1.00  0.00    -0.056 NA
HETATM   30  O2  UNL     1      17.655 -19.999   9.014  1.00  0.00    -0.269 OA
ENDBRANCH   5  28
TORSDOF 7
ENDMDL
MODEL 5
REMARK VINA RESULT: -6.519426555      3.022      6.340
REMARK  7 active torsions:
REMARK  status: ('A' for Active; 'I' for Inactive)
REMARK    1  A    between atoms: C2_2  and  O1_5 
REMARK    2  A    between atoms: O1_5  and  C4_6 
REMARK    3  A    between atoms: N1_9  and  C7_10 
REMARK    4  A    between atoms: C8_14  and  C9_15 
REMARK    5  A    between atoms: C10_18  and  C11_19 
REMARK    6  A    between atoms: C11_19  and  N4_20 
REMARK    7  A    between atoms: N4_20  and  C12_22 
ROOT
HETATM    1  C7  UNL     1      16.798 -17.745  12.765  1.00  0.00     0.099 A 
HETATM    2  S1  UNL     1      18.249 -18.151  13.625  1.00  0.00     0.005 SA
HETATM    3  N2  UNL     1      19.335 -17.830  12.438  1.00  0.00    -0.320 N 
ATOM      4  H2  UNL     1      20.349 -17.928  12.493  1.00  0.00     0.174 HD
HETATM    5  C8  UNL     1      18.632 -17.420  11.393  1.00  0.00     0.115 A 
HETATM    6  C10 UNL     1      17.269 -17.351  11.543  1.00  0.00     0.026 A 
ENDROOT
BRANCH   1   7
HETATM    7  N1  UNL     1      15.496 -17.931  13.256  1.00  0.00    -0.373 N 
HETATM    8  C6  UNL     1      15.240 -17.829  14.702  1.00  0.00     0.126 C 
HETATM    9  C5  UNL     1      14.630 -16.394  14.763  1.00  0.00     0.052 C 
HETATM   10  C4  UNL     1      13.282 -16.542  14.166  1.00  0.00     0.127 C 
HETATM   11  C17 UNL     1      13.094 -17.682  13.189  1.00  0.00     0.052 C 
HETATM   12  C16 UNL     1      14.351 -18.056  12.427  1.00  0.00     0.126 C 
BRANCH  10  13
HETATM   13  O1  UNL     1      12.413 -16.795  15.238  1.00  0.00    -0.360 OA
BRANCH  13  14
HETATM   14  C2  UNL     1      11.525 -15.801  15.509  1.00  0.00     0.130 C 
HETATM   15  C1  UNL     1      10.224 -16.413  16.060  1.00  0.00     0.064 C 
HETATM   16  C3  UNL     1      11.187 -14.961  14.282  1.00  0.00     0.064 C 
HETATM   17 CL1  UNL     1      12.173 -14.730  16.752  1.00  0.00    -0.089 Cl
ENDBRANCH  13  14
ENDBRANCH  10  13
ENDBRANCH   1   7
BRANCH   6  18
HETATM   18  C11 UNL     1      16.431 -16.738  10.414  1.00  0.00     0.158 C 
BRANCH  18  19
HETATM   19  N4  UNL     1      16.582 -15.326  10.548  1.00  0.00    -0.412 N 
ATOM     20  H4  UNL     1      17.502 -14.961  10.299  1.00  0.00     0.153 HD
BRANCH  19  21
HETATM   21  C12 UNL     1      15.682 -14.395  10.958  1.00  0.00     0.091 C 
HETATM   22  C13 UNL     1      14.218 -14.647  11.176  1.00  0.00     0.040 C 
HETATM   23  C14 UNL     1      13.736 -13.157  11.334  1.00  0.00     0.142 C 
HETATM   24  S2  UNL     1      14.829 -12.729  12.706  1.00  0.00     0.146 S 
HETATM   25  O3  UNL     1      14.131 -12.874  14.010  1.00  0.00    -0.228 OA
HETATM   26  O4  UNL     1      15.429 -11.378  12.549  1.00  0.00    -0.228 OA
HETATM   27  C15 UNL     1      16.067 -14.022  12.467  1.00  0.00     0.164 C 
ENDBRANCH  19  21
ENDBRANCH  18  19
ENDBRANCH   6  18
BRANCH   5  28
HETATM   28  C9  UNL     1      19.359 -17.348  10.054  1.00  0.00     0.282 C 
HETATM   29  N3  UNL     1      19.413 -18.476   9.203  1.00  0.00    -0.056 NA
HETATM   30  O2  UNL     1      19.910 -16.303   9.658  1.00  0.00    -0.269 OA
ENDBRANCH   5  28
TORSDOF 7
ENDMDL
