MODEL 1
REMARK VINA RESULT: -7.690194286      0.000      0.000
REMARK  6 active torsions:
REMARK  status: ('A' for Active; 'I' for Inactive)
REMARK    1  A    between atoms: C1_2  and  C2_4 
REMARK    2  A    between atoms: C3_5  and  S1_6 
REMARK    3  A    between atoms: S1_6  and  C4_7 
REMARK    4  A    between atoms: C6_11  and  N3_12 
REMARK       I    between atoms: N3_12  and  C7_14 
REMARK       I    between atoms: C7_14  and  N4_15 
REMARK       I    between atoms: C7_14  and  N5_19 
REMARK    5  A    between atoms: C11_27  and  N6_28 
REMARK       I    between atoms: N6_28  and  C12_30 
REMARK       I    between atoms: C12_30  and  N7_32 
REMARK    6  A    between atoms: N7_32  and  N8_34 
ROOT
HETATM    1  C2  UNL     1     -54.046  15.916  17.113  1.00  0.00     0.127 C 
HETATM    2  C3  UNL     1     -52.857  15.525  17.570  1.00  0.00     0.021 C 
HETATM    3  C9  UNL     1     -52.613  14.351  18.440  1.00  0.00     0.124 C 
HETATM    4  S2  UNL     1     -54.082  13.338  18.747  1.00  0.00    -0.135 SA
HETATM    5  C10 UNL     1     -55.452  14.559  18.698  1.00  0.00     0.190 C 
HETATM    6  C11 UNL     1     -56.795  13.910  18.610  1.00  0.00     0.137 C 
HETATM    7  C13 UNL     1     -57.026  13.856  17.114  1.00  0.00     0.163 C 
HETATM    8  N9  UNL     1     -56.379  15.049  16.591  1.00  0.00    -0.135 NA
HETATM    9  N10 UNL     1     -55.248  15.228  17.406  1.00  0.00    -0.273 N 
ENDROOT
BRANCH   2  10
HETATM   10  S1  UNL     1     -51.421  16.459  17.106  1.00  0.00    -0.124 SA
BRANCH  10  11
HETATM   11  C4  UNL     1     -49.925  15.655  17.672  1.00  0.00     0.077 C 
HETATM   12  C5  UNL     1     -48.694  16.320  17.035  1.00  0.00     0.137 C 
HETATM   13  N2  UNL     1     -47.645  16.027  17.977  1.00  0.00    -0.379 N 
HETATM   14  C6  UNL     1     -48.109  15.747  19.122  1.00  0.00     0.076 C 
ATOM     15  H2  UNL     1     -46.651  16.043  17.750  1.00  0.00     0.160 HD
HETATM   16  C8  UNL     1     -49.623  15.805  19.121  1.00  0.00     0.093 C 
BRANCH  14  17
HETATM   17  N3  UNL     1     -47.380  15.408  20.291  1.00  0.00    -0.331 N 
HETATM   18  C7  UNL     1     -46.667  14.140  20.360  1.00  0.00     0.481 C 
HETATM   19  N4  UNL     1     -47.646  13.089  20.171  1.00  0.00    -0.033 N 
HETATM   20  N5  UNL     1     -46.012  14.043  21.622  1.00  0.00    -0.033 N 
ATOM     21  H43 UNL     1     -48.425  13.145  20.827  1.00  0.00     0.278 HD
ATOM     22  H42 UNL     1     -48.187  13.197  19.314  1.00  0.00     0.278 HD
ATOM     23  H41 UNL     1     -47.146  12.201  20.219  1.00  0.00     0.278 HD
ATOM     24  H53 UNL     1     -45.404  14.841  21.807  1.00  0.00     0.278 HD
ATOM     25  H52 UNL     1     -46.655  14.169  22.404  1.00  0.00     0.278 HD
ATOM     26  H51 UNL     1     -45.512  13.155  21.670  1.00  0.00     0.278 HD
ATOM     27  H3  UNL     1     -47.356  16.051  21.083  1.00  0.00     0.164 HD
ENDBRANCH  14  17
ENDBRANCH  10  11
ENDBRANCH   2  10
BRANCH   1  28
HETATM   28  C1  UNL     1     -54.154  17.078  16.262  1.00  0.00     0.283 C 
HETATM   29  N1  UNL     1     -54.745  18.282  16.691  1.00  0.00    -0.056 NA
HETATM   30  O1  UNL     1     -53.712  17.056  15.078  1.00  0.00    -0.269 OA
ENDBRANCH   1  28
BRANCH   6  31
HETATM   31  N6  UNL     1     -57.782  14.866  19.125  1.00  0.00    -0.333 N 
HETATM   32  C12 UNL     1     -59.084  14.514  19.507  1.00  0.00     0.340 C 
HETATM   33  O2  UNL     1     -59.450  13.325  19.415  1.00  0.00    -0.245 OA
HETATM   34  N7  UNL     1     -59.982  15.486  19.991  1.00  0.00    -0.191 N 
ATOM     35  H7  UNL     1     -59.679  16.457  20.062  1.00  0.00     0.198 HD
ATOM     36  H6  UNL     1     -57.505  15.844  19.210  1.00  0.00     0.164 HD
BRANCH  34  37
HETATM   37  N8  UNL     1     -61.274  15.144  20.376  1.00  0.00    -0.035 N 
HETATM   38  O3  UNL     1     -62.268  15.398  19.630  1.00  0.00    -0.516 OA
HETATM   39  O4  UNL     1     -61.534  14.525  21.573  1.00  0.00    -0.516 OA
ENDBRANCH  34  37
ENDBRANCH   6  31
TORSDOF 6
ENDMDL
MODEL 2
REMARK VINA RESULT: -7.649791802      3.385      4.125
REMARK  6 active torsions:
REMARK  status: ('A' for Active; 'I' for Inactive)
REMARK    1  A    between atoms: C1_2  and  C2_4 
REMARK    2  A    between atoms: C3_5  and  S1_6 
REMARK    3  A    between atoms: S1_6  and  C4_7 
REMARK    4  A    between atoms: C6_11  and  N3_12 
REMARK       I    between atoms: N3_12  and  C7_14 
REMARK       I    between atoms: C7_14  and  N4_15 
REMARK       I    between atoms: C7_14  and  N5_19 
REMARK    5  A    between atoms: C11_27  and  N6_28 
REMARK       I    between atoms: N6_28  and  C12_30 
REMARK       I    between atoms: C12_30  and  N7_32 
REMARK    6  A    between atoms: N7_32  and  N8_34 
ROOT
HETATM    1  C2  UNL     1     -55.159  15.983  18.530  1.00  0.00     0.127 C 
HETATM    2  C3  UNL     1     -54.305  15.719  17.542  1.00  0.00     0.021 C 
HETATM    3  C9  UNL     1     -54.399  14.576  16.606  1.00  0.00     0.124 C 
HETATM    4  S2  UNL     1     -55.901  13.582  16.797  1.00  0.00    -0.135 SA
HETATM    5  C10 UNL     1     -56.277  13.729  18.588  1.00  0.00     0.190 C 
HETATM    6  C11 UNL     1     -57.651  13.253  18.926  1.00  0.00     0.137 C 
HETATM    7  C13 UNL     1     -58.463  14.527  18.832  1.00  0.00     0.163 C 
HETATM    8  N9  UNL     1     -57.560  15.581  19.269  1.00  0.00    -0.135 NA
HETATM    9  N10 UNL     1     -56.295  15.183  18.800  1.00  0.00    -0.273 N 
ENDROOT
BRANCH   2  10
HETATM   10  S1  UNL     1     -52.935  16.818  17.291  1.00  0.00    -0.124 SA
BRANCH  10  11
HETATM   11  C4  UNL     1     -52.342  16.725  15.605  1.00  0.00     0.077 C 
HETATM   12  C5  UNL     1     -52.110  18.139  15.046  1.00  0.00     0.137 C 
HETATM   13  N2  UNL     1     -51.126  17.922  14.018  1.00  0.00    -0.379 N 
HETATM   14  C6  UNL     1     -50.498  16.836  14.192  1.00  0.00     0.076 C 
ATOM     15  H2  UNL     1     -50.955  18.564  13.244  1.00  0.00     0.160 HD
HETATM   16  C8  UNL     1     -50.997  16.115  15.427  1.00  0.00     0.093 C 
BRANCH  14  17
HETATM   17  N3  UNL     1     -49.463  16.295  13.385  1.00  0.00    -0.331 N 
HETATM   18  C7  UNL     1     -48.441  15.451  13.985  1.00  0.00     0.481 C 
HETATM   19  N4  UNL     1     -47.787  16.236  15.012  1.00  0.00    -0.033 N 
HETATM   20  N5  UNL     1     -47.531  15.030  12.972  1.00  0.00    -0.033 N 
ATOM     21  H43 UNL     1     -47.421  17.123  14.665  1.00  0.00     0.278 HD
ATOM     22  H42 UNL     1     -48.438  16.622  15.695  1.00  0.00     0.278 HD
ATOM     23  H41 UNL     1     -47.071  15.645  15.433  1.00  0.00     0.278 HD
ATOM     24  H53 UNL     1     -48.003  14.572  12.192  1.00  0.00     0.278 HD
ATOM     25  H52 UNL     1     -47.132  15.815  12.457  1.00  0.00     0.278 HD
ATOM     26  H51 UNL     1     -46.815  14.438  13.393  1.00  0.00     0.278 HD
ATOM     27  H3  UNL     1     -49.436  16.498  12.385  1.00  0.00     0.164 HD
ENDBRANCH  14  17
ENDBRANCH  10  11
ENDBRANCH   2  10
BRANCH   1  28
HETATM   28  C1  UNL     1     -54.964  17.138  19.375  1.00  0.00     0.283 C 
HETATM   29  N1  UNL     1     -55.615  18.366  19.145  1.00  0.00    -0.056 NA
HETATM   30  O1  UNL     1     -54.188  17.089  20.370  1.00  0.00    -0.269 OA
ENDBRANCH   1  28
BRANCH   6  31
HETATM   31  N6  UNL     1     -57.656  12.888  20.348  1.00  0.00    -0.333 N 
HETATM   32  C12 UNL     1     -58.774  13.017  21.183  1.00  0.00     0.340 C 
HETATM   33  O2  UNL     1     -59.841  13.462  20.715  1.00  0.00    -0.245 OA
HETATM   34  N7  UNL     1     -58.706  12.649  22.541  1.00  0.00    -0.191 N 
ATOM     35  H7  UNL     1     -57.831  12.287  22.920  1.00  0.00     0.198 HD
ATOM     36  H6  UNL     1     -56.794  12.520  20.752  1.00  0.00     0.164 HD
BRANCH  34  37
HETATM   37  N8  UNL     1     -59.812  12.769  23.376  1.00  0.00    -0.035 N 
HETATM   38  O3  UNL     1     -59.937  13.758  24.159  1.00  0.00    -0.516 OA
HETATM   39  O4  UNL     1     -60.812  11.828  23.394  1.00  0.00    -0.516 OA
ENDBRANCH  34  37
ENDBRANCH   6  31
TORSDOF 6
ENDMDL
MODEL 3
REMARK VINA RESULT: -7.501193567      3.431      9.550
REMARK  6 active torsions:
REMARK  status: ('A' for Active; 'I' for Inactive)
REMARK    1  A    between atoms: C1_2  and  C2_4 
REMARK    2  A    between atoms: C3_5  and  S1_6 
REMARK    3  A    between atoms: S1_6  and  C4_7 
REMARK    4  A    between atoms: C6_11  and  N3_12 
REMARK       I    between atoms: N3_12  and  C7_14 
REMARK       I    between atoms: C7_14  and  N4_15 
REMARK       I    between atoms: C7_14  and  N5_19 
REMARK    5  A    between atoms: C11_27  and  N6_28 
REMARK       I    between atoms: N6_28  and  C12_30 
REMARK       I    between atoms: C12_30  and  N7_32 
REMARK    6  A    between atoms: N7_32  and  N8_34 
ROOT
HETATM    1  C2  UNL     1     -54.963  15.180  16.600  1.00  0.00     0.127 C 
HETATM    2  C3  UNL     1     -55.559  15.007  17.779  1.00  0.00     0.021 C 
HETATM    3  C9  UNL     1     -55.201  15.705  19.035  1.00  0.00     0.124 C 
HETATM    4  S2  UNL     1     -53.933  16.984  18.836  1.00  0.00    -0.135 SA
HETATM    5  C10 UNL     1     -52.904  16.344  17.457  1.00  0.00     0.190 C 
HETATM    6  C11 UNL     1     -51.982  17.380  16.902  1.00  0.00     0.137 C 
HETATM    7  C13 UNL     1     -52.806  17.972  15.778  1.00  0.00     0.163 C 
HETATM    8  N9  UNL     1     -53.597  16.863  15.268  1.00  0.00    -0.135 NA
HETATM    9  N10 UNL     1     -53.894  16.086  16.402  1.00  0.00    -0.273 N 
ENDROOT
BRANCH   2  10
HETATM   10  S1  UNL     1     -56.909  13.859  17.886  1.00  0.00    -0.124 SA
BRANCH  10  11
HETATM   11  C4  UNL     1     -58.154  14.443  19.032  1.00  0.00     0.077 C 
HETATM   12  C5  UNL     1     -59.558  14.199  18.456  1.00  0.00     0.137 C 
HETATM   13  N2  UNL     1     -60.383  14.132  19.634  1.00  0.00    -0.379 N 
HETATM   14  C6  UNL     1     -59.701  13.865  20.668  1.00  0.00     0.076 C 
ATOM     15  H2  UNL     1     -61.392  14.282  19.637  1.00  0.00     0.160 HD
HETATM   16  C8  UNL     1     -58.234  13.710  20.324  1.00  0.00     0.093 C 
BRANCH  14  17
HETATM   17  N3  UNL     1     -60.170  13.720  22.000  1.00  0.00    -0.331 N 
HETATM   18  C7  UNL     1     -61.124  14.678  22.541  1.00  0.00     0.481 C 
HETATM   19  N4  UNL     1     -60.505  15.985  22.467  1.00  0.00    -0.033 N 
HETATM   20  N5  UNL     1     -61.442  14.310  23.881  1.00  0.00    -0.033 N 
ATOM     21  H43 UNL     1     -59.595  16.024  22.927  1.00  0.00     0.278 HD
ATOM     22  H42 UNL     1     -60.188  16.225  21.528  1.00  0.00     0.278 HD
ATOM     23  H41 UNL     1     -61.173  16.656  22.846  1.00  0.00     0.278 HD
ATOM     24  H53 UNL     1     -61.775  13.348  23.952  1.00  0.00     0.278 HD
ATOM     25  H52 UNL     1     -60.611  14.217  24.466  1.00  0.00     0.278 HD
ATOM     26  H51 UNL     1     -62.111  14.981  24.260  1.00  0.00     0.278 HD
ATOM     27  H3  UNL     1     -59.839  12.947  22.577  1.00  0.00     0.164 HD
ENDBRANCH  14  17
ENDBRANCH  10  11
ENDBRANCH   2  10
BRANCH   1  28
HETATM   28  C1  UNL     1     -55.411  14.442  15.441  1.00  0.00     0.283 C 
HETATM   29  N1  UNL     1     -54.896  13.176  15.101  1.00  0.00    -0.056 NA
HETATM   30  O1  UNL     1     -56.298  14.915  14.676  1.00  0.00    -0.269 OA
ENDBRANCH   1  28
BRANCH   6  31
HETATM   31  N6  UNL     1     -50.871  16.679  16.247  1.00  0.00    -0.333 N 
HETATM   32  C12 UNL     1     -49.868  15.988  16.940  1.00  0.00     0.340 C 
HETATM   33  O2  UNL     1     -49.898  15.951  18.186  1.00  0.00    -0.245 OA
HETATM   34  N7  UNL     1     -48.829  15.337  16.246  1.00  0.00    -0.191 N 
ATOM     35  H7  UNL     1     -48.807  15.373  15.227  1.00  0.00     0.198 HD
ATOM     36  H6  UNL     1     -50.828  16.694  15.228  1.00  0.00     0.164 HD
BRANCH  34  37
HETATM   37  N8  UNL     1     -47.831  14.647  16.925  1.00  0.00    -0.035 N 
HETATM   38  O3  UNL     1     -46.746  15.217  17.253  1.00  0.00    -0.516 OA
HETATM   39  O4  UNL     1     -47.970  13.325  17.269  1.00  0.00    -0.516 OA
ENDBRANCH  34  37
ENDBRANCH   6  31
TORSDOF 6
ENDMDL
MODEL 4
REMARK VINA RESULT: -7.429733134      1.997      2.635
REMARK  6 active torsions:
REMARK  status: ('A' for Active; 'I' for Inactive)
REMARK    1  A    between atoms: C1_2  and  C2_4 
REMARK    2  A    between atoms: C3_5  and  S1_6 
REMARK    3  A    between atoms: S1_6  and  C4_7 
REMARK    4  A    between atoms: C6_11  and  N3_12 
REMARK       I    between atoms: N3_12  and  C7_14 
REMARK       I    between atoms: C7_14  and  N4_15 
REMARK       I    between atoms: C7_14  and  N5_19 
REMARK    5  A    between atoms: C11_27  and  N6_28 
REMARK       I    between atoms: N6_28  and  C12_30 
REMARK       I    between atoms: C12_30  and  N7_32 
REMARK    6  A    between atoms: N7_32  and  N8_34 
ROOT
HETATM    1  C2  UNL     1     -54.075  15.617  16.175  1.00  0.00     0.127 C 
HETATM    2  C3  UNL     1     -53.565  16.811  16.475  1.00  0.00     0.021 C 
HETATM    3  C9  UNL     1     -53.667  17.485  17.790  1.00  0.00     0.124 C 
HETATM    4  S2  UNL     1     -54.444  16.479  19.080  1.00  0.00    -0.135 SA
HETATM    5  C10 UNL     1     -55.632  15.439  18.144  1.00  0.00     0.190 C 
HETATM    6  C11 UNL     1     -56.163  14.304  18.956  1.00  0.00     0.137 C 
HETATM    7  C13 UNL     1     -55.195  13.189  18.620  1.00  0.00     0.163 C 
HETATM    8  N9  UNL     1     -54.816  13.427  17.236  1.00  0.00    -0.135 NA
HETATM    9  N10 UNL     1     -54.787  14.827  17.109  1.00  0.00    -0.273 N 
ENDROOT
BRANCH   2  10
HETATM   10  S1  UNL     1     -52.668  17.689  15.220  1.00  0.00    -0.124 SA
BRANCH  10  11
HETATM   11  C4  UNL     1     -51.009  17.039  15.048  1.00  0.00     0.077 C 
HETATM   12  C5  UNL     1     -49.991  18.191  15.016  1.00  0.00     0.137 C 
HETATM   13  N2  UNL     1     -48.780  17.563  15.477  1.00  0.00    -0.379 N 
HETATM   14  C6  UNL     1     -49.020  16.501  16.125  1.00  0.00     0.076 C 
ATOM     15  H2  UNL     1     -47.843  17.928  15.303  1.00  0.00     0.160 HD
HETATM   16  C8  UNL     1     -50.510  16.236  16.196  1.00  0.00     0.093 C 
BRANCH  14  17
HETATM   17  N3  UNL     1     -48.081  15.623  16.726  1.00  0.00    -0.331 N 
HETATM   18  C7  UNL     1     -48.313  15.125  18.075  1.00  0.00     0.481 C 
HETATM   19  N4  UNL     1     -48.405  16.279  18.945  1.00  0.00    -0.033 N 
HETATM   20  N5  UNL     1     -47.240  14.261  18.442  1.00  0.00    -0.033 N 
ATOM     21  H43 UNL     1     -47.596  16.896  18.880  1.00  0.00     0.278 HD
ATOM     22  H42 UNL     1     -49.108  16.953  18.642  1.00  0.00     0.278 HD
ATOM     23  H41 UNL     1     -48.568  15.931  19.890  1.00  0.00     0.278 HD
ATOM     24  H53 UNL     1     -47.101  13.507  17.769  1.00  0.00     0.278 HD
ATOM     25  H52 UNL     1     -46.329  14.710  18.345  1.00  0.00     0.278 HD
ATOM     26  H51 UNL     1     -47.403  13.913  19.387  1.00  0.00     0.278 HD
ATOM     27  H3  UNL     1     -47.245  15.340  16.214  1.00  0.00     0.164 HD
ENDBRANCH  14  17
ENDBRANCH  10  11
ENDBRANCH   2  10
BRANCH   1  28
HETATM   28  C1  UNL     1     -53.901  15.060  14.854  1.00  0.00     0.283 C 
HETATM   29  N1  UNL     1     -54.798  14.128  14.298  1.00  0.00    -0.056 NA
HETATM   30  O1  UNL     1     -52.918  15.397  14.134  1.00  0.00    -0.269 OA
ENDBRANCH   1  28
BRANCH   6  31
HETATM   31  N6  UNL     1     -57.446  13.901  18.367  1.00  0.00    -0.333 N 
HETATM   32  C12 UNL     1     -58.669  14.515  18.667  1.00  0.00     0.340 C 
HETATM   33  O2  UNL     1     -58.698  15.463  19.477  1.00  0.00    -0.245 OA
HETATM   34  N7  UNL     1     -59.864  14.074  18.064  1.00  0.00    -0.191 N 
ATOM     35  H7  UNL     1     -59.836  13.298  17.405  1.00  0.00     0.198 HD
ATOM     36  H6  UNL     1     -57.446  13.129  17.700  1.00  0.00     0.164 HD
BRANCH  34  37
HETATM   37  N8  UNL     1     -61.082  14.681  18.353  1.00  0.00    -0.035 N 
HETATM   38  O3  UNL     1     -61.648  15.446  17.516  1.00  0.00    -0.516 OA
HETATM   39  O4  UNL     1     -61.723  14.485  19.552  1.00  0.00    -0.516 OA
ENDBRANCH  34  37
ENDBRANCH   6  31
TORSDOF 6
ENDMDL
MODEL 5
REMARK VINA RESULT: -7.410975067      2.875      3.500
REMARK  6 active torsions:
REMARK  status: ('A' for Active; 'I' for Inactive)
REMARK    1  A    between atoms: C1_2  and  C2_4 
REMARK    2  A    between atoms: C3_5  and  S1_6 
REMARK    3  A    between atoms: S1_6  and  C4_7 
REMARK    4  A    between atoms: C6_11  and  N3_12 
REMARK       I    between atoms: N3_12  and  C7_14 
REMARK       I    between atoms: C7_14  and  N4_15 
REMARK       I    between atoms: C7_14  and  N5_19 
REMARK    5  A    between atoms: C11_27  and  N6_28 
REMARK       I    between atoms: N6_28  and  C12_30 
REMARK       I    between atoms: C12_30  and  N7_32 
REMARK    6  A    between atoms: N7_32  and  N8_34 
ROOT
HETATM    1  C2  UNL     1     -54.788  15.765  17.902  1.00  0.00     0.127 C 
HETATM    2  C3  UNL     1     -53.552  15.302  18.088  1.00  0.00     0.021 C 
HETATM    3  C9  UNL     1     -53.205  13.941  18.557  1.00  0.00     0.124 C 
HETATM    4  S2  UNL     1     -54.628  12.834  18.738  1.00  0.00    -0.135 SA
HETATM    5  C10 UNL     1     -55.992  13.974  19.196  1.00  0.00     0.190 C 
HETATM    6  C11 UNL     1     -57.336  13.332  19.088  1.00  0.00     0.137 C 
HETATM    7  C13 UNL     1     -57.748  13.689  17.675  1.00  0.00     0.163 C 
HETATM    8  N9  UNL     1     -57.169  15.002  17.436  1.00  0.00    -0.135 NA
HETATM    9  N10 UNL     1     -55.946  14.984  18.129  1.00  0.00    -0.273 N 
ENDROOT
BRANCH   2  10
HETATM   10  S1  UNL     1     -52.183  16.376  17.739  1.00  0.00    -0.124 SA
BRANCH  10  11
HETATM   11  C4  UNL     1     -51.780  16.350  15.995  1.00  0.00     0.077 C 
HETATM   12  C5  UNL     1     -51.830  17.775  15.419  1.00  0.00     0.137 C 
HETATM   13  N2  UNL     1     -50.948  17.695  14.284  1.00  0.00    -0.379 N 
HETATM   14  C6  UNL     1     -50.148  16.718  14.380  1.00  0.00     0.076 C 
ATOM     15  H2  UNL     1     -50.967  18.345  13.498  1.00  0.00     0.160 HD
HETATM   16  C8  UNL     1     -50.387  15.947  15.662  1.00  0.00     0.093 C 
BRANCH  14  17
HETATM   17  N3  UNL     1     -49.142  16.329  13.457  1.00  0.00    -0.331 N 
HETATM   18  C7  UNL     1     -48.120  15.373  13.858  1.00  0.00     0.481 C 
HETATM   19  N4  UNL     1     -47.429  15.940  14.997  1.00  0.00    -0.033 N 
HETATM   20  N5  UNL     1     -47.243  15.142  12.759  1.00  0.00    -0.033 N 
ATOM     21  H43 UNL     1     -47.055  16.871  14.816  1.00  0.00     0.278 HD
ATOM     22  H42 UNL     1     -48.056  16.196  15.759  1.00  0.00     0.278 HD
ATOM     23  H41 UNL     1     -46.713  15.270  15.279  1.00  0.00     0.278 HD
ATOM     24  H53 UNL     1     -47.741  14.847  11.919  1.00  0.00     0.278 HD
ATOM     25  H52 UNL     1     -46.843  16.006  12.392  1.00  0.00     0.278 HD
ATOM     26  H51 UNL     1     -46.527  14.472  13.040  1.00  0.00     0.278 HD
ATOM     27  H3  UNL     1     -49.136  16.718  12.514  1.00  0.00     0.164 HD
ENDBRANCH  14  17
ENDBRANCH  10  11
ENDBRANCH   2  10
BRANCH   1  28
HETATM   28  C1  UNL     1     -54.998  17.114  17.431  1.00  0.00     0.283 C 
HETATM   29  N1  UNL     1     -54.997  18.229  18.292  1.00  0.00    -0.056 NA
HETATM   30  O1  UNL     1     -55.192  17.349  16.205  1.00  0.00    -0.269 OA
ENDBRANCH   1  28
BRANCH   6  31
HETATM   31  N6  UNL     1     -58.252  14.073  19.964  1.00  0.00    -0.333 N 
HETATM   32  C12 UNL     1     -59.336  13.488  20.633  1.00  0.00     0.340 C 
HETATM   33  O2  UNL     1     -59.556  12.268  20.494  1.00  0.00    -0.245 OA
HETATM   34  N7  UNL     1     -60.177  14.261  21.457  1.00  0.00    -0.191 N 
ATOM     35  H7  UNL     1     -59.994  15.259  21.565  1.00  0.00     0.198 HD
ATOM     36  H6  UNL     1     -58.089  15.071  20.093  1.00  0.00     0.164 HD
BRANCH  34  37
HETATM   37  N8  UNL     1     -61.252  13.688  22.127  1.00  0.00    -0.035 N 
HETATM   38  O3  UNL     1     -61.168  13.374  23.353  1.00  0.00    -0.516 OA
HETATM   39  O4  UNL     1     -62.445  13.434  21.498  1.00  0.00    -0.516 OA
ENDBRANCH  34  37
ENDBRANCH   6  31
TORSDOF 6
ENDMDL
