MODEL 1
REMARK VINA RESULT: -9.948701616      0.000      0.000
REMARK  15 active torsions:
REMARK  status: ('A' for Active; 'I' for Inactive)
REMARK    1  A    between atoms: C2_3  and  C3_4 
REMARK    2  A    between atoms: C3_4  and  N2_5 
REMARK    3  A    between atoms: C3_4  and  C14_41 
REMARK    4  A    between atoms: N2_5  and  C4_7 
REMARK    5  A    between atoms: C4_7  and  C5_8 
REMARK    6  A    between atoms: C5_8  and  N3_9 
REMARK    7  A    between atoms: C9_17  and  N6_18 
REMARK    8  A    between atoms: C10_23  and  N8_24 
REMARK    9  A    between atoms: C12_32  and  N11_33 
REMARK   10  A    between atoms: N12_37  and  O1_39 
REMARK       I    between atoms: C14_41  and  N13_43 
REMARK   11  A    between atoms: N13_43  and  C15_45 
REMARK   12  A    between atoms: C16_47  and  C17_48 
REMARK   13  A    between atoms: C17_48  and  O4_49 
REMARK   14  A    between atoms: C17_48  and  O5_51 
REMARK   15  A    between atoms: C20_56  and  O7_57 
ROOT
HETATM    1  N1  UNL     1      24.572  29.526  87.419  1.00  0.00    -0.197 NA
HETATM    2  C1  UNL     1      25.474  28.976  86.942  1.00  0.00     0.061 C 
HETATM    3  C2  UNL     1      26.611  28.268  86.331  1.00  0.00     0.158 C 
ENDROOT
BRANCH   3   4
HETATM    4  C3  UNL     1      26.706  28.543  84.854  1.00  0.00     0.188 C 
BRANCH   4   5
HETATM    5  N2  UNL     1      27.631  27.686  84.170  1.00  0.00    -0.363 N 
ATOM      6  H2  UNL     1      27.298  26.761  83.901  1.00  0.00     0.161 HD
BRANCH   5   7
HETATM    7  C4  UNL     1      28.969  28.015  83.835  1.00  0.00     0.116 C 
HETATM    8  N12 UNL     1      29.265  28.292  82.600  1.00  0.00    -0.256 N 
ATOM      9  H12 UNL     1      30.234  28.525  82.380  1.00  0.00     0.195 HD
BRANCH   7  10
HETATM   10  C5  UNL     1      30.064  28.063  84.818  1.00  0.00     0.208 C 
BRANCH  10  11
HETATM   11  N3  UNL     1      30.731  29.343  84.822  1.00  0.00    -0.331 N 
HETATM   12  C6  UNL     1      31.567  29.773  83.828  1.00  0.00     0.184 A 
HETATM   13  N4  UNL     1      32.035  30.993  84.113  1.00  0.00    -0.348 N 
HETATM   14  C7  UNL     1      31.505  31.361  85.295  1.00  0.00     0.095 A 
ATOM     15  H4  UNL     1      32.675  31.543  83.541  1.00  0.00     0.167 HD
HETATM   16  C8  UNL     1      31.645  32.516  86.058  1.00  0.00     0.122 A 
HETATM   17  C13 UNL     1      30.711  30.347  85.718  1.00  0.00     0.109 A 
HETATM   18  N5  UNL     1      32.481  33.369  85.429  1.00  0.00    -0.185 N 
HETATM   19  C11 UNL     1      30.964  32.606  87.245  1.00  0.00     0.152 A 
HETATM   20  C9  UNL     1      32.847  34.577  85.893  1.00  0.00     0.691 C 
ATOM     21  H5  UNL     1      32.866  33.075  84.531  1.00  0.00     0.184 HD
HETATM   22  N7  UNL     1      32.574  35.137  87.087  1.00  0.00    -0.023 N 
HETATM   23  C10 UNL     1      31.851  34.677  88.132  1.00  0.00     0.692 C 
ATOM     24  H7  UNL     1      32.980  36.062  87.225  1.00  0.00     0.203 HD
HETATM   25  N9  UNL     1      30.977  33.647  88.118  1.00  0.00    -0.174 N 
ATOM     26  H9  UNL     1      30.252  33.651  88.836  1.00  0.00     0.186 HD
HETATM   27  N10 UNL     1      30.184  31.591  87.646  1.00  0.00    -0.325 N 
HETATM   28  C12 UNL     1      30.030  30.462  86.927  1.00  0.00     0.130 A 
ATOM     29  H10 UNL     1      29.687  31.678  88.532  1.00  0.00     0.169 HD
BRANCH  20  30
HETATM   30  N6  UNL     1      33.558  35.339  85.128  1.00  0.00    -0.234 N 
ATOM     31  H62 UNL     1      34.538  35.057  85.083  1.00  0.00     0.174 HD
ATOM     32  H61 UNL     1      33.097  36.118  84.659  1.00  0.00     0.174 HD
ENDBRANCH  20  30
BRANCH  23  33
HETATM   33  N8  UNL     1      32.023  35.296  89.257  1.00  0.00    -0.234 N 
ATOM     34  H82 UNL     1      32.968  35.314  89.642  1.00  0.00     0.174 HD
ATOM     35  H81 UNL     1      31.191  35.718  89.667  1.00  0.00     0.174 HD
ENDBRANCH  23  33
BRANCH  28  36
HETATM   36  N11 UNL     1      29.293  29.490  87.290  1.00  0.00    -0.384 N 
ATOM     37 2H11 UNL     1      29.167  29.334  88.290  1.00  0.00     0.157 HD
ATOM     38 1H11 UNL     1      28.824  28.862  86.639  1.00  0.00     0.157 HD
ENDBRANCH  28  36
ENDBRANCH  10  11
ENDBRANCH   7  10
BRANCH   8  39
HETATM   39  O1  UNL     1      28.363  28.291  81.587  1.00  0.00    -0.288 OA
ATOM     40  H1  UNL     1      27.966  27.504  81.232  1.00  0.00     0.244 HD
ENDBRANCH   8  39
ENDBRANCH   5   7
ENDBRANCH   4   5
BRANCH   4  41
HETATM   41  C14 UNL     1      25.337  28.335  84.283  1.00  0.00     0.247 C 
HETATM   42  O2  UNL     1      24.967  27.210  83.936  1.00  0.00    -0.271 OA
HETATM   43  N13 UNL     1      24.426  29.437  84.128  1.00  0.00    -0.303 N 
ATOM     44  H13 UNL     1      24.689  30.384  84.400  1.00  0.00     0.171 HD
BRANCH  43  45
HETATM   45  C15 UNL     1      23.149  29.155  83.581  1.00  0.00     0.188 A 
HETATM   46  O3  UNL     1      23.018  28.690  82.346  1.00  0.00    -0.290 OA
HETATM   47  C16 UNL     1      21.892  28.411  81.783  1.00  0.00     0.113 A 
HETATM   48  C18 UNL     1      20.701  28.588  82.457  1.00  0.00     0.096 A 
HETATM   49  C19 UNL     1      20.746  29.064  83.736  1.00  0.00     0.211 A 
HETATM   50  O6  UNL     1      19.700  29.238  84.381  1.00  0.00    -0.285 OA
HETATM   51  C20 UNL     1      21.997  29.351  84.302  1.00  0.00     0.168 A 
BRANCH  47  52
HETATM   52  C17 UNL     1      21.814  27.892  80.394  1.00  0.00     0.312 C 
BRANCH  52  53
HETATM   53  O4  UNL     1      20.611  28.248  79.790  1.00  0.00    -0.365 OA
ATOM     54  H4  UNL     1      20.742  28.925  79.137  1.00  0.00     0.213 HD
ENDBRANCH  52  53
BRANCH  52  55
HETATM   55  O5  UNL     1      22.911  28.443  79.704  1.00  0.00    -0.365 OA
ATOM     56  H5  UNL     1      22.611  29.269  79.343  1.00  0.00     0.213 HD
ENDBRANCH  52  55
ENDBRANCH  47  52
BRANCH  51  57
HETATM   57  O7  UNL     1      22.014  29.834  85.603  1.00  0.00    -0.354 OA
ATOM     58  H7  UNL     1      22.766  30.293  85.961  1.00  0.00     0.218 HD
ENDBRANCH  51  57
ENDBRANCH  43  45
ENDBRANCH   4  41
ENDBRANCH   3   4
TORSDOF 15
ENDMDL
MODEL 2
REMARK VINA RESULT: -9.873193531      4.242     10.470
REMARK  15 active torsions:
REMARK  status: ('A' for Active; 'I' for Inactive)
REMARK    1  A    between atoms: C2_3  and  C3_4 
REMARK    2  A    between atoms: C3_4  and  N2_5 
REMARK    3  A    between atoms: C3_4  and  C14_41 
REMARK    4  A    between atoms: N2_5  and  C4_7 
REMARK    5  A    between atoms: C4_7  and  C5_8 
REMARK    6  A    between atoms: C5_8  and  N3_9 
REMARK    7  A    between atoms: C9_17  and  N6_18 
REMARK    8  A    between atoms: C10_23  and  N8_24 
REMARK    9  A    between atoms: C12_32  and  N11_33 
REMARK   10  A    between atoms: N12_37  and  O1_39 
REMARK       I    between atoms: C14_41  and  N13_43 
REMARK   11  A    between atoms: N13_43  and  C15_45 
REMARK   12  A    between atoms: C16_47  and  C17_48 
REMARK   13  A    between atoms: C17_48  and  O4_49 
REMARK   14  A    between atoms: C17_48  and  O5_51 
REMARK   15  A    between atoms: C20_56  and  O7_57 
ROOT
HETATM    1  N1  UNL     1      32.504  29.112  86.277  1.00  0.00    -0.197 NA
HETATM    2  C1  UNL     1      31.451  28.754  86.601  1.00  0.00     0.061 C 
HETATM    3  C2  UNL     1      30.112  28.309  87.022  1.00  0.00     0.158 C 
ENDROOT
BRANCH   3   4
HETATM    4  C3  UNL     1      29.029  29.162  86.417  1.00  0.00     0.188 C 
BRANCH   4   5
HETATM    5  N2  UNL     1      27.722  28.883  86.938  1.00  0.00    -0.363 N 
ATOM      6  H2  UNL     1      27.642  28.746  87.945  1.00  0.00     0.161 HD
BRANCH   5   7
HETATM    7  C4  UNL     1      26.532  28.782  86.174  1.00  0.00     0.116 C 
HETATM    8  N12 UNL     1      25.393  29.062  86.731  1.00  0.00    -0.256 N 
ATOM      9  H12 UNL     1      24.548  28.982  86.164  1.00  0.00     0.195 HD
BRANCH   7  10
HETATM   10  C5  UNL     1      26.508  28.371  84.759  1.00  0.00     0.208 C 
BRANCH  10  11
HETATM   11  N3  UNL     1      25.164  28.305  84.239  1.00  0.00    -0.331 N 
HETATM   12  C6  UNL     1      24.047  28.174  85.017  1.00  0.00     0.184 A 
HETATM   13  N4  UNL     1      22.952  28.137  84.252  1.00  0.00    -0.348 N 
HETATM   14  C7  UNL     1      23.352  28.244  82.971  1.00  0.00     0.095 A 
ATOM     15  H4  UNL     1      21.989  28.045  84.578  1.00  0.00     0.167 HD
HETATM   16  C8  UNL     1      22.644  28.263  81.773  1.00  0.00     0.122 A 
HETATM   17  C13 UNL     1      24.704  28.346  82.974  1.00  0.00     0.109 A 
HETATM   18  N5  UNL     1      21.324  28.147  82.032  1.00  0.00    -0.185 N 
HETATM   19  C11 UNL     1      23.342  28.387  80.599  1.00  0.00     0.152 A 
HETATM   20  C9  UNL     1      20.353  28.118  81.102  1.00  0.00     0.691 C 
ATOM     21  H5  UNL     1      21.040  28.075  83.009  1.00  0.00     0.184 HD
HETATM   22  N7  UNL     1      20.474  28.081  79.761  1.00  0.00    -0.023 N 
HETATM   23  C10 UNL     1      21.573  28.086  78.974  1.00  0.00     0.692 C 
ATOM     24  H7  UNL     1      19.589  28.042  79.256  1.00  0.00     0.203 HD
HETATM   25  N9  UNL     1      22.828  28.425  79.342  1.00  0.00    -0.174 N 
ATOM     26  H9  UNL     1      23.454  28.741  78.601  1.00  0.00     0.186 HD
HETATM   27  N10 UNL     1      24.679  28.487  80.625  1.00  0.00    -0.325 N 
HETATM   28  C12 UNL     1      25.390  28.471  81.770  1.00  0.00     0.130 A 
ATOM     29  H10 UNL     1      25.179  28.578  79.740  1.00  0.00     0.169 HD
BRANCH  20  30
HETATM   30  N6  UNL     1      19.123  28.126  81.498  1.00  0.00    -0.234 N 
ATOM     31  H62 UNL     1      18.511  28.672  80.891  1.00  0.00     0.174 HD
ATOM     32  H61 UNL     1      18.885  27.609  82.344  1.00  0.00     0.174 HD
ENDBRANCH  20  30
BRANCH  23  33
HETATM   33  N8  UNL     1      21.390  27.728  77.743  1.00  0.00    -0.234 N 
ATOM     34  H82 UNL     1      20.442  27.795  77.370  1.00  0.00     0.174 HD
ATOM     35  H81 UNL     1      22.219  27.406  77.243  1.00  0.00     0.174 HD
ENDBRANCH  23  33
BRANCH  28  36
HETATM   36  N11 UNL     1      26.658  28.566  81.813  1.00  0.00    -0.384 N 
ATOM     37 2H11 UNL     1      27.182  28.357  80.964  1.00  0.00     0.157 HD
ATOM     38 1H11 UNL     1      27.176  28.838  82.648  1.00  0.00     0.157 HD
ENDBRANCH  28  36
ENDBRANCH  10  11
ENDBRANCH   7  10
BRANCH   8  39
HETATM   39  O1  UNL     1      25.259  29.456  88.023  1.00  0.00    -0.288 OA
ATOM     40  H1  UNL     1      24.798  28.953  88.685  1.00  0.00     0.244 HD
ENDBRANCH   8  39
ENDBRANCH   5   7
ENDBRANCH   4   5
BRANCH   4  41
HETATM   41  C14 UNL     1      29.378  30.587  86.716  1.00  0.00     0.247 C 
HETATM   42  O2  UNL     1      29.355  31.439  85.823  1.00  0.00    -0.271 OA
HETATM   43  N13 UNL     1      29.745  30.994  88.046  1.00  0.00    -0.303 N 
ATOM     44  H13 UNL     1      29.778  30.325  88.815  1.00  0.00     0.171 HD
BRANCH  43  45
HETATM   45  C15 UNL     1      30.059  32.362  88.245  1.00  0.00     0.188 A 
HETATM   46  O3  UNL     1      29.272  33.150  88.965  1.00  0.00    -0.290 OA
HETATM   47  C16 UNL     1      29.492  34.401  89.189  1.00  0.00     0.113 A 
HETATM   48  C18 UNL     1      30.608  35.026  88.672  1.00  0.00     0.096 A 
HETATM   49  C19 UNL     1      31.474  34.285  87.917  1.00  0.00     0.211 A 
HETATM   50  O6  UNL     1      32.491  34.805  87.433  1.00  0.00    -0.285 OA
HETATM   51  C20 UNL     1      31.187  32.929  87.704  1.00  0.00     0.168 A 
BRANCH  47  52
HETATM   52  C17 UNL     1      28.569  35.229  90.005  1.00  0.00     0.312 C 
BRANCH  52  53
HETATM   53  O4  UNL     1      29.034  36.536  90.120  1.00  0.00    -0.365 OA
ATOM     54  H4  UNL     1      29.200  36.918  89.266  1.00  0.00     0.213 HD
ENDBRANCH  52  53
BRANCH  52  55
HETATM   55  O5  UNL     1      27.322  35.190  89.352  1.00  0.00    -0.365 OA
ATOM     56  H5  UNL     1      26.865  35.984  89.602  1.00  0.00     0.213 HD
ENDBRANCH  52  55
ENDBRANCH  47  52
BRANCH  51  57
HETATM   57  O7  UNL     1      32.082  32.199  86.934  1.00  0.00    -0.354 OA
ATOM     58  H7  UNL     1      32.137  32.303  85.991  1.00  0.00     0.218 HD
ENDBRANCH  51  57
ENDBRANCH  43  45
ENDBRANCH   4  41
ENDBRANCH   3   4
TORSDOF 15
ENDMDL
MODEL 3
REMARK VINA RESULT: -9.844199244      0.845      2.101
REMARK  15 active torsions:
REMARK  status: ('A' for Active; 'I' for Inactive)
REMARK    1  A    between atoms: C2_3  and  C3_4 
REMARK    2  A    between atoms: C3_4  and  N2_5 
REMARK    3  A    between atoms: C3_4  and  C14_41 
REMARK    4  A    between atoms: N2_5  and  C4_7 
REMARK    5  A    between atoms: C4_7  and  C5_8 
REMARK    6  A    between atoms: C5_8  and  N3_9 
REMARK    7  A    between atoms: C9_17  and  N6_18 
REMARK    8  A    between atoms: C10_23  and  N8_24 
REMARK    9  A    between atoms: C12_32  and  N11_33 
REMARK   10  A    between atoms: N12_37  and  O1_39 
REMARK       I    between atoms: C14_41  and  N13_43 
REMARK   11  A    between atoms: N13_43  and  C15_45 
REMARK   12  A    between atoms: C16_47  and  C17_48 
REMARK   13  A    between atoms: C17_48  and  O4_49 
REMARK   14  A    between atoms: C17_48  and  O5_51 
REMARK   15  A    between atoms: C20_56  and  O7_57 
ROOT
HETATM    1  N1  UNL     1      25.286  29.457  87.786  1.00  0.00    -0.197 NA
HETATM    2  C1  UNL     1      25.912  28.792  87.074  1.00  0.00     0.061 C 
HETATM    3  C2  UNL     1      26.697  27.941  86.164  1.00  0.00     0.158 C 
ENDROOT
BRANCH   3   4
HETATM    4  C3  UNL     1      26.670  28.466  84.753  1.00  0.00     0.188 C 
BRANCH   4   5
HETATM    5  N2  UNL     1      27.585  27.796  83.875  1.00  0.00    -0.363 N 
ATOM      6  H2  UNL     1      27.381  26.824  83.644  1.00  0.00     0.161 HD
BRANCH   5   7
HETATM    7  C4  UNL     1      28.748  28.368  83.300  1.00  0.00     0.116 C 
HETATM    8  N12 UNL     1      28.652  29.010  82.175  1.00  0.00    -0.256 N 
ATOM      9  H12 UNL     1      29.500  29.413  81.778  1.00  0.00     0.195 HD
BRANCH   7  10
HETATM   10  C5  UNL     1      30.085  28.277  83.912  1.00  0.00     0.208 C 
BRANCH  10  11
HETATM   11  N3  UNL     1      30.364  29.402  84.771  1.00  0.00    -0.331 N 
HETATM   12  C6  UNL     1      29.841  29.556  86.025  1.00  0.00     0.184 A 
HETATM   13  N4  UNL     1      30.278  30.695  86.572  1.00  0.00    -0.348 N 
HETATM   14  C7  UNL     1      31.088  31.287  85.674  1.00  0.00     0.095 A 
ATOM     15  H4  UNL     1      30.042  31.051  87.499  1.00  0.00     0.167 HD
HETATM   16  C8  UNL     1      31.808  32.477  85.714  1.00  0.00     0.122 A 
HETATM   17  C13 UNL     1      31.134  30.490  84.579  1.00  0.00     0.109 A 
HETATM   18  N5  UNL     1      31.601  33.087  86.900  1.00  0.00    -0.185 N 
HETATM   19  C11 UNL     1      32.563  32.825  84.622  1.00  0.00     0.152 A 
HETATM   20  C9  UNL     1      32.136  34.265  87.268  1.00  0.00     0.691 C 
ATOM     21  H5  UNL     1      30.990  32.619  87.570  1.00  0.00     0.184 HD
HETATM   22  N7  UNL     1      32.868  35.122  86.533  1.00  0.00    -0.023 N 
HETATM   23  C10 UNL     1      33.294  35.045  85.252  1.00  0.00     0.692 C 
ATOM     24  H7  UNL     1      33.149  35.970  87.025  1.00  0.00     0.203 HD
HETATM   25  N9  UNL     1      33.327  33.939  84.478  1.00  0.00    -0.174 N 
ATOM     26  H9  UNL     1      33.994  33.940  83.705  1.00  0.00     0.186 HD
HETATM   27  N10 UNL     1      32.594  32.022  83.549  1.00  0.00    -0.325 N 
HETATM   28  C12 UNL     1      31.907  30.864  83.483  1.00  0.00     0.130 A 
ATOM     29  H10 UNL     1      33.162  32.299  82.748  1.00  0.00     0.169 HD
BRANCH  20  30
HETATM   30  N6  UNL     1      31.948  34.671  88.481  1.00  0.00    -0.234 N 
ATOM     31  H62 UNL     1      31.123  34.259  88.917  1.00  0.00     0.174 HD
ATOM     32  H61 UNL     1      32.611  35.338  88.876  1.00  0.00     0.174 HD
ENDBRANCH  20  30
BRANCH  23  33
HETATM   33  N8  UNL     1      33.710  36.153  84.726  1.00  0.00    -0.234 N 
ATOM     34  H82 UNL     1      33.134  36.570  83.993  1.00  0.00     0.174 HD
ATOM     35  H81 UNL     1      34.587  36.521  85.092  1.00  0.00     0.174 HD
ENDBRANCH  23  33
BRANCH  28  36
HETATM   36  N11 UNL     1      31.926  30.089  82.475  1.00  0.00    -0.384 N 
ATOM     37 2H11 UNL     1      32.828  29.886  82.045  1.00  0.00     0.157 HD
ATOM     38 1H11 UNL     1      31.091  29.663  82.075  1.00  0.00     0.157 HD
ENDBRANCH  28  36
ENDBRANCH  10  11
ENDBRANCH   7  10
BRANCH   8  39
HETATM   39  O1  UNL     1      27.488  29.178  81.497  1.00  0.00    -0.288 OA
ATOM     40  H1  UNL     1      26.857  28.484  81.347  1.00  0.00     0.244 HD
ENDBRANCH   8  39
ENDBRANCH   5   7
ENDBRANCH   4   5
BRANCH   4  41
HETATM   41  C14 UNL     1      25.276  28.275  84.242  1.00  0.00     0.247 C 
HETATM   42  O2  UNL     1      24.850  27.144  83.990  1.00  0.00    -0.271 OA
HETATM   43  N13 UNL     1      24.404  29.400  84.034  1.00  0.00    -0.303 N 
ATOM     44  H13 UNL     1      24.713  30.353  84.228  1.00  0.00     0.171 HD
BRANCH  43  45
HETATM   45  C15 UNL     1      23.099  29.133  83.550  1.00  0.00     0.188 A 
HETATM   46  O3  UNL     1      22.904  28.663  82.325  1.00  0.00    -0.290 OA
HETATM   47  C16 UNL     1      21.750  28.397  81.817  1.00  0.00     0.113 A 
HETATM   48  C18 UNL     1      20.594  28.593  82.545  1.00  0.00     0.096 A 
HETATM   49  C19 UNL     1      20.705  29.075  83.818  1.00  0.00     0.211 A 
HETATM   50  O6  UNL     1      19.694  29.265  84.511  1.00  0.00    -0.285 OA
HETATM   51  C20 UNL     1      21.985  29.347  84.323  1.00  0.00     0.168 A 
BRANCH  47  52
HETATM   52  C17 UNL     1      21.599  27.872  80.436  1.00  0.00     0.312 C 
BRANCH  52  53
HETATM   53  O4  UNL     1      20.426  28.335  79.846  1.00  0.00    -0.365 OA
ATOM     54  H4  UNL     1      19.675  28.174  80.405  1.00  0.00     0.213 HD
ENDBRANCH  52  53
BRANCH  52  55
HETATM   55  O5  UNL     1      22.732  28.308  79.722  1.00  0.00    -0.365 OA
ATOM     56  H5  UNL     1      22.446  29.041  79.191  1.00  0.00     0.213 HD
ENDBRANCH  52  55
ENDBRANCH  47  52
BRANCH  51  57
HETATM   57  O7  UNL     1      22.070  29.837  85.619  1.00  0.00    -0.354 OA
ATOM     58  H7  UNL     1      21.640  30.642  85.884  1.00  0.00     0.218 HD
ENDBRANCH  51  57
ENDBRANCH  43  45
ENDBRANCH   4  41
ENDBRANCH   3   4
TORSDOF 15
ENDMDL
MODEL 4
REMARK VINA RESULT: -9.748782138      2.247      3.945
REMARK  15 active torsions:
REMARK  status: ('A' for Active; 'I' for Inactive)
REMARK    1  A    between atoms: C2_3  and  C3_4 
REMARK    2  A    between atoms: C3_4  and  N2_5 
REMARK    3  A    between atoms: C3_4  and  C14_41 
REMARK    4  A    between atoms: N2_5  and  C4_7 
REMARK    5  A    between atoms: C4_7  and  C5_8 
REMARK    6  A    between atoms: C5_8  and  N3_9 
REMARK    7  A    between atoms: C9_17  and  N6_18 
REMARK    8  A    between atoms: C10_23  and  N8_24 
REMARK    9  A    between atoms: C12_32  and  N11_33 
REMARK   10  A    between atoms: N12_37  and  O1_39 
REMARK       I    between atoms: C14_41  and  N13_43 
REMARK   11  A    between atoms: N13_43  and  C15_45 
REMARK   12  A    between atoms: C16_47  and  C17_48 
REMARK   13  A    between atoms: C17_48  and  O4_49 
REMARK   14  A    between atoms: C17_48  and  O5_51 
REMARK   15  A    between atoms: C20_56  and  O7_57 
ROOT
HETATM    1  N1  UNL     1      31.186  25.838  84.586  1.00  0.00    -0.197 NA
HETATM    2  C1  UNL     1      30.598  26.816  84.792  1.00  0.00     0.061 C 
HETATM    3  C2  UNL     1      29.841  28.052  85.047  1.00  0.00     0.158 C 
ENDROOT
BRANCH   3   4
HETATM    4  C3  UNL     1      28.900  27.895  86.212  1.00  0.00     0.188 C 
BRANCH   4   5
HETATM    5  N2  UNL     1      29.335  28.579  87.396  1.00  0.00    -0.363 N 
ATOM      6  H2  UNL     1      28.854  28.355  88.266  1.00  0.00     0.161 HD
BRANCH   5   7
HETATM    7  C4  UNL     1      30.376  29.539  87.460  1.00  0.00     0.116 C 
HETATM    8  N12 UNL     1      31.592  29.144  87.695  1.00  0.00    -0.256 N 
ATOM      9  H12 UNL     1      32.326  29.851  87.738  1.00  0.00     0.195 HD
BRANCH   7  10
HETATM   10  C5  UNL     1      30.161  30.984  87.274  1.00  0.00     0.208 C 
BRANCH  10  11
HETATM   11  N3  UNL     1      30.887  31.496  86.136  1.00  0.00    -0.331 N 
HETATM   12  C6  UNL     1      30.944  30.872  84.921  1.00  0.00     0.184 A 
HETATM   13  N4  UNL     1      31.692  31.583  84.071  1.00  0.00    -0.348 N 
HETATM   14  C7  UNL     1      32.124  32.674  84.731  1.00  0.00     0.095 A 
ATOM     15  H4  UNL     1      31.897  31.344  83.100  1.00  0.00     0.167 HD
HETATM   16  C8  UNL     1      32.925  33.743  84.339  1.00  0.00     0.122 A 
HETATM   17  C13 UNL     1      31.627  32.611  85.991  1.00  0.00     0.109 A 
HETATM   18  N5  UNL     1      33.293  33.577  83.050  1.00  0.00    -0.185 N 
HETATM   19  C11 UNL     1      33.200  34.728  85.253  1.00  0.00     0.152 A 
HETATM   20  C9  UNL     1      34.079  34.419  82.356  1.00  0.00     0.691 C 
ATOM     21  H5  UNL     1      32.949  32.748  82.566  1.00  0.00     0.184 HD
HETATM   22  N7  UNL     1      34.743  35.504  82.796  1.00  0.00    -0.023 N 
HETATM   23  C10 UNL     1      34.797  36.069  84.024  1.00  0.00     0.692 C 
ATOM     24  H7  UNL     1      35.299  35.979  82.085  1.00  0.00     0.203 HD
HETATM   25  N9  UNL     1      33.956  35.839  85.055  1.00  0.00    -0.174 N 
ATOM     26  H9  UNL     1      33.879  36.576  85.757  1.00  0.00     0.186 HD
HETATM   27  N10 UNL     1      32.697  34.646  86.494  1.00  0.00    -0.325 N 
HETATM   28  C12 UNL     1      31.919  33.624  86.900  1.00  0.00     0.130 A 
ATOM     29  H10 UNL     1      32.914  35.390  87.158  1.00  0.00     0.169 HD
BRANCH  20  30
HETATM   30  N6  UNL     1      34.250  34.199  81.094  1.00  0.00    -0.234 N 
ATOM     31  H62 UNL     1      35.166  34.495  80.758  1.00  0.00     0.174 HD
ATOM     32  H61 UNL     1      33.488  33.767  80.571  1.00  0.00     0.174 HD
ENDBRANCH  20  30
BRANCH  23  33
HETATM   33  N8  UNL     1      35.760  36.913  84.217  1.00  0.00    -0.234 N 
ATOM     34  H82 UNL     1      36.318  37.182  83.407  1.00  0.00     0.174 HD
ATOM     35  H81 UNL     1      35.880  37.242  85.175  1.00  0.00     0.174 HD
ENDBRANCH  23  33
BRANCH  28  36
HETATM   36  N11 UNL     1      31.433  33.531  88.072  1.00  0.00    -0.384 N 
ATOM     37 2H11 UNL     1      30.857  34.300  88.413  1.00  0.00     0.157 HD
ATOM     38 1H11 UNL     1      31.588  32.732  88.686  1.00  0.00     0.157 HD
ENDBRANCH  28  36
ENDBRANCH  10  11
ENDBRANCH   7  10
BRANCH   8  39
HETATM   39  O1  UNL     1      31.942  27.847  87.884  1.00  0.00    -0.288 OA
ATOM     40  H1  UNL     1      32.619  27.403  87.387  1.00  0.00     0.244 HD
ENDBRANCH   8  39
ENDBRANCH   5   7
ENDBRANCH   4   5
BRANCH   4  41
HETATM   41  C14 UNL     1      27.579  28.455  85.784  1.00  0.00     0.247 C 
HETATM   42  O2  UNL     1      27.487  29.626  85.405  1.00  0.00    -0.271 OA
HETATM   43  N13 UNL     1      26.392  27.643  85.805  1.00  0.00    -0.303 N 
ATOM     44  H13 UNL     1      26.419  26.671  86.111  1.00  0.00     0.171 HD
BRANCH  43  45
HETATM   45  C15 UNL     1      25.181  28.249  85.383  1.00  0.00     0.188 A 
HETATM   46  O3  UNL     1      24.675  28.008  84.181  1.00  0.00    -0.290 OA
HETATM   47  C16 UNL     1      23.582  28.521  83.729  1.00  0.00     0.113 A 
HETATM   48  C18 UNL     1      22.837  29.391  84.499  1.00  0.00     0.096 A 
HETATM   49  C19 UNL     1      23.288  29.693  85.753  1.00  0.00     0.211 A 
HETATM   50  O6  UNL     1      22.651  30.469  86.482  1.00  0.00    -0.285 OA
HETATM   51  C20 UNL     1      24.483  29.108  86.196  1.00  0.00     0.168 A 
BRANCH  47  52
HETATM   52  C17 UNL     1      23.069  28.210  82.371  1.00  0.00     0.312 C 
BRANCH  52  53
HETATM   53  O4  UNL     1      21.900  28.917  82.100  1.00  0.00    -0.365 OA
ATOM     54  H4  UNL     1      21.768  29.016  81.164  1.00  0.00     0.213 HD
ENDBRANCH  52  53
BRANCH  52  55
HETATM   55  O5  UNL     1      24.094  28.561  81.471  1.00  0.00    -0.365 OA
ATOM     56  H5  UNL     1      24.691  27.822  81.447  1.00  0.00     0.213 HD
ENDBRANCH  52  55
ENDBRANCH  47  52
BRANCH  51  57
HETATM   57  O7  UNL     1      24.919  29.432  87.473  1.00  0.00    -0.354 OA
ATOM     58  H7  UNL     1      24.555  29.022  88.250  1.00  0.00     0.218 HD
ENDBRANCH  51  57
ENDBRANCH  43  45
ENDBRANCH   4  41
ENDBRANCH   3   4
TORSDOF 15
ENDMDL
MODEL 5
REMARK VINA RESULT: -9.656934315      1.881      3.596
REMARK  15 active torsions:
REMARK  status: ('A' for Active; 'I' for Inactive)
REMARK    1  A    between atoms: C2_3  and  C3_4 
REMARK    2  A    between atoms: C3_4  and  N2_5 
REMARK    3  A    between atoms: C3_4  and  C14_41 
REMARK    4  A    between atoms: N2_5  and  C4_7 
REMARK    5  A    between atoms: C4_7  and  C5_8 
REMARK    6  A    between atoms: C5_8  and  N3_9 
REMARK    7  A    between atoms: C9_17  and  N6_18 
REMARK    8  A    between atoms: C10_23  and  N8_24 
REMARK    9  A    between atoms: C12_32  and  N11_33 
REMARK   10  A    between atoms: N12_37  and  O1_39 
REMARK       I    between atoms: C14_41  and  N13_43 
REMARK   11  A    between atoms: N13_43  and  C15_45 
REMARK   12  A    between atoms: C16_47  and  C17_48 
REMARK   13  A    between atoms: C17_48  and  O4_49 
REMARK   14  A    between atoms: C17_48  and  O5_51 
REMARK   15  A    between atoms: C20_56  and  O7_57 
ROOT
HETATM    1  N1  UNL     1      30.982  29.668  80.552  1.00  0.00    -0.197 NA
HETATM    2  C1  UNL     1      29.927  29.227  80.739  1.00  0.00     0.061 C 
HETATM    3  C2  UNL     1      28.591  28.654  80.971  1.00  0.00     0.158 C 
ENDROOT
BRANCH   3   4
HETATM    4  C3  UNL     1      28.570  27.772  82.191  1.00  0.00     0.188 C 
BRANCH   4   5
HETATM    5  N2  UNL     1      29.838  27.687  82.858  1.00  0.00    -0.363 N 
ATOM      6  H2  UNL     1      30.620  28.188  82.437  1.00  0.00     0.161 HD
BRANCH   5   7
HETATM    7  C4  UNL     1      30.097  26.968  84.052  1.00  0.00     0.116 C 
HETATM    8  N12 UNL     1      30.079  25.669  84.028  1.00  0.00    -0.256 N 
ATOM      9  H12 UNL     1      30.266  25.171  84.898  1.00  0.00     0.195 HD
BRANCH   7  10
HETATM   10  C5  UNL     1      30.391  27.615  85.342  1.00  0.00     0.208 C 
BRANCH  10  11
HETATM   11  N3  UNL     1      30.971  28.925  85.170  1.00  0.00    -0.331 N 
HETATM   12  C6  UNL     1      31.698  29.303  84.075  1.00  0.00     0.184 A 
HETATM   13  N4  UNL     1      32.105  30.570  84.204  1.00  0.00    -0.348 N 
HETATM   14  C7  UNL     1      31.643  31.022  85.385  1.00  0.00     0.095 A 
ATOM     15  H4  UNL     1      32.662  31.097  83.531  1.00  0.00     0.167 HD
HETATM   16  C8  UNL     1      31.765  32.253  86.022  1.00  0.00     0.122 A 
HETATM   17  C13 UNL     1      30.952  30.010  85.966  1.00  0.00     0.109 A 
HETATM   18  N5  UNL     1      32.493  33.087  85.249  1.00  0.00    -0.185 N 
HETATM   19  C11 UNL     1      31.172  32.420  87.248  1.00  0.00     0.152 A 
HETATM   20  C9  UNL     1      32.812  34.354  85.566  1.00  0.00     0.691 C 
ATOM     21  H5  UNL     1      32.826  32.728  84.354  1.00  0.00     0.184 HD
HETATM   22  N7  UNL     1      32.594  35.012  86.720  1.00  0.00    -0.023 N 
HETATM   23  C10 UNL     1      31.985  34.617  87.860  1.00  0.00     0.692 C 
ATOM     24  H7  UNL     1      32.948  35.969  86.736  1.00  0.00     0.203 HD
HETATM   25  N9  UNL     1      31.182  33.542  88.015  1.00  0.00    -0.174 N 
ATOM     26  H9  UNL     1      30.516  33.574  88.787  1.00  0.00     0.186 HD
HETATM   27  N10 UNL     1      30.493  31.407  87.805  1.00  0.00    -0.325 N 
HETATM   28  C12 UNL     1      30.360  30.204  87.211  1.00  0.00     0.130 A 
ATOM     29  H10 UNL     1      30.061  31.552  88.717  1.00  0.00     0.169 HD
BRANCH  20  30
HETATM   30  N6  UNL     1      33.411  35.077  84.677  1.00  0.00    -0.234 N 
ATOM     31  H62 UNL     1      33.083  34.895  83.728  1.00  0.00     0.174 HD
ATOM     32  H61 UNL     1      34.125  35.735  84.989  1.00  0.00     0.174 HD
ENDBRANCH  20  30
BRANCH  23  33
HETATM   33  N8  UNL     1      32.202  35.353  88.903  1.00  0.00    -0.234 N 
ATOM     34  H82 UNL     1      32.287  36.360  88.758  1.00  0.00     0.174 HD
ATOM     35  H81 UNL     1      32.270  34.859  89.793  1.00  0.00     0.174 HD
ENDBRANCH  23  33
BRANCH  28  36
HETATM   36  N11 UNL     1      29.719  29.233  87.724  1.00  0.00    -0.384 N 
ATOM     37 2H11 UNL     1      30.114  28.781  88.548  1.00  0.00     0.157 HD
ATOM     38 1H11 UNL     1      28.835  28.882  87.356  1.00  0.00     0.157 HD
ENDBRANCH  28  36
ENDBRANCH  10  11
ENDBRANCH   7  10
BRANCH   8  39
HETATM   39  O1  UNL     1      29.826  24.936  82.915  1.00  0.00    -0.288 OA
ATOM     40  H1  UNL     1      30.403  24.901  82.161  1.00  0.00     0.244 HD
ENDBRANCH   8  39
ENDBRANCH   5   7
ENDBRANCH   4   5
BRANCH   4  41
HETATM   41  C14 UNL     1      27.562  28.353  83.133  1.00  0.00     0.247 C 
HETATM   42  O2  UNL     1      27.487  29.574  83.297  1.00  0.00    -0.271 OA
HETATM   43  N13 UNL     1      26.661  27.504  83.866  1.00  0.00    -0.303 N 
ATOM     44  H13 UNL     1      26.687  26.490  83.764  1.00  0.00     0.171 HD
BRANCH  43  45
HETATM   45  C15 UNL     1      25.736  28.133  84.737  1.00  0.00     0.188 A 
HETATM   46  O3  UNL     1      24.512  28.443  84.331  1.00  0.00    -0.290 OA
HETATM   47  C16 UNL     1      23.619  29.014  85.064  1.00  0.00     0.113 A 
HETATM   48  C18 UNL     1      23.891  29.356  86.373  1.00  0.00     0.096 A 
HETATM   49  C19 UNL     1      25.131  29.073  86.872  1.00  0.00     0.211 A 
HETATM   50  O6  UNL     1      25.420  29.361  88.043  1.00  0.00    -0.285 OA
HETATM   51  C20 UNL     1      26.065  28.450  86.032  1.00  0.00     0.168 A 
BRANCH  47  52
HETATM   52  C17 UNL     1      22.264  29.335  84.548  1.00  0.00     0.312 C 
BRANCH  52  53
HETATM   53  O4  UNL     1      21.559  28.177  84.232  1.00  0.00    -0.365 OA
ATOM     54  H4  UNL     1      20.636  28.362  84.100  1.00  0.00     0.213 HD
ENDBRANCH  52  53
BRANCH  52  55
HETATM   55  O5  UNL     1      21.616  30.062  85.565  1.00  0.00    -0.365 OA
ATOM     56  H5  UNL     1      20.715  30.170  85.283  1.00  0.00     0.213 HD
ENDBRANCH  52  55
ENDBRANCH  47  52
BRANCH  51  57
HETATM   57  O7  UNL     1      27.317  28.173  86.563  1.00  0.00    -0.354 OA
ATOM     58  H7  UNL     1      27.528  28.341  87.475  1.00  0.00     0.218 HD
ENDBRANCH  51  57
ENDBRANCH  43  45
ENDBRANCH   4  41
ENDBRANCH   3   4
TORSDOF 15
ENDMDL
