MODEL 1
REMARK VINA RESULT: -9.090014525      0.000      0.000
REMARK  6 active torsions:
REMARK  status: ('A' for Active; 'I' for Inactive)
REMARK    1  A    between atoms: C6_11  and  N4_12 
REMARK    2  A    between atoms: N4_12  and  C7_14 
REMARK    3  A    between atoms: C10_17  and  S1_18 
REMARK    4  A    between atoms: S1_18  and  N5_21 
REMARK    5  A    between atoms: N5_21  and  C11_23 
REMARK    6  A    between atoms: C11_23  and  C12_24 
ROOT
HETATM    1  N4  UNL     1       9.658  13.866  19.499  1.00  0.00    -0.342 N 
ATOM      2  H4  UNL     1       8.848  13.971  18.889  1.00  0.00     0.167 HD
ENDROOT
BRANCH   1   3
HETATM    3  C6  UNL     1      10.426  12.862  19.317  1.00  0.00     0.121 A 
HETATM    4  N3  UNL     1      11.758  13.117  19.127  1.00  0.00    -0.338 N 
HETATM    5  C5  UNL     1      12.609  12.103  18.933  1.00  0.00     0.182 A 
ATOM      6  H3  UNL     1      12.101  14.078  19.133  1.00  0.00     0.168 HD
HETATM    7  N2  UNL     1      12.171  10.836  18.922  1.00  0.00    -0.352 N 
HETATM    8  C4  UNL     1      10.864  10.544  19.106  1.00  0.00     0.047 A 
ATOM      9  H2  UNL     1      12.837  10.078  18.772  1.00  0.00     0.166 HD
HETATM   10  C3  UNL     1      10.554   9.275  19.076  1.00  0.00     0.023 A 
HETATM   11  C20 UNL     1       9.945  11.582  19.313  1.00  0.00     0.062 A 
HETATM   12  C2  UNL     1       9.187   8.821  19.259  1.00  0.00     0.152 A 
HETATM   13  N1  UNL     1       8.286   9.914  19.465  1.00  0.00    -0.380 N 
HETATM   14  C1  UNL     1       6.860   9.659  19.669  1.00  0.00     0.150 C 
HETATM   15  C21 UNL     1       8.669  11.311  19.493  1.00  0.00     0.057 A 
HETATM   16  C22 UNL     1       7.647  12.313  19.713  1.00  0.00    -0.009 A 
HETATM   17  C23 UNL     1       6.917  12.899  18.699  1.00  0.00     0.014 A 
HETATM   18  C27 UNL     1       7.321  12.678  21.003  1.00  0.00     0.014 A 
HETATM   19  C24 UNL     1       5.908  13.807  18.951  1.00  0.00     0.001 A 
HETATM   20  C25 UNL     1       5.606  14.152  20.252  1.00  0.00     0.000 A 
HETATM   21  C26 UNL     1       6.317  13.582  21.273  1.00  0.00     0.001 A 
ENDBRANCH   1   3
BRANCH   1  22
HETATM   22  C7  UNL     1       9.872  14.844  20.505  1.00  0.00     0.033 A 
HETATM   23  C8  UNL     1      10.913  14.757  21.379  1.00  0.00     0.031 A 
HETATM   24  C9  UNL     1      11.094  15.720  22.343  1.00  0.00     0.027 A 
HETATM   25  C10 UNL     1      10.261  16.808  22.488  1.00  0.00     0.079 A 
HETATM   26  C18 UNL     1       9.204  16.902  21.605  1.00  0.00     0.027 A 
HETATM   27  C19 UNL     1       9.011  15.935  20.627  1.00  0.00     0.031 A 
BRANCH  25  28
HETATM   28  S1  UNL     1      10.588  17.959  23.742  1.00  0.00     0.259 S 
HETATM   29  O1  UNL     1      11.618  17.350  24.683  1.00  0.00    -0.201 OA
HETATM   30  O2  UNL     1       9.394  18.296  24.557  1.00  0.00    -0.201 OA
BRANCH  28  31
HETATM   31  N5  UNL     1      11.301  19.406  23.125  1.00  0.00    -0.311 N 
ATOM     32  H5  UNL     1      11.484  20.240  23.683  1.00  0.00     0.172 HD
BRANCH  31  33
HETATM   33  C11 UNL     1      11.607  19.285  21.712  1.00  0.00     0.170 C 
BRANCH  33  34
HETATM   34  C12 UNL     1      11.264  20.566  21.053  1.00  0.00    -0.040 A 
HETATM   35  C13 UNL     1      11.328  21.786  21.688  1.00  0.00     0.009 A 
HETATM   36  C14 UNL     1      10.991  22.952  21.016  1.00  0.00     0.001 A 
HETATM   37  C15 UNL     1      10.582  22.949  19.701  1.00  0.00     0.000 A 
HETATM   38  C16 UNL     1      10.519  21.729  19.073  1.00  0.00     0.001 A 
HETATM   39  C17 UNL     1      10.849  20.563  19.725  1.00  0.00     0.009 A 
ENDBRANCH  33  34
ENDBRANCH  31  33
ENDBRANCH  28  31
ENDBRANCH  25  28
ENDBRANCH   1  22
TORSDOF 6
ENDMDL
MODEL 2
REMARK VINA RESULT: -9.028942460      1.804      2.360
REMARK  6 active torsions:
REMARK  status: ('A' for Active; 'I' for Inactive)
REMARK    1  A    between atoms: C6_11  and  N4_12 
REMARK    2  A    between atoms: N4_12  and  C7_14 
REMARK    3  A    between atoms: C10_17  and  S1_18 
REMARK    4  A    between atoms: S1_18  and  N5_21 
REMARK    5  A    between atoms: N5_21  and  C11_23 
REMARK    6  A    between atoms: C11_23  and  C12_24 
ROOT
HETATM    1  N4  UNL     1      10.010  13.028  20.121  1.00  0.00    -0.342 N 
ATOM      2  H4  UNL     1       9.037  12.901  19.842  1.00  0.00     0.167 HD
ENDROOT
BRANCH   1   3
HETATM    3  C6  UNL     1      10.911  12.390  19.479  1.00  0.00     0.121 A 
HETATM    4  N3  UNL     1      12.061  12.079  20.153  1.00  0.00    -0.338 N 
HETATM    5  C5  UNL     1      13.038  11.409  19.530  1.00  0.00     0.182 A 
ATOM      6  H3  UNL     1      12.173  12.356  21.129  1.00  0.00     0.168 HD
HETATM    7  N2  UNL     1      12.903  11.039  18.249  1.00  0.00    -0.352 N 
HETATM    8  C4  UNL     1      11.783  11.328  17.549  1.00  0.00     0.047 A 
ATOM      9  H2  UNL     1      13.661  10.531  17.793  1.00  0.00     0.166 HD
HETATM   10  C3  UNL     1      11.764  10.917  16.309  1.00  0.00     0.023 A 
HETATM   11  C20 UNL     1      10.739  12.027  18.171  1.00  0.00     0.062 A 
HETATM   12  C2  UNL     1      10.623  11.160  15.445  1.00  0.00     0.152 A 
HETATM   13  N1  UNL     1       9.584  11.876  16.122  1.00  0.00    -0.380 N 
HETATM   14  C1  UNL     1       8.350  12.218  15.415  1.00  0.00     0.150 C 
HETATM   15  C21 UNL     1       9.642  12.315  17.501  1.00  0.00     0.057 A 
HETATM   16  C22 UNL     1       8.513  13.032  18.056  1.00  0.00    -0.009 A 
HETATM   17  C23 UNL     1       8.372  14.404  17.996  1.00  0.00     0.014 A 
HETATM   18  C27 UNL     1       7.476  12.326  18.630  1.00  0.00     0.014 A 
HETATM   19  C24 UNL     1       7.252  15.048  18.483  1.00  0.00     0.001 A 
HETATM   20  C25 UNL     1       6.232  14.313  19.051  1.00  0.00     0.000 A 
HETATM   21  C26 UNL     1       6.351  12.951  19.121  1.00  0.00     0.001 A 
ENDBRANCH   1   3
BRANCH   1  22
HETATM   22  C7  UNL     1      10.290  13.903  21.202  1.00  0.00     0.033 A 
HETATM   23  C8  UNL     1      10.448  13.444  22.475  1.00  0.00     0.031 A 
HETATM   24  C9  UNL     1      10.718  14.318  23.500  1.00  0.00     0.027 A 
HETATM   25  C10 UNL     1      10.845  15.678  23.320  1.00  0.00     0.079 A 
HETATM   26  C18 UNL     1      10.686  16.150  22.033  1.00  0.00     0.027 A 
HETATM   27  C19 UNL     1      10.412  15.277  20.987  1.00  0.00     0.031 A 
BRANCH  25  28
HETATM   28  S1  UNL     1      11.187  16.682  24.691  1.00  0.00     0.259 S 
HETATM   29  O1  UNL     1      12.236  15.978  25.540  1.00  0.00    -0.201 OA
HETATM   30  O2  UNL     1      10.005  16.915  25.559  1.00  0.00    -0.201 OA
BRANCH  28  31
HETATM   31  N5  UNL     1      11.881  18.195  24.230  1.00  0.00    -0.311 N 
ATOM     32  H5  UNL     1      12.872  18.337  24.036  1.00  0.00     0.172 HD
BRANCH  31  33
HETATM   33  C11 UNL     1      10.876  19.238  24.154  1.00  0.00     0.170 C 
BRANCH  33  34
HETATM   34  C12 UNL     1      11.095  20.002  22.906  1.00  0.00    -0.040 A 
HETATM   35  C13 UNL     1      11.476  19.420  21.718  1.00  0.00     0.009 A 
HETATM   36  C14 UNL     1      11.668  20.191  20.580  1.00  0.00     0.001 A 
HETATM   37  C15 UNL     1      11.489  21.556  20.582  1.00  0.00     0.000 A 
HETATM   38  C16 UNL     1      11.109  22.132  21.769  1.00  0.00     0.001 A 
HETATM   39  C17 UNL     1      10.916  21.382  22.906  1.00  0.00     0.009 A 
ENDBRANCH  33  34
ENDBRANCH  31  33
ENDBRANCH  28  31
ENDBRANCH  25  28
ENDBRANCH   1  22
TORSDOF 6
ENDMDL
MODEL 3
REMARK VINA RESULT: -8.982330316      1.368      1.802
REMARK  6 active torsions:
REMARK  status: ('A' for Active; 'I' for Inactive)
REMARK    1  A    between atoms: C6_11  and  N4_12 
REMARK    2  A    between atoms: N4_12  and  C7_14 
REMARK    3  A    between atoms: C10_17  and  S1_18 
REMARK    4  A    between atoms: S1_18  and  N5_21 
REMARK    5  A    between atoms: N5_21  and  C11_23 
REMARK    6  A    between atoms: C11_23  and  C12_24 
ROOT
HETATM    1  N4  UNL     1       9.904  13.572  20.089  1.00  0.00    -0.342 N 
ATOM      2  H4  UNL     1       8.959  13.242  19.891  1.00  0.00     0.167 HD
ENDROOT
BRANCH   1   3
HETATM    3  C6  UNL     1      10.883  12.970  19.533  1.00  0.00     0.121 A 
HETATM    4  N3  UNL     1      12.103  13.056  20.148  1.00  0.00    -0.338 N 
HETATM    5  C5  UNL     1      13.165  12.442  19.610  1.00  0.00     0.182 A 
ATOM      6  H3  UNL     1      12.204  13.586  21.014  1.00  0.00     0.168 HD
HETATM    7  N2  UNL     1      13.046  11.744  18.473  1.00  0.00    -0.352 N 
HETATM    8  C4  UNL     1      11.858  11.635  17.836  1.00  0.00     0.047 A 
ATOM      9  H2  UNL     1      13.868  11.284  18.079  1.00  0.00     0.166 HD
HETATM   10  C3  UNL     1      11.863  10.929  16.737  1.00  0.00     0.023 A 
HETATM   11  C20 UNL     1      10.725  12.264  18.372  1.00  0.00     0.062 A 
HETATM   12  C2  UNL     1      10.656  10.732  15.954  1.00  0.00     0.152 A 
HETATM   13  N1  UNL     1       9.528  11.392  16.538  1.00  0.00    -0.380 N 
HETATM   14  C1  UNL     1       8.217  11.311  15.893  1.00  0.00     0.150 C 
HETATM   15  C21 UNL     1       9.562  12.168  17.762  1.00  0.00     0.057 A 
HETATM   16  C22 UNL     1       8.340  12.780  18.237  1.00  0.00    -0.009 A 
HETATM   17  C23 UNL     1       7.921  14.043  17.867  1.00  0.00     0.014 A 
HETATM   18  C27 UNL     1       7.496  12.064  19.059  1.00  0.00     0.014 A 
HETATM   19  C24 UNL     1       6.719  14.572  18.293  1.00  0.00     0.001 A 
HETATM   20  C25 UNL     1       5.897  13.829  19.114  1.00  0.00     0.000 A 
HETATM   21  C26 UNL     1       6.293  12.575  19.494  1.00  0.00     0.001 A 
ENDBRANCH   1   3
BRANCH   1  22
HETATM   22  C7  UNL     1      10.060  14.676  20.968  1.00  0.00     0.033 A 
HETATM   23  C8  UNL     1      11.078  14.735  21.871  1.00  0.00     0.031 A 
HETATM   24  C9  UNL     1      11.201  15.817  22.709  1.00  0.00     0.027 A 
HETATM   25  C10 UNL     1      10.333  16.886  22.695  1.00  0.00     0.079 A 
HETATM   26  C18 UNL     1       9.299  16.832  21.781  1.00  0.00     0.027 A 
HETATM   27  C19 UNL     1       9.163  15.744  20.929  1.00  0.00     0.031 A 
BRANCH  25  28
HETATM   28  S1  UNL     1      10.589  18.196  23.800  1.00  0.00     0.259 S 
HETATM   29  O1  UNL     1      11.573  17.729  24.864  1.00  0.00    -0.201 OA
HETATM   30  O2  UNL     1       9.353  18.623  24.504  1.00  0.00    -0.201 OA
BRANCH  28  31
HETATM   31  N5  UNL     1      11.324  19.558  23.033  1.00  0.00    -0.311 N 
ATOM     32  H5  UNL     1      11.582  20.419  23.515  1.00  0.00     0.172 HD
BRANCH  31  33
HETATM   33  C11 UNL     1      11.529  19.322  21.617  1.00  0.00     0.170 C 
BRANCH  33  34
HETATM   34  C12 UNL     1      11.211  20.571  20.888  1.00  0.00    -0.040 A 
HETATM   35  C13 UNL     1      10.782  20.596  19.580  1.00  0.00     0.009 A 
HETATM   36  C14 UNL     1      10.502  21.801  18.950  1.00  0.00     0.001 A 
HETATM   37  C15 UNL     1      10.634  23.011  19.591  1.00  0.00     0.000 A 
HETATM   38  C16 UNL     1      11.062  22.980  20.895  1.00  0.00     0.001 A 
HETATM   39  C17 UNL     1      11.346  21.795  21.535  1.00  0.00     0.009 A 
ENDBRANCH  33  34
ENDBRANCH  31  33
ENDBRANCH  28  31
ENDBRANCH  25  28
ENDBRANCH   1  22
TORSDOF 6
ENDMDL
MODEL 4
REMARK VINA RESULT: -8.941875960      1.909      4.008
REMARK  6 active torsions:
REMARK  status: ('A' for Active; 'I' for Inactive)
REMARK    1  A    between atoms: C6_11  and  N4_12 
REMARK    2  A    between atoms: N4_12  and  C7_14 
REMARK    3  A    between atoms: C10_17  and  S1_18 
REMARK    4  A    between atoms: S1_18  and  N5_21 
REMARK    5  A    between atoms: N5_21  and  C11_23 
REMARK    6  A    between atoms: C11_23  and  C12_24 
ROOT
HETATM    1  N4  UNL     1      10.046  12.999  20.506  1.00  0.00    -0.342 N 
ATOM      2  H4  UNL     1      10.486  12.079  20.520  1.00  0.00     0.167 HD
ENDROOT
BRANCH   1   3
HETATM    3  C6  UNL     1       9.236  13.266  19.556  1.00  0.00     0.121 A 
HETATM    4  N3  UNL     1       8.140  14.027  19.861  1.00  0.00    -0.338 N 
HETATM    5  C5  UNL     1       7.258  14.339  18.903  1.00  0.00     0.182 A 
ATOM      6  H3  UNL     1       7.995  14.355  20.816  1.00  0.00     0.168 HD
HETATM    7  N2  UNL     1       7.437  13.914  17.645  1.00  0.00    -0.352 N 
HETATM    8  C4  UNL     1       8.507  13.161  17.304  1.00  0.00     0.047 A 
ATOM      9  H2  UNL     1       6.753  14.163  16.931  1.00  0.00     0.166 HD
HETATM   10  C3  UNL     1       8.577  12.805  16.049  1.00  0.00     0.023 A 
HETATM   11  C20 UNL     1       9.451  12.816  18.282  1.00  0.00     0.062 A 
HETATM   12  C2  UNL     1       9.673  11.996  15.547  1.00  0.00     0.152 A 
HETATM   13  N1  UNL     1      10.609  11.668  16.580  1.00  0.00    -0.380 N 
HETATM   14  C1  UNL     1      11.785  10.855  16.270  1.00  0.00     0.150 C 
HETATM   15  C21 UNL     1      10.498  12.082  17.963  1.00  0.00     0.057 A 
HETATM   16  C22 UNL     1      11.523  11.676  18.901  1.00  0.00    -0.009 A 
HETATM   17  C23 UNL     1      11.481  10.499  19.620  1.00  0.00     0.014 A 
HETATM   18  C27 UNL     1      12.646  12.461  19.061  1.00  0.00     0.014 A 
HETATM   19  C24 UNL     1      12.507  10.115  20.461  1.00  0.00     0.001 A 
HETATM   20  C25 UNL     1      13.617  10.922  20.599  1.00  0.00     0.000 A 
HETATM   21  C26 UNL     1      13.679  12.094  19.895  1.00  0.00     0.001 A 
ENDBRANCH   1   3
BRANCH   1  22
HETATM   22  C7  UNL     1      10.366  13.913  21.543  1.00  0.00     0.033 A 
HETATM   23  C8  UNL     1      10.383  13.536  22.852  1.00  0.00     0.031 A 
HETATM   24  C9  UNL     1      10.696  14.445  23.833  1.00  0.00     0.027 A 
HETATM   25  C10 UNL     1      11.008  15.762  23.571  1.00  0.00     0.079 A 
HETATM   26  C18 UNL     1      10.993  16.150  22.246  1.00  0.00     0.027 A 
HETATM   27  C19 UNL     1      10.678  15.240  21.245  1.00  0.00     0.031 A 
BRANCH  25  28
HETATM   28  S1  UNL     1      11.387  16.818  24.892  1.00  0.00     0.259 S 
HETATM   29  O1  UNL     1      12.544  16.203  25.668  1.00  0.00    -0.201 OA
HETATM   30  O2  UNL     1      10.263  16.994  25.846  1.00  0.00    -0.201 OA
BRANCH  28  31
HETATM   31  N5  UNL     1      11.942  18.361  24.350  1.00  0.00    -0.311 N 
ATOM     32  H5  UNL     1      12.921  18.596  24.187  1.00  0.00     0.172 HD
BRANCH  31  33
HETATM   33  C11 UNL     1      10.838  19.282  24.157  1.00  0.00     0.170 C 
BRANCH  33  34
HETATM   34  C12 UNL     1      11.076  20.034  22.903  1.00  0.00    -0.040 A 
HETATM   35  C13 UNL     1      11.463  19.437  21.725  1.00  0.00     0.009 A 
HETATM   36  C14 UNL     1      11.673  20.196  20.582  1.00  0.00     0.001 A 
HETATM   37  C15 UNL     1      11.508  21.563  20.569  1.00  0.00     0.000 A 
HETATM   38  C16 UNL     1      11.122  22.153  21.748  1.00  0.00     0.001 A 
HETATM   39  C17 UNL     1      10.910  21.415  22.890  1.00  0.00     0.009 A 
ENDBRANCH  33  34
ENDBRANCH  31  33
ENDBRANCH  28  31
ENDBRANCH  25  28
ENDBRANCH   1  22
TORSDOF 6
ENDMDL
MODEL 5
REMARK VINA RESULT: -8.933788963      1.774      2.839
REMARK  6 active torsions:
REMARK  status: ('A' for Active; 'I' for Inactive)
REMARK    1  A    between atoms: C6_11  and  N4_12 
REMARK    2  A    between atoms: N4_12  and  C7_14 
REMARK    3  A    between atoms: C10_17  and  S1_18 
REMARK    4  A    between atoms: S1_18  and  N5_21 
REMARK    5  A    between atoms: N5_21  and  C11_23 
REMARK    6  A    between atoms: C11_23  and  C12_24 
ROOT
HETATM    1  N4  UNL     1       8.978  13.788  19.963  1.00  0.00    -0.342 N 
ATOM      2  H4  UNL     1       8.623  12.923  20.372  1.00  0.00     0.167 HD
ENDROOT
BRANCH   1   3
HETATM    3  C6  UNL     1       9.032  13.877  18.690  1.00  0.00     0.121 A 
HETATM    4  N3  UNL     1       9.060  15.135  18.150  1.00  0.00    -0.338 N 
HETATM    5  C5  UNL     1       9.118  15.287  16.821  1.00  0.00     0.182 A 
ATOM      6  H3  UNL     1       9.038  15.953  18.758  1.00  0.00     0.168 HD
HETATM    7  N2  UNL     1       9.149  14.220  16.012  1.00  0.00    -0.352 N 
HETATM    8  C4  UNL     1       9.122  12.962  16.507  1.00  0.00     0.047 A 
ATOM      9  H2  UNL     1       9.192  14.359  15.002  1.00  0.00     0.166 HD
HETATM   10  C3  UNL     1       9.156  12.001  15.623  1.00  0.00     0.023 A 
HETATM   11  C20 UNL     1       9.062  12.765  17.894  1.00  0.00     0.062 A 
HETATM   12  C2  UNL     1       9.134  10.604  16.017  1.00  0.00     0.152 A 
HETATM   13  N1  UNL     1       9.071  10.452  17.439  1.00  0.00    -0.380 N 
HETATM   14  C1  UNL     1       9.038   9.116  18.032  1.00  0.00     0.150 C 
HETATM   15  C21 UNL     1       9.035  11.546  18.390  1.00  0.00     0.057 A 
HETATM   16  C22 UNL     1       8.973  11.242  19.804  1.00  0.00    -0.009 A 
HETATM   17  C23 UNL     1       7.794  11.067  20.499  1.00  0.00     0.014 A 
HETATM   18  C27 UNL     1      10.143  11.053  20.509  1.00  0.00     0.014 A 
HETATM   19  C24 UNL     1       7.774  10.719  21.835  1.00  0.00     0.001 A 
HETATM   20  C25 UNL     1       8.962  10.537  22.513  1.00  0.00     0.000 A 
HETATM   21  C26 UNL     1      10.143  10.706  21.842  1.00  0.00     0.001 A 
ENDBRANCH   1   3
BRANCH   1  22
HETATM   22  C7  UNL     1       9.386  14.827  20.839  1.00  0.00     0.033 A 
HETATM   23  C8  UNL     1       8.548  15.844  21.185  1.00  0.00     0.031 A 
HETATM   24  C9  UNL     1       8.973  16.836  22.035  1.00  0.00     0.027 A 
HETATM   25  C10 UNL     1      10.237  16.872  22.582  1.00  0.00     0.079 A 
HETATM   26  C18 UNL     1      11.091  15.844  22.236  1.00  0.00     0.027 A 
HETATM   27  C19 UNL     1      10.673  14.835  21.377  1.00  0.00     0.031 A 
BRANCH  25  28
HETATM   28  S1  UNL     1      10.660  18.175  23.643  1.00  0.00     0.259 S 
HETATM   29  O1  UNL     1      11.594  17.626  24.713  1.00  0.00    -0.201 OA
HETATM   30  O2  UNL     1       9.492  18.768  24.343  1.00  0.00    -0.201 OA
BRANCH  28  31
HETATM   31  N5  UNL     1      11.544  19.415  22.828  1.00  0.00    -0.311 N 
ATOM     32  H5  UNL     1      12.010  20.192  23.297  1.00  0.00     0.172 HD
BRANCH  31  33
HETATM   33  C11 UNL     1      11.541  19.211  21.392  1.00  0.00     0.170 C 
BRANCH  33  34
HETATM   34  C12 UNL     1      11.199  20.497  20.743  1.00  0.00    -0.040 A 
HETATM   35  C13 UNL     1      10.724  20.592  19.454  1.00  0.00     0.009 A 
HETATM   36  C14 UNL     1      10.423  21.828  18.899  1.00  0.00     0.001 A 
HETATM   37  C15 UNL     1      10.581  23.003  19.599  1.00  0.00     0.000 A 
HETATM   38  C16 UNL     1      11.056  22.903  20.883  1.00  0.00     0.001 A 
HETATM   39  C17 UNL     1      11.360  21.686  21.448  1.00  0.00     0.009 A 
ENDBRANCH  33  34
ENDBRANCH  31  33
ENDBRANCH  28  31
ENDBRANCH  25  28
ENDBRANCH   1  22
TORSDOF 6
ENDMDL
