MODEL 1
REMARK VINA RESULT: -4.856141009      0.000      0.000
REMARK  3 active torsions:
REMARK  status: ('A' for Active; 'I' for Inactive)
REMARK    1  A    between atoms: S1_2  and  C2_3 
REMARK    2  A    between atoms: C2_3  and  C3_4 
REMARK    3  A    between atoms: C2_3  and  C6_10 
ROOT
HETATM    1  C3  UNL     1      27.341   7.327  13.283  1.00  0.00     0.060 C 
HETATM    2  N1  UNL     1      26.916   7.690  14.395  1.00  0.00    -0.366 N 
ATOM      3  H1  UNL     1      26.656   6.987  15.086  1.00  0.00     0.165 HD
HETATM    4  C4  UNL     1      26.791   9.033  14.711  1.00  0.00     0.072 C 
HETATM    5  C5  UNL     1      27.729   9.897  13.897  1.00  0.00     0.125 C 
HETATM    6  S2  UNL     1      27.702   8.852  12.375  1.00  0.00    -0.110 SA
ENDROOT
BRANCH   1   7
HETATM    7  C2  UNL     1      27.573   5.991  12.683  1.00  0.00     0.107 C 
BRANCH   7   8
HETATM    8  S1  UNL     1      28.444   4.925  13.893  1.00  0.00    -0.162 SA
HETATM    9  C1  UNL     1      29.760   3.991  13.025  1.00  0.00     0.090 C 
ENDBRANCH   7   8
BRANCH   7  10
HETATM   10  C6  UNL     1      26.363   5.330  12.132  1.00  0.00     0.006 A 
HETATM   11  C7  UNL     1      26.326   3.894  11.777  1.00  0.00     0.006 A 
HETATM   12  C8  UNL     1      25.491   4.441  12.944  1.00  0.00     0.006 A 
ENDBRANCH   7  10
ENDBRANCH   1   7
TORSDOF 3
ENDMDL
MODEL 2
REMARK VINA RESULT: -4.642010142     15.209     17.541
REMARK  3 active torsions:
REMARK  status: ('A' for Active; 'I' for Inactive)
REMARK    1  A    between atoms: S1_2  and  C2_3 
REMARK    2  A    between atoms: C2_3  and  C3_4 
REMARK    3  A    between atoms: C2_3  and  C6_10 
ROOT
HETATM    1  C3  UNL     1      33.377  21.176  18.205  1.00  0.00     0.060 C 
HETATM    2  N1  UNL     1      32.748  20.479  17.387  1.00  0.00    -0.366 N 
ATOM      3  H1  UNL     1      32.882  20.635  16.388  1.00  0.00     0.165 HD
HETATM    4  C4  UNL     1      31.872  19.493  17.810  1.00  0.00     0.072 C 
HETATM    5  C5  UNL     1      32.217  18.982  19.191  1.00  0.00     0.125 C 
HETATM    6  S2  UNL     1      32.881  20.579  19.841  1.00  0.00    -0.110 SA
ENDROOT
BRANCH   1   7
HETATM    7  C2  UNL     1      34.357  22.277  18.042  1.00  0.00     0.107 C 
BRANCH   7   8
HETATM    8  S1  UNL     1      35.762  21.694  17.021  1.00  0.00    -0.162 SA
HETATM    9  C1  UNL     1      36.851  23.118  16.638  1.00  0.00     0.090 C 
ENDBRANCH   7   8
BRANCH   7  10
HETATM   10  C6  UNL     1      33.791  23.552  17.532  1.00  0.00     0.006 A 
HETATM   11  C7  UNL     1      33.200  23.682  16.181  1.00  0.00     0.006 A 
HETATM   12  C8  UNL     1      32.328  23.803  17.440  1.00  0.00     0.006 A 
ENDBRANCH   7  10
ENDBRANCH   1   7
TORSDOF 3
ENDMDL
MODEL 3
REMARK VINA RESULT: -4.636028847     13.336     16.223
REMARK  3 active torsions:
REMARK  status: ('A' for Active; 'I' for Inactive)
REMARK    1  A    between atoms: S1_2  and  C2_3 
REMARK    2  A    between atoms: C2_3  and  C3_4 
REMARK    3  A    between atoms: C2_3  and  C6_10 
ROOT
HETATM    1  C3  UNL     1      33.536  21.037  17.598  1.00  0.00     0.060 C 
HETATM    2  N1  UNL     1      34.757  20.821  17.490  1.00  0.00    -0.366 N 
ATOM      3  H1  UNL     1      35.114  19.878  17.643  1.00  0.00     0.165 HD
HETATM    4  C4  UNL     1      35.639  21.838  17.165  1.00  0.00     0.072 C 
HETATM    5  C5  UNL     1      34.960  22.957  16.407  1.00  0.00     0.125 C 
HETATM    6  S2  UNL     1      33.316  22.797  17.236  1.00  0.00    -0.110 SA
ENDROOT
BRANCH   1   7
HETATM    7  C2  UNL     1      32.386  20.161  17.928  1.00  0.00     0.107 C 
BRANCH   7   8
HETATM    8  S1  UNL     1      32.668  18.495  17.219  1.00  0.00    -0.162 SA
HETATM    9  C1  UNL     1      31.053  17.651  17.019  1.00  0.00     0.090 C 
ENDBRANCH   7   8
BRANCH   7  10
HETATM   10  C6  UNL     1      32.036  20.099  19.370  1.00  0.00     0.006 A 
HETATM   11  C7  UNL     1      32.509  19.017  20.263  1.00  0.00     0.006 A 
HETATM   12  C8  UNL     1      32.995  20.462  20.447  1.00  0.00     0.006 A 
ENDBRANCH   7  10
ENDBRANCH   1   7
TORSDOF 3
ENDMDL
MODEL 4
REMARK VINA RESULT: -4.630515002     15.646     17.686
REMARK  3 active torsions:
REMARK  status: ('A' for Active; 'I' for Inactive)
REMARK    1  A    between atoms: S1_2  and  C2_3 
REMARK    2  A    between atoms: C2_3  and  C3_4 
REMARK    3  A    between atoms: C2_3  and  C6_10 
ROOT
HETATM    1  C3  UNL     1      34.787  22.246  17.135  1.00  0.00     0.060 C 
HETATM    2  N1  UNL     1      34.719  23.142  16.274  1.00  0.00    -0.366 N 
ATOM      3  H1  UNL     1      33.828  23.608  16.105  1.00  0.00     0.165 HD
HETATM    4  C4  UNL     1      35.832  23.517  15.540  1.00  0.00     0.072 C 
HETATM    5  C5  UNL     1      37.121  23.213  16.271  1.00  0.00     0.125 C 
HETATM    6  S2  UNL     1      36.513  21.700  17.138  1.00  0.00    -0.110 SA
ENDROOT
BRANCH   1   7
HETATM    7  C2  UNL     1      33.781  21.651  18.048  1.00  0.00     0.107 C 
BRANCH   7   8
HETATM    8  S1  UNL     1      32.099  22.075  17.458  1.00  0.00    -0.162 SA
HETATM    9  C1  UNL     1      31.821  23.871  17.692  1.00  0.00     0.090 C 
ENDBRANCH   7   8
BRANCH   7  10
HETATM   10  C6  UNL     1      33.934  20.193  18.288  1.00  0.00     0.006 A 
HETATM   11  C7  UNL     1      33.232  19.484  19.381  1.00  0.00     0.006 A 
HETATM   12  C8  UNL     1      32.893  19.202  17.909  1.00  0.00     0.006 A 
ENDBRANCH   7  10
ENDBRANCH   1   7
TORSDOF 3
ENDMDL
MODEL 5
REMARK VINA RESULT: -4.506965224      5.059      6.617
REMARK  3 active torsions:
REMARK  status: ('A' for Active; 'I' for Inactive)
REMARK    1  A    between atoms: S1_2  and  C2_3 
REMARK    2  A    between atoms: C2_3  and  C3_4 
REMARK    3  A    between atoms: C2_3  and  C6_10 
ROOT
HETATM    1  C3  UNL     1      29.052  13.407  13.868  1.00  0.00     0.060 C 
HETATM    2  N1  UNL     1      29.794  14.227  13.297  1.00  0.00    -0.366 N 
ATOM      3  H1  UNL     1      30.110  14.039  12.346  1.00  0.00     0.165 HD
HETATM    4  C4  UNL     1      30.196  15.392  13.930  1.00  0.00     0.072 C 
HETATM    5  C5  UNL     1      29.225  15.815  15.009  1.00  0.00     0.125 C 
HETATM    6  S2  UNL     1      28.709  14.111  15.500  1.00  0.00    -0.110 SA
ENDROOT
BRANCH   1   7
HETATM    7  C2  UNL     1      28.476  12.108  13.444  1.00  0.00     0.107 C 
BRANCH   7   8
HETATM    8  S1  UNL     1      29.401  11.478  11.992  1.00  0.00    -0.162 SA
HETATM    9  C1  UNL     1      28.413  10.165  11.181  1.00  0.00     0.090 C 
ENDBRANCH   7   8
BRANCH   7  10
HETATM   10  C6  UNL     1      28.369  11.088  14.518  1.00  0.00     0.006 A 
HETATM   11  C7  UNL     1      27.189  10.207  14.670  1.00  0.00     0.006 A 
HETATM   12  C8  UNL     1      28.557   9.634  14.269  1.00  0.00     0.006 A 
ENDBRANCH   7  10
ENDBRANCH   1   7
TORSDOF 3
ENDMDL
