MODEL 1
REMARK VINA RESULT: -8.400092173      0.000      0.000
REMARK  7 active torsions:
REMARK  status: ('A' for Active; 'I' for Inactive)
REMARK    1  A    between atoms: N1_8  and  C8_9 
REMARK    2  A    between atoms: C8_9  and  C9_10 
REMARK    3  A    between atoms: C9_10  and  N2_11 
REMARK    4  A    between atoms: C10_16  and  C11_17 
REMARK    5  A    between atoms: C13_21  and  N6_22 
REMARK    6  A    between atoms: C15_31  and  C16_32 
REMARK    7  A    between atoms: C16_32  and  C17_33 
ROOT
HETATM    1  N2  UNL     1     -36.960  -9.564  24.280  1.00  0.00    -0.274 N 
HETATM    2  N3  UNL     1     -38.191  -9.133  24.122  1.00  0.00    -0.240 N 
ATOM      3  H3  UNL     1     -39.019  -9.725  24.174  1.00  0.00     0.208 HD
HETATM    4  N4  UNL     1     -38.216  -7.879  23.894  1.00  0.00    -0.283 N 
ATOM      5  H4  UNL     1     -39.051  -7.314  23.740  1.00  0.00     0.188 HD
HETATM    6  C10 UNL     1     -36.917  -7.423  23.892  1.00  0.00     0.092 A 
HETATM    7  C15 UNL     1     -36.122  -8.495  24.134  1.00  0.00     0.079 A 
ENDROOT
BRANCH   6   8
HETATM    8  C11 UNL     1     -36.737  -5.984  23.761  1.00  0.00     0.054 A 
HETATM    9  C12 UNL     1     -36.583  -5.088  24.767  1.00  0.00     0.123 A 
HETATM   10  N5  UNL     1     -36.313  -3.803  24.516  1.00  0.00    -0.201 N 
HETATM   11  C13 UNL     1     -36.182  -3.341  23.247  1.00  0.00     0.677 A 
ATOM     12  H5  UNL     1     -36.203  -3.155  25.296  1.00  0.00     0.183 HD
HETATM   13  N7  UNL     1     -36.334  -4.224  22.264  1.00  0.00    -0.176 N 
HETATM   14  C14 UNL     1     -36.603  -5.513  22.451  1.00  0.00     0.128 A 
ATOM     15  H7  UNL     1     -36.239  -3.891  21.305  1.00  0.00     0.186 HD
HETATM   16  N8  UNL     1     -36.759  -6.290  21.413  1.00  0.00    -0.384 N 
ATOM     17  H82 UNL     1     -36.966  -7.279  21.556  1.00  0.00     0.157 HD
ATOM     18  H81 UNL     1     -36.662  -5.946  20.458  1.00  0.00     0.157 HD
BRANCH  11  19
HETATM   19  N6  UNL     1     -35.923  -2.085  23.034  1.00  0.00    -0.234 N 
ATOM     20  H62 UNL     1     -36.353  -1.551  22.279  1.00  0.00     0.174 HD
ATOM     21  H61 UNL     1     -35.267  -1.588  23.636  1.00  0.00     0.174 HD
ENDBRANCH  11  19
ENDBRANCH   6   8
BRANCH   7  22
HETATM   22  C16 UNL     1     -34.669  -8.572  24.191  1.00  0.00     0.031 C 
BRANCH  22  23
HETATM   23  C17 UNL     1     -33.907  -8.336  25.418  1.00  0.00     0.050 C 
HETATM   24  C18 UNL     1     -33.041  -7.092  25.460  1.00  0.00     0.036 C 
HETATM   25  C19 UNL     1     -32.756  -9.466  25.394  1.00  0.00     0.036 C 
HETATM   26 CL1  UNL     1     -34.637  -8.617  26.974  1.00  0.00    -0.116 Cl
ENDBRANCH  22  23
ENDBRANCH   7  22
BRANCH   1  27
HETATM   27  C9  UNL     1     -36.616 -10.931  24.690  1.00  0.00     0.181 C 
BRANCH  27  28
HETATM   28  C8  UNL     1     -37.823 -11.650  25.129  1.00  0.00     0.295 C 
BRANCH  28  29
HETATM   29  N1  UNL     1     -38.085 -12.986  24.778  1.00  0.00     0.098 N 
HETATM   30  C2  UNL     1     -38.000 -13.843  25.965  1.00  0.00     0.219 C 
HETATM   31  C1  UNL     1     -37.530 -15.204  25.560  1.00  0.00     0.043 C 
HETATM   32  C3  UNL     1     -39.202 -13.903  26.810  1.00  0.00     0.035 C 
HETATM   33  C4  UNL     1     -40.467 -14.231  26.047  1.00  0.00     0.004 C 
HETATM   34  C5  UNL     1     -40.151 -14.363  24.569  1.00  0.00     0.035 C 
HETATM   35  C6  UNL     1     -39.290 -13.256  24.036  1.00  0.00     0.219 C 
HETATM   36  C7  UNL     1     -40.172 -12.097  23.732  1.00  0.00     0.043 C 
ENDBRANCH  28  29
ENDBRANCH  27  28
ENDBRANCH   1  27
TORSDOF 7
ENDMDL
MODEL 2
REMARK VINA RESULT: -8.347627536      0.821      1.394
REMARK  7 active torsions:
REMARK  status: ('A' for Active; 'I' for Inactive)
REMARK    1  A    between atoms: N1_8  and  C8_9 
REMARK    2  A    between atoms: C8_9  and  C9_10 
REMARK    3  A    between atoms: C9_10  and  N2_11 
REMARK    4  A    between atoms: C10_16  and  C11_17 
REMARK    5  A    between atoms: C13_21  and  N6_22 
REMARK    6  A    between atoms: C15_31  and  C16_32 
REMARK    7  A    between atoms: C16_32  and  C17_33 
ROOT
HETATM    1  N2  UNL     1     -37.006  -9.686  24.232  1.00  0.00    -0.274 N 
HETATM    2  N3  UNL     1     -38.247  -9.277  24.101  1.00  0.00    -0.240 N 
ATOM      3  H3  UNL     1     -39.058  -9.895  24.082  1.00  0.00     0.208 HD
HETATM    4  N4  UNL     1     -38.308  -8.008  24.000  1.00  0.00    -0.283 N 
ATOM      5  H4  UNL     1     -39.158  -7.454  23.893  1.00  0.00     0.188 HD
HETATM    6  C10 UNL     1     -37.024  -7.516  24.062  1.00  0.00     0.092 A 
HETATM    7  C15 UNL     1     -36.200  -8.584  24.206  1.00  0.00     0.079 A 
ENDROOT
BRANCH   6   8
HETATM    8  C11 UNL     1     -36.886  -6.067  24.080  1.00  0.00     0.054 A 
HETATM    9  C12 UNL     1     -36.662  -5.256  23.016  1.00  0.00     0.123 A 
HETATM   10  N5  UNL     1     -36.665  -3.926  23.145  1.00  0.00    -0.201 N 
HETATM   11  C13 UNL     1     -36.891  -3.330  24.343  1.00  0.00     0.677 A 
ATOM     12  H5  UNL     1     -36.493  -3.345  22.325  1.00  0.00     0.183 HD
HETATM   13  N7  UNL     1     -37.110  -4.130  25.384  1.00  0.00    -0.176 N 
HETATM   14  C14 UNL     1     -37.119  -5.458  25.318  1.00  0.00     0.128 A 
ATOM     15  H7  UNL     1     -37.281  -3.696  26.291  1.00  0.00     0.186 HD
HETATM   16  N8  UNL     1     -37.319  -6.150  26.407  1.00  0.00    -0.384 N 
ATOM     17  H82 UNL     1     -37.326  -7.169  26.357  1.00  0.00     0.157 HD
ATOM     18  H81 UNL     1     -37.489  -5.706  27.309  1.00  0.00     0.157 HD
BRANCH  11  19
HETATM   19  N6  UNL     1     -36.884  -2.033  24.438  1.00  0.00    -0.234 N 
ATOM     20  H62 UNL     1     -36.948  -1.418  23.627  1.00  0.00     0.174 HD
ATOM     21  H61 UNL     1     -36.817  -1.588  25.353  1.00  0.00     0.174 HD
ENDBRANCH  11  19
ENDBRANCH   6   8
BRANCH   7  22
HETATM   22  C16 UNL     1     -34.745  -8.624  24.276  1.00  0.00     0.031 C 
BRANCH  22  23
HETATM   23  C17 UNL     1     -33.999  -8.362  25.507  1.00  0.00     0.050 C 
HETATM   24  C18 UNL     1     -33.072  -7.161  25.506  1.00  0.00     0.036 C 
HETATM   25  C19 UNL     1     -32.906  -9.547  25.569  1.00  0.00     0.036 C 
HETATM   26 CL1  UNL     1     -34.776  -8.524  27.057  1.00  0.00    -0.116 Cl
ENDBRANCH  22  23
ENDBRANCH   7  22
BRANCH   1  27
HETATM   27  C9  UNL     1     -36.625 -11.077  24.507  1.00  0.00     0.181 C 
BRANCH  27  28
HETATM   28  C8  UNL     1     -37.756 -11.805  25.105  1.00  0.00     0.295 C 
BRANCH  28  29
HETATM   29  N1  UNL     1     -38.068 -13.135  24.772  1.00  0.00     0.098 N 
HETATM   30  C2  UNL     1     -38.008 -13.980  25.969  1.00  0.00     0.219 C 
HETATM   31  C1  UNL     1     -37.590 -15.363  25.577  1.00  0.00     0.043 C 
HETATM   32  C3  UNL     1     -39.207 -13.986  26.820  1.00  0.00     0.035 C 
HETATM   33  C4  UNL     1     -40.487 -14.277  26.068  1.00  0.00     0.004 C 
HETATM   34  C5  UNL     1     -40.185 -14.437  24.590  1.00  0.00     0.035 C 
HETATM   35  C6  UNL     1     -39.286 -13.370  24.039  1.00  0.00     0.219 C 
HETATM   36  C7  UNL     1     -40.127 -12.183  23.725  1.00  0.00     0.043 C 
ENDBRANCH  28  29
ENDBRANCH  27  28
ENDBRANCH   1  27
TORSDOF 7
ENDMDL
MODEL 3
REMARK VINA RESULT: -8.211462461      1.502      2.094
REMARK  7 active torsions:
REMARK  status: ('A' for Active; 'I' for Inactive)
REMARK    1  A    between atoms: N1_8  and  C8_9 
REMARK    2  A    between atoms: C8_9  and  C9_10 
REMARK    3  A    between atoms: C9_10  and  N2_11 
REMARK    4  A    between atoms: C10_16  and  C11_17 
REMARK    5  A    between atoms: C13_21  and  N6_22 
REMARK    6  A    between atoms: C15_31  and  C16_32 
REMARK    7  A    between atoms: C16_32  and  C17_33 
ROOT
HETATM    1  N2  UNL     1     -37.405  -9.711  24.101  1.00  0.00    -0.274 N 
HETATM    2  N3  UNL     1     -38.703  -9.691  23.905  1.00  0.00    -0.240 N 
ATOM      3  H3  UNL     1     -39.312 -10.505  23.998  1.00  0.00     0.208 HD
HETATM    4  N4  UNL     1     -39.106  -8.526  23.581  1.00  0.00    -0.283 N 
ATOM      5  H4  UNL     1     -40.069  -8.258  23.381  1.00  0.00     0.188 HD
HETATM    6  C10 UNL     1     -38.010  -7.694  23.551  1.00  0.00     0.092 A 
HETATM    7  C15 UNL     1     -36.931  -8.448  23.878  1.00  0.00     0.079 A 
ENDROOT
BRANCH   6   8
HETATM    8  C11 UNL     1     -38.276  -6.282  23.312  1.00  0.00     0.054 A 
HETATM    9  C12 UNL     1     -38.706  -5.369  24.218  1.00  0.00     0.123 A 
HETATM   10  N5  UNL     1     -38.807  -4.074  23.902  1.00  0.00    -0.201 N 
HETATM   11  C13 UNL     1     -38.486  -3.618  22.666  1.00  0.00     0.677 A 
ATOM     12  H5  UNL     1     -39.134  -3.413  24.607  1.00  0.00     0.183 HD
HETATM   13  N7  UNL     1     -38.065  -4.518  21.781  1.00  0.00    -0.176 N 
HETATM   14  C14 UNL     1     -37.944  -5.817  22.034  1.00  0.00     0.128 A 
ATOM     15  H7  UNL     1     -37.820  -4.190  20.846  1.00  0.00     0.186 HD
HETATM   16  N8  UNL     1     -37.545  -6.620  21.084  1.00  0.00    -0.384 N 
ATOM     17  H82 UNL     1     -37.452  -7.617  21.279  1.00  0.00     0.157 HD
ATOM     18  H81 UNL     1     -37.303  -6.281  20.154  1.00  0.00     0.157 HD
BRANCH  11  19
HETATM   19  N6  UNL     1     -38.598  -2.353  22.387  1.00  0.00    -0.234 N 
ATOM     20  H62 UNL     1     -37.828  -1.796  22.016  1.00  0.00     0.174 HD
ATOM     21  H61 UNL     1     -39.486  -1.874  22.534  1.00  0.00     0.174 HD
ENDBRANCH  11  19
ENDBRANCH   6   8
BRANCH   7  22
HETATM   22  C16 UNL     1     -35.527  -8.069  23.949  1.00  0.00     0.031 C 
BRANCH  22  23
HETATM   23  C17 UNL     1     -34.802  -7.928  25.212  1.00  0.00     0.050 C 
HETATM   24  C18 UNL     1     -35.581  -7.382  26.393  1.00  0.00     0.036 C 
HETATM   25  C19 UNL     1     -33.796  -6.692  24.956  1.00  0.00     0.036 C 
HETATM   26 CL1  UNL     1     -33.700  -9.170  25.737  1.00  0.00    -0.116 Cl
ENDBRANCH  22  23
ENDBRANCH   7  22
BRANCH   1  27
HETATM   27  C9  UNL     1     -36.670 -10.872  24.617  1.00  0.00     0.181 C 
BRANCH  27  28
HETATM   28  C8  UNL     1     -37.468 -12.097  24.445  1.00  0.00     0.295 C 
BRANCH  28  29
HETATM   29  N1  UNL     1     -37.725 -12.993  25.497  1.00  0.00     0.098 N 
HETATM   30  C2  UNL     1     -39.163 -13.275  25.577  1.00  0.00     0.219 C 
HETATM   31  C1  UNL     1     -39.535 -13.547  27.000  1.00  0.00     0.043 C 
HETATM   32  C3  UNL     1     -39.672 -14.309  24.665  1.00  0.00     0.035 C 
HETATM   33  C4  UNL     1     -38.905 -15.610  24.729  1.00  0.00     0.004 C 
HETATM   34  C5  UNL     1     -37.753 -15.476  25.708  1.00  0.00     0.035 C 
HETATM   35  C6  UNL     1     -36.961 -14.213  25.536  1.00  0.00     0.219 C 
HETATM   36  C7  UNL     1     -35.984 -14.435  24.436  1.00  0.00     0.043 C 
ENDBRANCH  28  29
ENDBRANCH  27  28
ENDBRANCH   1  27
TORSDOF 7
ENDMDL
MODEL 4
REMARK VINA RESULT: -8.125078642      2.837      4.877
REMARK  7 active torsions:
REMARK  status: ('A' for Active; 'I' for Inactive)
REMARK    1  A    between atoms: N1_8  and  C8_9 
REMARK    2  A    between atoms: C8_9  and  C9_10 
REMARK    3  A    between atoms: C9_10  and  N2_11 
REMARK    4  A    between atoms: C10_16  and  C11_17 
REMARK    5  A    between atoms: C13_21  and  N6_22 
REMARK    6  A    between atoms: C15_31  and  C16_32 
REMARK    7  A    between atoms: C16_32  and  C17_33 
ROOT
HETATM    1  N2  UNL     1     -37.024  -9.215  24.739  1.00  0.00    -0.274 N 
HETATM    2  N3  UNL     1     -36.626  -8.266  25.555  1.00  0.00    -0.240 N 
ATOM      3  H3  UNL     1     -36.049  -8.422  26.381  1.00  0.00     0.208 HD
HETATM    4  N4  UNL     1     -37.055  -7.125  25.183  1.00  0.00    -0.283 N 
ATOM      5  H4  UNL     1     -36.878  -6.236  25.650  1.00  0.00     0.188 HD
HETATM    6  C10 UNL     1     -37.798  -7.305  24.039  1.00  0.00     0.092 A 
HETATM    7  C15 UNL     1     -37.779  -8.633  23.760  1.00  0.00     0.079 A 
ENDROOT
BRANCH   6   8
HETATM    8  C11 UNL     1     -38.285  -6.098  23.386  1.00  0.00     0.054 A 
HETATM    9  C12 UNL     1     -39.364  -5.357  23.742  1.00  0.00     0.123 A 
HETATM   10  N5  UNL     1     -39.645  -4.203  23.130  1.00  0.00    -0.201 N 
HETATM   11  C13 UNL     1     -38.867  -3.724  22.128  1.00  0.00     0.677 A 
ATOM     12  H5  UNL     1     -40.464  -3.670  23.422  1.00  0.00     0.183 HD
HETATM   13  N7  UNL     1     -37.810  -4.455  21.781  1.00  0.00    -0.176 N 
HETATM   14  C14 UNL     1     -37.479  -5.609  22.352  1.00  0.00     0.128 A 
ATOM     15  H7  UNL     1     -37.216  -4.107  21.029  1.00  0.00     0.186 HD
HETATM   16  N8  UNL     1     -36.434  -6.260  21.918  1.00  0.00    -0.384 N 
ATOM     17  H82 UNL     1     -36.180  -7.146  22.356  1.00  0.00     0.157 HD
ATOM     18  H81 UNL     1     -35.847  -5.903  21.164  1.00  0.00     0.157 HD
BRANCH  11  19
HETATM   19  N6  UNL     1     -39.168  -2.599  21.548  1.00  0.00    -0.234 N 
ATOM     20  H62 UNL     1     -39.825  -1.929  21.947  1.00  0.00     0.174 HD
ATOM     21  H61 UNL     1     -38.739  -2.352  20.656  1.00  0.00     0.174 HD
ENDBRANCH  11  19
ENDBRANCH   6   8
BRANCH   7  22
HETATM   22  C16 UNL     1     -38.444  -9.360  22.688  1.00  0.00     0.031 C 
BRANCH  22  23
HETATM   23  C17 UNL     1     -39.797  -9.904  22.814  1.00  0.00     0.050 C 
HETATM   24  C18 UNL     1     -39.923 -11.311  23.364  1.00  0.00     0.036 C 
HETATM   25  C19 UNL     1     -40.262 -10.167  21.291  1.00  0.00     0.036 C 
HETATM   26 CL1  UNL     1     -41.094  -8.905  23.406  1.00  0.00    -0.116 Cl
ENDBRANCH  22  23
ENDBRANCH   7  22
BRANCH   1  27
HETATM   27  C9  UNL     1     -36.579 -10.611  24.824  1.00  0.00     0.181 C 
BRANCH  27  28
HETATM   28  C8  UNL     1     -35.153 -10.713  24.471  1.00  0.00     0.295 C 
BRANCH  28  29
HETATM   29  N1  UNL     1     -34.424 -11.910  24.583  1.00  0.00     0.098 N 
HETATM   30  C2  UNL     1     -34.879 -12.872  23.573  1.00  0.00     0.219 C 
HETATM   31  C1  UNL     1     -34.720 -14.261  24.106  1.00  0.00     0.043 C 
HETATM   32  C3  UNL     1     -34.298 -12.726  22.230  1.00  0.00     0.035 C 
HETATM   33  C4  UNL     1     -32.787 -12.672  22.222  1.00  0.00     0.004 C 
HETATM   34  C5  UNL     1     -32.267 -12.734  23.646  1.00  0.00     0.035 C 
HETATM   35  C6  UNL     1     -32.987 -11.816  24.591  1.00  0.00     0.219 C 
HETATM   36  C7  UNL     1     -32.396 -10.459  24.447  1.00  0.00     0.043 C 
ENDBRANCH  28  29
ENDBRANCH  27  28
ENDBRANCH   1  27
TORSDOF 7
ENDMDL
MODEL 5
REMARK VINA RESULT: -8.073939156      1.487      2.112
REMARK  7 active torsions:
REMARK  status: ('A' for Active; 'I' for Inactive)
REMARK    1  A    between atoms: N1_8  and  C8_9 
REMARK    2  A    between atoms: C8_9  and  C9_10 
REMARK    3  A    between atoms: C9_10  and  N2_11 
REMARK    4  A    between atoms: C10_16  and  C11_17 
REMARK    5  A    between atoms: C13_21  and  N6_22 
REMARK    6  A    between atoms: C15_31  and  C16_32 
REMARK    7  A    between atoms: C16_32  and  C17_33 
ROOT
HETATM    1  N2  UNL     1     -36.856  -9.157  24.956  1.00  0.00    -0.274 N 
HETATM    2  N3  UNL     1     -37.763  -8.710  24.117  1.00  0.00    -0.240 N 
ATOM      3  H3  UNL     1     -38.363  -9.306  23.548  1.00  0.00     0.208 HD
HETATM    4  N4  UNL     1     -37.794  -7.436  24.105  1.00  0.00    -0.283 N 
ATOM      5  H4  UNL     1     -38.414  -6.857  23.538  1.00  0.00     0.188 HD
HETATM    6  C10 UNL     1     -36.845  -6.980  24.991  1.00  0.00     0.092 A 
HETATM    7  C15 UNL     1     -36.249  -8.074  25.527  1.00  0.00     0.079 A 
ENDROOT
BRANCH   6   8
HETATM    8  C11 UNL     1     -36.801  -5.541  25.209  1.00  0.00     0.054 A 
HETATM    9  C12 UNL     1     -36.212  -4.614  24.414  1.00  0.00     0.123 A 
HETATM   10  N5  UNL     1     -36.336  -3.307  24.664  1.00  0.00    -0.201 N 
HETATM   11  C13 UNL     1     -37.054  -2.853  25.722  1.00  0.00     0.677 A 
ATOM     12  H5  UNL     1     -35.881  -2.635  24.046  1.00  0.00     0.183 HD
HETATM   13  N7  UNL     1     -37.629  -3.767  26.500  1.00  0.00    -0.176 N 
HETATM   14  C14 UNL     1     -37.542  -5.078  26.302  1.00  0.00     0.128 A 
ATOM     15  H7  UNL     1     -38.171  -3.440  27.299  1.00  0.00     0.186 HD
HETATM   16  N8  UNL     1     -38.124  -5.891  27.142  1.00  0.00    -0.384 N 
ATOM     17  H82 UNL     1     -38.057  -6.898  26.991  1.00  0.00     0.157 HD
ATOM     18  H81 UNL     1     -38.663  -5.553  27.939  1.00  0.00     0.157 HD
BRANCH  11  19
HETATM   19  N6  UNL     1     -37.153  -1.575  25.943  1.00  0.00    -0.234 N 
ATOM     20  H62 UNL     1     -36.412  -0.913  25.711  1.00  0.00     0.174 HD
ATOM     21  H61 UNL     1     -38.001  -1.192  26.362  1.00  0.00     0.174 HD
ENDBRANCH  11  19
ENDBRANCH   6   8
BRANCH   7  22
HETATM   22  C16 UNL     1     -35.151  -8.152  26.481  1.00  0.00     0.031 C 
BRANCH  22  23
HETATM   23  C17 UNL     1     -33.745  -8.064  26.087  1.00  0.00     0.050 C 
HETATM   24  C18 UNL     1     -33.073  -9.349  25.645  1.00  0.00     0.036 C 
HETATM   25  C19 UNL     1     -32.958  -7.809  27.472  1.00  0.00     0.036 C 
HETATM   26 CL1  UNL     1     -33.186  -6.727  25.120  1.00  0.00    -0.116 Cl
ENDBRANCH  22  23
ENDBRANCH   7  22
BRANCH   1  27
HETATM   27  C9  UNL     1     -36.677 -10.574  25.293  1.00  0.00     0.181 C 
BRANCH  27  28
HETATM   28  C8  UNL     1     -37.965 -11.282  25.215  1.00  0.00     0.295 C 
BRANCH  28  29
HETATM   29  N1  UNL     1     -38.074 -12.623  24.805  1.00  0.00     0.098 N 
HETATM   30  C2  UNL     1     -37.956 -13.514  25.964  1.00  0.00     0.219 C 
HETATM   31  C1  UNL     1     -37.333 -14.804  25.534  1.00  0.00     0.043 C 
HETATM   32  C3  UNL     1     -39.183 -13.726  26.747  1.00  0.00     0.035 C 
HETATM   33  C4  UNL     1     -40.372 -14.148  25.913  1.00  0.00     0.004 C 
HETATM   34  C5  UNL     1     -39.979 -14.189  24.448  1.00  0.00     0.035 C 
HETATM   35  C6  UNL     1     -39.211 -12.982  23.996  1.00  0.00     0.219 C 
HETATM   36  C7  UNL     1     -40.191 -11.905  23.690  1.00  0.00     0.043 C 
ENDBRANCH  28  29
ENDBRANCH  27  28
ENDBRANCH   1  27
TORSDOF 7
ENDMDL
