MODEL 1
REMARK VINA RESULT: -7.523018587      0.000      0.000
REMARK  7 active torsions:
REMARK  status: ('A' for Active; 'I' for Inactive)
REMARK    1  A    between atoms: O1_2  and  C2_3 
REMARK    2  A    between atoms: C5_8  and  C6_9 
REMARK    3  A    between atoms: C7_12  and  N3_13 
REMARK    4  A    between atoms: N3_13  and  C8_15 
REMARK    5  A    between atoms: C13_24  and  N5_25 
REMARK    6  A    between atoms: N5_25  and  C14_27 
REMARK    7  A    between atoms: C17_30  and  N6_31 
ROOT
HETATM    1  C6  UNL     1       2.564  35.615  24.637  1.00  0.00     0.090 A 
HETATM    2  N2  UNL     1       3.699  36.310  24.913  1.00  0.00    -0.189 N 
ATOM      3  H2  UNL     1       3.688  37.321  24.781  1.00  0.00     0.184 HD
HETATM    4  C7  UNL     1       4.831  35.741  25.347  1.00  0.00     0.680 A 
HETATM    5  N4  UNL     1       4.857  34.413  25.523  1.00  0.00    -0.179 N 
ATOM      6  H4  UNL     1       5.717  33.975  25.853  1.00  0.00     0.185 HD
HETATM    7  C12 UNL     1       3.794  33.644  25.279  1.00  0.00     0.147 A 
HETATM    8 CL1  UNL     1       3.921  31.925  25.536  1.00  0.00    -0.061 Cl
HETATM    9  C13 UNL     1       2.617  34.261  24.825  1.00  0.00     0.096 A 
ENDROOT
BRANCH   9  10
HETATM   10  N5  UNL     1       1.519  33.414  24.549  1.00  0.00    -0.381 N 
ATOM     11  H5  UNL     1       1.579  32.831  23.715  1.00  0.00     0.160 HD
BRANCH  10  12
HETATM   12  C14 UNL     1       0.326  33.305  25.341  1.00  0.00     0.082 C 
HETATM   13  C15 UNL     1      -0.929  33.420  24.481  1.00  0.00     0.027 C 
HETATM   14  C16 UNL     1      -2.092  33.649  25.396  1.00  0.00     0.035 C 
HETATM   15  C17 UNL     1      -2.234  32.514  26.386  1.00  0.00     0.183 C 
HETATM   16  C18 UNL     1      -0.966  32.222  27.117  1.00  0.00     0.035 C 
HETATM   17  C19 UNL     1       0.202  32.043  26.145  1.00  0.00     0.027 C 
BRANCH  15  18
HETATM   18  N6  UNL     1      -2.759  31.324  25.747  1.00  0.00    -0.075 N 
ATOM     19  H63 UNL     1      -3.779  31.297  25.784  1.00  0.00     0.274 HD
ATOM     20  H62 UNL     1      -2.640  31.359  24.735  1.00  0.00     0.274 HD
ATOM     21  H61 UNL     1      -2.347  30.480  26.144  1.00  0.00     0.274 HD
ENDBRANCH  15  18
ENDBRANCH  10  12
ENDBRANCH   9  10
BRANCH   1  22
HETATM   22  C5  UNL     1       1.403  36.360  24.172  1.00  0.00     0.012 A 
HETATM   23  C4  UNL     1       0.580  37.013  25.060  1.00  0.00     0.101 A 
HETATM   24  N1  UNL     1      -0.480  37.679  24.573  1.00  0.00    -0.372 N 
HETATM   25  C3  UNL     1      -0.757  37.728  23.263  1.00  0.00     0.124 A 
ATOM     26  H1  UNL     1      -1.097  38.166  25.225  1.00  0.00     0.164 HD
HETATM   27  C2  UNL     1       0.030  37.095  22.319  1.00  0.00     0.084 A 
HETATM   28  C20 UNL     1       1.118  36.409  22.799  1.00  0.00     0.053 A 
BRANCH  27  29
HETATM   29  O1  UNL     1      -0.307  37.181  20.975  1.00  0.00    -0.355 OA
HETATM   30  C1  UNL     1       0.615  37.110  19.931  1.00  0.00     0.210 C 
ENDBRANCH  27  29
ENDBRANCH   1  22
BRANCH   4  31
HETATM   31  N3  UNL     1       5.838  36.504  25.572  1.00  0.00    -0.219 N 
ATOM     32  H3  UNL     1       6.533  36.190  26.249  1.00  0.00     0.178 HD
BRANCH  31  33
HETATM   33  C8  UNL     1       6.051  37.774  24.930  1.00  0.00     0.125 C 
HETATM   34  C9  UNL     1       6.914  38.693  25.783  1.00  0.00     0.054 C 
HETATM   35  C10 UNL     1       8.280  38.087  25.561  1.00  0.00     0.169 C 
HETATM   36  O2  UNL     1       8.270  37.420  24.372  1.00  0.00    -0.389 OA
HETATM   37  C11 UNL     1       7.038  37.530  23.784  1.00  0.00     0.193 C 
ENDBRANCH  31  33
ENDBRANCH   4  31
TORSDOF 7
ENDMDL
MODEL 2
REMARK VINA RESULT: -7.510768631      3.043      5.179
REMARK  7 active torsions:
REMARK  status: ('A' for Active; 'I' for Inactive)
REMARK    1  A    between atoms: O1_2  and  C2_3 
REMARK    2  A    between atoms: C5_8  and  C6_9 
REMARK    3  A    between atoms: C7_12  and  N3_13 
REMARK    4  A    between atoms: N3_13  and  C8_15 
REMARK    5  A    between atoms: C13_24  and  N5_25 
REMARK    6  A    between atoms: N5_25  and  C14_27 
REMARK    7  A    between atoms: C17_30  and  N6_31 
ROOT
HETATM    1  C6  UNL     1       2.723  34.762  24.409  1.00  0.00     0.090 A 
HETATM    2  N2  UNL     1       3.635  33.758  24.502  1.00  0.00    -0.189 N 
ATOM      3  H2  UNL     1       4.588  33.944  24.191  1.00  0.00     0.184 HD
HETATM    4  C7  UNL     1       3.351  32.539  24.979  1.00  0.00     0.680 A 
HETATM    5  N4  UNL     1       2.102  32.284  25.389  1.00  0.00    -0.179 N 
ATOM      6  H4  UNL     1       1.881  31.356  25.752  1.00  0.00     0.185 HD
HETATM    7  C12 UNL     1       1.136  33.203  25.337  1.00  0.00     0.147 A 
HETATM    8 CL1  UNL     1      -0.460  32.779  25.893  1.00  0.00    -0.061 Cl
HETATM    9  C13 UNL     1       1.455  34.475  24.835  1.00  0.00     0.096 A 
ENDROOT
BRANCH   9  10
HETATM   10  N5  UNL     1       0.402  35.416  24.767  1.00  0.00    -0.381 N 
ATOM     11  H5  UNL     1       0.153  35.899  25.630  1.00  0.00     0.160 HD
BRANCH  10  12
HETATM   12  C14 UNL     1      -0.347  35.752  23.589  1.00  0.00     0.082 C 
HETATM   13  C15 UNL     1       0.026  37.134  23.064  1.00  0.00     0.027 C 
HETATM   14  C16 UNL     1      -1.021  37.547  22.076  1.00  0.00     0.035 C 
HETATM   15  C17 UNL     1      -1.112  36.556  20.936  1.00  0.00     0.183 C 
HETATM   16  C18 UNL     1      -1.275  35.149  21.404  1.00  0.00     0.035 C 
HETATM   17  C19 UNL     1      -0.213  34.788  22.446  1.00  0.00     0.027 C 
BRANCH  15  18
HETATM   18  N6  UNL     1       0.020  36.685  20.040  1.00  0.00    -0.075 N 
ATOM     19  H63 UNL     1       0.343  37.651  19.980  1.00  0.00     0.274 HD
ATOM     20  H62 UNL     1       0.860  36.263  20.434  1.00  0.00     0.274 HD
ATOM     21  H61 UNL     1      -0.195  36.304  19.119  1.00  0.00     0.274 HD
ENDBRANCH  15  18
ENDBRANCH  10  12
ENDBRANCH   9  10
BRANCH   1  22
HETATM   22  C5  UNL     1       3.167  36.040  23.872  1.00  0.00     0.012 A 
HETATM   23  C4  UNL     1       3.500  37.080  24.708  1.00  0.00     0.101 A 
HETATM   24  N1  UNL     1       3.897  38.239  24.156  1.00  0.00    -0.372 N 
HETATM   25  C3  UNL     1       3.978  38.410  22.829  1.00  0.00     0.124 A 
ATOM     26  H1  UNL     1       4.146  39.016  24.768  1.00  0.00     0.164 HD
HETATM   27  C2  UNL     1       3.658  37.406  21.935  1.00  0.00     0.084 A 
HETATM   28  C20 UNL     1       3.250  36.215  22.483  1.00  0.00     0.053 A 
BRANCH  27  29
HETATM   29  O1  UNL     1       3.761  37.642  20.571  1.00  0.00    -0.355 OA
HETATM   30  C1  UNL     1       3.734  36.643  19.599  1.00  0.00     0.210 C 
ENDBRANCH  27  29
ENDBRANCH   1  22
BRANCH   4  31
HETATM   31  N3  UNL     1       4.299  31.674  25.015  1.00  0.00    -0.219 N 
ATOM     32  H3  UNL     1       5.225  31.993  25.301  1.00  0.00     0.178 HD
BRANCH  31  33
HETATM   33  C8  UNL     1       4.141  30.285  24.677  1.00  0.00     0.125 C 
HETATM   34  C9  UNL     1       3.745  30.106  23.219  1.00  0.00     0.054 C 
HETATM   35  C10 UNL     1       5.064  30.365  22.532  1.00  0.00     0.169 C 
HETATM   36  O2  UNL     1       6.071  30.099  23.412  1.00  0.00    -0.389 OA
HETATM   37  C11 UNL     1       5.549  29.684  24.608  1.00  0.00     0.193 C 
ENDBRANCH  31  33
ENDBRANCH   4  31
TORSDOF 7
ENDMDL
MODEL 3
REMARK VINA RESULT: -7.331518514      2.924      5.000
REMARK  7 active torsions:
REMARK  status: ('A' for Active; 'I' for Inactive)
REMARK    1  A    between atoms: O1_2  and  C2_3 
REMARK    2  A    between atoms: C5_8  and  C6_9 
REMARK    3  A    between atoms: C7_12  and  N3_13 
REMARK    4  A    between atoms: N3_13  and  C8_15 
REMARK    5  A    between atoms: C13_24  and  N5_25 
REMARK    6  A    between atoms: N5_25  and  C14_27 
REMARK    7  A    between atoms: C17_30  and  N6_31 
ROOT
HETATM    1  C6  UNL     1       1.440  35.229  23.896  1.00  0.00     0.090 A 
HETATM    2  N2  UNL     1       1.711  36.214  23.000  1.00  0.00    -0.189 N 
ATOM      3  H2  UNL     1       0.977  36.483  22.344  1.00  0.00     0.184 HD
HETATM    4  C7  UNL     1       2.886  36.853  22.930  1.00  0.00     0.680 A 
HETATM    5  N4  UNL     1       3.857  36.507  23.786  1.00  0.00    -0.179 N 
ATOM      6  H4  UNL     1       4.755  36.990  23.736  1.00  0.00     0.185 HD
HETATM    7  C12 UNL     1       3.689  35.552  24.702  1.00  0.00     0.147 A 
HETATM    8 CL1  UNL     1       5.010  35.171  25.773  1.00  0.00    -0.061 Cl
HETATM    9  C13 UNL     1       2.449  34.896  24.759  1.00  0.00     0.096 A 
ENDROOT
BRANCH   9  10
HETATM   10  N5  UNL     1       2.314  33.870  25.721  1.00  0.00    -0.381 N 
ATOM     11  H5  UNL     1       1.839  34.107  26.592  1.00  0.00     0.160 HD
BRANCH  10  12
HETATM   12  C14 UNL     1       2.787  32.521  25.581  1.00  0.00     0.082 C 
HETATM   13  C15 UNL     1       1.765  31.641  24.868  1.00  0.00     0.027 C 
HETATM   14  C16 UNL     1       2.168  30.213  25.073  1.00  0.00     0.035 C 
HETATM   15  C17 UNL     1       3.556  29.958  24.527  1.00  0.00     0.183 C 
HETATM   16  C18 UNL     1       4.568  30.928  25.040  1.00  0.00     0.035 C 
HETATM   17  C19 UNL     1       4.092  32.371  24.852  1.00  0.00     0.027 C 
BRANCH  15  18
HETATM   18  N6  UNL     1       3.550  29.921  23.078  1.00  0.00    -0.075 N 
ATOM     19  H63 UNL     1       2.978  29.153  22.724  1.00  0.00     0.274 HD
ATOM     20  H62 UNL     1       3.024  30.701  22.685  1.00  0.00     0.274 HD
ATOM     21  H61 UNL     1       4.499  29.883  22.706  1.00  0.00     0.274 HD
ENDBRANCH  15  18
ENDBRANCH  10  12
ENDBRANCH   9  10
BRANCH   1  22
HETATM   22  C5  UNL     1       0.119  34.619  23.863  1.00  0.00     0.012 A 
HETATM   23  C4  UNL     1      -0.558  34.465  22.676  1.00  0.00     0.101 A 
HETATM   24  N1  UNL     1      -1.777  33.901  22.707  1.00  0.00    -0.372 N 
HETATM   25  C3  UNL     1      -2.347  33.486  23.848  1.00  0.00     0.124 A 
ATOM     26  H1  UNL     1      -2.288  33.783  21.832  1.00  0.00     0.164 HD
HETATM   27  C2  UNL     1      -1.719  33.612  25.073  1.00  0.00     0.084 A 
HETATM   28  C20 UNL     1      -0.473  34.186  25.059  1.00  0.00     0.053 A 
BRANCH  27  29
HETATM   29  O1  UNL     1      -2.359  33.164  26.221  1.00  0.00    -0.355 OA
HETATM   30  C1  UNL     1      -1.787  32.293  27.148  1.00  0.00     0.210 C 
ENDBRANCH  27  29
ENDBRANCH   1  22
BRANCH   4  31
HETATM   31  N3  UNL     1       3.020  37.766  22.038  1.00  0.00    -0.219 N 
ATOM     32  H3  UNL     1       2.510  38.639  22.169  1.00  0.00     0.178 HD
BRANCH  31  33
HETATM   33  C8  UNL     1       3.843  37.638  20.865  1.00  0.00     0.125 C 
HETATM   34  C9  UNL     1       3.269  36.622  19.888  1.00  0.00     0.054 C 
HETATM   35  C10 UNL     1       2.130  37.414  19.291  1.00  0.00     0.169 C 
HETATM   36  O2  UNL     1       2.413  38.742  19.417  1.00  0.00    -0.389 OA
HETATM   37  C11 UNL     1       3.625  38.906  20.033  1.00  0.00     0.193 C 
ENDBRANCH  31  33
ENDBRANCH   4  31
TORSDOF 7
ENDMDL
MODEL 4
REMARK VINA RESULT: -7.317516794      3.137      5.546
REMARK  7 active torsions:
REMARK  status: ('A' for Active; 'I' for Inactive)
REMARK    1  A    between atoms: O1_2  and  C2_3 
REMARK    2  A    between atoms: C5_8  and  C6_9 
REMARK    3  A    between atoms: C7_12  and  N3_13 
REMARK    4  A    between atoms: N3_13  and  C8_15 
REMARK    5  A    between atoms: C13_24  and  N5_25 
REMARK    6  A    between atoms: N5_25  and  C14_27 
REMARK    7  A    between atoms: C17_30  and  N6_31 
ROOT
HETATM    1  C6  UNL     1       2.615  34.734  24.549  1.00  0.00     0.090 A 
HETATM    2  N2  UNL     1       3.553  33.752  24.599  1.00  0.00    -0.189 N 
ATOM      3  H2  UNL     1       4.525  34.005  24.422  1.00  0.00     0.184 HD
HETATM    4  C7  UNL     1       3.273  32.470  24.869  1.00  0.00     0.680 A 
HETATM    5  N4  UNL     1       1.999  32.126  25.103  1.00  0.00    -0.179 N 
ATOM      6  H4  UNL     1       1.781  31.151  25.308  1.00  0.00     0.185 HD
HETATM    7  C12 UNL     1       1.007  33.018  25.076  1.00  0.00     0.147 A 
HETATM    8 CL1  UNL     1      -0.619  32.478  25.393  1.00  0.00    -0.061 Cl
HETATM    9  C13 UNL     1       1.323  34.356  24.792  1.00  0.00     0.096 A 
ENDROOT
BRANCH   9  10
HETATM   10  N5  UNL     1       0.245  35.269  24.744  1.00  0.00    -0.381 N 
ATOM     11  H5  UNL     1      -0.058  35.680  25.626  1.00  0.00     0.160 HD
BRANCH  10  12
HETATM   12  C14 UNL     1      -0.461  35.670  23.559  1.00  0.00     0.082 C 
HETATM   13  C15 UNL     1       0.002  37.038  23.067  1.00  0.00     0.027 C 
HETATM   14  C16 UNL     1      -1.001  37.529  22.068  1.00  0.00     0.035 C 
HETATM   15  C17 UNL     1      -1.127  36.566  20.908  1.00  0.00     0.183 C 
HETATM   16  C18 UNL     1      -1.379  35.162  21.346  1.00  0.00     0.035 C 
HETATM   17  C19 UNL     1      -0.361  34.721  22.400  1.00  0.00     0.027 C 
BRANCH  15  18
HETATM   18  N6  UNL     1       0.028  36.645  20.035  1.00  0.00    -0.075 N 
ATOM     19  H63 UNL     1       0.362  37.605  19.940  1.00  0.00     0.274 HD
ATOM     20  H62 UNL     1       0.855  36.234  20.468  1.00  0.00     0.274 HD
ATOM     21  H61 UNL     1      -0.168  36.225  19.127  1.00  0.00     0.274 HD
ENDBRANCH  15  18
ENDBRANCH  10  12
ENDBRANCH   9  10
BRANCH   1  22
HETATM   22  C5  UNL     1       3.059  36.088  24.246  1.00  0.00     0.012 A 
HETATM   23  C4  UNL     1       3.377  36.454  22.958  1.00  0.00     0.101 A 
HETATM   24  N1  UNL     1       3.786  37.715  22.739  1.00  0.00    -0.372 N 
HETATM   25  C3  UNL     1       3.891  38.617  23.724  1.00  0.00     0.124 A 
ATOM     26  H1  UNL     1       4.025  37.995  21.787  1.00  0.00     0.164 HD
HETATM   27  C2  UNL     1       3.585  38.313  25.038  1.00  0.00     0.084 A 
HETATM   28  C20 UNL     1       3.166  37.029  25.280  1.00  0.00     0.053 A 
BRANCH  27  29
HETATM   29  O1  UNL     1       3.713  39.290  26.016  1.00  0.00    -0.355 OA
HETATM   30  C1  UNL     1       3.552  39.056  27.381  1.00  0.00     0.210 C 
ENDBRANCH  27  29
ENDBRANCH   1  22
BRANCH   4  31
HETATM   31  N3  UNL     1       4.247  31.634  24.886  1.00  0.00    -0.219 N 
ATOM     32  H3  UNL     1       5.168  31.981  25.153  1.00  0.00     0.178 HD
BRANCH  31  33
HETATM   33  C8  UNL     1       4.123  30.240  24.553  1.00  0.00     0.125 C 
HETATM   34  C9  UNL     1       3.824  30.044  23.074  1.00  0.00     0.054 C 
HETATM   35  C10 UNL     1       5.183  30.310  22.471  1.00  0.00     0.169 C 
HETATM   36  O2  UNL     1       6.133  30.061  23.417  1.00  0.00    -0.389 OA
HETATM   37  C11 UNL     1       5.539  29.653  24.581  1.00  0.00     0.193 C 
ENDBRANCH  31  33
ENDBRANCH   4  31
TORSDOF 7
ENDMDL
MODEL 5
REMARK VINA RESULT: -7.312030197      3.322      7.639
REMARK  7 active torsions:
REMARK  status: ('A' for Active; 'I' for Inactive)
REMARK    1  A    between atoms: O1_2  and  C2_3 
REMARK    2  A    between atoms: C5_8  and  C6_9 
REMARK    3  A    between atoms: C7_12  and  N3_13 
REMARK    4  A    between atoms: N3_13  and  C8_15 
REMARK    5  A    between atoms: C13_24  and  N5_25 
REMARK    6  A    between atoms: N5_25  and  C14_27 
REMARK    7  A    between atoms: C17_30  and  N6_31 
ROOT
HETATM    1  C6  UNL     1       1.577  36.404  24.170  1.00  0.00     0.090 A 
HETATM    2  N2  UNL     1       0.653  35.610  24.773  1.00  0.00    -0.189 N 
ATOM      3  H2  UNL     1       0.844  35.284  25.721  1.00  0.00     0.184 HD
HETATM    4  C7  UNL     1      -0.493  35.231  24.193  1.00  0.00     0.680 A 
HETATM    5  N4  UNL     1      -0.753  35.653  22.947  1.00  0.00    -0.179 N 
ATOM      6  H4  UNL     1      -1.624  35.366  22.501  1.00  0.00     0.185 HD
HETATM    7  C12 UNL     1       0.091  36.434  22.272  1.00  0.00     0.147 A 
HETATM    8 CL1  UNL     1      -0.332  36.933  20.657  1.00  0.00    -0.061 Cl
HETATM    9  C13 UNL     1       1.287  36.820  22.900  1.00  0.00     0.096 A 
ENDROOT
BRANCH   9  10
HETATM   10  N5  UNL     1       2.172  37.625  22.146  1.00  0.00    -0.381 N 
ATOM     11  H5  UNL     1       1.920  38.606  22.025  1.00  0.00     0.160 HD
BRANCH  10  12
HETATM   12  C14 UNL     1       3.394  37.182  21.536  1.00  0.00     0.082 C 
HETATM   13  C15 UNL     1       3.134  36.486  20.203  1.00  0.00     0.027 C 
HETATM   14  C16 UNL     1       4.384  35.759  19.814  1.00  0.00     0.035 C 
HETATM   15  C17 UNL     1       5.551  36.714  19.692  1.00  0.00     0.183 C 
HETATM   16  C18 UNL     1       5.727  37.571  20.901  1.00  0.00     0.035 C 
HETATM   17  C19 UNL     1       4.414  38.255  21.288  1.00  0.00     0.027 C 
BRANCH  15  18
HETATM   18  N6  UNL     1       5.447  37.516  18.489  1.00  0.00    -0.075 N 
ATOM     19  H63 UNL     1       4.986  37.005  17.736  1.00  0.00     0.274 HD
ATOM     20  H62 UNL     1       4.772  38.273  18.600  1.00  0.00     0.274 HD
ATOM     21  H61 UNL     1       6.359  37.867  18.200  1.00  0.00     0.274 HD
ENDBRANCH  15  18
ENDBRANCH  10  12
ENDBRANCH   9  10
BRANCH   1  22
HETATM   22  C5  UNL     1       2.781  36.740  24.917  1.00  0.00     0.012 A 
HETATM   23  C4  UNL     1       2.903  37.955  25.550  1.00  0.00     0.101 A 
HETATM   24  N1  UNL     1       4.039  38.213  26.219  1.00  0.00    -0.372 N 
HETATM   25  C3  UNL     1       5.046  37.330  26.289  1.00  0.00     0.124 A 
ATOM     26  H1  UNL     1       4.140  39.112  26.691  1.00  0.00     0.164 HD
HETATM   27  C2  UNL     1       4.986  36.093  25.677  1.00  0.00     0.084 A 
HETATM   28  C20 UNL     1       3.832  35.813  24.988  1.00  0.00     0.053 A 
BRANCH  27  29
HETATM   29  O1  UNL     1       6.060  35.220  25.784  1.00  0.00    -0.355 OA
HETATM   30  C1  UNL     1       6.676  34.880  26.988  1.00  0.00     0.210 C 
ENDBRANCH  27  29
ENDBRANCH   1  22
BRANCH   4  31
HETATM   31  N3  UNL     1      -1.285  34.477  24.865  1.00  0.00    -0.219 N 
ATOM     32  H3  UNL     1      -1.834  34.907  25.609  1.00  0.00     0.178 HD
BRANCH  31  33
HETATM   33  C8  UNL     1      -1.449  33.067  24.637  1.00  0.00     0.125 C 
HETATM   34  C9  UNL     1      -0.122  32.327  24.734  1.00  0.00     0.054 C 
HETATM   35  C10 UNL     1       0.081  32.301  26.230  1.00  0.00     0.169 C 
HETATM   36  O2  UNL     1      -1.138  32.406  26.834  1.00  0.00    -0.389 OA
HETATM   37  C11 UNL     1      -2.123  32.493  25.888  1.00  0.00     0.193 C 
ENDBRANCH  31  33
ENDBRANCH   4  31
TORSDOF 7
ENDMDL
