MODEL 1
REMARK VINA RESULT: -6.647156577      0.000      0.000
REMARK  2 active torsions:
REMARK  status: ('A' for Active; 'I' for Inactive)
REMARK    1  A    between atoms: C8_8  and  C9_9 
REMARK    2  A    between atoms: N3_16  and  N4_17 
ROOT
HETATM    1  C9  UNL     1     -17.466  -1.409 -24.922  1.00  0.00     0.125 A 
HETATM    2  N1  UNL     1     -17.016  -1.958 -23.782  1.00  0.00    -0.285 N 
ATOM      3  H1  UNL     1     -16.306  -2.688 -23.724  1.00  0.00     0.188 HD
HETATM    4  N2  UNL     1     -17.639  -1.403 -22.731  1.00  0.00    -0.273 N 
ATOM      5  H2  UNL     1     -17.486  -1.636 -21.750  1.00  0.00     0.189 HD
HETATM    6  C10 UNL     1     -18.494  -0.491 -23.203  1.00  0.00     0.213 A 
HETATM    7  S1  UNL     1     -19.481   0.449 -22.305  1.00  0.00    -0.037 SA
HETATM    8  N3  UNL     1     -18.382  -0.500 -24.561  1.00  0.00    -0.221 N 
ENDROOT
BRANCH   1   9
HETATM    9  C8  UNL     1     -17.024  -1.752 -26.292  1.00  0.00     0.064 C 
HETATM   10  C2  UNL     1     -17.570  -3.097 -26.694  1.00  0.00    -0.037 C 
HETATM   11  C1  UNL     1     -17.341  -4.160 -25.661  1.00  0.00     0.015 C 
HETATM   12  C3  UNL     1     -19.069  -2.956 -26.879  1.00  0.00     0.015 C 
HETATM   13  C4  UNL     1     -16.996  -3.560 -28.001  1.00  0.00     0.009 C 
HETATM   14  C5  UNL     1     -15.502  -3.692 -27.825  1.00  0.00     0.001 C 
HETATM   15  C6  UNL     1     -14.913  -2.338 -27.529  1.00  0.00     0.001 C 
HETATM   16  C7  UNL     1     -15.534  -1.668 -26.340  1.00  0.00     0.013 C 
ENDBRANCH   1   9
BRANCH   8  17
HETATM   17  N4  UNL     1     -19.138   0.337 -25.382  1.00  0.00    -0.335 N 
ATOM     18  H42 UNL     1     -18.746   0.801 -26.202  1.00  0.00     0.177 HD
ATOM     19  H41 UNL     1     -20.122   0.591 -25.291  1.00  0.00     0.177 HD
ENDBRANCH   8  17
TORSDOF 2
ENDMDL
MODEL 2
REMARK VINA RESULT: -6.056101133      3.554      4.685
REMARK  2 active torsions:
REMARK  status: ('A' for Active; 'I' for Inactive)
REMARK    1  A    between atoms: C8_8  and  C9_9 
REMARK    2  A    between atoms: N3_16  and  N4_17 
ROOT
HETATM    1  C9  UNL     1     -15.890  -0.905 -27.385  1.00  0.00     0.125 A 
HETATM    2  N1  UNL     1     -16.879  -0.172 -27.922  1.00  0.00    -0.285 N 
ATOM      3  H1  UNL     1     -17.867  -0.261 -27.687  1.00  0.00     0.188 HD
HETATM    4  N2  UNL     1     -16.373   0.694 -28.813  1.00  0.00    -0.273 N 
ATOM      5  H2  UNL     1     -16.903   1.368 -29.364  1.00  0.00     0.189 HD
HETATM    6  C10 UNL     1     -15.049   0.515 -28.845  1.00  0.00     0.213 A 
HETATM    7  S1  UNL     1     -13.995   1.339 -29.780  1.00  0.00    -0.037 SA
HETATM    8  N3  UNL     1     -14.757  -0.478 -27.959  1.00  0.00    -0.221 N 
ENDROOT
BRANCH   1   9
HETATM    9  C8  UNL     1     -16.043  -1.966 -26.364  1.00  0.00     0.064 C 
HETATM   10  C2  UNL     1     -16.535  -3.237 -27.004  1.00  0.00    -0.037 C 
HETATM   11  C1  UNL     1     -17.723  -3.028 -27.894  1.00  0.00     0.015 C 
HETATM   12  C3  UNL     1     -15.414  -3.793 -27.862  1.00  0.00     0.015 C 
HETATM   13  C4  UNL     1     -16.875  -4.278 -25.978  1.00  0.00     0.009 C 
HETATM   14  C5  UNL     1     -17.984  -3.726 -25.114  1.00  0.00     0.001 C 
HETATM   15  C6  UNL     1     -17.485  -2.511 -24.376  1.00  0.00     0.001 C 
HETATM   16  C7  UNL     1     -16.934  -1.452 -25.282  1.00  0.00     0.013 C 
ENDBRANCH   1   9
BRANCH   8  17
HETATM   17  N4  UNL     1     -13.454  -0.926 -27.736  1.00  0.00    -0.335 N 
ATOM     18  H42 UNL     1     -13.194  -1.468 -26.912  1.00  0.00     0.177 HD
ATOM     19  H41 UNL     1     -12.630  -0.789 -28.323  1.00  0.00     0.177 HD
ENDBRANCH   8  17
TORSDOF 2
ENDMDL
MODEL 3
REMARK VINA RESULT: -5.889556830      1.299      2.851
REMARK  2 active torsions:
REMARK  status: ('A' for Active; 'I' for Inactive)
REMARK    1  A    between atoms: C8_8  and  C9_9 
REMARK    2  A    between atoms: N3_16  and  N4_17 
ROOT
HETATM    1  C9  UNL     1     -18.258  -1.381 -26.093  1.00  0.00     0.125 A 
HETATM    2  N1  UNL     1     -18.863  -0.230 -26.428  1.00  0.00    -0.285 N 
ATOM      3  H1  UNL     1     -19.024   0.091 -27.382  1.00  0.00     0.188 HD
HETATM    4  N2  UNL     1     -19.225   0.435 -25.319  1.00  0.00    -0.273 N 
ATOM      5  H2  UNL     1     -19.701   1.335 -25.287  1.00  0.00     0.189 HD
HETATM    6  C10 UNL     1     -18.848  -0.298 -24.267  1.00  0.00     0.213 A 
HETATM    7  S1  UNL     1     -19.070   0.096 -22.699  1.00  0.00    -0.037 SA
HETATM    8  N3  UNL     1     -18.249  -1.421 -24.754  1.00  0.00    -0.221 N 
ENDROOT
BRANCH   1   9
HETATM    9  C8  UNL     1     -17.717  -2.390 -27.032  1.00  0.00     0.064 C 
HETATM   10  C2  UNL     1     -16.436  -1.894 -27.649  1.00  0.00    -0.037 C 
HETATM   11  C1  UNL     1     -16.545  -0.502 -28.196  1.00  0.00     0.015 C 
HETATM   12  C3  UNL     1     -15.373  -1.876 -26.567  1.00  0.00     0.015 C 
HETATM   13  C4  UNL     1     -15.956  -2.807 -28.738  1.00  0.00     0.009 C 
HETATM   14  C5  UNL     1     -17.016  -2.836 -29.813  1.00  0.00     0.001 C 
HETATM   15  C6  UNL     1     -18.281  -3.430 -29.252  1.00  0.00     0.001 C 
HETATM   16  C7  UNL     1     -18.778  -2.720 -28.028  1.00  0.00     0.013 C 
ENDBRANCH   1   9
BRANCH   8  17
HETATM   17  N4  UNL     1     -17.731  -2.416 -23.923  1.00  0.00    -0.335 N 
ATOM     18  H42 UNL     1     -18.204  -2.720 -23.072  1.00  0.00     0.177 HD
ATOM     19  H41 UNL     1     -16.867  -2.947 -24.036  1.00  0.00     0.177 HD
ENDBRANCH   8  17
TORSDOF 2
ENDMDL
MODEL 4
REMARK VINA RESULT: -5.790870274      1.608      2.018
REMARK  2 active torsions:
REMARK  status: ('A' for Active; 'I' for Inactive)
REMARK    1  A    between atoms: C8_8  and  C9_9 
REMARK    2  A    between atoms: N3_16  and  N4_17 
ROOT
HETATM    1  C9  UNL     1     -18.101  -1.241 -24.480  1.00  0.00     0.125 A 
HETATM    2  N1  UNL     1     -18.805  -2.375 -24.335  1.00  0.00    -0.285 N 
ATOM      3  H1  UNL     1     -18.833  -3.138 -25.011  1.00  0.00     0.188 HD
HETATM    4  N2  UNL     1     -19.466  -2.355 -23.168  1.00  0.00    -0.273 N 
ATOM      5  H2  UNL     1     -20.075  -3.089 -22.808  1.00  0.00     0.189 HD
HETATM    6  C10 UNL     1     -19.182  -1.198 -22.561  1.00  0.00     0.213 A 
HETATM    7  S1  UNL     1     -19.752  -0.713 -21.111  1.00  0.00    -0.037 SA
HETATM    8  N3  UNL     1     -18.335  -0.513 -23.381  1.00  0.00    -0.221 N 
ENDROOT
BRANCH   1   9
HETATM    9  C8  UNL     1     -17.241  -0.888 -25.633  1.00  0.00     0.064 C 
HETATM   10  C2  UNL     1     -18.051  -0.877 -26.903  1.00  0.00    -0.037 C 
HETATM   11  C1  UNL     1     -18.887  -2.109 -27.080  1.00  0.00     0.015 C 
HETATM   12  C3  UNL     1     -18.995   0.310 -26.844  1.00  0.00     0.015 C 
HETATM   13  C4  UNL     1     -17.182  -0.702 -28.113  1.00  0.00     0.009 C 
HETATM   14  C5  UNL     1     -16.233  -1.876 -28.170  1.00  0.00     0.001 C 
HETATM   15  C6  UNL     1     -15.335  -1.851 -26.962  1.00  0.00     0.001 C 
HETATM   16  C7  UNL     1     -16.085  -1.831 -25.664  1.00  0.00     0.013 C 
ENDBRANCH   1   9
BRANCH   8  17
HETATM   17  N4  UNL     1     -17.832   0.747 -23.056  1.00  0.00    -0.335 N 
ATOM     18  H42 UNL     1     -18.126   1.257 -22.223  1.00  0.00     0.177 HD
ATOM     19  H41 UNL     1     -17.146   1.304 -23.566  1.00  0.00     0.177 HD
ENDBRANCH   8  17
TORSDOF 2
ENDMDL
MODEL 5
REMARK VINA RESULT: -5.731089685      4.229      5.341
REMARK  2 active torsions:
REMARK  status: ('A' for Active; 'I' for Inactive)
REMARK    1  A    between atoms: C8_8  and  C9_9 
REMARK    2  A    between atoms: N3_16  and  N4_17 
ROOT
HETATM    1  C9  UNL     1     -17.352  -1.568 -29.020  1.00  0.00     0.125 A 
HETATM    2  N1  UNL     1     -17.441  -2.606 -29.866  1.00  0.00    -0.285 N 
ATOM      3  H1  UNL     1     -17.634  -3.570 -29.593  1.00  0.00     0.188 HD
HETATM    4  N2  UNL     1     -17.240  -2.188 -31.125  1.00  0.00    -0.273 N 
ATOM      5  H2  UNL     1     -17.253  -2.770 -31.962  1.00  0.00     0.189 HD
HETATM    6  C10 UNL     1     -17.022  -0.870 -31.084  1.00  0.00     0.213 A 
HETATM    7  S1  UNL     1     -16.726   0.092 -32.369  1.00  0.00    -0.037 SA
HETATM    8  N3  UNL     1     -17.092  -0.493 -29.776  1.00  0.00    -0.221 N 
ENDROOT
BRANCH   1   9
HETATM    9  C8  UNL     1     -17.514  -1.622 -27.549  1.00  0.00     0.064 C 
HETATM   10  C2  UNL     1     -16.264  -2.161 -26.907  1.00  0.00    -0.037 C 
HETATM   11  C1  UNL     1     -15.771  -3.426 -27.545  1.00  0.00     0.015 C 
HETATM   12  C3  UNL     1     -15.173  -1.118 -27.060  1.00  0.00     0.015 C 
HETATM   13  C4  UNL     1     -16.454  -2.401 -25.438  1.00  0.00     0.009 C 
HETATM   14  C5  UNL     1     -17.547  -3.432 -25.280  1.00  0.00     0.001 C 
HETATM   15  C6  UNL     1     -18.839  -2.876 -25.817  1.00  0.00     0.001 C 
HETATM   16  C7  UNL     1     -18.740  -2.415 -27.241  1.00  0.00     0.013 C 
ENDBRANCH   1   9
BRANCH   8  17
HETATM   17  N4  UNL     1     -16.910   0.829 -29.365  1.00  0.00    -0.335 N 
ATOM     18  H42 UNL     1     -16.295   1.083 -28.592  1.00  0.00     0.177 HD
ATOM     19  H41 UNL     1     -17.334   1.674 -29.749  1.00  0.00     0.177 HD
ENDBRANCH   8  17
TORSDOF 2
ENDMDL
