MODEL 1
REMARK VINA RESULT: -5.380164480      0.000      0.000
REMARK  0 active torsions:
REMARK  status: ('A' for Active; 'I' for Inactive)
ROOT
HETATM    1  C1  UNL     1     -18.965   0.737 -27.684  1.00  0.00     0.128 A 
HETATM    2  N1  UNL     1     -19.267   0.721 -26.360  1.00  0.00    -0.357 N 
ATOM      3  H1  UNL     1     -19.908   1.359 -25.887  1.00  0.00     0.166 HD
HETATM    4  C2  UNL     1     -18.593  -0.261 -25.789  1.00  0.00     0.082 A 
HETATM    5  C3  UNL     1     -17.864  -0.868 -26.753  1.00  0.00     0.049 A 
HETATM    6  C4  UNL     1     -18.067  -0.267 -27.969  1.00  0.00     0.121 A 
HETATM    7  O1  UNL     1     -17.266  -0.954 -28.921  1.00  0.00    -0.240 OA
HETATM    8  N2  UNL     1     -16.198  -1.560 -28.178  1.00  0.00    -0.068 NA
HETATM    9  C5  UNL     1     -16.918  -1.940 -27.003  1.00  0.00     0.138 C 
HETATM   10  C6  UNL     1     -16.166  -2.077 -25.708  1.00  0.00     0.052 C 
HETATM   11  C7  UNL     1     -17.349  -2.673 -24.892  1.00  0.00     0.008 C 
HETATM   12  C8  UNL     1     -17.429  -2.002 -23.660  1.00  0.00     0.086 C 
HETATM   13  S1  UNL     1     -18.649  -0.624 -23.981  1.00  0.00    -0.111 SA
HETATM   14  C9  UNL     1     -17.185  -4.068 -25.278  1.00  0.00     0.082 C 
HETATM   15  S2  UNL     1     -17.531  -3.655 -27.096  1.00  0.00    -0.134 SA
ENDROOT
TORSDOF 0
ENDMDL
MODEL 2
REMARK VINA RESULT: -5.132126246      1.845      2.121
REMARK  0 active torsions:
REMARK  status: ('A' for Active; 'I' for Inactive)
ROOT
HETATM    1  C1  UNL     1     -16.270   0.374 -29.524  1.00  0.00     0.128 A 
HETATM    2  N1  UNL     1     -17.356   0.663 -28.763  1.00  0.00    -0.357 N 
ATOM      3  H1  UNL     1     -18.029   1.408 -28.943  1.00  0.00     0.166 HD
HETATM    4  C2  UNL     1     -17.395  -0.185 -27.750  1.00  0.00     0.082 A 
HETATM    5  C3  UNL     1     -16.333  -1.013 -27.872  1.00  0.00     0.049 A 
HETATM    6  C4  UNL     1     -15.591  -0.694 -28.981  1.00  0.00     0.121 A 
HETATM    7  O1  UNL     1     -14.496  -1.599 -29.034  1.00  0.00    -0.240 OA
HETATM    8  N2  UNL     1     -14.292  -2.054 -27.688  1.00  0.00    -0.068 NA
HETATM    9  C5  UNL     1     -15.653  -2.140 -27.261  1.00  0.00     0.138 C 
HETATM   10  C6  UNL     1     -15.960  -2.005 -25.795  1.00  0.00     0.052 C 
HETATM   11  C7  UNL     1     -17.469  -2.369 -25.908  1.00  0.00     0.008 C 
HETATM   12  C8  UNL     1     -18.213  -1.438 -25.166  1.00  0.00     0.086 C 
HETATM   13  S1  UNL     1     -18.673  -0.133 -26.421  1.00  0.00    -0.111 SA
HETATM   14  C9  UNL     1     -17.335  -3.820 -25.873  1.00  0.00     0.082 C 
HETATM   15  S2  UNL     1     -16.340  -3.815 -27.487  1.00  0.00    -0.134 SA
ENDROOT
TORSDOF 0
ENDMDL
MODEL 3
REMARK VINA RESULT: -5.067551288      2.547      3.435
REMARK  0 active torsions:
REMARK  status: ('A' for Active; 'I' for Inactive)
ROOT
HETATM    1  C1  UNL     1     -18.738  -0.071 -24.517  1.00  0.00     0.128 A 
HETATM    2  N1  UNL     1     -18.303   0.519 -25.659  1.00  0.00    -0.357 N 
ATOM      3  H1  UNL     1     -18.170   1.521 -25.799  1.00  0.00     0.166 HD
HETATM    4  C2  UNL     1     -18.080  -0.422 -26.559  1.00  0.00     0.082 A 
HETATM    5  C3  UNL     1     -18.373  -1.611 -25.984  1.00  0.00     0.049 A 
HETATM    6  C4  UNL     1     -18.796  -1.436 -24.691  1.00  0.00     0.121 A 
HETATM    7  O1  UNL     1     -19.089  -2.723 -24.163  1.00  0.00    -0.240 OA
HETATM    8  N2  UNL     1     -19.377  -3.560 -25.293  1.00  0.00    -0.068 NA
HETATM    9  C5  UNL     1     -18.417  -3.043 -26.217  1.00  0.00     0.138 C 
HETATM   10  C6  UNL     1     -18.692  -3.168 -27.690  1.00  0.00     0.052 C 
HETATM   11  C7  UNL     1     -17.301  -2.657 -28.162  1.00  0.00     0.008 C 
HETATM   12  C8  UNL     1     -17.492  -1.715 -29.186  1.00  0.00     0.086 C 
HETATM   13  S1  UNL     1     -17.528  -0.078 -28.285  1.00  0.00    -0.111 SA
HETATM   14  C9  UNL     1     -16.573  -3.915 -28.065  1.00  0.00     0.082 C 
HETATM   15  S2  UNL     1     -16.859  -3.991 -26.192  1.00  0.00    -0.134 SA
ENDROOT
TORSDOF 0
ENDMDL
MODEL 4
REMARK VINA RESULT: -4.966129748      2.617      4.580
REMARK  0 active torsions:
REMARK  status: ('A' for Active; 'I' for Inactive)
ROOT
HETATM    1  C1  UNL     1     -15.845  -5.415 -26.861  1.00  0.00     0.128 A 
HETATM    2  N1  UNL     1     -15.149  -4.651 -27.742  1.00  0.00    -0.357 N 
ATOM      3  H1  UNL     1     -14.459  -4.993 -28.411  1.00  0.00     0.166 HD
HETATM    4  C2  UNL     1     -15.515  -3.392 -27.585  1.00  0.00     0.082 A 
HETATM    5  C3  UNL     1     -16.447  -3.358 -26.605  1.00  0.00     0.049 A 
HETATM    6  C4  UNL     1     -16.685  -4.618 -26.116  1.00  0.00     0.121 A 
HETATM    7  O1  UNL     1     -17.664  -4.497 -25.092  1.00  0.00    -0.240 OA
HETATM    8  N2  UNL     1     -17.571  -3.148 -24.611  1.00  0.00    -0.068 NA
HETATM    9  C5  UNL     1     -17.315  -2.476 -25.846  1.00  0.00     0.138 C 
HETATM   10  C6  UNL     1     -16.575  -1.167 -25.818  1.00  0.00     0.052 C 
HETATM   11  C7  UNL     1     -16.768  -0.835 -27.326  1.00  0.00     0.008 C 
HETATM   12  C8  UNL     1     -15.535  -0.418 -27.855  1.00  0.00     0.086 C 
HETATM   13  S1  UNL     1     -14.787  -1.989 -28.536  1.00  0.00    -0.111 SA
HETATM   14  C9  UNL     1     -18.090  -0.231 -27.238  1.00  0.00     0.082 C 
HETATM   15  S2  UNL     1     -18.845  -1.859 -26.624  1.00  0.00    -0.134 SA
ENDROOT
TORSDOF 0
ENDMDL
MODEL 5
REMARK VINA RESULT: -4.956485126      2.279      3.726
REMARK  0 active torsions:
REMARK  status: ('A' for Active; 'I' for Inactive)
ROOT
HETATM    1  C1  UNL     1     -17.103  -4.581 -25.265  1.00  0.00     0.128 A 
HETATM    2  N1  UNL     1     -17.729  -3.504 -24.727  1.00  0.00    -0.357 N 
ATOM      3  H1  UNL     1     -18.150  -3.461 -23.799  1.00  0.00     0.166 HD
HETATM    4  C2  UNL     1     -17.701  -2.520 -25.609  1.00  0.00     0.082 A 
HETATM    5  C3  UNL     1     -17.054  -2.976 -26.706  1.00  0.00     0.049 A 
HETATM    6  C4  UNL     1     -16.660  -4.278 -26.533  1.00  0.00     0.121 A 
HETATM    7  O1  UNL     1     -15.998  -4.682 -27.724  1.00  0.00    -0.240 OA
HETATM    8  N2  UNL     1     -16.501  -3.832 -28.766  1.00  0.00    -0.068 NA
HETATM    9  C5  UNL     1     -16.607  -2.607 -28.036  1.00  0.00     0.138 C 
HETATM   10  C6  UNL     1     -17.608  -1.580 -28.490  1.00  0.00     0.052 C 
HETATM   11  C7  UNL     1     -17.150  -0.460 -27.512  1.00  0.00     0.008 C 
HETATM   12  C8  UNL     1     -18.287   0.103 -26.910  1.00  0.00     0.086 C 
HETATM   13  S1  UNL     1     -18.485  -0.874 -25.329  1.00  0.00    -0.111 SA
HETATM   14  C9  UNL     1     -16.054   0.076 -28.309  1.00  0.00     0.082 C 
HETATM   15  S2  UNL     1     -15.117  -1.570 -28.212  1.00  0.00    -0.134 SA
ENDROOT
TORSDOF 0
ENDMDL
