MODEL 1
REMARK VINA RESULT: -8.828920703      0.000      0.000
REMARK  6 active torsions:
REMARK  status: ('A' for Active; 'I' for Inactive)
REMARK    1  A    between atoms: N2_3  and  C2_5 
REMARK    2  A    between atoms: C4_7  and  C5_8 
REMARK    3  A    between atoms: C6_11  and  N4_12 
REMARK    4  A    between atoms: N6_22  and  C14_23 
REMARK    5  A    between atoms: C14_23  and  C15_24 
REMARK    6  A    between atoms: C15_24  and  O1_25 
ROOT
HETATM    1  N1  UNL     1     -38.036  -8.985  20.358  1.00  0.00    -0.172 NA
HETATM    2  C1  UNL     1     -38.172  -8.228  21.214  1.00  0.00     0.183 C 
HETATM    3  N2  UNL     1     -38.331  -7.290  22.233  1.00  0.00    -0.278 N 
ATOM      4  H2  UNL     1     -38.785  -6.402  22.014  1.00  0.00     0.179 HD
ENDROOT
BRANCH   3   5
HETATM    5  C2  UNL     1     -37.932  -7.496  23.435  1.00  0.00     0.131 A 
HETATM    6  C3  UNL     1     -36.819  -8.292  23.730  1.00  0.00     0.083 A 
HETATM    7  C4  UNL     1     -36.613  -8.354  25.071  1.00  0.00     0.079 A 
HETATM    8  N7  UNL     1     -37.628  -7.570  25.559  1.00  0.00    -0.297 N 
HETATM    9  N8  UNL     1     -38.375  -7.089  24.599  1.00  0.00    -0.284 N 
ATOM     10  H7  UNL     1     -37.783  -7.385  26.550  1.00  0.00     0.187 HD
ATOM     11  H8  UNL     1     -39.185  -6.485  24.736  1.00  0.00     0.188 HD
BRANCH   7  12
HETATM   12  C5  UNL     1     -35.578  -8.828  25.983  1.00  0.00     0.075 A 
HETATM   13  N3  UNL     1     -35.439  -8.144  27.125  1.00  0.00    -0.339 N 
HETATM   14  C6  UNL     1     -34.413  -8.294  27.953  1.00  0.00     0.118 A 
ATOM     15  H3  UNL     1     -36.162  -7.469  27.373  1.00  0.00     0.167 HD
HETATM   16  C12 UNL     1     -33.446  -9.202  27.605  1.00  0.00     0.054 A 
HETATM   17  C13 UNL     1     -32.271  -9.525  28.227  1.00  0.00     0.124 A 
HETATM   18  C16 UNL     1     -33.500  -9.981  26.427  1.00  0.00     0.079 A 
HETATM   19  N5  UNL     1     -31.675 -10.410  27.486  1.00  0.00    -0.308 N 
HETATM   20  N6  UNL     1     -32.411 -10.712  26.360  1.00  0.00    -0.289 N 
ATOM     21  H5  UNL     1     -30.773 -10.829  27.710  1.00  0.00     0.186 HD
HETATM   22  C17 UNL     1     -34.644  -9.778  25.588  1.00  0.00     0.025 A 
HETATM   23  C18 UNL     1     -35.075 -10.842  24.736  1.00  0.00    -0.065 C 
HETATM   24  C19 UNL     1     -34.692 -11.417  23.476  1.00  0.00     0.035 C 
HETATM   25  C23 UNL     1     -36.444 -11.418  25.146  1.00  0.00     0.035 C 
HETATM   26  C20 UNL     1     -35.050 -12.947  23.456  1.00  0.00     0.004 C 
HETATM   27  C21 UNL     1     -36.507 -13.165  23.394  1.00  0.00     0.001 C 
HETATM   28  C22 UNL     1     -37.244 -12.080  24.105  1.00  0.00     0.004 C 
BRANCH  14  29
HETATM   29  N4  UNL     1     -34.332  -7.585  29.187  1.00  0.00    -0.366 N 
HETATM   30  C7  UNL     1     -35.402  -7.788  30.116  1.00  0.00     0.124 C 
HETATM   31  C8  UNL     1     -35.509  -6.671  31.132  1.00  0.00     0.020 C 
HETATM   32  C9  UNL     1     -34.957  -5.414  30.471  1.00  0.00     0.003 C 
HETATM   33  C10 UNL     1     -33.470  -5.611  30.355  1.00  0.00     0.020 C 
HETATM   34  C11 UNL     1     -33.190  -6.750  29.409  1.00  0.00     0.124 C 
ENDBRANCH  14  29
BRANCH  20  35
HETATM   35  C14 UNL     1     -31.906 -11.620  25.410  1.00  0.00     0.175 C 
BRANCH  35  36
HETATM   36  C15 UNL     1     -30.942 -10.861  24.483  1.00  0.00     0.185 C 
BRANCH  36  37
HETATM   37  O1  UNL     1     -30.873 -11.636  23.309  1.00  0.00    -0.399 OA
ATOM     38  H1  UNL     1     -29.991 -11.991  23.296  1.00  0.00     0.209 HD
ENDBRANCH  36  37
ENDBRANCH  35  36
ENDBRANCH  20  35
ENDBRANCH   7  12
ENDBRANCH   3   5
TORSDOF 6
ENDMDL
MODEL 2
REMARK VINA RESULT: -8.639037099      0.533      1.008
REMARK  6 active torsions:
REMARK  status: ('A' for Active; 'I' for Inactive)
REMARK    1  A    between atoms: N2_3  and  C2_5 
REMARK    2  A    between atoms: C4_7  and  C5_8 
REMARK    3  A    between atoms: C6_11  and  N4_12 
REMARK    4  A    between atoms: N6_22  and  C14_23 
REMARK    5  A    between atoms: C14_23  and  C15_24 
REMARK    6  A    between atoms: C15_24  and  O1_25 
ROOT
HETATM    1  N1  UNL     1     -38.071  -8.941  19.997  1.00  0.00    -0.172 NA
HETATM    2  C1  UNL     1     -38.087  -8.122  20.806  1.00  0.00     0.183 C 
HETATM    3  N2  UNL     1     -38.096  -7.112  21.767  1.00  0.00    -0.278 N 
ATOM      4  H2  UNL     1     -38.328  -6.162  21.477  1.00  0.00     0.179 HD
ENDROOT
BRANCH   3   5
HETATM    5  C2  UNL     1     -37.824  -7.327  23.002  1.00  0.00     0.131 A 
HETATM    6  C3  UNL     1     -36.681  -8.026  23.409  1.00  0.00     0.083 A 
HETATM    7  C4  UNL     1     -36.631  -8.122  24.763  1.00  0.00     0.079 A 
HETATM    8  N7  UNL     1     -37.769  -7.458  25.145  1.00  0.00    -0.297 N 
HETATM    9  N8  UNL     1     -38.440  -7.011  24.115  1.00  0.00    -0.284 N 
ATOM     10  H7  UNL     1     -38.058  -7.328  26.114  1.00  0.00     0.187 HD
ATOM     11  H8  UNL     1     -39.316  -6.492  24.169  1.00  0.00     0.188 HD
BRANCH   7  12
HETATM   12  C5  UNL     1     -35.670  -8.533  25.780  1.00  0.00     0.075 A 
HETATM   13  N3  UNL     1     -35.565  -7.734  26.849  1.00  0.00    -0.339 N 
HETATM   14  C6  UNL     1     -34.594  -7.831  27.749  1.00  0.00     0.118 A 
ATOM     15  H3  UNL     1     -36.270  -7.009  26.979  1.00  0.00     0.167 HD
HETATM   16  C12 UNL     1     -33.650  -8.809  27.557  1.00  0.00     0.054 A 
HETATM   17  C13 UNL     1     -32.527  -9.106  28.280  1.00  0.00     0.124 A 
HETATM   18  C16 UNL     1     -33.673  -9.708  26.468  1.00  0.00     0.079 A 
HETATM   19  N5  UNL     1     -31.931 -10.088  27.675  1.00  0.00    -0.308 N 
HETATM   20  N6  UNL     1     -32.615 -10.484  26.546  1.00  0.00    -0.289 N 
ATOM     21  H5  UNL     1     -31.062 -10.515  27.996  1.00  0.00     0.186 HD
HETATM   22  C17 UNL     1     -34.758  -9.556  25.546  1.00  0.00     0.025 A 
HETATM   23  C18 UNL     1     -35.189 -10.689  24.788  1.00  0.00    -0.065 C 
HETATM   24  C19 UNL     1     -34.762 -11.413  23.622  1.00  0.00     0.035 C 
HETATM   25  C23 UNL     1     -36.602 -11.164  25.175  1.00  0.00     0.035 C 
HETATM   26  C20 UNL     1     -35.186 -12.920  23.744  1.00  0.00     0.004 C 
HETATM   27  C21 UNL     1     -36.645 -13.088  23.618  1.00  0.00     0.001 C 
HETATM   28  C22 UNL     1     -37.372 -11.905  24.164  1.00  0.00     0.004 C 
BRANCH  14  29
HETATM   29  N4  UNL     1     -34.550  -6.996  28.902  1.00  0.00    -0.366 N 
HETATM   30  C7  UNL     1     -33.250  -6.641  29.387  1.00  0.00     0.124 C 
HETATM   31  C8  UNL     1     -33.271  -6.202  30.835  1.00  0.00     0.020 C 
HETATM   32  C9  UNL     1     -34.449  -6.907  31.497  1.00  0.00     0.003 C 
HETATM   33  C10 UNL     1     -35.693  -6.268  30.943  1.00  0.00     0.020 C 
HETATM   34  C11 UNL     1     -35.791  -6.563  29.469  1.00  0.00     0.124 C 
ENDBRANCH  14  29
BRANCH  20  35
HETATM   35  C14 UNL     1     -32.099 -11.509  25.730  1.00  0.00     0.175 C 
BRANCH  35  36
HETATM   36  C15 UNL     1     -31.278 -10.860  24.603  1.00  0.00     0.185 C 
BRANCH  36  37
HETATM   37  O1  UNL     1     -30.973 -11.911  23.717  1.00  0.00    -0.399 OA
ATOM     38  H1  UNL     1     -30.285 -12.406  24.146  1.00  0.00     0.209 HD
ENDBRANCH  36  37
ENDBRANCH  35  36
ENDBRANCH  20  35
ENDBRANCH   7  12
ENDBRANCH   3   5
TORSDOF 6
ENDMDL
MODEL 3
REMARK VINA RESULT: -8.282196890      5.260      9.057
REMARK  6 active torsions:
REMARK  status: ('A' for Active; 'I' for Inactive)
REMARK    1  A    between atoms: N2_3  and  C2_5 
REMARK    2  A    between atoms: C4_7  and  C5_8 
REMARK    3  A    between atoms: C6_11  and  N4_12 
REMARK    4  A    between atoms: N6_22  and  C14_23 
REMARK    5  A    between atoms: C14_23  and  C15_24 
REMARK    6  A    between atoms: C15_24  and  O1_25 
ROOT
HETATM    1  N1  UNL     1     -43.974  -0.742  25.386  1.00  0.00    -0.172 NA
HETATM    2  C1  UNL     1     -43.687  -1.406  24.491  1.00  0.00     0.183 C 
HETATM    3  N2  UNL     1     -43.355  -2.230  23.416  1.00  0.00    -0.278 N 
ATOM      4  H2  UNL     1     -44.071  -2.852  23.038  1.00  0.00     0.179 HD
ENDROOT
BRANCH   3   5
HETATM    5  C2  UNL     1     -42.188  -2.241  22.884  1.00  0.00     0.131 A 
HETATM    6  C3  UNL     1     -41.145  -3.032  23.377  1.00  0.00     0.083 A 
HETATM    7  C4  UNL     1     -40.017  -2.856  22.642  1.00  0.00     0.079 A 
HETATM    8  N7  UNL     1     -40.422  -1.944  21.699  1.00  0.00    -0.297 N 
HETATM    9  N8  UNL     1     -41.675  -1.605  21.860  1.00  0.00    -0.284 N 
ATOM     10  H7  UNL     1     -39.820  -1.576  20.963  1.00  0.00     0.187 HD
ATOM     11  H8  UNL     1     -42.180  -0.940  21.273  1.00  0.00     0.188 HD
BRANCH   7  12
HETATM   12  C5  UNL     1     -38.706  -3.480  22.510  1.00  0.00     0.075 A 
HETATM   13  N3  UNL     1     -38.188  -3.513  21.277  1.00  0.00    -0.339 N 
HETATM   14  C6  UNL     1     -37.125  -4.234  20.942  1.00  0.00     0.118 A 
ATOM     15  H3  UNL     1     -38.636  -2.952  20.552  1.00  0.00     0.167 HD
HETATM   16  C12 UNL     1     -36.536  -4.986  21.927  1.00  0.00     0.054 A 
HETATM   17  C13 UNL     1     -35.478  -5.851  21.863  1.00  0.00     0.124 A 
HETATM   18  C16 UNL     1     -36.997  -5.017  23.262  1.00  0.00     0.079 A 
HETATM   19  N5  UNL     1     -35.325  -6.357  23.050  1.00  0.00    -0.308 N 
HETATM   20  N6  UNL     1     -36.254  -5.862  23.940  1.00  0.00    -0.289 N 
ATOM     21  H5  UNL     1     -34.605  -7.037  23.294  1.00  0.00     0.186 HD
HETATM   22  C17 UNL     1     -38.138  -4.202  23.554  1.00  0.00     0.025 A 
HETATM   23  C18 UNL     1     -38.327  -3.727  24.890  1.00  0.00    -0.065 C 
HETATM   24  C19 UNL     1     -38.811  -4.239  26.142  1.00  0.00     0.035 C 
HETATM   25  C23 UNL     1     -38.173  -2.199  25.007  1.00  0.00     0.035 C 
HETATM   26  C20 UNL     1     -38.089  -3.512  27.332  1.00  0.00     0.004 C 
HETATM   27  C21 UNL     1     -38.521  -2.107  27.456  1.00  0.00     0.001 C 
HETATM   28  C22 UNL     1     -38.859  -1.529  26.122  1.00  0.00     0.004 C 
BRANCH  14  29
HETATM   29  N4  UNL     1     -36.574  -4.198  19.629  1.00  0.00    -0.366 N 
HETATM   30  C7  UNL     1     -36.884  -5.301  18.771  1.00  0.00     0.124 C 
HETATM   31  C8  UNL     1     -35.901  -5.446  17.631  1.00  0.00     0.020 C 
HETATM   32  C9  UNL     1     -34.574  -4.870  18.112  1.00  0.00     0.003 C 
HETATM   33  C10 UNL     1     -34.762  -3.380  18.196  1.00  0.00     0.020 C 
HETATM   34  C11 UNL     1     -35.778  -3.065  19.264  1.00  0.00     0.124 C 
ENDBRANCH  14  29
BRANCH  20  35
HETATM   35  C14 UNL     1     -36.276  -6.326  25.269  1.00  0.00     0.175 C 
BRANCH  35  36
HETATM   36  C15 UNL     1     -37.141  -7.597  25.320  1.00  0.00     0.185 C 
BRANCH  36  37
HETATM   37  O1  UNL     1     -36.912  -8.148  26.596  1.00  0.00    -0.399 OA
ATOM     38  H1  UNL     1     -37.058  -9.081  26.495  1.00  0.00     0.209 HD
ENDBRANCH  36  37
ENDBRANCH  35  36
ENDBRANCH  20  35
ENDBRANCH   7  12
ENDBRANCH   3   5
TORSDOF 6
ENDMDL
MODEL 4
REMARK VINA RESULT: -8.274417760      1.012      1.202
REMARK  6 active torsions:
REMARK  status: ('A' for Active; 'I' for Inactive)
REMARK    1  A    between atoms: N2_3  and  C2_5 
REMARK    2  A    between atoms: C4_7  and  C5_8 
REMARK    3  A    between atoms: C6_11  and  N4_12 
REMARK    4  A    between atoms: N6_22  and  C14_23 
REMARK    5  A    between atoms: C14_23  and  C15_24 
REMARK    6  A    between atoms: C15_24  and  O1_25 
ROOT
HETATM    1  N1  UNL     1     -36.636  -5.239  20.684  1.00  0.00    -0.172 NA
HETATM    2  C1  UNL     1     -37.318  -5.902  21.332  1.00  0.00     0.183 C 
HETATM    3  N2  UNL     1     -38.167  -6.694  22.105  1.00  0.00    -0.278 N 
ATOM      4  H2  UNL     1     -39.017  -7.062  21.677  1.00  0.00     0.179 HD
ENDROOT
BRANCH   3   5
HETATM    5  C2  UNL     1     -37.923  -6.981  23.331  1.00  0.00     0.131 A 
HETATM    6  C3  UNL     1     -36.784  -7.692  23.725  1.00  0.00     0.083 A 
HETATM    7  C4  UNL     1     -36.766  -7.868  25.071  1.00  0.00     0.079 A 
HETATM    8  N7  UNL     1     -37.921  -7.238  25.463  1.00  0.00    -0.297 N 
HETATM    9  N8  UNL     1     -38.570  -6.737  24.445  1.00  0.00    -0.284 N 
ATOM     10  H7  UNL     1     -38.235  -7.169  26.431  1.00  0.00     0.187 HD
ATOM     11  H8  UNL     1     -39.453  -6.229  24.507  1.00  0.00     0.188 HD
BRANCH   7  12
HETATM   12  C5  UNL     1     -35.827  -8.330  26.087  1.00  0.00     0.075 A 
HETATM   13  N3  UNL     1     -35.800  -7.631  27.227  1.00  0.00    -0.339 N 
HETATM   14  C6  UNL     1     -34.861  -7.770  28.155  1.00  0.00     0.118 A 
ATOM     15  H3  UNL     1     -36.542  -6.952  27.394  1.00  0.00     0.167 HD
HETATM   16  C12 UNL     1     -33.866  -8.684  27.915  1.00  0.00     0.054 A 
HETATM   17  C13 UNL     1     -32.759  -8.999  28.655  1.00  0.00     0.124 A 
HETATM   18  C16 UNL     1     -33.806  -9.479  26.749  1.00  0.00     0.079 A 
HETATM   19  N5  UNL     1     -32.095  -9.894  27.988  1.00  0.00    -0.308 N 
HETATM   20  N6  UNL     1     -32.716 -10.212  26.800  1.00  0.00    -0.289 N 
ATOM     21  H5  UNL     1     -31.220 -10.312  28.306  1.00  0.00     0.186 HD
HETATM   22  C17 UNL     1     -34.861  -9.287  25.799  1.00  0.00     0.025 A 
HETATM   23  C18 UNL     1     -35.209 -10.363  24.923  1.00  0.00    -0.065 C 
HETATM   24  C19 UNL     1     -34.705 -10.956  23.715  1.00  0.00     0.035 C 
HETATM   25  C23 UNL     1     -36.612 -10.931  25.205  1.00  0.00     0.035 C 
HETATM   26  C20 UNL     1     -35.063 -12.485  23.681  1.00  0.00     0.004 C 
HETATM   27  C21 UNL     1     -36.507 -12.702  23.479  1.00  0.00     0.001 C 
HETATM   28  C22 UNL     1     -37.308 -11.607  24.100  1.00  0.00     0.004 C 
BRANCH  14  29
HETATM   29  N4  UNL     1     -34.899  -7.044  29.380  1.00  0.00    -0.366 N 
HETATM   30  C7  UNL     1     -35.708  -5.863  29.402  1.00  0.00     0.124 C 
HETATM   31  C8  UNL     1     -35.317  -4.911  30.511  1.00  0.00     0.020 C 
HETATM   32  C9  UNL     1     -33.835  -5.137  30.790  1.00  0.00     0.003 C 
HETATM   33  C10 UNL     1     -33.729  -6.481  31.458  1.00  0.00     0.020 C 
HETATM   34  C11 UNL     1     -34.151  -7.554  30.489  1.00  0.00     0.124 C 
ENDBRANCH  14  29
BRANCH  20  35
HETATM   35  C14 UNL     1     -32.123 -11.134  25.916  1.00  0.00     0.175 C 
BRANCH  35  36
HETATM   36  C15 UNL     1     -31.320 -10.347  24.867  1.00  0.00     0.185 C 
BRANCH  36  37
HETATM   37  O1  UNL     1     -30.929 -11.302  23.909  1.00  0.00    -0.399 OA
ATOM     38  H1  UNL     1     -30.851 -12.118  24.389  1.00  0.00     0.209 HD
ENDBRANCH  36  37
ENDBRANCH  35  36
ENDBRANCH  20  35
ENDBRANCH   7  12
ENDBRANCH   3   5
TORSDOF 6
ENDMDL
MODEL 5
REMARK VINA RESULT: -8.141039098      3.043      6.707
REMARK  6 active torsions:
REMARK  status: ('A' for Active; 'I' for Inactive)
REMARK    1  A    between atoms: N2_3  and  C2_5 
REMARK    2  A    between atoms: C4_7  and  C5_8 
REMARK    3  A    between atoms: C6_11  and  N4_12 
REMARK    4  A    between atoms: N6_22  and  C14_23 
REMARK    5  A    between atoms: C14_23  and  C15_24 
REMARK    6  A    between atoms: C15_24  and  O1_25 
ROOT
HETATM    1  N1  UNL     1     -34.312  -6.465  31.672  1.00  0.00    -0.172 NA
HETATM    2  C1  UNL     1     -34.161  -7.255  30.850  1.00  0.00     0.183 C 
HETATM    3  N2  UNL     1     -33.961  -8.227  29.870  1.00  0.00    -0.278 N 
ATOM      4  H2  UNL     1     -33.860  -9.200  30.159  1.00  0.00     0.179 HD
ENDROOT
BRANCH   3   5
HETATM    5  C2  UNL     1     -33.900  -7.949  28.619  1.00  0.00     0.131 A 
HETATM    6  C3  UNL     1     -35.040  -7.852  27.814  1.00  0.00     0.083 A 
HETATM    7  C4  UNL     1     -34.702  -7.554  26.532  1.00  0.00     0.079 A 
HETATM    8  N7  UNL     1     -33.334  -7.474  26.603  1.00  0.00    -0.297 N 
HETATM    9  N8  UNL     1     -32.896  -7.706  27.813  1.00  0.00    -0.284 N 
ATOM     10  H7  UNL     1     -32.732  -7.259  25.808  1.00  0.00     0.187 HD
ATOM     11  H8  UNL     1     -31.914  -7.699  28.089  1.00  0.00     0.188 HD
BRANCH   7  12
HETATM   12  C5  UNL     1     -35.377  -7.151  25.304  1.00  0.00     0.075 A 
HETATM   13  N3  UNL     1     -35.522  -5.834  25.115  1.00  0.00    -0.339 N 
HETATM   14  C6  UNL     1     -36.300  -5.305  24.180  1.00  0.00     0.118 A 
ATOM     15  H3  UNL     1     -35.004  -5.201  25.725  1.00  0.00     0.167 HD
HETATM   16  C12 UNL     1     -36.993  -6.169  23.370  1.00  0.00     0.054 A 
HETATM   17  C13 UNL     1     -37.894  -5.915  22.372  1.00  0.00     0.124 A 
HETATM   18  C16 UNL     1     -36.906  -7.575  23.480  1.00  0.00     0.079 A 
HETATM   19  N5  UNL     1     -38.311  -7.063  21.931  1.00  0.00    -0.308 N 
HETATM   20  N6  UNL     1     -37.719  -8.113  22.599  1.00  0.00    -0.289 N 
ATOM     21  H5  UNL     1     -38.994  -7.174  21.181  1.00  0.00     0.186 HD
HETATM   22  C17 UNL     1     -36.034  -8.076  24.500  1.00  0.00     0.025 A 
HETATM   23  C18 UNL     1     -35.452  -9.372  24.341  1.00  0.00    -0.065 C 
HETATM   24  C19 UNL     1     -35.850 -10.744  24.499  1.00  0.00     0.035 C 
HETATM   25  C23 UNL     1     -33.925  -9.320  24.144  1.00  0.00     0.035 C 
HETATM   26  C20 UNL     1     -35.057 -11.650  23.491  1.00  0.00     0.004 C 
HETATM   27  C21 UNL     1     -33.634 -11.762  23.862  1.00  0.00     0.001 C 
HETATM   28  C22 UNL     1     -33.149 -10.512  24.518  1.00  0.00     0.004 C 
BRANCH  14  29
HETATM   29  N4  UNL     1     -36.383  -3.897  23.977  1.00  0.00    -0.366 N 
HETATM   30  C7  UNL     1     -37.385  -3.199  24.724  1.00  0.00     0.124 C 
HETATM   31  C8  UNL     1     -37.742  -1.862  24.110  1.00  0.00     0.020 C 
HETATM   32  C9  UNL     1     -37.482  -1.977  22.612  1.00  0.00     0.003 C 
HETATM   33  C10 UNL     1     -35.988  -2.028  22.443  1.00  0.00     0.020 C 
HETATM   34  C11 UNL     1     -35.457  -3.292  23.068  1.00  0.00     0.124 C 
ENDBRANCH  14  29
BRANCH  20  35
HETATM   35  C14 UNL     1     -38.079  -9.440  22.292  1.00  0.00     0.175 C 
BRANCH  35  36
HETATM   36  C15 UNL     1     -39.041  -9.412  21.093  1.00  0.00     0.185 C 
BRANCH  36  37
HETATM   37  O1  UNL     1     -38.241  -9.070  19.985  1.00  0.00    -0.399 OA
ATOM     38  H1  UNL     1     -37.752  -8.302  20.259  1.00  0.00     0.209 HD
ENDBRANCH  36  37
ENDBRANCH  35  36
ENDBRANCH  20  35
ENDBRANCH   7  12
ENDBRANCH   3   5
TORSDOF 6
ENDMDL
