MODEL 1
REMARK VINA RESULT: -7.243689686      0.000      0.000
REMARK  7 active torsions:
REMARK  status: ('A' for Active; 'I' for Inactive)
REMARK    1  A    between atoms: O1_1  and  C1_3 
REMARK    2  A    between atoms: C7_10  and  C8_11 
REMARK    3  A    between atoms: C8_11  and  O2_12 
REMARK    4  A    between atoms: O2_12  and  C9_13 
REMARK    5  A    between atoms: C10_14  and  C11_15 
REMARK    6  A    between atoms: C13_19  and  O3_20 
REMARK    7  A    between atoms: C14_22  and  O4_23 
ROOT
HETATM    1  C1  UNL     1     -43.114  -0.283   9.857  1.00  0.00     0.126 C 
HETATM    2  C2  UNL     1     -42.956  -0.248   8.347  1.00  0.00     0.032 C 
HETATM    3  C3  UNL     1     -41.661  -0.989   8.055  1.00  0.00     0.002 C 
HETATM    4  C4  UNL     1     -40.623  -0.350   8.991  1.00  0.00     0.001 C 
HETATM    5  C5  UNL     1     -40.695   1.136   8.923  1.00  0.00     0.015 C 
HETATM    6  C6  UNL     1     -41.711   1.801   9.736  1.00  0.00     0.057 C 
HETATM    7  S1  UNL     1     -40.938   2.964  10.933  1.00  0.00    -0.154 SA
HETATM    8  C7  UNL     1     -42.114   3.144  12.301  1.00  0.00     0.104 C 
HETATM    9  C13 UNL     1     -42.451   1.787  12.881  1.00  0.00     0.163 C 
HETATM   10  C14 UNL     1     -42.083   0.660  11.922  1.00  0.00     0.155 C 
HETATM   11  C15 UNL     1     -42.643   0.955  10.523  1.00  0.00     0.059 C 
ENDROOT
BRANCH   8  12
HETATM   12  C8  UNL     1     -41.503   4.003  13.387  1.00  0.00     0.205 C 
BRANCH  12  13
HETATM   13  O2  UNL     1     -42.314   5.150  13.568  1.00  0.00    -0.302 OA
BRANCH  13  14
HETATM   14  C9  UNL     1     -43.670   5.096  13.626  1.00  0.00     0.060 C 
HETATM   15  C10 UNL     1     -44.892   5.036  13.658  1.00  0.00    -0.023 C 
BRANCH  15  16
HETATM   16  C11 UNL     1     -46.325   4.949  13.681  1.00  0.00     0.100 C 
HETATM   17 CL1  UNL     1     -47.187   5.114  15.193  1.00  0.00    -0.073 Cl
HETATM   18  C12 UNL     1     -47.020   4.747  12.579  1.00  0.00     0.117 C 
HETATM   19 CL2  UNL     1     -46.174   4.579  11.044  1.00  0.00    -0.095 Cl
ENDBRANCH  15  16
ENDBRANCH  13  14
ENDBRANCH  12  13
ENDBRANCH   8  12
BRANCH   9  20
HETATM   20  O3  UNL     1     -41.686   1.577  14.042  1.00  0.00    -0.392 OA
ATOM     21  H3  UNL     1     -42.001   0.799  14.488  1.00  0.00     0.210 HD
ENDBRANCH   9  20
BRANCH  10  22
HETATM   22  O4  UNL     1     -42.696  -0.501  12.388  1.00  0.00    -0.392 OA
ATOM     23  H4  UNL     1     -42.123  -0.882  13.043  1.00  0.00     0.210 HD
ENDBRANCH  10  22
BRANCH   1  24
HETATM   24  O1  UNL     1     -44.495  -0.486  10.088  1.00  0.00    -0.395 OA
ATOM     25  H1  UNL     1     -44.686  -0.031  10.900  1.00  0.00     0.210 HD
ENDBRANCH   1  24
TORSDOF 7
ENDMDL
MODEL 2
REMARK VINA RESULT: -7.151282283      3.544      7.361
REMARK  7 active torsions:
REMARK  status: ('A' for Active; 'I' for Inactive)
REMARK    1  A    between atoms: O1_1  and  C1_3 
REMARK    2  A    between atoms: C7_10  and  C8_11 
REMARK    3  A    between atoms: C8_11  and  O2_12 
REMARK    4  A    between atoms: O2_12  and  C9_13 
REMARK    5  A    between atoms: C10_14  and  C11_15 
REMARK    6  A    between atoms: C13_19  and  O3_20 
REMARK    7  A    between atoms: C14_22  and  O4_23 
ROOT
HETATM    1  C1  UNL     1     -43.794   6.273  13.915  1.00  0.00     0.126 C 
HETATM    2  C2  UNL     1     -45.030   6.902  13.294  1.00  0.00     0.032 C 
HETATM    3  C3  UNL     1     -46.163   6.625  14.268  1.00  0.00     0.002 C 
HETATM    4  C4  UNL     1     -46.079   5.117  14.550  1.00  0.00     0.001 C 
HETATM    5  C5  UNL     1     -45.947   4.349  13.281  1.00  0.00     0.015 C 
HETATM    6  C6  UNL     1     -44.611   4.228  12.701  1.00  0.00     0.057 C 
HETATM    7  S1  UNL     1     -44.111   2.463  12.567  1.00  0.00    -0.154 SA
HETATM    8  C7  UNL     1     -42.298   2.447  12.560  1.00  0.00     0.104 C 
HETATM    9  C13 UNL     1     -41.766   3.153  13.790  1.00  0.00     0.163 C 
HETATM   10  C14 UNL     1     -42.830   4.034  14.435  1.00  0.00     0.155 C 
HETATM   11  C15 UNL     1     -43.489   4.928  13.373  1.00  0.00     0.059 C 
ENDROOT
BRANCH   8  12
HETATM   12  C8  UNL     1     -41.801   1.017  12.564  1.00  0.00     0.205 C 
BRANCH  12  13
HETATM   13  O2  UNL     1     -41.860   0.513  11.242  1.00  0.00    -0.302 OA
BRANCH  13  14
HETATM   14  C9  UNL     1     -40.857   0.682  10.342  1.00  0.00     0.060 C 
HETATM   15  C10 UNL     1     -39.939   0.826   9.544  1.00  0.00    -0.023 C 
BRANCH  15  16
HETATM   16  C11 UNL     1     -38.850   0.982   8.622  1.00  0.00     0.100 C 
HETATM   17 CL1  UNL     1     -38.610   2.507   7.801  1.00  0.00    -0.073 Cl
HETATM   18  C12 UNL     1     -38.013  -0.007   8.372  1.00  0.00     0.117 C 
HETATM   19 CL2  UNL     1     -38.234  -1.552   9.187  1.00  0.00    -0.095 Cl
ENDBRANCH  15  16
ENDBRANCH  13  14
ENDBRANCH  12  13
ENDBRANCH   8  12
BRANCH   9  20
HETATM   20  O3  UNL     1     -41.412   2.196  14.757  1.00  0.00    -0.392 OA
ATOM     21  H3  UNL     1     -42.134   2.082  15.363  1.00  0.00     0.210 HD
ENDBRANCH   9  20
BRANCH  10  22
HETATM   22  O4  UNL     1     -42.185   4.865  15.349  1.00  0.00    -0.392 OA
ATOM     23  H4  UNL     1     -41.904   4.323  16.076  1.00  0.00     0.210 HD
ENDBRANCH  10  22
BRANCH   1  24
HETATM   24  O1  UNL     1     -42.738   7.176  13.650  1.00  0.00    -0.395 OA
ATOM     25  H1  UNL     1     -41.949   6.735  13.943  1.00  0.00     0.210 HD
ENDBRANCH   1  24
TORSDOF 7
ENDMDL
MODEL 3
REMARK VINA RESULT: -7.093153929      1.095      1.266
REMARK  7 active torsions:
REMARK  status: ('A' for Active; 'I' for Inactive)
REMARK    1  A    between atoms: O1_1  and  C1_3 
REMARK    2  A    between atoms: C7_10  and  C8_11 
REMARK    3  A    between atoms: C8_11  and  O2_12 
REMARK    4  A    between atoms: O2_12  and  C9_13 
REMARK    5  A    between atoms: C10_14  and  C11_15 
REMARK    6  A    between atoms: C13_19  and  O3_20 
REMARK    7  A    between atoms: C14_22  and  O4_23 
ROOT
HETATM    1  C1  UNL     1     -43.084  -0.209   9.943  1.00  0.00     0.126 C 
HETATM    2  C2  UNL     1     -42.949  -0.136   8.432  1.00  0.00     0.032 C 
HETATM    3  C3  UNL     1     -41.644  -0.844   8.104  1.00  0.00     0.002 C 
HETATM    4  C4  UNL     1     -40.605  -0.206   9.039  1.00  0.00     0.001 C 
HETATM    5  C5  UNL     1     -40.708   1.279   9.007  1.00  0.00     0.015 C 
HETATM    6  C6  UNL     1     -41.725   1.904   9.850  1.00  0.00     0.057 C 
HETATM    7  S1  UNL     1     -40.956   3.054  11.063  1.00  0.00    -0.154 SA
HETATM    8  C7  UNL     1     -42.116   3.179  12.451  1.00  0.00     0.104 C 
HETATM    9  C13 UNL     1     -42.417   1.802  13.005  1.00  0.00     0.163 C 
HETATM   10  C14 UNL     1     -42.041   0.706  12.014  1.00  0.00     0.155 C 
HETATM   11  C15 UNL     1     -42.628   1.022  10.630  1.00  0.00     0.059 C 
ENDROOT
BRANCH   8  12
HETATM   12  C8  UNL     1     -41.506   4.025  13.549  1.00  0.00     0.205 C 
BRANCH  12  13
HETATM   13  O2  UNL     1     -42.383   5.099  13.835  1.00  0.00    -0.302 OA
BRANCH  13  14
HETATM   14  C9  UNL     1     -43.538   4.946  14.533  1.00  0.00     0.060 C 
HETATM   15  C10 UNL     1     -44.575   4.786  15.165  1.00  0.00    -0.023 C 
BRANCH  15  16
HETATM   16  C11 UNL     1     -45.784   4.578  15.911  1.00  0.00     0.100 C 
HETATM   17 CL1  UNL     1     -45.711   3.923  17.530  1.00  0.00    -0.073 Cl
HETATM   18  C12 UNL     1     -46.965   4.871  15.402  1.00  0.00     0.117 C 
HETATM   19 CL2  UNL     1     -47.064   5.531  13.773  1.00  0.00    -0.095 Cl
ENDBRANCH  15  16
ENDBRANCH  13  14
ENDBRANCH  12  13
ENDBRANCH   8  12
BRANCH   9  20
HETATM   20  O3  UNL     1     -41.631   1.581  14.149  1.00  0.00    -0.392 OA
ATOM     21  H3  UNL     1     -41.440   0.653  14.223  1.00  0.00     0.210 HD
ENDBRANCH   9  20
BRANCH  10  22
HETATM   22  O4  UNL     1     -42.624  -0.478  12.462  1.00  0.00    -0.392 OA
ATOM     23  H4  UNL     1     -43.083  -0.281  13.269  1.00  0.00     0.210 HD
ENDBRANCH  10  22
BRANCH   1  24
HETATM   24  O1  UNL     1     -44.457  -0.445  10.188  1.00  0.00    -0.395 OA
ATOM     25  H1  UNL     1     -44.488  -1.230  10.722  1.00  0.00     0.210 HD
ENDBRANCH   1  24
TORSDOF 7
ENDMDL
MODEL 4
REMARK VINA RESULT: -6.985860764      3.566      6.922
REMARK  7 active torsions:
REMARK  status: ('A' for Active; 'I' for Inactive)
REMARK    1  A    between atoms: O1_1  and  C1_3 
REMARK    2  A    between atoms: C7_10  and  C8_11 
REMARK    3  A    between atoms: C8_11  and  O2_12 
REMARK    4  A    between atoms: O2_12  and  C9_13 
REMARK    5  A    between atoms: C10_14  and  C11_15 
REMARK    6  A    between atoms: C13_19  and  O3_20 
REMARK    7  A    between atoms: C14_22  and  O4_23 
ROOT
HETATM    1  C1  UNL     1     -43.966   2.976  15.021  1.00  0.00     0.126 C 
HETATM    2  C2  UNL     1     -43.729   3.595  16.387  1.00  0.00     0.032 C 
HETATM    3  C3  UNL     1     -44.563   4.866  16.409  1.00  0.00     0.002 C 
HETATM    4  C4  UNL     1     -44.193   5.603  15.113  1.00  0.00     0.001 C 
HETATM    5  C5  UNL     1     -42.714   5.652  14.938  1.00  0.00     0.015 C 
HETATM    6  C6  UNL     1     -42.064   4.480  14.358  1.00  0.00     0.057 C 
HETATM    7  S1  UNL     1     -41.186   4.920  12.802  1.00  0.00    -0.154 SA
HETATM    8  C7  UNL     1     -41.074   3.393  11.831  1.00  0.00     0.104 C 
HETATM    9  C13 UNL     1     -42.453   2.805  11.622  1.00  0.00     0.163 C 
HETATM   10  C14 UNL     1     -43.462   3.377  12.612  1.00  0.00     0.155 C 
HETATM   11  C15 UNL     1     -42.902   3.298  14.040  1.00  0.00     0.059 C 
ENDROOT
BRANCH   8  12
HETATM   12  C8  UNL     1     -40.460   3.692  10.480  1.00  0.00     0.205 C 
BRANCH  12  13
HETATM   13  O2  UNL     1     -39.621   2.612  10.113  1.00  0.00    -0.302 OA
BRANCH  13  14
HETATM   14  C9  UNL     1     -40.097   1.450   9.595  1.00  0.00     0.060 C 
HETATM   15  C10 UNL     1     -40.504   0.394   9.127  1.00  0.00    -0.023 C 
BRANCH  15  16
HETATM   16  C11 UNL     1     -40.963  -0.853   8.582  1.00  0.00     0.100 C 
HETATM   17 CL1  UNL     1     -42.540  -0.953   7.834  1.00  0.00    -0.073 Cl
HETATM   18  C12 UNL     1     -40.218  -1.940   8.631  1.00  0.00     0.117 C 
HETATM   19 CL2  UNL     1     -38.625  -1.863   9.379  1.00  0.00    -0.095 Cl
ENDBRANCH  15  16
ENDBRANCH  13  14
ENDBRANCH  12  13
ENDBRANCH   8  12
BRANCH   9  20
HETATM   20  O3  UNL     1     -42.918   3.158  10.343  1.00  0.00    -0.392 OA
ATOM     21  H3  UNL     1     -43.862   3.049  10.312  1.00  0.00     0.210 HD
ENDBRANCH   9  20
BRANCH  10  22
HETATM   22  O4  UNL     1     -44.601   2.576  12.557  1.00  0.00    -0.392 OA
ATOM     23  H4  UNL     1     -45.346   3.149  12.425  1.00  0.00     0.210 HD
ENDBRANCH  10  22
BRANCH   1  24
HETATM   24  O1  UNL     1     -44.040   1.582  15.246  1.00  0.00    -0.395 OA
ATOM     25  H1  UNL     1     -43.234   1.225  14.892  1.00  0.00     0.210 HD
ENDBRANCH   1  24
TORSDOF 7
ENDMDL
MODEL 5
REMARK VINA RESULT: -6.978055122      1.168      1.694
REMARK  7 active torsions:
REMARK  status: ('A' for Active; 'I' for Inactive)
REMARK    1  A    between atoms: O1_1  and  C1_3 
REMARK    2  A    between atoms: C7_10  and  C8_11 
REMARK    3  A    between atoms: C8_11  and  O2_12 
REMARK    4  A    between atoms: O2_12  and  C9_13 
REMARK    5  A    between atoms: C10_14  and  C11_15 
REMARK    6  A    between atoms: C13_19  and  O3_20 
REMARK    7  A    between atoms: C14_22  and  O4_23 
ROOT
HETATM    1  C1  UNL     1     -42.723  -0.063  10.050  1.00  0.00     0.126 C 
HETATM    2  C2  UNL     1     -42.561  -0.180   8.545  1.00  0.00     0.032 C 
HETATM    3  C3  UNL     1     -41.245  -0.909   8.331  1.00  0.00     0.002 C 
HETATM    4  C4  UNL     1     -40.228  -0.147   9.196  1.00  0.00     0.001 C 
HETATM    5  C5  UNL     1     -40.343   1.322   8.974  1.00  0.00     0.015 C 
HETATM    6  C6  UNL     1     -41.381   2.037   9.714  1.00  0.00     0.057 C 
HETATM    7  S1  UNL     1     -40.644   3.340  10.784  1.00  0.00    -0.154 SA
HETATM    8  C7  UNL     1     -41.830   3.626  12.125  1.00  0.00     0.104 C 
HETATM    9  C13 UNL     1     -42.129   2.328  12.843  1.00  0.00     0.163 C 
HETATM   10  C14 UNL     1     -41.726   1.118  12.006  1.00  0.00     0.155 C 
HETATM   11  C15 UNL     1     -42.290   1.251  10.584  1.00  0.00     0.059 C 
ENDROOT
BRANCH   8  12
HETATM   12  C8  UNL     1     -41.248   4.610  13.118  1.00  0.00     0.205 C 
BRANCH  12  13
HETATM   13  O2  UNL     1     -42.173   5.665  13.307  1.00  0.00    -0.302 OA
BRANCH  13  14
HETATM   14  C9  UNL     1     -43.382   5.491  13.902  1.00  0.00     0.060 C 
HETATM   15  C10 UNL     1     -44.471   5.312  14.431  1.00  0.00    -0.023 C 
BRANCH  15  16
HETATM   16  C11 UNL     1     -45.746   5.081  15.050  1.00  0.00     0.100 C 
HETATM   17 CL1  UNL     1     -47.208   5.654  14.281  1.00  0.00    -0.073 Cl
HETATM   18  C12 UNL     1     -45.848   4.440  16.198  1.00  0.00     0.117 C 
HETATM   19 CL2  UNL     1     -44.389   3.854  16.991  1.00  0.00    -0.095 Cl
ENDBRANCH  15  16
ENDBRANCH  13  14
ENDBRANCH  12  13
ENDBRANCH   8  12
BRANCH   9  20
HETATM   20  O3  UNL     1     -41.363   2.261  14.020  1.00  0.00    -0.392 OA
ATOM     21  H3  UNL     1     -41.256   1.351  14.273  1.00  0.00     0.210 HD
ENDBRANCH   9  20
BRANCH  10  22
HETATM   22  O4  UNL     1     -42.307  -0.005  12.590  1.00  0.00    -0.392 OA
ATOM     23  H4  UNL     1     -42.024  -0.033  13.496  1.00  0.00     0.210 HD
ENDBRANCH  10  22
BRANCH   1  24
HETATM   24  O1  UNL     1     -44.098  -0.280  10.300  1.00  0.00    -0.395 OA
ATOM     25  H1  UNL     1     -44.409   0.514  10.718  1.00  0.00     0.210 HD
ENDBRANCH   1  24
TORSDOF 7
ENDMDL
