MODEL 1
REMARK VINA RESULT: -7.636104725      0.000      0.000
REMARK  7 active torsions:
REMARK  status: ('A' for Active; 'I' for Inactive)
REMARK    1  A    between atoms: N1_2  and  C3_4 
REMARK    2  A    between atoms: C3_4  and  C4_5 
REMARK    3  A    between atoms: C4_5  and  N2_6 
REMARK    4  A    between atoms: N2_6  and  C5_8 
REMARK    5  A    between atoms: C8_13  and  C9_14 
REMARK    6  A    between atoms: C12_18  and  C13_19 
REMARK       I    between atoms: C13_19  and  N4_21 
REMARK    7  A    between atoms: N4_21  and  C14_23 
ROOT
HETATM    1  C5  UNL     1     -33.808 -13.400 374.479  1.00  0.00     0.069 A 
HETATM    2  C6  UNL     1     -34.253 -13.274 375.754  1.00  0.00     0.063 A 
HETATM    3  C7  UNL     1     -35.622 -13.351 376.073  1.00  0.00     0.052 A 
HETATM    4  N3  UNL     1     -36.126 -13.238 377.261  1.00  0.00    -0.348 N 
ATOM      5  H3  UNL     1     -35.516 -13.079 378.064  1.00  0.00     0.166 HD
HETATM    6  C8  UNL     1     -37.433 -13.329 377.427  1.00  0.00     0.093 A 
HETATM    7  S2  UNL     1     -37.992 -13.585 375.845  1.00  0.00    -0.069 SA
HETATM    8  C18 UNL     1     -36.484 -13.562 375.031  1.00  0.00     0.036 A 
HETATM    9  C19 UNL     1     -36.019 -13.694 373.705  1.00  0.00     0.066 A 
HETATM   10  C20 UNL     1     -34.680 -13.611 373.437  1.00  0.00     0.144 A 
HETATM   11  F1  UNL     1     -34.226 -13.734 372.189  1.00  0.00    -0.204 F 
ENDROOT
BRANCH   6  12
HETATM   12  C9  UNL     1     -38.142 -13.225 378.732  1.00  0.00     0.054 A 
HETATM   13  S1  UNL     1     -38.159 -11.848 379.772  1.00  0.00    -0.098 SA
HETATM   14  C10 UNL     1     -39.123 -12.485 381.019  1.00  0.00     0.051 A 
HETATM   15  C11 UNL     1     -39.402 -13.745 380.589  1.00  0.00     0.026 A 
HETATM   16  C12 UNL     1     -38.889 -14.131 379.393  1.00  0.00     0.052 A 
BRANCH  16  17
HETATM   17  C13 UNL     1     -39.193 -15.500 378.866  1.00  0.00     0.253 C 
HETATM   18  O1  UNL     1     -38.376 -16.435 378.960  1.00  0.00    -0.268 OA
HETATM   19  N4  UNL     1     -40.441 -15.687 378.268  1.00  0.00    -0.351 N 
ATOM     20  H4  UNL     1     -41.054 -14.872 378.224  1.00  0.00     0.163 HD
BRANCH  19  21
HETATM   21  C14 UNL     1     -40.957 -16.917 377.704  1.00  0.00     0.103 C 
HETATM   22  C15 UNL     1     -41.540 -17.855 378.757  1.00  0.00     0.028 C 
HETATM   23  C16 UNL     1     -42.939 -17.466 378.312  1.00  0.00     0.024 C 
HETATM   24  C17 UNL     1     -42.293 -16.893 377.062  1.00  0.00     0.105 C 
HETATM   25 CL1  UNL     1     -42.487 -17.998 375.669  1.00  0.00    -0.123 Cl
ENDBRANCH  19  21
ENDBRANCH  16  17
ENDBRANCH   6  12
BRANCH   1  26
HETATM   26  N2  UNL     1     -32.386 -13.278 374.190  1.00  0.00    -0.386 N 
ATOM     27  H2  UNL     1     -31.837 -14.133 374.098  1.00  0.00     0.159 HD
BRANCH  26  28
HETATM   28  C4  UNL     1     -31.714 -12.018 374.026  1.00  0.00     0.139 C 
BRANCH  28  29
HETATM   29  C3  UNL     1     -31.574 -11.749 372.543  1.00  0.00     0.135 C 
BRANCH  29  30
HETATM   30  N1  UNL     1     -32.211 -10.552 372.096  1.00  0.00    -0.419 N 
HETATM   31  C1  UNL     1     -33.362 -10.703 371.279  1.00  0.00     0.142 C 
HETATM   32  C2  UNL     1     -31.320  -9.485 371.754  1.00  0.00     0.142 C 
ENDBRANCH  29  30
ENDBRANCH  28  29
ENDBRANCH  26  28
ENDBRANCH   1  26
TORSDOF 7
ENDMDL
MODEL 2
REMARK VINA RESULT: -7.378999437      5.074      8.496
REMARK  7 active torsions:
REMARK  status: ('A' for Active; 'I' for Inactive)
REMARK    1  A    between atoms: N1_2  and  C3_4 
REMARK    2  A    between atoms: C3_4  and  C4_5 
REMARK    3  A    between atoms: C4_5  and  N2_6 
REMARK    4  A    between atoms: N2_6  and  C5_8 
REMARK    5  A    between atoms: C8_13  and  C9_14 
REMARK    6  A    between atoms: C12_18  and  C13_19 
REMARK       I    between atoms: C13_19  and  N4_21 
REMARK    7  A    between atoms: N4_21  and  C14_23 
ROOT
HETATM    1  C5  UNL     1     -42.438 -18.849 378.749  1.00  0.00     0.069 A 
HETATM    2  C6  UNL     1     -41.390 -18.004 378.595  1.00  0.00     0.063 A 
HETATM    3  C7  UNL     1     -41.332 -16.763 379.259  1.00  0.00     0.052 A 
HETATM    4  N3  UNL     1     -40.371 -15.902 379.162  1.00  0.00    -0.348 N 
ATOM      5  H3  UNL     1     -39.566 -16.096 378.565  1.00  0.00     0.166 HD
HETATM    6  C8  UNL     1     -40.439 -14.770 379.839  1.00  0.00     0.093 A 
HETATM    7  S2  UNL     1     -41.922 -14.912 380.654  1.00  0.00    -0.069 SA
HETATM    8  C18 UNL     1     -42.390 -16.453 380.071  1.00  0.00     0.036 A 
HETATM    9  C19 UNL     1     -43.480 -17.335 380.230  1.00  0.00     0.066 A 
HETATM   10  C20 UNL     1     -43.497 -18.531 379.566  1.00  0.00     0.144 A 
HETATM   11  F1  UNL     1     -44.521 -19.375 379.707  1.00  0.00    -0.204 F 
ENDROOT
BRANCH   6  12
HETATM   12  C9  UNL     1     -39.406 -13.697 379.826  1.00  0.00     0.054 A 
HETATM   13  S1  UNL     1     -39.318 -12.359 380.912  1.00  0.00    -0.098 SA
HETATM   14  C10 UNL     1     -37.937 -11.603 380.270  1.00  0.00     0.051 A 
HETATM   15  C11 UNL     1     -37.589 -12.412 379.234  1.00  0.00     0.026 A 
HETATM   16  C12 UNL     1     -38.357 -13.508 379.002  1.00  0.00     0.052 A 
BRANCH  16  17
HETATM   17  C13 UNL     1     -37.994 -14.443 377.890  1.00  0.00     0.253 C 
HETATM   18  O1  UNL     1     -37.318 -15.469 378.092  1.00  0.00    -0.268 OA
HETATM   19  N4  UNL     1     -38.452 -14.118 376.613  1.00  0.00    -0.351 N 
ATOM     20  H4  UNL     1     -38.995 -13.259 376.526  1.00  0.00     0.163 HD
BRANCH  19  21
HETATM   21  C14 UNL     1     -38.237 -14.874 375.396  1.00  0.00     0.103 C 
HETATM   22  C15 UNL     1     -39.139 -16.100 375.292  1.00  0.00     0.028 C 
HETATM   23  C16 UNL     1     -40.000 -15.368 374.278  1.00  0.00     0.024 C 
HETATM   24  C17 UNL     1     -38.853 -14.380 374.141  1.00  0.00     0.105 C 
HETATM   25 CL1  UNL     1     -37.906 -14.692 372.656  1.00  0.00    -0.123 Cl
ENDBRANCH  19  21
ENDBRANCH  16  17
ENDBRANCH   6  12
BRANCH   1  26
HETATM   26  N2  UNL     1     -42.472 -20.107 378.015  1.00  0.00    -0.386 N 
ATOM     27  H2  UNL     1     -42.068 -20.934 378.455  1.00  0.00     0.159 HD
BRANCH  26  28
HETATM   28  C4  UNL     1     -43.046 -20.247 376.704  1.00  0.00     0.139 C 
BRANCH  28  29
HETATM   29  C3  UNL     1     -41.914 -20.375 375.707  1.00  0.00     0.135 C 
BRANCH  29  30
HETATM   30  N1  UNL     1     -41.529 -19.147 375.089  1.00  0.00    -0.419 N 
HETATM   31  C1  UNL     1     -42.502 -18.113 375.050  1.00  0.00     0.142 C 
HETATM   32  C2  UNL     1     -40.700 -19.288 373.930  1.00  0.00     0.142 C 
ENDBRANCH  29  30
ENDBRANCH  28  29
ENDBRANCH  26  28
ENDBRANCH   1  26
TORSDOF 7
ENDMDL
MODEL 3
REMARK VINA RESULT: -7.332591052      2.064      2.970
REMARK  7 active torsions:
REMARK  status: ('A' for Active; 'I' for Inactive)
REMARK    1  A    between atoms: N1_2  and  C3_4 
REMARK    2  A    between atoms: C3_4  and  C4_5 
REMARK    3  A    between atoms: C4_5  and  N2_6 
REMARK    4  A    between atoms: N2_6  and  C5_8 
REMARK    5  A    between atoms: C8_13  and  C9_14 
REMARK    6  A    between atoms: C12_18  and  C13_19 
REMARK       I    between atoms: C13_19  and  N4_21 
REMARK    7  A    between atoms: N4_21  and  C14_23 
ROOT
HETATM    1  C5  UNL     1     -35.937 -13.946 375.116  1.00  0.00     0.069 A 
HETATM    2  C6  UNL     1     -37.107 -14.452 375.578  1.00  0.00     0.063 A 
HETATM    3  C7  UNL     1     -37.535 -14.244 376.903  1.00  0.00     0.052 A 
HETATM    4  N3  UNL     1     -38.633 -14.695 377.419  1.00  0.00    -0.348 N 
ATOM      5  H3  UNL     1     -39.274 -15.253 376.854  1.00  0.00     0.166 HD
HETATM    6  C8  UNL     1     -38.918 -14.429 378.681  1.00  0.00     0.093 A 
HETATM    7  S2  UNL     1     -37.585 -13.503 379.177  1.00  0.00    -0.069 SA
HETATM    8  C18 UNL     1     -36.708 -13.502 377.704  1.00  0.00     0.036 A 
HETATM    9  C19 UNL     1     -35.491 -12.976 377.222  1.00  0.00     0.066 A 
HETATM   10  C20 UNL     1     -35.113 -13.202 375.927  1.00  0.00     0.144 A 
HETATM   11  F1  UNL     1     -33.965 -12.710 375.457  1.00  0.00    -0.204 F 
ENDROOT
BRANCH   6  12
HETATM   12  C9  UNL     1     -40.144 -14.877 379.397  1.00  0.00     0.054 A 
HETATM   13  S1  UNL     1     -40.954 -14.020 380.658  1.00  0.00    -0.098 SA
HETATM   14  C10 UNL     1     -42.199 -15.137 380.963  1.00  0.00     0.051 A 
HETATM   15  C11 UNL     1     -41.947 -16.138 380.078  1.00  0.00     0.026 A 
HETATM   16  C12 UNL     1     -40.872 -16.002 379.259  1.00  0.00     0.052 A 
BRANCH  16  17
HETATM   17  C13 UNL     1     -40.574 -17.067 378.249  1.00  0.00     0.253 C 
HETATM   18  O1  UNL     1     -39.405 -17.399 377.973  1.00  0.00    -0.268 OA
HETATM   19  N4  UNL     1     -41.665 -17.680 377.632  1.00  0.00    -0.351 N 
ATOM     20  H4  UNL     1     -42.591 -17.351 377.906  1.00  0.00     0.163 HD
BRANCH  19  21
HETATM   21  C14 UNL     1     -41.620 -18.736 376.640  1.00  0.00     0.103 C 
HETATM   22  C15 UNL     1     -43.004 -19.266 376.276  1.00  0.00     0.028 C 
HETATM   23  C16 UNL     1     -42.939 -18.501 374.965  1.00  0.00     0.024 C 
HETATM   24  C17 UNL     1     -41.447 -18.359 375.217  1.00  0.00     0.105 C 
HETATM   25 CL1  UNL     1     -40.512 -19.522 374.232  1.00  0.00    -0.123 Cl
ENDBRANCH  19  21
ENDBRANCH  16  17
ENDBRANCH   6  12
BRANCH   1  26
HETATM   26  N2  UNL     1     -35.517 -14.214 373.747  1.00  0.00    -0.386 N 
ATOM     27  H2  UNL     1     -34.912 -15.018 373.577  1.00  0.00     0.159 HD
BRANCH  26  28
HETATM   28  C4  UNL     1     -35.909 -13.409 372.623  1.00  0.00     0.139 C 
BRANCH  28  29
HETATM   29  C3  UNL     1     -34.686 -13.176 371.762  1.00  0.00     0.135 C 
BRANCH  29  30
HETATM   30  N1  UNL     1     -33.976 -11.973 372.055  1.00  0.00    -0.419 N 
HETATM   31  C1  UNL     1     -34.251 -10.847 371.234  1.00  0.00     0.142 C 
HETATM   32  C2  UNL     1     -32.612 -12.158 372.450  1.00  0.00     0.142 C 
ENDBRANCH  29  30
ENDBRANCH  28  29
ENDBRANCH  26  28
ENDBRANCH   1  26
TORSDOF 7
ENDMDL
MODEL 4
REMARK VINA RESULT: -7.293799256      1.618      2.089
REMARK  7 active torsions:
REMARK  status: ('A' for Active; 'I' for Inactive)
REMARK    1  A    between atoms: N1_2  and  C3_4 
REMARK    2  A    between atoms: C3_4  and  C4_5 
REMARK    3  A    between atoms: C4_5  and  N2_6 
REMARK    4  A    between atoms: N2_6  and  C5_8 
REMARK    5  A    between atoms: C8_13  and  C9_14 
REMARK    6  A    between atoms: C12_18  and  C13_19 
REMARK       I    between atoms: C13_19  and  N4_21 
REMARK    7  A    between atoms: N4_21  and  C14_23 
ROOT
HETATM    1  C5  UNL     1     -35.885 -13.524 372.423  1.00  0.00     0.069 A 
HETATM    2  C6  UNL     1     -35.774 -13.091 373.703  1.00  0.00     0.063 A 
HETATM    3  C7  UNL     1     -36.801 -13.288 374.645  1.00  0.00     0.052 A 
HETATM    4  N3  UNL     1     -36.772 -12.903 375.881  1.00  0.00    -0.348 N 
ATOM      5  H3  UNL     1     -35.956 -12.412 376.246  1.00  0.00     0.166 HD
HETATM    6  C8  UNL     1     -37.807 -13.148 376.665  1.00  0.00     0.093 A 
HETATM    7  S2  UNL     1     -38.877 -13.959 375.626  1.00  0.00    -0.069 SA
HETATM    8  C18 UNL     1     -37.921 -13.941 374.204  1.00  0.00     0.036 A 
HETATM    9  C19 UNL     1     -38.034 -14.391 372.872  1.00  0.00     0.066 A 
HETATM   10  C20 UNL     1     -37.012 -14.179 371.987  1.00  0.00     0.144 A 
HETATM   11  F1  UNL     1     -37.106 -14.600 370.724  1.00  0.00    -0.204 F 
ENDROOT
BRANCH   6  12
HETATM   12  C9  UNL     1     -37.905 -12.770 378.102  1.00  0.00     0.054 A 
HETATM   13  S1  UNL     1     -37.467 -11.245 378.782  1.00  0.00    -0.098 SA
HETATM   14  C10 UNL     1     -37.831 -11.581 380.408  1.00  0.00     0.051 A 
HETATM   15  C11 UNL     1     -38.280 -12.864 380.372  1.00  0.00     0.026 A 
HETATM   16  C12 UNL     1     -38.319 -13.485 379.165  1.00  0.00     0.052 A 
BRANCH  16  17
HETATM   17  C13 UNL     1     -38.833 -14.889 379.073  1.00  0.00     0.253 C 
HETATM   18  O1  UNL     1     -38.087 -15.843 378.783  1.00  0.00    -0.268 OA
HETATM   19  N4  UNL     1     -40.190 -15.086 379.334  1.00  0.00    -0.351 N 
ATOM     20  H4  UNL     1     -40.738 -14.255 379.560  1.00  0.00     0.163 HD
BRANCH  19  21
HETATM   21  C14 UNL     1     -40.903 -16.347 379.318  1.00  0.00     0.103 C 
HETATM   22  C15 UNL     1     -42.213 -16.299 380.098  1.00  0.00     0.028 C 
HETATM   23  C16 UNL     1     -42.978 -16.242 378.787  1.00  0.00     0.024 C 
HETATM   24  C17 UNL     1     -41.694 -16.694 378.113  1.00  0.00     0.105 C 
HETATM   25 CL1  UNL     1     -41.750 -18.438 377.718  1.00  0.00    -0.123 Cl
ENDBRANCH  19  21
ENDBRANCH  16  17
ENDBRANCH   6  12
BRANCH   1  26
HETATM   26  N2  UNL     1     -34.811 -13.269 371.472  1.00  0.00    -0.386 N 
ATOM     27  H2  UNL     1     -34.482 -14.044 370.896  1.00  0.00     0.159 HD
BRANCH  26  28
HETATM   28  C4  UNL     1     -34.190 -11.983 371.302  1.00  0.00     0.139 C 
BRANCH  28  29
HETATM   29  C3  UNL     1     -32.724 -12.119 371.652  1.00  0.00     0.135 C 
BRANCH  29  30
HETATM   30  N1  UNL     1     -32.343 -11.469 372.864  1.00  0.00    -0.419 N 
HETATM   31  C1  UNL     1     -31.476 -10.350 372.748  1.00  0.00     0.142 C 
HETATM   32  C2  UNL     1     -32.111 -12.345 373.973  1.00  0.00     0.142 C 
ENDBRANCH  29  30
ENDBRANCH  28  29
ENDBRANCH  26  28
ENDBRANCH   1  26
TORSDOF 7
ENDMDL
MODEL 5
REMARK VINA RESULT: -7.239142732      4.829      8.804
REMARK  7 active torsions:
REMARK  status: ('A' for Active; 'I' for Inactive)
REMARK    1  A    between atoms: N1_2  and  C3_4 
REMARK    2  A    between atoms: C3_4  and  C4_5 
REMARK    3  A    between atoms: C4_5  and  N2_6 
REMARK    4  A    between atoms: N2_6  and  C5_8 
REMARK    5  A    between atoms: C8_13  and  C9_14 
REMARK    6  A    between atoms: C12_18  and  C13_19 
REMARK       I    between atoms: C13_19  and  N4_21 
REMARK    7  A    between atoms: N4_21  and  C14_23 
ROOT
HETATM    1  C5  UNL     1     -42.200 -18.640 378.204  1.00  0.00     0.069 A 
HETATM    2  C6  UNL     1     -41.198 -17.735 378.089  1.00  0.00     0.063 A 
HETATM    3  C7  UNL     1     -41.126 -16.596 378.915  1.00  0.00     0.052 A 
HETATM    4  N3  UNL     1     -40.206 -15.687 378.865  1.00  0.00    -0.348 N 
ATOM      5  H3  UNL     1     -39.448 -15.760 378.185  1.00  0.00     0.166 HD
HETATM    6  C8  UNL     1     -40.255 -14.663 379.698  1.00  0.00     0.093 A 
HETATM    7  S2  UNL     1     -41.658 -14.983 380.599  1.00  0.00    -0.069 SA
HETATM    8  C18 UNL     1     -42.121 -16.449 379.844  1.00  0.00     0.036 A 
HETATM    9  C19 UNL     1     -43.163 -17.393 379.962  1.00  0.00     0.066 A 
HETATM   10  C20 UNL     1     -43.196 -18.486 379.139  1.00  0.00     0.144 A 
HETATM   11  F1  UNL     1     -44.175 -19.386 379.241  1.00  0.00    -0.204 F 
ENDROOT
BRANCH   6  12
HETATM   12  C9  UNL     1     -39.263 -13.554 379.755  1.00  0.00     0.054 A 
HETATM   13  S1  UNL     1     -39.256 -12.255 380.892  1.00  0.00    -0.098 SA
HETATM   14  C10 UNL     1     -37.888 -11.425 380.319  1.00  0.00     0.051 A 
HETATM   15  C11 UNL     1     -37.481 -12.181 379.264  1.00  0.00     0.026 A 
HETATM   16  C12 UNL     1     -38.200 -13.294 378.970  1.00  0.00     0.052 A 
BRANCH  16  17
HETATM   17  C13 UNL     1     -37.771 -14.172 377.835  1.00  0.00     0.253 C 
HETATM   18  O1  UNL     1     -37.097 -15.202 378.022  1.00  0.00    -0.268 OA
HETATM   19  N4  UNL     1     -38.166 -13.790 376.552  1.00  0.00    -0.351 N 
ATOM     20  H4  UNL     1     -38.712 -12.931 376.478  1.00  0.00     0.163 HD
BRANCH  19  21
HETATM   21  C14 UNL     1     -37.881 -14.485 375.313  1.00  0.00     0.103 C 
HETATM   22  C15 UNL     1     -38.699 -15.762 375.148  1.00  0.00     0.028 C 
HETATM   23  C16 UNL     1     -39.588 -15.049 374.144  1.00  0.00     0.024 C 
HETATM   24  C17 UNL     1     -38.506 -13.985 374.065  1.00  0.00     0.105 C 
HETATM   25 CL1  UNL     1     -37.515 -14.180 372.589  1.00  0.00    -0.123 Cl
ENDBRANCH  19  21
ENDBRANCH  16  17
ENDBRANCH   6  12
BRANCH   1  26
HETATM   26  N2  UNL     1     -42.254 -19.785 377.306  1.00  0.00    -0.386 N 
ATOM     27  H2  UNL     1     -42.384 -20.712 377.712  1.00  0.00     0.159 HD
BRANCH  26  28
HETATM   28  C4  UNL     1     -42.132 -19.680 375.877  1.00  0.00     0.139 C 
BRANCH  28  29
HETATM   29  C3  UNL     1     -43.234 -18.770 375.377  1.00  0.00     0.135 C 
BRANCH  29  30
HETATM   30  N1  UNL     1     -44.219 -19.420 374.574  1.00  0.00    -0.419 N 
HETATM   31  C1  UNL     1     -45.382 -19.891 375.240  1.00  0.00     0.142 C 
HETATM   32  C2  UNL     1     -43.697 -20.253 373.533  1.00  0.00     0.142 C 
ENDBRANCH  29  30
ENDBRANCH  28  29
ENDBRANCH  26  28
ENDBRANCH   1  26
TORSDOF 7
ENDMDL
