MODEL 1
REMARK VINA RESULT: -8.193405389      0.000      0.000
REMARK  8 active torsions:
REMARK  status: ('A' for Active; 'I' for Inactive)
REMARK    1  A    between atoms: C2_2  and  C3_3 
REMARK    2  A    between atoms: C3_3  and  C4_4 
REMARK    3  A    between atoms: C4_4  and  N1_5 
REMARK       I    between atoms: N1_5  and  C5_7 
REMARK    4  A    between atoms: C5_7  and  C6_9 
REMARK    5  A    between atoms: C6_9  and  S1_10 
REMARK    6  A    between atoms: S1_10  and  C7_11 
REMARK    7  A    between atoms: C9_16  and  N3_17 
REMARK       I    between atoms: N3_17  and  C10_19 
REMARK       I    between atoms: C10_19  and  N4_21 
REMARK       I    between atoms: N4_21  and  C11_23 
REMARK    8  A    between atoms: C11_23  and  C12_25 
ROOT
HETATM    1  C7  UNL     1       1.390 -12.746 -24.793  1.00  0.00     0.147 A 
HETATM    2  N2  UNL     1       0.126 -12.330 -24.529  1.00  0.00    -0.302 N 
ATOM      3  H2  UNL     1      -0.504 -12.986 -24.066  1.00  0.00     0.171 HD
HETATM    4  C8  UNL     1      -0.347 -11.130 -24.832  1.00  0.00     0.276 A 
HETATM    5  O2  UNL     1      -1.518 -10.758 -24.581  1.00  0.00    -0.266 OA
HETATM    6  C9  UNL     1       0.520 -10.254 -25.461  1.00  0.00     0.127 A 
HETATM    7  C16 UNL     1       1.806 -10.637 -25.744  1.00  0.00     0.040 A 
HETATM    8  C17 UNL     1       2.733  -9.689 -26.413  1.00  0.00     0.071 C 
HETATM    9  N5  UNL     1       2.209 -11.887 -25.400  1.00  0.00    -0.338 N 
ATOM     10  H5  UNL     1       3.165 -12.175 -25.610  1.00  0.00     0.168 HD
ENDROOT
BRANCH   6  11
HETATM   11  N3  UNL     1       0.003  -8.954 -25.804  1.00  0.00    -0.302 N 
HETATM   12  C10 UNL     1      -0.592  -8.714 -27.055  1.00  0.00     0.327 C 
HETATM   13  O3  UNL     1      -0.672  -9.709 -27.884  1.00  0.00    -0.247 OA
HETATM   14  N4  UNL     1      -1.104  -7.490 -27.476  1.00  0.00    -0.278 N 
HETATM   15  C11 UNL     1      -1.116  -6.290 -26.750  1.00  0.00     0.233 C 
ATOM     16  H4  UNL     1      -1.513  -7.463 -28.410  1.00  0.00     0.173 HD
HETATM   17  O4  UNL     1      -0.651  -6.212 -25.602  1.00  0.00    -0.272 OA
ATOM     18  H3  UNL     1       0.070  -8.193 -25.127  1.00  0.00     0.171 HD
BRANCH  15  19
HETATM   19  C12 UNL     1      -1.718  -5.057 -27.390  1.00  0.00     0.030 C 
HETATM   20  C13 UNL     1      -0.662  -4.198 -28.010  1.00  0.00     0.025 C 
HETATM   21  C14 UNL     1      -2.798  -5.457 -28.348  1.00  0.00     0.025 C 
HETATM   22  C15 UNL     1      -2.344  -4.232 -26.255  1.00  0.00     0.025 C 
ENDBRANCH  15  19
ENDBRANCH   6  11
BRANCH   1  23
HETATM   23  S1  UNL     1       1.794 -14.387 -24.289  1.00  0.00    -0.085 SA
BRANCH  23  24
HETATM   24  C6  UNL     1       0.374 -15.436 -24.020  1.00  0.00     0.185 C 
BRANCH  24  25
HETATM   25  C5  UNL     1      -0.307 -15.282 -22.739  1.00  0.00     0.227 C 
HETATM   26  N1  UNL     1      -1.746 -15.157 -22.588  1.00  0.00    -0.360 N 
ATOM     27  H1  UNL     1      -2.343 -15.147 -23.415  1.00  0.00     0.162 HD
HETATM   28  O1  UNL     1       0.355 -15.251 -21.690  1.00  0.00    -0.273 OA
BRANCH  26  29
HETATM   29  C4  UNL     1      -2.343 -15.047 -21.271  1.00  0.00     0.122 C 
BRANCH  29  30
HETATM   30  C3  UNL     1      -2.970 -13.684 -21.129  1.00  0.00     0.019 C 
BRANCH  30  31
HETATM   31  C2  UNL     1      -2.059 -12.549 -21.511  1.00  0.00    -0.003 C 
HETATM   32  C1  UNL     1      -2.757 -11.211 -21.385  1.00  0.00     0.005 C 
ENDBRANCH  30  31
ENDBRANCH  29  30
ENDBRANCH  26  29
ENDBRANCH  24  25
ENDBRANCH  23  24
ENDBRANCH   1  23
TORSDOF 8
ENDMDL
MODEL 2
REMARK VINA RESULT: -8.182825906      1.220      1.632
REMARK  8 active torsions:
REMARK  status: ('A' for Active; 'I' for Inactive)
REMARK    1  A    between atoms: C2_2  and  C3_3 
REMARK    2  A    between atoms: C3_3  and  C4_4 
REMARK    3  A    between atoms: C4_4  and  N1_5 
REMARK       I    between atoms: N1_5  and  C5_7 
REMARK    4  A    between atoms: C5_7  and  C6_9 
REMARK    5  A    between atoms: C6_9  and  S1_10 
REMARK    6  A    between atoms: S1_10  and  C7_11 
REMARK    7  A    between atoms: C9_16  and  N3_17 
REMARK       I    between atoms: N3_17  and  C10_19 
REMARK       I    between atoms: C10_19  and  N4_21 
REMARK       I    between atoms: N4_21  and  C11_23 
REMARK    8  A    between atoms: C11_23  and  C12_25 
ROOT
HETATM    1  C7  UNL     1       1.156 -12.664 -24.395  1.00  0.00     0.147 A 
HETATM    2  N2  UNL     1      -0.081 -12.170 -24.136  1.00  0.00    -0.302 N 
ATOM      3  H2  UNL     1      -0.731 -12.761 -23.619  1.00  0.00     0.171 HD
HETATM    4  C8  UNL     1      -0.502 -10.970 -24.509  1.00  0.00     0.276 A 
HETATM    5  O2  UNL     1      -1.647 -10.524 -24.262  1.00  0.00    -0.266 OA
HETATM    6  C9  UNL     1       0.393 -10.181 -25.211  1.00  0.00     0.127 A 
HETATM    7  C16 UNL     1       1.652 -10.645 -25.492  1.00  0.00     0.040 A 
HETATM    8  C17 UNL     1       2.610  -9.790 -26.238  1.00  0.00     0.071 C 
HETATM    9  N5  UNL     1       2.002 -11.888 -25.072  1.00  0.00    -0.338 N 
ATOM     10  H5  UNL     1       2.938 -12.237 -25.281  1.00  0.00     0.168 HD
ENDROOT
BRANCH   6  11
HETATM   11  N3  UNL     1      -0.067  -8.882 -25.630  1.00  0.00    -0.302 N 
HETATM   12  C10 UNL     1      -0.648  -8.689 -26.895  1.00  0.00     0.327 C 
HETATM   13  O3  UNL     1      -0.768  -9.725 -27.666  1.00  0.00    -0.247 OA
HETATM   14  N4  UNL     1      -1.107  -7.470 -27.388  1.00  0.00    -0.278 N 
HETATM   15  C11 UNL     1      -1.071  -6.232 -26.731  1.00  0.00     0.233 C 
ATOM     16  H4  UNL     1      -1.513  -7.479 -28.324  1.00  0.00     0.173 HD
HETATM   17  O4  UNL     1      -0.606  -6.108 -25.587  1.00  0.00    -0.272 OA
ATOM     18  H3  UNL     1       0.030  -8.087 -24.997  1.00  0.00     0.171 HD
BRANCH  15  19
HETATM   19  C12 UNL     1      -1.619  -5.013 -27.443  1.00  0.00     0.030 C 
HETATM   20  C13 UNL     1      -0.533  -4.265 -28.149  1.00  0.00     0.025 C 
HETATM   21  C14 UNL     1      -2.748  -5.413 -28.343  1.00  0.00     0.025 C 
HETATM   22  C15 UNL     1      -2.161  -4.073 -26.355  1.00  0.00     0.025 C 
ENDBRANCH  15  19
ENDBRANCH   6  11
BRANCH   1  23
HETATM   23  S1  UNL     1       1.490 -14.286 -23.791  1.00  0.00    -0.085 SA
BRANCH  23  24
HETATM   24  C6  UNL     1       0.035 -15.190 -23.285  1.00  0.00     0.185 C 
BRANCH  24  25
HETATM   25  C5  UNL     1      -0.632 -14.713 -22.078  1.00  0.00     0.227 C 
HETATM   26  N1  UNL     1      -1.748 -15.388 -21.439  1.00  0.00    -0.360 N 
ATOM     27  H1  UNL     1      -2.129 -16.238 -21.854  1.00  0.00     0.162 HD
HETATM   28  O1  UNL     1      -0.246 -13.665 -21.535  1.00  0.00    -0.273 OA
BRANCH  26  29
HETATM   29  C4  UNL     1      -2.325 -14.864 -20.217  1.00  0.00     0.122 C 
BRANCH  29  30
HETATM   30  C3  UNL     1      -2.199 -15.900 -19.130  1.00  0.00     0.019 C 
BRANCH  30  31
HETATM   31  C2  UNL     1      -1.397 -15.444 -17.940  1.00  0.00    -0.003 C 
HETATM   32  C1  UNL     1       0.021 -15.085 -18.332  1.00  0.00     0.005 C 
ENDBRANCH  30  31
ENDBRANCH  29  30
ENDBRANCH  26  29
ENDBRANCH  24  25
ENDBRANCH  23  24
ENDBRANCH   1  23
TORSDOF 8
ENDMDL
MODEL 3
REMARK VINA RESULT: -7.967187801      1.390      1.799
REMARK  8 active torsions:
REMARK  status: ('A' for Active; 'I' for Inactive)
REMARK    1  A    between atoms: C2_2  and  C3_3 
REMARK    2  A    between atoms: C3_3  and  C4_4 
REMARK    3  A    between atoms: C4_4  and  N1_5 
REMARK       I    between atoms: N1_5  and  C5_7 
REMARK    4  A    between atoms: C5_7  and  C6_9 
REMARK    5  A    between atoms: C6_9  and  S1_10 
REMARK    6  A    between atoms: S1_10  and  C7_11 
REMARK    7  A    between atoms: C9_16  and  N3_17 
REMARK       I    between atoms: N3_17  and  C10_19 
REMARK       I    between atoms: C10_19  and  N4_21 
REMARK       I    between atoms: N4_21  and  C11_23 
REMARK    8  A    between atoms: C11_23  and  C12_25 
ROOT
HETATM    1  C7  UNL     1       1.333 -12.745 -24.632  1.00  0.00     0.147 A 
HETATM    2  N2  UNL     1       0.076 -12.313 -24.359  1.00  0.00    -0.302 N 
ATOM      3  H2  UNL     1      -0.551 -12.953 -23.871  1.00  0.00     0.171 HD
HETATM    4  C8  UNL     1      -0.392 -11.116 -24.682  1.00  0.00     0.276 A 
HETATM    5  O2  UNL     1      -1.555 -10.729 -24.422  1.00  0.00    -0.266 OA
HETATM    6  C9  UNL     1       0.473 -10.263 -25.345  1.00  0.00     0.127 A 
HETATM    7  C16 UNL     1       1.750 -10.663 -25.639  1.00  0.00     0.040 A 
HETATM    8  C17 UNL     1       2.675  -9.738 -26.344  1.00  0.00     0.071 C 
HETATM    9  N5  UNL     1       2.150 -11.907 -25.272  1.00  0.00    -0.338 N 
ATOM     10  H5  UNL     1       3.099 -12.209 -25.490  1.00  0.00     0.168 HD
ENDROOT
BRANCH   6  11
HETATM   11  N3  UNL     1      -0.039  -8.966 -25.710  1.00  0.00    -0.302 N 
HETATM   12  C10 UNL     1      -0.654  -8.751 -26.956  1.00  0.00     0.327 C 
HETATM   13  O3  UNL     1      -0.757  -9.764 -27.759  1.00  0.00    -0.247 OA
HETATM   14  N4  UNL     1      -1.163  -7.533 -27.398  1.00  0.00    -0.278 N 
HETATM   15  C11 UNL     1      -1.152  -6.316 -26.700  1.00  0.00     0.233 C 
ATOM     16  H4  UNL     1      -1.588  -7.524 -28.325  1.00  0.00     0.173 HD
HETATM   17  O4  UNL     1      -0.667  -6.215 -25.563  1.00  0.00    -0.272 OA
ATOM     18  H3  UNL     1       0.046  -8.190 -25.053  1.00  0.00     0.171 HD
BRANCH  15  19
HETATM   19  C12 UNL     1      -1.755  -5.093 -27.359  1.00  0.00     0.030 C 
HETATM   20  C13 UNL     1      -0.706  -4.270 -28.035  1.00  0.00     0.025 C 
HETATM   21  C14 UNL     1      -2.869  -5.505 -28.273  1.00  0.00     0.025 C 
HETATM   22  C15 UNL     1      -2.334  -4.225 -26.231  1.00  0.00     0.025 C 
ENDBRANCH  15  19
ENDBRANCH   6  11
BRANCH   1  23
HETATM   23  S1  UNL     1       1.732 -14.377 -24.097  1.00  0.00    -0.085 SA
BRANCH  23  24
HETATM   24  C6  UNL     1       0.397 -15.214 -23.256  1.00  0.00     0.185 C 
BRANCH  24  25
HETATM   25  C5  UNL     1       0.051 -14.707 -21.932  1.00  0.00     0.227 C 
HETATM   26  N1  UNL     1       0.458 -15.330 -20.685  1.00  0.00    -0.360 N 
ATOM     27  H1  UNL     1       0.999 -16.194 -20.705  1.00  0.00     0.162 HD
HETATM   28  O1  UNL     1      -0.635 -13.677 -21.828  1.00  0.00    -0.273 OA
BRANCH  26  29
HETATM   29  C4  UNL     1       0.102 -14.734 -19.412  1.00  0.00     0.122 C 
BRANCH  29  30
HETATM   30  C3  UNL     1      -0.464 -15.802 -18.512  1.00  0.00     0.019 C 
BRANCH  30  31
HETATM   31  C2  UNL     1      -1.901 -15.575 -18.123  1.00  0.00    -0.003 C 
HETATM   32  C1  UNL     1      -2.835 -15.814 -19.291  1.00  0.00     0.005 C 
ENDBRANCH  30  31
ENDBRANCH  29  30
ENDBRANCH  26  29
ENDBRANCH  24  25
ENDBRANCH  23  24
ENDBRANCH   1  23
TORSDOF 8
ENDMDL
MODEL 4
REMARK VINA RESULT: -7.923088731      1.233      1.992
REMARK  8 active torsions:
REMARK  status: ('A' for Active; 'I' for Inactive)
REMARK    1  A    between atoms: C2_2  and  C3_3 
REMARK    2  A    between atoms: C3_3  and  C4_4 
REMARK    3  A    between atoms: C4_4  and  N1_5 
REMARK       I    between atoms: N1_5  and  C5_7 
REMARK    4  A    between atoms: C5_7  and  C6_9 
REMARK    5  A    between atoms: C6_9  and  S1_10 
REMARK    6  A    between atoms: S1_10  and  C7_11 
REMARK    7  A    between atoms: C9_16  and  N3_17 
REMARK       I    between atoms: N3_17  and  C10_19 
REMARK       I    between atoms: C10_19  and  N4_21 
REMARK       I    between atoms: N4_21  and  C11_23 
REMARK    8  A    between atoms: C11_23  and  C12_25 
ROOT
HETATM    1  C7  UNL     1       1.795 -12.657 -24.484  1.00  0.00     0.147 A 
HETATM    2  N2  UNL     1       2.374 -11.792 -25.354  1.00  0.00    -0.302 N 
ATOM      3  H2  UNL     1       3.275 -12.052 -25.755  1.00  0.00     0.171 HD
HETATM    4  C8  UNL     1       1.847 -10.632 -25.719  1.00  0.00     0.276 A 
HETATM    5  O2  UNL     1       2.392  -9.842 -26.527  1.00  0.00    -0.266 OA
HETATM    6  C9  UNL     1       0.625 -10.296 -25.164  1.00  0.00     0.127 A 
HETATM    7  C16 UNL     1       0.009 -11.144 -24.281  1.00  0.00     0.040 A 
HETATM    8  C17 UNL     1      -1.307 -10.779 -23.695  1.00  0.00     0.071 C 
HETATM    9  N5  UNL     1       0.618 -12.314 -23.960  1.00  0.00    -0.338 N 
ATOM     10  H5  UNL     1       0.164 -12.946 -23.302  1.00  0.00     0.168 HD
ENDROOT
BRANCH   6  11
HETATM   11  N3  UNL     1       0.058  -9.028 -25.549  1.00  0.00    -0.302 N 
HETATM   12  C10 UNL     1      -0.826  -8.927 -26.637  1.00  0.00     0.327 C 
HETATM   13  O3  UNL     1      -1.125 -10.017 -27.273  1.00  0.00    -0.247 OA
HETATM   14  N4  UNL     1      -1.410  -7.745 -27.088  1.00  0.00    -0.278 N 
HETATM   15  C11 UNL     1      -1.222  -6.461 -26.556  1.00  0.00     0.233 C 
ATOM     16  H4  UNL     1      -2.038  -7.821 -27.887  1.00  0.00     0.173 HD
HETATM   17  O4  UNL     1      -0.485  -6.255 -25.579  1.00  0.00    -0.272 OA
ATOM     18  H3  UNL     1       0.302  -8.189 -25.022  1.00  0.00     0.171 HD
BRANCH  15  19
HETATM   19  C12 UNL     1      -1.947  -5.295 -27.195  1.00  0.00     0.030 C 
HETATM   20  C13 UNL     1      -0.998  -4.412 -27.942  1.00  0.00     0.025 C 
HETATM   21  C14 UNL     1      -3.079  -5.799 -28.037  1.00  0.00     0.025 C 
HETATM   22  C15 UNL     1      -2.521  -4.450 -26.048  1.00  0.00     0.025 C 
ENDBRANCH  15  19
ENDBRANCH   6  11
BRANCH   1  23
HETATM   23  S1  UNL     1       2.684 -14.145 -24.155  1.00  0.00    -0.085 SA
BRANCH  23  24
HETATM   24  C6  UNL     1       1.659 -15.497 -23.597  1.00  0.00     0.185 C 
BRANCH  24  25
HETATM   25  C5  UNL     1       1.350 -15.524 -22.171  1.00  0.00     0.227 C 
HETATM   26  N1  UNL     1       0.214 -14.850 -21.567  1.00  0.00    -0.360 N 
ATOM     27  H1  UNL     1      -0.410 -14.292 -22.148  1.00  0.00     0.162 HD
HETATM   28  O1  UNL     1       2.084 -16.156 -21.395  1.00  0.00    -0.273 OA
BRANCH  26  29
HETATM   29  C4  UNL     1      -0.040 -14.964 -20.144  1.00  0.00     0.122 C 
BRANCH  29  30
HETATM   30  C3  UNL     1      -1.523 -15.109 -19.921  1.00  0.00     0.019 C 
BRANCH  30  31
HETATM   31  C2  UNL     1      -2.355 -14.842 -21.147  1.00  0.00    -0.003 C 
HETATM   32  C1  UNL     1      -2.964 -13.456 -21.112  1.00  0.00     0.005 C 
ENDBRANCH  30  31
ENDBRANCH  29  30
ENDBRANCH  26  29
ENDBRANCH  24  25
ENDBRANCH  23  24
ENDBRANCH   1  23
TORSDOF 8
ENDMDL
MODEL 5
REMARK VINA RESULT: -7.913889740      0.906      1.400
REMARK  8 active torsions:
REMARK  status: ('A' for Active; 'I' for Inactive)
REMARK    1  A    between atoms: C2_2  and  C3_3 
REMARK    2  A    between atoms: C3_3  and  C4_4 
REMARK    3  A    between atoms: C4_4  and  N1_5 
REMARK       I    between atoms: N1_5  and  C5_7 
REMARK    4  A    between atoms: C5_7  and  C6_9 
REMARK    5  A    between atoms: C6_9  and  S1_10 
REMARK    6  A    between atoms: S1_10  and  C7_11 
REMARK    7  A    between atoms: C9_16  and  N3_17 
REMARK       I    between atoms: N3_17  and  C10_19 
REMARK       I    between atoms: C10_19  and  N4_21 
REMARK       I    between atoms: N4_21  and  C11_23 
REMARK    8  A    between atoms: C11_23  and  C12_25 
ROOT
HETATM    1  C7  UNL     1       1.463 -12.604 -24.701  1.00  0.00     0.147 A 
HETATM    2  N2  UNL     1       0.151 -12.267 -24.619  1.00  0.00    -0.302 N 
ATOM      3  H2  UNL     1      -0.483 -12.928 -24.168  1.00  0.00     0.171 HD
HETATM    4  C8  UNL     1      -0.363 -11.138 -25.085  1.00  0.00     0.276 A 
HETATM    5  O2  UNL     1      -1.577 -10.838 -25.001  1.00  0.00    -0.266 OA
HETATM    6  C9  UNL     1       0.511 -10.255 -25.694  1.00  0.00     0.127 A 
HETATM    7  C16 UNL     1       1.844 -10.560 -25.796  1.00  0.00     0.040 A 
HETATM    8  C17 UNL     1       2.778  -9.604 -26.444  1.00  0.00     0.071 C 
HETATM    9  N5  UNL     1       2.288 -11.740 -25.292  1.00  0.00    -0.338 N 
ATOM     10  H5  UNL     1       3.278 -11.971 -25.367  1.00  0.00     0.168 HD
ENDROOT
BRANCH   6  11
HETATM   11  N3  UNL     1      -0.048  -9.034 -26.214  1.00  0.00    -0.302 N 
HETATM   12  C10 UNL     1      -0.283  -7.928 -25.379  1.00  0.00     0.327 C 
HETATM   13  O3  UNL     1       0.036  -8.040 -24.127  1.00  0.00    -0.247 OA
HETATM   14  N4  UNL     1      -0.832  -6.716 -25.791  1.00  0.00    -0.278 N 
HETATM   15  C11 UNL     1      -1.251  -6.382 -27.087  1.00  0.00     0.233 C 
ATOM     16  H4  UNL     1      -0.940  -5.996 -25.076  1.00  0.00     0.173 HD
HETATM   17  O4  UNL     1      -1.159  -7.178 -28.034  1.00  0.00    -0.272 OA
ATOM     18  H3  UNL     1      -0.279  -8.970 -27.206  1.00  0.00     0.171 HD
BRANCH  15  19
HETATM   19  C12 UNL     1      -1.831  -5.004 -27.333  1.00  0.00     0.030 C 
HETATM   20  C13 UNL     1      -2.513  -4.478 -26.110  1.00  0.00     0.025 C 
HETATM   21  C14 UNL     1      -0.768  -4.091 -27.861  1.00  0.00     0.025 C 
HETATM   22  C15 UNL     1      -2.919  -5.169 -28.405  1.00  0.00     0.025 C 
ENDBRANCH  15  19
ENDBRANCH   6  11
BRANCH   1  23
HETATM   23  S1  UNL     1       1.914 -14.160 -24.002  1.00  0.00    -0.085 SA
BRANCH  23  24
HETATM   24  C6  UNL     1       0.534 -15.255 -23.712  1.00  0.00     0.185 C 
BRANCH  24  25
HETATM   25  C5  UNL     1      -0.191 -15.060 -22.460  1.00  0.00     0.227 C 
HETATM   26  N1  UNL     1      -1.615 -14.791 -22.374  1.00  0.00    -0.360 N 
ATOM     27  H1  UNL     1      -2.165 -14.700 -23.228  1.00  0.00     0.162 HD
HETATM   28  O1  UNL     1       0.418 -15.121 -21.380  1.00  0.00    -0.273 OA
BRANCH  26  29
HETATM   29  C4  UNL     1      -2.263 -14.649 -21.085  1.00  0.00     0.122 C 
BRANCH  29  30
HETATM   30  C3  UNL     1      -2.951 -13.309 -21.026  1.00  0.00     0.019 C 
BRANCH  30  31
HETATM   31  C2  UNL     1      -2.239 -12.222 -21.785  1.00  0.00    -0.003 C 
HETATM   32  C1  UNL     1      -2.750 -10.850 -21.399  1.00  0.00     0.005 C 
ENDBRANCH  30  31
ENDBRANCH  29  30
ENDBRANCH  26  29
ENDBRANCH  24  25
ENDBRANCH  23  24
ENDBRANCH   1  23
TORSDOF 8
ENDMDL
