MODEL 1
REMARK VINA RESULT: -11.113939896      0.000      0.000
REMARK  16 active torsions:
REMARK  status: ('A' for Active; 'I' for Inactive)
REMARK    1  A    between atoms: N1_2  and  C4_5 
REMARK    2  A    between atoms: C7_8  and  C8_9 
REMARK    3  A    between atoms: C10_11  and  N2_12 
REMARK    4  A    between atoms: N2_12  and  C11_13 
REMARK    5  A    between atoms: N2_12  and  S1_33 
REMARK    6  A    between atoms: C11_13  and  C12_14 
REMARK    7  A    between atoms: C13_15  and  C14_16 
REMARK    8  A    between atoms: C14_16  and  N3_17 
REMARK       I    between atoms: N3_17  and  C15_19 
REMARK       I    between atoms: C15_19  and  N5_23 
REMARK    9  A    between atoms: N5_23  and  C16_25 
REMARK   10  A    between atoms: C16_25  and  C17_26 
REMARK   11  A    between atoms: C17_26  and  C18_27 
REMARK   12  A    between atoms: N6_39  and  C27_40 
REMARK   13  A    between atoms: C27_40  and  N7_41 
REMARK   14  A    between atoms: N8_43  and  C28_45 
REMARK   15  A    between atoms: C28_45  and  C29_46 
REMARK   16  A    between atoms: C29_46  and  C30_47 
ROOT
HETATM    1  C8  UNL     1      11.819   3.393   2.505  1.00  0.00     0.072 A 
HETATM    2  C9  UNL     1      10.798   2.462   2.773  1.00  0.00     0.063 A 
HETATM    3  C10 UNL     1      10.968   1.211   3.255  1.00  0.00     0.049 A 
HETATM    4  C25 UNL     1      12.292   0.831   3.499  1.00  0.00     0.047 A 
HETATM    5  C26 UNL     1      13.305   1.699   3.252  1.00  0.00     0.095 A 
HETATM    6  N6  UNL     1      13.046   2.971   2.757  1.00  0.00    -0.337 N 
ENDROOT
BRANCH   3   7
HETATM    7  N2  UNL     1       9.980   0.267   3.572  1.00  0.00    -0.265 N 
BRANCH   7   8
HETATM    8  C11 UNL     1       9.707  -0.839   2.696  1.00  0.00     0.235 C 
BRANCH   8   9
HETATM    9  C12 UNL     1       9.999  -2.126   3.349  1.00  0.00    -0.084 C 
HETATM   10  C13 UNL     1      10.262  -3.180   3.893  1.00  0.00    -0.085 C 
BRANCH  10  11
HETATM   11  C14 UNL     1      10.610  -4.461   4.573  1.00  0.00     0.232 C 
BRANCH  11  12
HETATM   12  N3  UNL     1      10.144  -5.571   3.800  1.00  0.00    -0.216 N 
HETATM   13  C15 UNL     1      10.941  -6.321   2.960  1.00  0.00     0.668 C 
HETATM   14  N4  UNL     1      10.512  -7.506   2.566  1.00  0.00    -0.235 N 
HETATM   15  N5  UNL     1      12.204  -5.936   2.469  1.00  0.00    -0.227 N 
ATOM     16  H42 UNL     1       9.598  -7.785   2.922  1.00  0.00     0.174 HD
ATOM     17  H41 UNL     1      11.101  -8.061   1.945  1.00  0.00     0.174 HD
ATOM     18  H5  UNL     1      12.324  -5.889   1.457  1.00  0.00     0.177 HD
ATOM     19  H3  UNL     1       9.159  -5.823   3.874  1.00  0.00     0.178 HD
BRANCH  15  20
HETATM   20  C16 UNL     1      13.329  -5.606   3.284  1.00  0.00     0.142 C 
BRANCH  20  21
HETATM   21  C17 UNL     1      14.360  -6.694   3.281  1.00  0.00     0.058 C 
BRANCH  21  22
HETATM   22  C18 UNL     1      14.031  -7.810   4.180  1.00  0.00    -0.057 A 
HETATM   23  C19 UNL     1      13.665  -7.608   5.500  1.00  0.00     0.007 A 
HETATM   24  C20 UNL     1      13.357  -8.634   6.356  1.00  0.00     0.001 A 
HETATM   25  C21 UNL     1      13.409  -9.935   5.907  1.00  0.00     0.000 A 
HETATM   26  C22 UNL     1      13.776 -10.131   4.587  1.00  0.00     0.001 A 
HETATM   27  C23 UNL     1      14.084  -9.117   3.721  1.00  0.00     0.007 A 
ENDBRANCH  21  22
ENDBRANCH  20  21
ENDBRANCH  15  20
ENDBRANCH  11  12
ENDBRANCH  10  11
ENDBRANCH   8   9
ENDBRANCH   7   8
BRANCH   7  28
HETATM   28  S1  UNL     1       9.102   0.435   5.046  1.00  0.00     0.230 S 
HETATM   29  C24 UNL     1       8.144   1.928   4.899  1.00  0.00     0.186 C 
HETATM   30  O1  UNL     1       8.311  -0.757   5.415  1.00  0.00    -0.206 OA
HETATM   31  O2  UNL     1      10.065   0.691   6.205  1.00  0.00    -0.206 OA
ENDBRANCH   7  28
ENDBRANCH   3   7
BRANCH   1  32
HETATM   32  C7  UNL     1      11.424   4.738   2.061  1.00  0.00     0.104 A 
HETATM   33  C6  UNL     1      11.174   5.908   2.657  1.00  0.00     0.044 A 
HETATM   34  C5  UNL     1      10.832   6.839   1.662  1.00  0.00     0.067 A 
HETATM   35  C4  UNL     1      10.900   6.149   0.474  1.00  0.00     0.248 A 
HETATM   36  O3  UNL     1      11.242   4.954   0.749  1.00  0.00    -0.285 OA
BRANCH  35  37
HETATM   37  N1  UNL     1      10.636   6.668  -0.839  1.00  0.00    -0.027 N 
HETATM   38  C1  UNL     1      11.024   8.053  -0.943  1.00  0.00     0.281 C 
HETATM   39  C2  UNL     1       9.266   6.476  -1.213  1.00  0.00     0.281 C 
HETATM   40  C3  UNL     1      11.486   5.907  -1.771  1.00  0.00     0.281 C 
ENDBRANCH  35  37
ENDBRANCH   1  32
BRANCH   6  41
HETATM   41  C27 UNL     1      14.211   3.775   2.533  1.00  0.00     0.268 C 
BRANCH  41  42
HETATM   42  N7  UNL     1      14.224   4.369   1.212  1.00  0.00    -0.322 N 
HETATM   43  N8  UNL     1      14.864   5.335   0.884  1.00  0.00    -0.339 N 
ATOM     44  H8  UNL     1      15.434   5.737   1.628  1.00  0.00     0.179 HD
ATOM     45  H7  UNL     1      13.640   3.931   0.499  1.00  0.00     0.181 HD
BRANCH  43  46
HETATM   46  C28 UNL     1      14.959   6.006  -0.358  1.00  0.00     0.143 C 
BRANCH  46  47
HETATM   47  C29 UNL     1      14.576   7.446  -0.226  1.00  0.00     0.060 C 
BRANCH  47  48
HETATM   48  C30 UNL     1      15.471   8.245   0.624  1.00  0.00    -0.045 A 
HETATM   49  C31 UNL     1      16.719   8.622   0.123  1.00  0.00     0.008 A 
HETATM   50  C32 UNL     1      17.619   9.363   0.850  1.00  0.00     0.001 A 
HETATM   51  C33 UNL     1      17.320   9.770   2.121  1.00  0.00     0.012 A 
HETATM   52  C34 UNL     1      16.094   9.415   2.645  1.00  0.00    -0.025 A 
HETATM   53  C35 UNL     1      15.792   9.831   3.925  1.00  0.00     0.012 A 
HETATM   54  C39 UNL     1      15.199   8.667   1.900  1.00  0.00    -0.020 A 
HETATM   55  C36 UNL     1      14.576   9.495   4.464  1.00  0.00     0.001 A 
HETATM   56  C37 UNL     1      13.690   8.756   3.727  1.00  0.00     0.001 A 
HETATM   57  C38 UNL     1      13.983   8.336   2.451  1.00  0.00     0.013 A 
ENDBRANCH  47  48
ENDBRANCH  46  47
ENDBRANCH  43  46
ENDBRANCH  41  42
ENDBRANCH   6  41
TORSDOF 16
ENDMDL
MODEL 2
REMARK VINA RESULT: -10.951797490      2.181      2.896
REMARK  16 active torsions:
REMARK  status: ('A' for Active; 'I' for Inactive)
REMARK    1  A    between atoms: N1_2  and  C4_5 
REMARK    2  A    between atoms: C7_8  and  C8_9 
REMARK    3  A    between atoms: C10_11  and  N2_12 
REMARK    4  A    between atoms: N2_12  and  C11_13 
REMARK    5  A    between atoms: N2_12  and  S1_33 
REMARK    6  A    between atoms: C11_13  and  C12_14 
REMARK    7  A    between atoms: C13_15  and  C14_16 
REMARK    8  A    between atoms: C14_16  and  N3_17 
REMARK       I    between atoms: N3_17  and  C15_19 
REMARK       I    between atoms: C15_19  and  N5_23 
REMARK    9  A    between atoms: N5_23  and  C16_25 
REMARK   10  A    between atoms: C16_25  and  C17_26 
REMARK   11  A    between atoms: C17_26  and  C18_27 
REMARK   12  A    between atoms: N6_39  and  C27_40 
REMARK   13  A    between atoms: C27_40  and  N7_41 
REMARK   14  A    between atoms: N8_43  and  C28_45 
REMARK   15  A    between atoms: C28_45  and  C29_46 
REMARK   16  A    between atoms: C29_46  and  C30_47 
ROOT
HETATM    1  C8  UNL     1      13.627   2.154   0.471  1.00  0.00     0.072 A 
HETATM    2  C9  UNL     1      12.488   1.415   0.845  1.00  0.00     0.063 A 
HETATM    3  C10 UNL     1      11.993   1.295   2.096  1.00  0.00     0.049 A 
HETATM    4  C25 UNL     1      12.698   1.976   3.095  1.00  0.00     0.047 A 
HETATM    5  C26 UNL     1      13.803   2.697   2.776  1.00  0.00     0.095 A 
HETATM    6  N6  UNL     1      14.247   2.772   1.461  1.00  0.00    -0.337 N 
ENDROOT
BRANCH   3   7
HETATM    7  N2  UNL     1      10.843   0.603   2.507  1.00  0.00    -0.265 N 
BRANCH   7   8
HETATM    8  C11 UNL     1      10.940  -0.556   3.349  1.00  0.00     0.235 C 
BRANCH   8   9
HETATM    9  C12 UNL     1      11.201  -1.772   2.561  1.00  0.00    -0.084 C 
HETATM   10  C13 UNL     1      11.419  -2.789   1.932  1.00  0.00    -0.085 C 
BRANCH  10  11
HETATM   11  C14 UNL     1      11.683  -4.052   1.185  1.00  0.00     0.232 C 
BRANCH  11  12
HETATM   12  N3  UNL     1      10.606  -4.973   1.381  1.00  0.00    -0.216 N 
HETATM   13  C15 UNL     1      10.643  -6.034   2.262  1.00  0.00     0.668 C 
HETATM   14  N4  UNL     1       9.507  -6.606   2.618  1.00  0.00    -0.235 N 
HETATM   15  N5  UNL     1      11.807  -6.582   2.836  1.00  0.00    -0.227 N 
ATOM     16  H42 UNL     1       8.664  -6.209   2.202  1.00  0.00     0.174 HD
ATOM     17  H41 UNL     1       9.533  -7.390   3.269  1.00  0.00     0.174 HD
ATOM     18  H5  UNL     1      11.996  -7.570   2.671  1.00  0.00     0.177 HD
ATOM     19  H3  UNL     1       9.757  -4.837   0.834  1.00  0.00     0.178 HD
BRANCH  15  20
HETATM   20  C16 UNL     1      12.742  -5.854   3.634  1.00  0.00     0.142 C 
BRANCH  20  21
HETATM   21  C17 UNL     1      14.044  -6.584   3.774  1.00  0.00     0.058 C 
BRANCH  21  22
HETATM   22  C18 UNL     1      13.908  -7.899   4.418  1.00  0.00    -0.057 A 
HETATM   23  C19 UNL     1      14.162  -9.079   3.738  1.00  0.00     0.007 A 
HETATM   24  C20 UNL     1      14.040 -10.316   4.318  1.00  0.00     0.001 A 
HETATM   25  C21 UNL     1      13.645 -10.417   5.633  1.00  0.00     0.000 A 
HETATM   26  C22 UNL     1      13.393  -9.234   6.306  1.00  0.00     0.001 A 
HETATM   27  C23 UNL     1      13.512  -7.993   5.743  1.00  0.00     0.007 A 
ENDBRANCH  21  22
ENDBRANCH  20  21
ENDBRANCH  15  20
ENDBRANCH  11  12
ENDBRANCH  10  11
ENDBRANCH   8   9
ENDBRANCH   7   8
BRANCH   7  28
HETATM   28  S1  UNL     1       9.297   1.175   2.003  1.00  0.00     0.230 S 
HETATM   29  C24 UNL     1       8.881   0.277   0.524  1.00  0.00     0.186 C 
HETATM   30  O1  UNL     1       8.262   1.118   3.056  1.00  0.00    -0.206 OA
HETATM   31  O2  UNL     1       9.393   2.638   1.569  1.00  0.00    -0.206 OA
ENDBRANCH   7  28
ENDBRANCH   3   7
BRANCH   1  32
HETATM   32  C7  UNL     1      13.958   2.230  -0.960  1.00  0.00     0.104 A 
HETATM   33  C6  UNL     1      14.580   1.444  -1.842  1.00  0.00     0.044 A 
HETATM   34  C5  UNL     1      14.576   2.096  -3.086  1.00  0.00     0.067 A 
HETATM   35  C4  UNL     1      13.921   3.287  -2.875  1.00  0.00     0.248 A 
HETATM   36  O3  UNL     1      13.585   3.322  -1.647  1.00  0.00    -0.285 OA
BRANCH  35  37
HETATM   37  N1  UNL     1      13.660   4.310  -3.848  1.00  0.00    -0.027 N 
HETATM   38  C1  UNL     1      12.955   5.423  -3.262  1.00  0.00     0.281 C 
HETATM   39  C2  UNL     1      12.964   3.787  -4.986  1.00  0.00     0.281 C 
HETATM   40  C3  UNL     1      14.972   4.811  -4.292  1.00  0.00     0.281 C 
ENDBRANCH  35  37
ENDBRANCH   1  32
BRANCH   6  41
HETATM   41  C27 UNL     1      15.430   3.559   1.273  1.00  0.00     0.268 C 
BRANCH  41  42
HETATM   42  N7  UNL     1      15.143   4.851   0.687  1.00  0.00    -0.322 N 
HETATM   43  N8  UNL     1      15.632   5.286  -0.324  1.00  0.00    -0.339 N 
ATOM     44  H8  UNL     1      16.298   4.659  -0.776  1.00  0.00     0.179 HD
ATOM     45  H7  UNL     1      14.468   5.444   1.171  1.00  0.00     0.181 HD
BRANCH  43  46
HETATM   46  C28 UNL     1      15.440   6.519  -0.991  1.00  0.00     0.143 C 
BRANCH  46  47
HETATM   47  C29 UNL     1      14.684   7.486  -0.136  1.00  0.00     0.060 C 
BRANCH  47  48
HETATM   48  C30 UNL     1      15.520   8.306   0.752  1.00  0.00    -0.045 A 
HETATM   49  C31 UNL     1      16.773   8.728   0.300  1.00  0.00     0.008 A 
HETATM   50  C32 UNL     1      17.620   9.492   1.065  1.00  0.00     0.001 A 
HETATM   51  C33 UNL     1      17.262   9.878   2.327  1.00  0.00     0.012 A 
HETATM   52  C34 UNL     1      16.031   9.477   2.804  1.00  0.00    -0.025 A 
HETATM   53  C35 UNL     1      15.669   9.872   4.075  1.00  0.00     0.012 A 
HETATM   54  C39 UNL     1      15.188   8.708   2.021  1.00  0.00    -0.020 A 
HETATM   55  C36 UNL     1      14.446   9.491   4.566  1.00  0.00     0.001 A 
HETATM   56  C37 UNL     1      13.612   8.730   3.792  1.00  0.00     0.001 A 
HETATM   57  C38 UNL     1      13.965   8.331   2.524  1.00  0.00     0.013 A 
ENDBRANCH  47  48
ENDBRANCH  46  47
ENDBRANCH  43  46
ENDBRANCH  41  42
ENDBRANCH   6  41
TORSDOF 16
ENDMDL
MODEL 3
REMARK VINA RESULT: -10.914344209      2.080      3.362
REMARK  16 active torsions:
REMARK  status: ('A' for Active; 'I' for Inactive)
REMARK    1  A    between atoms: N1_2  and  C4_5 
REMARK    2  A    between atoms: C7_8  and  C8_9 
REMARK    3  A    between atoms: C10_11  and  N2_12 
REMARK    4  A    between atoms: N2_12  and  C11_13 
REMARK    5  A    between atoms: N2_12  and  S1_33 
REMARK    6  A    between atoms: C11_13  and  C12_14 
REMARK    7  A    between atoms: C13_15  and  C14_16 
REMARK    8  A    between atoms: C14_16  and  N3_17 
REMARK       I    between atoms: N3_17  and  C15_19 
REMARK       I    between atoms: C15_19  and  N5_23 
REMARK    9  A    between atoms: N5_23  and  C16_25 
REMARK   10  A    between atoms: C16_25  and  C17_26 
REMARK   11  A    between atoms: C17_26  and  C18_27 
REMARK   12  A    between atoms: N6_39  and  C27_40 
REMARK   13  A    between atoms: C27_40  and  N7_41 
REMARK   14  A    between atoms: N8_43  and  C28_45 
REMARK   15  A    between atoms: C28_45  and  C29_46 
REMARK   16  A    between atoms: C29_46  and  C30_47 
ROOT
HETATM    1  C8  UNL     1      13.441   2.077   1.026  1.00  0.00     0.072 A 
HETATM    2  C9  UNL     1      12.482   1.049   0.947  1.00  0.00     0.063 A 
HETATM    3  C10 UNL     1      11.727   0.585   1.966  1.00  0.00     0.049 A 
HETATM    4  C25 UNL     1      11.940   1.198   3.206  1.00  0.00     0.047 A 
HETATM    5  C26 UNL     1      12.856   2.192   3.324  1.00  0.00     0.095 A 
HETATM    6  N6  UNL     1      13.593   2.614   2.224  1.00  0.00    -0.337 N 
ENDROOT
BRANCH   3   7
HETATM    7  N2  UNL     1      10.736  -0.408   1.925  1.00  0.00    -0.265 N 
BRANCH   7   8
HETATM    8  C11 UNL     1      10.712  -1.469   2.892  1.00  0.00     0.235 C 
BRANCH   8   9
HETATM    9  C12 UNL     1      11.096  -2.756   2.289  1.00  0.00    -0.084 C 
HETATM   10  C13 UNL     1      11.398  -3.814   1.772  1.00  0.00    -0.085 C 
BRANCH  10  11
HETATM   11  C14 UNL     1      11.755  -5.102   1.111  1.00  0.00     0.232 C 
BRANCH  11  12
HETATM   12  N3  UNL     1      10.670  -6.027   1.218  1.00  0.00    -0.216 N 
HETATM   13  C15 UNL     1      10.473  -6.872   2.291  1.00  0.00     0.668 C 
HETATM   14  N4  UNL     1       9.286  -7.426   2.455  1.00  0.00    -0.235 N 
HETATM   15  N5  UNL     1      11.442  -7.209   3.256  1.00  0.00    -0.227 N 
ATOM     16  H42 UNL     1       8.584  -7.182   1.756  1.00  0.00     0.174 HD
ATOM     17  H41 UNL     1       9.140  -8.051   3.248  1.00  0.00     0.174 HD
ATOM     18  H5  UNL     1      11.673  -8.196   3.369  1.00  0.00     0.177 HD
ATOM     19  H3  UNL     1       9.998  -6.065   0.452  1.00  0.00     0.178 HD
BRANCH  15  20
HETATM   20  C16 UNL     1      12.124  -6.270   4.088  1.00  0.00     0.142 C 
BRANCH  20  21
HETATM   21  C17 UNL     1      13.540  -6.683   4.352  1.00  0.00     0.058 C 
BRANCH  21  22
HETATM   22  C18 UNL     1      13.682  -8.114   4.659  1.00  0.00    -0.057 A 
HETATM   23  C19 UNL     1      14.215  -9.012   3.748  1.00  0.00     0.007 A 
HETATM   24  C20 UNL     1      14.354 -10.350   4.012  1.00  0.00     0.001 A 
HETATM   25  C21 UNL     1      13.950 -10.851   5.229  1.00  0.00     0.000 A 
HETATM   26  C22 UNL     1      13.418  -9.950   6.135  1.00  0.00     0.001 A 
HETATM   27  C23 UNL     1      13.275  -8.611   5.887  1.00  0.00     0.007 A 
ENDBRANCH  21  22
ENDBRANCH  20  21
ENDBRANCH  15  20
ENDBRANCH  11  12
ENDBRANCH  10  11
ENDBRANCH   8   9
ENDBRANCH   7   8
BRANCH   7  28
HETATM   28  S1  UNL     1       9.524  -0.330   0.702  1.00  0.00     0.230 S 
HETATM   29  C24 UNL     1      10.257  -0.985  -0.783  1.00  0.00     0.186 C 
HETATM   30  O1  UNL     1       8.247  -0.971   1.078  1.00  0.00    -0.206 OA
HETATM   31  O2  UNL     1       9.197   1.127   0.376  1.00  0.00    -0.206 OA
ENDBRANCH   7  28
ENDBRANCH   3   7
BRANCH   1  32
HETATM   32  C7  UNL     1      14.102   2.498  -0.219  1.00  0.00     0.104 A 
HETATM   33  C6  UNL     1      14.905   1.922  -1.118  1.00  0.00     0.044 A 
HETATM   34  C5  UNL     1      15.204   2.874  -2.107  1.00  0.00     0.067 A 
HETATM   35  C4  UNL     1      14.534   4.016  -1.732  1.00  0.00     0.248 A 
HETATM   36  O3  UNL     1      13.918   3.756  -0.650  1.00  0.00    -0.285 OA
BRANCH  35  37
HETATM   37  N1  UNL     1      14.526   5.274  -2.424  1.00  0.00    -0.027 N 
HETATM   38  C1  UNL     1      15.828   5.893  -2.403  1.00  0.00     0.281 C 
HETATM   39  C2  UNL     1      13.519   6.152  -1.906  1.00  0.00     0.281 C 
HETATM   40  C3  UNL     1      14.208   4.978  -3.832  1.00  0.00     0.281 C 
ENDBRANCH  35  37
ENDBRANCH   1  32
BRANCH   6  41
HETATM   41  C27 UNL     1      14.531   3.662   2.498  1.00  0.00     0.268 C 
BRANCH  41  42
HETATM   42  N7  UNL     1      13.945   4.977   2.347  1.00  0.00    -0.322 N 
HETATM   43  N8  UNL     1      12.877   5.322   2.784  1.00  0.00    -0.339 N 
ATOM     44  H8  UNL     1      12.376   4.598   3.298  1.00  0.00     0.179 HD
ATOM     45  H7  UNL     1      14.483   5.671   1.828  1.00  0.00     0.181 HD
BRANCH  43  46
HETATM   46  C28 UNL     1      12.199   6.562   2.703  1.00  0.00     0.143 C 
BRANCH  46  47
HETATM   47  C29 UNL     1      12.926   7.520   1.813  1.00  0.00     0.060 C 
BRANCH  47  48
HETATM   48  C30 UNL     1      13.956   8.324   2.487  1.00  0.00    -0.045 A 
HETATM   49  C31 UNL     1      13.712   8.786   3.782  1.00  0.00     0.008 A 
HETATM   50  C32 UNL     1      14.616   9.547   4.483  1.00  0.00     0.001 A 
HETATM   51  C33 UNL     1      15.818   9.889   3.926  1.00  0.00     0.012 A 
HETATM   52  C34 UNL     1      16.090   9.447   2.648  1.00  0.00    -0.025 A 
HETATM   53  C35 UNL     1      17.305   9.788   2.090  1.00  0.00     0.012 A 
HETATM   54  C39 UNL     1      15.169   8.682   1.955  1.00  0.00    -0.020 A 
HETATM   55  C36 UNL     1      17.599   9.354   0.822  1.00  0.00     0.001 A 
HETATM   56  C37 UNL     1      16.688   8.596   0.137  1.00  0.00     0.001 A 
HETATM   57  C38 UNL     1      15.475   8.253   0.685  1.00  0.00     0.013 A 
ENDBRANCH  47  48
ENDBRANCH  46  47
ENDBRANCH  43  46
ENDBRANCH  41  42
ENDBRANCH   6  41
TORSDOF 16
ENDMDL
MODEL 4
REMARK VINA RESULT: -10.546638561      1.636      2.163
REMARK  16 active torsions:
REMARK  status: ('A' for Active; 'I' for Inactive)
REMARK    1  A    between atoms: N1_2  and  C4_5 
REMARK    2  A    between atoms: C7_8  and  C8_9 
REMARK    3  A    between atoms: C10_11  and  N2_12 
REMARK    4  A    between atoms: N2_12  and  C11_13 
REMARK    5  A    between atoms: N2_12  and  S1_33 
REMARK    6  A    between atoms: C11_13  and  C12_14 
REMARK    7  A    between atoms: C13_15  and  C14_16 
REMARK    8  A    between atoms: C14_16  and  N3_17 
REMARK       I    between atoms: N3_17  and  C15_19 
REMARK       I    between atoms: C15_19  and  N5_23 
REMARK    9  A    between atoms: N5_23  and  C16_25 
REMARK   10  A    between atoms: C16_25  and  C17_26 
REMARK   11  A    between atoms: C17_26  and  C18_27 
REMARK   12  A    between atoms: N6_39  and  C27_40 
REMARK   13  A    between atoms: C27_40  and  N7_41 
REMARK   14  A    between atoms: N8_43  and  C28_45 
REMARK   15  A    between atoms: C28_45  and  C29_46 
REMARK   16  A    between atoms: C29_46  and  C30_47 
ROOT
HETATM    1  C8  UNL     1      10.600   3.095   0.164  1.00  0.00     0.072 A 
HETATM    2  C9  UNL     1      10.112   2.248   1.177  1.00  0.00     0.063 A 
HETATM    3  C10 UNL     1      10.755   1.183   1.703  1.00  0.00     0.049 A 
HETATM    4  C25 UNL     1      12.023   0.918   1.171  1.00  0.00     0.047 A 
HETATM    5  C26 UNL     1      12.528   1.710   0.192  1.00  0.00     0.095 A 
HETATM    6  N6  UNL     1      11.802   2.790  -0.294  1.00  0.00    -0.337 N 
ENDROOT
BRANCH   3   7
HETATM    7  N2  UNL     1      10.324   0.337   2.736  1.00  0.00    -0.265 N 
BRANCH   7   8
HETATM    8  C11 UNL     1       9.307  -0.650   2.506  1.00  0.00     0.235 C 
BRANCH   8   9
HETATM    9  C12 UNL     1       9.891  -1.941   2.106  1.00  0.00    -0.084 C 
HETATM   10  C13 UNL     1      10.388  -2.995   1.760  1.00  0.00    -0.085 C 
BRANCH  10  11
HETATM   11  C14 UNL     1      11.019  -4.272   1.321  1.00  0.00     0.232 C 
BRANCH  11  12
HETATM   12  N3  UNL     1      10.154  -5.374   1.610  1.00  0.00    -0.216 N 
HETATM   13  C15 UNL     1      10.502  -6.447   2.404  1.00  0.00     0.668 C 
HETATM   14  N4  UNL     1       9.546  -7.222   2.883  1.00  0.00    -0.235 N 
HETATM   15  N5  UNL     1      11.816  -6.807   2.763  1.00  0.00    -0.227 N 
ATOM     16  H42 UNL     1       8.595  -6.961   2.622  1.00  0.00     0.174 HD
ATOM     17  H41 UNL     1       9.804  -8.016   3.469  1.00  0.00     0.174 HD
ATOM     18  H5  UNL     1      12.138  -7.740   2.506  1.00  0.00     0.177 HD
ATOM     19  H3  UNL     1       9.219  -5.365   1.204  1.00  0.00     0.178 HD
BRANCH  15  20
HETATM   20  C16 UNL     1      12.730  -5.961   3.462  1.00  0.00     0.142 C 
BRANCH  20  21
HETATM   21  C17 UNL     1      14.043  -6.641   3.711  1.00  0.00     0.058 C 
BRANCH  21  22
HETATM   22  C18 UNL     1      13.907  -7.940   4.386  1.00  0.00    -0.057 A 
HETATM   23  C19 UNL     1      14.201  -9.134   3.749  1.00  0.00     0.007 A 
HETATM   24  C20 UNL     1      14.080 -10.356   4.359  1.00  0.00     0.001 A 
HETATM   25  C21 UNL     1      13.644 -10.427   5.663  1.00  0.00     0.000 A 
HETATM   26  C22 UNL     1      13.351  -9.231   6.294  1.00  0.00     0.001 A 
HETATM   27  C23 UNL     1      13.469  -8.004   5.700  1.00  0.00     0.007 A 
ENDBRANCH  21  22
ENDBRANCH  20  21
ENDBRANCH  15  20
ENDBRANCH  11  12
ENDBRANCH  10  11
ENDBRANCH   8   9
ENDBRANCH   7   8
BRANCH   7  28
HETATM   28  S1  UNL     1      11.048   0.481   4.293  1.00  0.00     0.230 S 
HETATM   29  C24 UNL     1      11.267   2.223   4.592  1.00  0.00     0.186 C 
HETATM   30  O1  UNL     1      10.318  -0.229   5.364  1.00  0.00    -0.206 OA
HETATM   31  O2  UNL     1      12.461  -0.101   4.273  1.00  0.00    -0.206 OA
ENDBRANCH   7  28
ENDBRANCH   3   7
BRANCH   1  32
HETATM   32  C7  UNL     1       9.781   4.256  -0.215  1.00  0.00     0.104 A 
HETATM   33  C6  UNL     1       8.781   4.483  -1.070  1.00  0.00     0.044 A 
HETATM   34  C5  UNL     1       8.417   5.837  -0.966  1.00  0.00     0.067 A 
HETATM   35  C4  UNL     1       9.254   6.370  -0.013  1.00  0.00     0.248 A 
HETATM   36  O3  UNL     1      10.015   5.432   0.389  1.00  0.00    -0.285 OA
BRANCH  35  37
HETATM   37  N1  UNL     1       9.275   7.729   0.450  1.00  0.00    -0.027 N 
HETATM   38  C1  UNL     1       9.651   8.636  -0.606  1.00  0.00     0.281 C 
HETATM   39  C2  UNL     1      10.120   7.879   1.597  1.00  0.00     0.281 C 
HETATM   40  C3  UNL     1       7.894   8.062   0.838  1.00  0.00     0.281 C 
ENDBRANCH  35  37
ENDBRANCH   1  32
BRANCH   6  41
HETATM   41  C27 UNL     1      12.454   3.531  -1.333  1.00  0.00     0.268 C 
BRANCH  41  42
HETATM   42  N7  UNL     1      13.284   4.596  -0.811  1.00  0.00    -0.322 N 
HETATM   43  N8  UNL     1      13.929   5.369  -1.471  1.00  0.00    -0.339 N 
ATOM     44  H8  UNL     1      13.856   5.230  -2.479  1.00  0.00     0.179 HD
ATOM     45  H7  UNL     1      13.326   4.700   0.203  1.00  0.00     0.181 HD
BRANCH  43  46
HETATM   46  C28 UNL     1      14.772   6.438  -1.087  1.00  0.00     0.143 C 
BRANCH  46  47
HETATM   47  C29 UNL     1      14.202   7.186   0.077  1.00  0.00     0.060 C 
BRANCH  47  48
HETATM   48  C30 UNL     1      15.164   8.039   0.791  1.00  0.00    -0.045 A 
HETATM   49  C31 UNL     1      16.378   8.349   0.175  1.00  0.00     0.008 A 
HETATM   50  C32 UNL     1      17.335   9.134   0.771  1.00  0.00     0.001 A 
HETATM   51  C33 UNL     1      17.131   9.653   2.019  1.00  0.00     0.012 A 
HETATM   52  C34 UNL     1      15.941   9.366   2.656  1.00  0.00    -0.025 A 
HETATM   53  C35 UNL     1      15.734   9.895   3.913  1.00  0.00     0.012 A 
HETATM   54  C39 UNL     1      14.987   8.573   2.042  1.00  0.00    -0.020 A 
HETATM   55  C36 UNL     1      14.555   9.627   4.561  1.00  0.00     0.001 A 
HETATM   56  C37 UNL     1      13.611   8.844   3.954  1.00  0.00     0.001 A 
HETATM   57  C38 UNL     1      13.809   8.312   2.702  1.00  0.00     0.013 A 
ENDBRANCH  47  48
ENDBRANCH  46  47
ENDBRANCH  43  46
ENDBRANCH  41  42
ENDBRANCH   6  41
TORSDOF 16
ENDMDL
MODEL 5
REMARK VINA RESULT: -10.467086409      2.711     12.457
REMARK  16 active torsions:
REMARK  status: ('A' for Active; 'I' for Inactive)
REMARK    1  A    between atoms: N1_2  and  C4_5 
REMARK    2  A    between atoms: C7_8  and  C8_9 
REMARK    3  A    between atoms: C10_11  and  N2_12 
REMARK    4  A    between atoms: N2_12  and  C11_13 
REMARK    5  A    between atoms: N2_12  and  S1_33 
REMARK    6  A    between atoms: C11_13  and  C12_14 
REMARK    7  A    between atoms: C13_15  and  C14_16 
REMARK    8  A    between atoms: C14_16  and  N3_17 
REMARK       I    between atoms: N3_17  and  C15_19 
REMARK       I    between atoms: C15_19  and  N5_23 
REMARK    9  A    between atoms: N5_23  and  C16_25 
REMARK   10  A    between atoms: C16_25  and  C17_26 
REMARK   11  A    between atoms: C17_26  and  C18_27 
REMARK   12  A    between atoms: N6_39  and  C27_40 
REMARK   13  A    between atoms: C27_40  and  N7_41 
REMARK   14  A    between atoms: N8_43  and  C28_45 
REMARK   15  A    between atoms: C28_45  and  C29_46 
REMARK   16  A    between atoms: C29_46  and  C30_47 
ROOT
HETATM    1  C8  UNL     1      10.759  -0.171   2.305  1.00  0.00     0.072 A 
HETATM    2  C9  UNL     1      11.686   0.858   2.047  1.00  0.00     0.063 A 
HETATM    3  C10 UNL     1      12.061   1.826   2.910  1.00  0.00     0.049 A 
HETATM    4  C25 UNL     1      11.456   1.782   4.171  1.00  0.00     0.047 A 
HETATM    5  C26 UNL     1      10.556   0.808   4.459  1.00  0.00     0.095 A 
HETATM    6  N6  UNL     1      10.225  -0.155   3.514  1.00  0.00    -0.337 N 
ENDROOT
BRANCH   3   7
HETATM    7  N2  UNL     1      13.005   2.845   2.708  1.00  0.00    -0.265 N 
BRANCH   7   8
HETATM    8  C11 UNL     1      12.603   4.221   2.630  1.00  0.00     0.235 C 
BRANCH   8   9
HETATM    9  C12 UNL     1      12.709   4.735   1.254  1.00  0.00    -0.084 C 
HETATM   10  C13 UNL     1      12.811   5.177   0.126  1.00  0.00    -0.085 C 
BRANCH  10  11
HETATM   11  C14 UNL     1      12.960   5.736  -1.248  1.00  0.00     0.232 C 
BRANCH  11  12
HETATM   12  N3  UNL     1      14.224   5.356  -1.799  1.00  0.00    -0.216 N 
HETATM   13  C15 UNL     1      15.345   6.159  -1.797  1.00  0.00     0.668 C 
HETATM   14  N4  UNL     1      16.525   5.606  -2.010  1.00  0.00    -0.235 N 
HETATM   15  N5  UNL     1      15.354   7.552  -1.582  1.00  0.00    -0.227 N 
ATOM     16  H42 UNL     1      16.519   4.599  -2.165  1.00  0.00     0.174 HD
ATOM     17  H41 UNL     1      17.354   6.201  -2.008  1.00  0.00     0.174 HD
ATOM     18  H5  UNL     1      15.744   8.141  -2.317  1.00  0.00     0.177 HD
ATOM     19  H3  UNL     1      14.301   4.431  -2.220  1.00  0.00     0.178 HD
BRANCH  15  20
HETATM   20  C16 UNL     1      14.856   8.199  -0.410  1.00  0.00     0.142 C 
BRANCH  20  21
HETATM   21  C17 UNL     1      15.941   8.451   0.593  1.00  0.00     0.058 C 
BRANCH  21  22
HETATM   22  C18 UNL     1      15.431   8.789   1.930  1.00  0.00    -0.057 A 
HETATM   23  C19 UNL     1      16.149   9.580   2.812  1.00  0.00     0.007 A 
HETATM   24  C20 UNL     1      15.694   9.905   4.064  1.00  0.00     0.001 A 
HETATM   25  C21 UNL     1      14.473   9.434   4.489  1.00  0.00     0.000 A 
HETATM   26  C22 UNL     1      13.760   8.644   3.604  1.00  0.00     0.001 A 
HETATM   27  C23 UNL     1      14.200   8.312   2.351  1.00  0.00     0.007 A 
ENDBRANCH  21  22
ENDBRANCH  20  21
ENDBRANCH  15  20
ENDBRANCH  11  12
ENDBRANCH  10  11
ENDBRANCH   8   9
ENDBRANCH   7   8
BRANCH   7  28
HETATM   28  S1  UNL     1      14.672   2.426   2.574  1.00  0.00     0.230 S 
HETATM   29  C24 UNL     1      14.952   1.998   0.869  1.00  0.00     0.186 C 
HETATM   30  O1  UNL     1      15.595   3.454   3.098  1.00  0.00    -0.206 OA
HETATM   31  O2  UNL     1      14.958   1.146   3.359  1.00  0.00    -0.206 OA
ENDBRANCH   7  28
ENDBRANCH   3   7
BRANCH   1  32
HETATM   32  C7  UNL     1      10.547  -1.183   1.260  1.00  0.00     0.104 A 
HETATM   33  C6  UNL     1      10.938  -2.444   1.055  1.00  0.00     0.044 A 
HETATM   34  C5  UNL     1      10.389  -2.878  -0.163  1.00  0.00     0.067 A 
HETATM   35  C4  UNL     1       9.666  -1.810  -0.641  1.00  0.00     0.248 A 
HETATM   36  O3  UNL     1       9.783  -0.864   0.203  1.00  0.00    -0.285 OA
BRANCH  35  37
HETATM   37  N1  UNL     1       8.915  -1.758  -1.864  1.00  0.00    -0.027 N 
HETATM   38  C1  UNL     1       7.554  -2.189  -1.663  1.00  0.00     0.281 C 
HETATM   39  C2  UNL     1       9.555  -2.506  -2.905  1.00  0.00     0.281 C 
HETATM   40  C3  UNL     1       8.868  -0.342  -2.268  1.00  0.00     0.281 C 
ENDBRANCH  35  37
ENDBRANCH   1  32
BRANCH   6  41
HETATM   41  C27 UNL     1       9.254  -1.114   3.952  1.00  0.00     0.268 C 
BRANCH  41  42
HETATM   42  N7  UNL     1       9.867  -2.326   4.454  1.00  0.00    -0.322 N 
HETATM   43  N8  UNL     1       9.712  -3.431   3.999  1.00  0.00    -0.339 N 
ATOM     44  H8  UNL     1       9.091  -3.472   3.190  1.00  0.00     0.179 HD
ATOM     45  H7  UNL     1      10.482  -2.237   5.263  1.00  0.00     0.181 HD
BRANCH  43  46
HETATM   46  C28 UNL     1      10.244  -4.680   4.395  1.00  0.00     0.143 C 
BRANCH  46  47
HETATM   47  C29 UNL     1      10.620  -5.510   3.208  1.00  0.00     0.060 C 
BRANCH  47  48
HETATM   48  C30 UNL     1      12.011  -5.987   3.206  1.00  0.00    -0.045 A 
HETATM   49  C31 UNL     1      13.031  -5.094   2.871  1.00  0.00     0.008 A 
HETATM   50  C32 UNL     1      14.355  -5.456   2.839  1.00  0.00     0.001 A 
HETATM   51  C33 UNL     1      14.735  -6.735   3.141  1.00  0.00     0.012 A 
HETATM   52  C34 UNL     1      13.751  -7.642   3.477  1.00  0.00    -0.025 A 
HETATM   53  C35 UNL     1      14.136  -8.930   3.787  1.00  0.00     0.012 A 
HETATM   54  C39 UNL     1      12.421  -7.262   3.504  1.00  0.00    -0.020 A 
HETATM   55  C36 UNL     1      13.175  -9.847   4.130  1.00  0.00     0.001 A 
HETATM   56  C37 UNL     1      11.859  -9.470   4.157  1.00  0.00     0.001 A 
HETATM   57  C38 UNL     1      11.466  -8.189   3.849  1.00  0.00     0.013 A 
ENDBRANCH  47  48
ENDBRANCH  46  47
ENDBRANCH  43  46
ENDBRANCH  41  42
ENDBRANCH   6  41
TORSDOF 16
ENDMDL
