MODEL 1
REMARK VINA RESULT: -7.535529934      0.000      0.000
REMARK  13 active torsions:
REMARK  status: ('A' for Active; 'I' for Inactive)
REMARK    1  A    between atoms: C2_2  and  C3_3 
REMARK    2  A    between atoms: C3_3  and  C4_4 
REMARK    3  A    between atoms: C4_4  and  C5_5 
REMARK    4  A    between atoms: C5_5  and  N1_6 
REMARK    5  A    between atoms: N1_6  and  C6_8 
REMARK    6  A    between atoms: C10_16  and  N5_17 
REMARK    7  A    between atoms: N5_17  and  C11_19 
REMARK    8  A    between atoms: C14_22  and  C15_23 
REMARK    9  A    between atoms: C15_23  and  N6_24 
REMARK   10  A    between atoms: N6_24  and  C16_26 
REMARK   11  A    between atoms: C16_26  and  C17_27 
REMARK   12  A    between atoms: C17_27  and  C18_28 
REMARK   13  A    between atoms: C18_28  and  N7_29 
ROOT
HETATM    1  C6  UNL     1      17.340  38.325 -13.596  1.00  0.00     0.681 A 
HETATM    2  N2  UNL     1      16.840  38.195 -14.814  1.00  0.00    -0.177 N 
ATOM      3  H2  UNL     1      17.313  38.639 -15.601  1.00  0.00     0.185 HD
HETATM    4  C7  UNL     1      15.721  37.487 -15.026  1.00  0.00     0.156 A 
HETATM    5  N3  UNL     1      15.156  37.327 -16.326  1.00  0.00    -0.080 NA
HETATM    6  C8  UNL     1      15.039  36.862 -13.989  1.00  0.00     0.130 A 
HETATM    7  C9  UNL     1      13.842  36.101 -14.189  1.00  0.00     0.107 C 
HETATM    8  N4  UNL     1      12.865  35.474 -14.373  1.00  0.00    -0.191 NA
HETATM    9  C10 UNL     1      15.569  37.006 -12.728  1.00  0.00     0.145 A 
HETATM   10  N8  UNL     1      16.686  37.719 -12.559  1.00  0.00    -0.175 N 
ATOM     11  H8  UNL     1      17.066  37.817 -11.617  1.00  0.00     0.186 HD
ENDROOT
BRANCH   9  12
HETATM   12  N5  UNL     1      14.958  36.437 -11.753  1.00  0.00    -0.341 N 
ATOM     13  H5  UNL     1      14.899  35.420 -11.714  1.00  0.00     0.167 HD
BRANCH  12  14
HETATM   14  C11 UNL     1      14.369  37.215 -10.733  1.00  0.00     0.033 A 
HETATM   15  C12 UNL     1      14.413  36.810  -9.420  1.00  0.00     0.030 A 
HETATM   16  C13 UNL     1      13.808  37.620  -8.449  1.00  0.00     0.011 A 
HETATM   17  C14 UNL     1      13.186  38.786  -8.781  1.00  0.00    -0.041 A 
HETATM   18  C24 UNL     1      13.145  39.186 -10.095  1.00  0.00     0.011 A 
HETATM   19  C25 UNL     1      13.741  38.392 -11.071  1.00  0.00     0.030 A 
BRANCH  17  20
HETATM   20  C15 UNL     1      12.543  39.646  -7.756  1.00  0.00     0.152 C 
BRANCH  20  21
HETATM   21  N6  UNL     1      11.906  38.797  -6.805  1.00  0.00    -0.417 N 
ATOM     22  H6  UNL     1      12.041  37.785  -6.811  1.00  0.00     0.153 HD
BRANCH  21  23
HETATM   23  C16 UNL     1      11.066  39.440  -5.843  1.00  0.00     0.115 C 
BRANCH  23  24
HETATM   24  C17 UNL     1      10.769  38.486  -4.713  1.00  0.00     0.049 C 
BRANCH  24  25
HETATM   25  C18 UNL     1       9.303  38.487  -4.375  1.00  0.00     0.274 C 
BRANCH  25  26
HETATM   26  N7  UNL     1       9.055  38.396  -2.963  1.00  0.00     0.088 N 
HETATM   27  C19 UNL     1       9.625  37.202  -2.433  1.00  0.00     0.272 C 
HETATM   28  C20 UNL     1       9.546  37.114  -0.926  1.00  0.00     0.030 C 
HETATM   29  C21 UNL     1      10.415  38.270  -0.428  1.00  0.00     0.003 C 
HETATM   30  C22 UNL     1       9.726  39.533  -0.866  1.00  0.00     0.030 C 
HETATM   31  C23 UNL     1       9.353  39.602  -2.281  1.00  0.00     0.272 C 
ENDBRANCH  25  26
ENDBRANCH  24  25
ENDBRANCH  23  24
ENDBRANCH  21  23
ENDBRANCH  20  21
ENDBRANCH  17  20
ENDBRANCH  12  14
ENDBRANCH   9  12
BRANCH   1  32
HETATM   32  N1  UNL     1      18.403  38.983 -13.303  1.00  0.00    -0.226 N 
ATOM     33  H1  UNL     1      19.202  38.426 -13.003  1.00  0.00     0.177 HD
BRANCH  32  34
HETATM   34  C5  UNL     1      18.609  40.387 -13.344  1.00  0.00     0.138 C 
BRANCH  34  35
HETATM   35  C4  UNL     1      17.473  41.167 -12.714  1.00  0.00     0.020 C 
BRANCH  35  36
HETATM   36  C3  UNL     1      17.633  41.303 -11.228  1.00  0.00     0.001 C 
BRANCH  36  37
HETATM   37  C2  UNL     1      16.480  40.752 -10.450  1.00  0.00    -0.004 C 
HETATM   38  C1  UNL     1      15.792  41.941  -9.765  1.00  0.00     0.005 C 
ENDBRANCH  36  37
ENDBRANCH  35  36
ENDBRANCH  34  35
ENDBRANCH  32  34
ENDBRANCH   1  32
TORSDOF 13
ENDMDL
MODEL 2
REMARK VINA RESULT: -7.502936065      4.054      8.194
REMARK  13 active torsions:
REMARK  status: ('A' for Active; 'I' for Inactive)
REMARK    1  A    between atoms: C2_2  and  C3_3 
REMARK    2  A    between atoms: C3_3  and  C4_4 
REMARK    3  A    between atoms: C4_4  and  C5_5 
REMARK    4  A    between atoms: C5_5  and  N1_6 
REMARK    5  A    between atoms: N1_6  and  C6_8 
REMARK    6  A    between atoms: C10_16  and  N5_17 
REMARK    7  A    between atoms: N5_17  and  C11_19 
REMARK    8  A    between atoms: C14_22  and  C15_23 
REMARK    9  A    between atoms: C15_23  and  N6_24 
REMARK   10  A    between atoms: N6_24  and  C16_26 
REMARK   11  A    between atoms: C16_26  and  C17_27 
REMARK   12  A    between atoms: C17_27  and  C18_28 
REMARK   13  A    between atoms: C18_28  and  N7_29 
ROOT
HETATM    1  C6  UNL     1      11.492  39.560  -5.985  1.00  0.00     0.681 A 
HETATM    2  N2  UNL     1      11.725  38.548  -6.804  1.00  0.00    -0.177 N 
ATOM      3  H2  UNL     1      11.462  37.603  -6.523  1.00  0.00     0.185 HD
HETATM    4  C7  UNL     1      12.303  38.748  -7.997  1.00  0.00     0.156 A 
HETATM    5  N3  UNL     1      12.568  37.679  -8.904  1.00  0.00    -0.080 NA
HETATM    6  C8  UNL     1      12.682  40.014  -8.428  1.00  0.00     0.130 A 
HETATM    7  C9  UNL     1      13.301  40.254  -9.697  1.00  0.00     0.107 C 
HETATM    8  N4  UNL     1      13.801  40.433 -10.745  1.00  0.00    -0.191 NA
HETATM    9  C10 UNL     1      12.434  41.056  -7.566  1.00  0.00     0.145 A 
HETATM   10  N8  UNL     1      11.856  40.815  -6.386  1.00  0.00    -0.175 N 
ATOM     11  H8  UNL     1      11.680  41.600  -5.758  1.00  0.00     0.186 HD
ENDROOT
BRANCH   9  12
HETATM   12  N5  UNL     1      12.773  42.237  -7.940  1.00  0.00    -0.341 N 
ATOM     13  H5  UNL     1      13.760  42.475  -8.038  1.00  0.00     0.167 HD
BRANCH  12  14
HETATM   14  C11 UNL     1      11.785  43.206  -8.217  1.00  0.00     0.033 A 
HETATM   15  C12 UNL     1      11.917  44.499  -7.769  1.00  0.00     0.030 A 
HETATM   16  C13 UNL     1      10.904  45.419  -8.071  1.00  0.00     0.011 A 
HETATM   17  C14 UNL     1       9.805  45.058  -8.792  1.00  0.00    -0.041 A 
HETATM   18  C24 UNL     1       9.678  43.763  -9.238  1.00  0.00     0.011 A 
HETATM   19  C25 UNL     1      10.676  42.838  -8.945  1.00  0.00     0.030 A 
BRANCH  17  20
HETATM   20  C15 UNL     1       8.729  46.028  -9.113  1.00  0.00     0.152 C 
BRANCH  20  21
HETATM   21  N6  UNL     1       7.514  45.542  -8.544  1.00  0.00    -0.417 N 
ATOM     22  H6  UNL     1       6.782  45.122  -9.116  1.00  0.00     0.153 HD
BRANCH  21  23
HETATM   23  C16 UNL     1       7.379  45.678  -7.127  1.00  0.00     0.115 C 
BRANCH  23  24
HETATM   24  C17 UNL     1       7.086  44.331  -6.515  1.00  0.00     0.049 C 
BRANCH  24  25
HETATM   25  C18 UNL     1       8.199  43.900  -5.598  1.00  0.00     0.274 C 
BRANCH  25  26
HETATM   26  N7  UNL     1       7.726  43.201  -4.436  1.00  0.00     0.088 N 
HETATM   27  C19 UNL     1       8.175  41.849  -4.451  1.00  0.00     0.272 C 
HETATM   28  C20 UNL     1       7.853  41.094  -3.181  1.00  0.00     0.030 C 
HETATM   29  C21 UNL     1       8.659  41.809  -2.095  1.00  0.00     0.003 C 
HETATM   30  C22 UNL     1       8.080  43.192  -1.984  1.00  0.00     0.030 C 
HETATM   31  C23 UNL     1       7.940  43.932  -3.241  1.00  0.00     0.272 C 
ENDBRANCH  25  26
ENDBRANCH  24  25
ENDBRANCH  23  24
ENDBRANCH  21  23
ENDBRANCH  20  21
ENDBRANCH  17  20
ENDBRANCH  12  14
ENDBRANCH   9  12
BRANCH   1  32
HETATM   32  N1  UNL     1      10.946  39.459  -4.827  1.00  0.00    -0.226 N 
ATOM     33  H1  UNL     1      11.019  40.280  -4.228  1.00  0.00     0.177 HD
BRANCH  32  34
HETATM   34  C5  UNL     1      10.252  38.350  -4.274  1.00  0.00     0.138 C 
BRANCH  34  35
HETATM   35  C4  UNL     1      10.202  38.383  -2.760  1.00  0.00     0.020 C 
BRANCH  35  36
HETATM   36  C3  UNL     1       9.448  37.218  -2.191  1.00  0.00     0.001 C 
BRANCH  36  37
HETATM   37  C2  UNL     1       9.434  37.187  -0.695  1.00  0.00    -0.004 C 
HETATM   38  C1  UNL     1       9.809  38.594  -0.213  1.00  0.00     0.005 C 
ENDBRANCH  36  37
ENDBRANCH  35  36
ENDBRANCH  34  35
ENDBRANCH  32  34
ENDBRANCH   1  32
TORSDOF 13
ENDMDL
MODEL 3
REMARK VINA RESULT: -7.502056522      3.471      9.166
REMARK  13 active torsions:
REMARK  status: ('A' for Active; 'I' for Inactive)
REMARK    1  A    between atoms: C2_2  and  C3_3 
REMARK    2  A    between atoms: C3_3  and  C4_4 
REMARK    3  A    between atoms: C4_4  and  C5_5 
REMARK    4  A    between atoms: C5_5  and  N1_6 
REMARK    5  A    between atoms: N1_6  and  C6_8 
REMARK    6  A    between atoms: C10_16  and  N5_17 
REMARK    7  A    between atoms: N5_17  and  C11_19 
REMARK    8  A    between atoms: C14_22  and  C15_23 
REMARK    9  A    between atoms: C15_23  and  N6_24 
REMARK   10  A    between atoms: N6_24  and  C16_26 
REMARK   11  A    between atoms: C16_26  and  C17_27 
REMARK   12  A    between atoms: C17_27  and  C18_28 
REMARK   13  A    between atoms: C18_28  and  N7_29 
ROOT
HETATM    1  C6  UNL     1      13.962  38.079  -8.967  1.00  0.00     0.681 A 
HETATM    2  N2  UNL     1      13.220  37.559  -8.004  1.00  0.00    -0.177 N 
ATOM      3  H2  UNL     1      13.284  36.561  -7.803  1.00  0.00     0.185 HD
HETATM    4  C7  UNL     1      12.385  38.327  -7.288  1.00  0.00     0.156 A 
HETATM    5  N3  UNL     1      11.571  37.798  -6.243  1.00  0.00    -0.080 NA
HETATM    6  C8  UNL     1      12.259  39.692  -7.521  1.00  0.00     0.130 A 
HETATM    7  C9  UNL     1      11.375  40.533  -6.773  1.00  0.00     0.107 C 
HETATM    8  N4  UNL     1      10.650  41.210  -6.142  1.00  0.00    -0.191 NA
HETATM    9  C10 UNL     1      13.036  40.218  -8.526  1.00  0.00     0.145 A 
HETATM   10  N8  UNL     1      13.856  39.419  -9.216  1.00  0.00    -0.175 N 
ATOM     11  H8  UNL     1      14.425  39.826  -9.958  1.00  0.00     0.186 HD
ENDROOT
BRANCH   9  12
HETATM   12  N5  UNL     1      12.940  41.476  -8.761  1.00  0.00    -0.341 N 
ATOM     13  H5  UNL     1      12.049  41.871  -9.061  1.00  0.00     0.167 HD
BRANCH  12  14
HETATM   14  C11 UNL     1      14.064  42.317  -8.605  1.00  0.00     0.033 A 
HETATM   15  C12 UNL     1      14.227  43.075  -7.470  1.00  0.00     0.030 A 
HETATM   16  C13 UNL     1      15.361  43.894  -7.369  1.00  0.00     0.011 A 
HETATM   17  C14 UNL     1      16.290  43.949  -8.364  1.00  0.00    -0.041 A 
HETATM   18  C24 UNL     1      16.122  43.189  -9.498  1.00  0.00     0.011 A 
HETATM   19  C25 UNL     1      15.001  42.371  -9.612  1.00  0.00     0.030 A 
BRANCH  17  20
HETATM   20  C15 UNL     1      17.491  44.815  -8.263  1.00  0.00     0.152 C 
BRANCH  20  21
HETATM   21  N6  UNL     1      18.096  44.882  -9.553  1.00  0.00    -0.417 N 
ATOM     22  H6  UNL     1      17.585  45.218 -10.370  1.00  0.00     0.153 HD
BRANCH  21  23
HETATM   23  C16 UNL     1      19.457  44.453  -9.638  1.00  0.00     0.115 C 
BRANCH  23  24
HETATM   24  C17 UNL     1      19.562  43.291 -10.593  1.00  0.00     0.049 C 
BRANCH  24  25
HETATM   25  C18 UNL     1      18.905  43.610 -11.909  1.00  0.00     0.274 C 
BRANCH  25  26
HETATM   26  N7  UNL     1      18.385  42.446 -12.571  1.00  0.00     0.088 N 
HETATM   27  C19 UNL     1      18.599  41.283 -11.776  1.00  0.00     0.272 C 
HETATM   28  C20 UNL     1      17.936  40.043 -12.331  1.00  0.00     0.030 C 
HETATM   29  C21 UNL     1      16.438  40.347 -12.265  1.00  0.00     0.003 C 
HETATM   30  C22 UNL     1      16.197  41.483 -13.221  1.00  0.00     0.030 C 
HETATM   31  C23 UNL     1      17.073  42.647 -13.068  1.00  0.00     0.272 C 
ENDBRANCH  25  26
ENDBRANCH  24  25
ENDBRANCH  23  24
ENDBRANCH  21  23
ENDBRANCH  20  21
ENDBRANCH  17  20
ENDBRANCH  12  14
ENDBRANCH   9  12
BRANCH   1  32
HETATM   32  N1  UNL     1      14.785  37.418  -9.699  1.00  0.00    -0.226 N 
ATOM     33  H1  UNL     1      15.757  37.723  -9.661  1.00  0.00     0.177 HD
BRANCH  32  34
HETATM   34  C5  UNL     1      14.515  36.319 -10.556  1.00  0.00     0.138 C 
BRANCH  34  35
HETATM   35  C4  UNL     1      13.507  36.650 -11.638  1.00  0.00     0.020 C 
BRANCH  35  36
HETATM   36  C3  UNL     1      13.305  35.511 -12.594  1.00  0.00     0.001 C 
BRANCH  36  37
HETATM   37  C2  UNL     1      13.525  35.884 -14.025  1.00  0.00    -0.004 C 
HETATM   38  C1  UNL     1      14.101  37.307 -14.035  1.00  0.00     0.005 C 
ENDBRANCH  36  37
ENDBRANCH  35  36
ENDBRANCH  34  35
ENDBRANCH  32  34
ENDBRANCH   1  32
TORSDOF 13
ENDMDL
MODEL 4
REMARK VINA RESULT: -7.490766473      3.377      9.042
REMARK  13 active torsions:
REMARK  status: ('A' for Active; 'I' for Inactive)
REMARK    1  A    between atoms: C2_2  and  C3_3 
REMARK    2  A    between atoms: C3_3  and  C4_4 
REMARK    3  A    between atoms: C4_4  and  C5_5 
REMARK    4  A    between atoms: C5_5  and  N1_6 
REMARK    5  A    between atoms: N1_6  and  C6_8 
REMARK    6  A    between atoms: C10_16  and  N5_17 
REMARK    7  A    between atoms: N5_17  and  C11_19 
REMARK    8  A    between atoms: C14_22  and  C15_23 
REMARK    9  A    between atoms: C15_23  and  N6_24 
REMARK   10  A    between atoms: N6_24  and  C16_26 
REMARK   11  A    between atoms: C16_26  and  C17_27 
REMARK   12  A    between atoms: C17_27  and  C18_28 
REMARK   13  A    between atoms: C18_28  and  N7_29 
ROOT
HETATM    1  C6  UNL     1      14.002  38.116  -9.105  1.00  0.00     0.681 A 
HETATM    2  N2  UNL     1      13.307  37.620  -8.095  1.00  0.00    -0.177 N 
ATOM      3  H2  UNL     1      13.403  36.633  -7.856  1.00  0.00     0.185 HD
HETATM    4  C7  UNL     1      12.479  38.398  -7.382  1.00  0.00     0.156 A 
HETATM    5  N3  UNL     1      11.716  37.894  -6.287  1.00  0.00    -0.080 NA
HETATM    6  C8  UNL     1      12.312  39.748  -7.666  1.00  0.00     0.130 A 
HETATM    7  C9  UNL     1      11.433  40.599  -6.921  1.00  0.00     0.107 C 
HETATM    8  N4  UNL     1      10.714  41.285  -6.293  1.00  0.00    -0.191 NA
HETATM    9  C10 UNL     1      13.039  40.250  -8.719  1.00  0.00     0.145 A 
HETATM   10  N8  UNL     1      13.854  39.442  -9.405  1.00  0.00    -0.175 N 
ATOM     11  H8  UNL     1      14.386  39.831 -10.183  1.00  0.00     0.186 HD
ENDROOT
BRANCH   9  12
HETATM   12  N5  UNL     1      12.904  41.495  -9.002  1.00  0.00    -0.341 N 
ATOM     13  H5  UNL     1      11.976  41.917  -9.007  1.00  0.00     0.167 HD
BRANCH  12  14
HETATM   14  C11 UNL     1      14.036  42.283  -9.305  1.00  0.00     0.033 A 
HETATM   15  C12 UNL     1      14.338  42.616 -10.603  1.00  0.00     0.030 A 
HETATM   16  C13 UNL     1      15.476  43.398 -10.846  1.00  0.00     0.011 A 
HETATM   17  C14 UNL     1      16.276  43.827  -9.829  1.00  0.00    -0.041 A 
HETATM   18  C24 UNL     1      15.969  43.490  -8.532  1.00  0.00     0.011 A 
HETATM   19  C25 UNL     1      14.842  42.713  -8.276  1.00  0.00     0.030 A 
BRANCH  17  20
HETATM   20  C15 UNL     1      17.482  44.654 -10.081  1.00  0.00     0.152 C 
BRANCH  20  21
HETATM   21  N6  UNL     1      18.262  44.002 -11.082  1.00  0.00    -0.417 N 
ATOM     22  H6  UNL     1      18.223  44.282 -12.062  1.00  0.00     0.153 HD
BRANCH  21  23
HETATM   23  C16 UNL     1      19.100  42.933 -10.636  1.00  0.00     0.115 C 
BRANCH  23  24
HETATM   24  C17 UNL     1      18.803  41.690 -11.436  1.00  0.00     0.049 C 
BRANCH  24  25
HETATM   25  C18 UNL     1      18.230  42.037 -12.784  1.00  0.00     0.274 C 
BRANCH  25  26
HETATM   26  N7  UNL     1      17.379  41.008 -13.311  1.00  0.00     0.088 N 
HETATM   27  C19 UNL     1      17.169  39.987 -12.340  1.00  0.00     0.272 C 
HETATM   28  C20 UNL     1      16.154  38.950 -12.764  1.00  0.00     0.030 C 
HETATM   29  C21 UNL     1      14.839  39.723 -12.875  1.00  0.00     0.003 C 
HETATM   30  C22 UNL     1      15.020  40.700 -14.003  1.00  0.00     0.030 C 
HETATM   31  C23 UNL     1      16.225  41.532 -13.946  1.00  0.00     0.272 C 
ENDBRANCH  25  26
ENDBRANCH  24  25
ENDBRANCH  23  24
ENDBRANCH  21  23
ENDBRANCH  20  21
ENDBRANCH  17  20
ENDBRANCH  12  14
ENDBRANCH   9  12
BRANCH   1  32
HETATM   32  N1  UNL     1      14.815  37.446  -9.839  1.00  0.00    -0.226 N 
ATOM     33  H1  UNL     1      15.779  37.774  -9.848  1.00  0.00     0.177 HD
BRANCH  32  34
HETATM   34  C5  UNL     1      14.542  36.305 -10.640  1.00  0.00     0.138 C 
BRANCH  34  35
HETATM   35  C4  UNL     1      13.325  36.485 -11.525  1.00  0.00     0.020 C 
BRANCH  35  36
HETATM   36  C3  UNL     1      13.329  35.544 -12.694  1.00  0.00     0.001 C 
BRANCH  36  37
HETATM   37  C2  UNL     1      14.083  36.063 -13.877  1.00  0.00    -0.004 C 
HETATM   38  C1  UNL     1      13.335  35.588 -15.130  1.00  0.00     0.005 C 
ENDBRANCH  36  37
ENDBRANCH  35  36
ENDBRANCH  34  35
ENDBRANCH  32  34
ENDBRANCH   1  32
TORSDOF 13
ENDMDL
MODEL 5
REMARK VINA RESULT: -7.450411019      3.837      9.768
REMARK  13 active torsions:
REMARK  status: ('A' for Active; 'I' for Inactive)
REMARK    1  A    between atoms: C2_2  and  C3_3 
REMARK    2  A    between atoms: C3_3  and  C4_4 
REMARK    3  A    between atoms: C4_4  and  C5_5 
REMARK    4  A    between atoms: C5_5  and  N1_6 
REMARK    5  A    between atoms: N1_6  and  C6_8 
REMARK    6  A    between atoms: C10_16  and  N5_17 
REMARK    7  A    between atoms: N5_17  and  C11_19 
REMARK    8  A    between atoms: C14_22  and  C15_23 
REMARK    9  A    between atoms: C15_23  and  N6_24 
REMARK   10  A    between atoms: N6_24  and  C16_26 
REMARK   11  A    between atoms: C16_26  and  C17_27 
REMARK   12  A    between atoms: C17_27  and  C18_28 
REMARK   13  A    between atoms: C18_28  and  N7_29 
ROOT
HETATM    1  C6  UNL     1      14.054  38.062  -9.147  1.00  0.00     0.681 A 
HETATM    2  N2  UNL     1      13.279  37.589  -8.185  1.00  0.00    -0.177 N 
ATOM      3  H2  UNL     1      13.302  36.593  -7.964  1.00  0.00     0.185 HD
HETATM    4  C7  UNL     1      12.464  38.401  -7.496  1.00  0.00     0.156 A 
HETATM    5  N3  UNL     1      11.616  37.924  -6.453  1.00  0.00    -0.080 NA
HETATM    6  C8  UNL     1      12.393  39.765  -7.757  1.00  0.00     0.130 A 
HETATM    7  C9  UNL     1      11.531  40.654  -7.037  1.00  0.00     0.107 C 
HETATM    8  N4  UNL     1      10.823  41.369  -6.430  1.00  0.00    -0.191 NA
HETATM    9  C10 UNL     1      13.204  40.242  -8.760  1.00  0.00     0.145 A 
HETATM   10  N8  UNL     1      14.002  39.400  -9.423  1.00  0.00    -0.175 N 
ATOM     11  H8  UNL     1      14.596  39.770 -10.164  1.00  0.00     0.186 HD
ENDROOT
BRANCH   9  12
HETATM   12  N5  UNL     1      13.159  41.499  -9.020  1.00  0.00    -0.341 N 
ATOM     13  H5  UNL     1      12.281  41.926  -9.314  1.00  0.00     0.167 HD
BRANCH  12  14
HETATM   14  C11 UNL     1      14.321  42.292  -8.899  1.00  0.00     0.033 A 
HETATM   15  C12 UNL     1      14.498  43.126  -7.821  1.00  0.00     0.030 A 
HETATM   16  C13 UNL     1      15.669  43.894  -7.754  1.00  0.00     0.011 A 
HETATM   17  C14 UNL     1      16.622  43.825  -8.726  1.00  0.00    -0.041 A 
HETATM   18  C24 UNL     1      16.439  42.989  -9.802  1.00  0.00     0.011 A 
HETATM   19  C25 UNL     1      15.280  42.221  -9.883  1.00  0.00     0.030 A 
BRANCH  17  20
HETATM   20  C15 UNL     1      17.863  44.636  -8.660  1.00  0.00     0.152 C 
BRANCH  20  21
HETATM   21  N6  UNL     1      17.650  45.692  -7.726  1.00  0.00    -0.417 N 
ATOM     22  H6  UNL     1      16.840  45.707  -7.106  1.00  0.00     0.153 HD
BRANCH  21  23
HETATM   23  C16 UNL     1      18.633  46.730  -7.706  1.00  0.00     0.115 C 
BRANCH  23  24
HETATM   24  C17 UNL     1      19.291  46.829  -9.059  1.00  0.00     0.049 C 
BRANCH  24  25
HETATM   25  C18 UNL     1      20.789  46.729  -8.942  1.00  0.00     0.274 C 
BRANCH  25  26
HETATM   26  N7  UNL     1      21.330  45.600  -9.644  1.00  0.00     0.088 N 
HETATM   27  C19 UNL     1      21.493  44.494  -8.761  1.00  0.00     0.272 C 
HETATM   28  C20 UNL     1      21.906  43.219  -9.461  1.00  0.00     0.030 C 
HETATM   29  C21 UNL     1      20.724  42.880 -10.370  1.00  0.00     0.003 C 
HETATM   30  C22 UNL     1      20.650  43.980 -11.392  1.00  0.00     0.030 C 
HETATM   31  C23 UNL     1      20.655  45.348 -10.865  1.00  0.00     0.272 C 
ENDBRANCH  25  26
ENDBRANCH  24  25
ENDBRANCH  23  24
ENDBRANCH  21  23
ENDBRANCH  20  21
ENDBRANCH  17  20
ENDBRANCH  12  14
ENDBRANCH   9  12
BRANCH   1  32
HETATM   32  N1  UNL     1      14.861  37.357  -9.855  1.00  0.00    -0.226 N 
ATOM     33  H1  UNL     1      15.843  37.626  -9.808  1.00  0.00     0.177 HD
BRANCH  32  34
HETATM   34  C5  UNL     1      14.562  36.251 -10.693  1.00  0.00     0.138 C 
BRANCH  34  35
HETATM   35  C4  UNL     1      13.356  36.493 -11.579  1.00  0.00     0.020 C 
BRANCH  35  36
HETATM   36  C3  UNL     1      13.299  35.537 -12.734  1.00  0.00     0.001 C 
BRANCH  36  37
HETATM   37  C2  UNL     1      14.050  36.008 -13.938  1.00  0.00    -0.004 C 
HETATM   38  C1  UNL     1      13.248  35.566 -15.170  1.00  0.00     0.005 C 
ENDBRANCH  36  37
ENDBRANCH  35  36
ENDBRANCH  34  35
ENDBRANCH  32  34
ENDBRANCH   1  32
TORSDOF 13
ENDMDL
