MODEL 1
REMARK VINA RESULT: -9.215267128      0.000      0.000
REMARK  12 active torsions:
REMARK  status: ('A' for Active; 'I' for Inactive)
REMARK    1  A    between atoms: C2_2  and  C3_3 
REMARK    2  A    between atoms: C3_3  and  C4_4 
REMARK    3  A    between atoms: C4_4  and  N1_5 
REMARK    4  A    between atoms: N1_5  and  C5_6 
REMARK    5  A    between atoms: N1_5  and  C16_24 
REMARK    6  A    between atoms: C5_6  and  C6_7 
REMARK    7  A    between atoms: C6_7  and  N2_8 
REMARK    8  A    between atoms: C9_14  and  C10_15 
REMARK    9  A    between atoms: C16_24  and  C17_25 
REMARK   10  A    between atoms: C17_25  and  O1_26 
REMARK   11  A    between atoms: O1_26  and  C18_27 
REMARK   12  A    between atoms: C25_34  and  N6_35 
ROOT
HETATM    1  N1  UNL     1       8.990  39.415  -2.637  1.00  0.00     0.095 N 
ENDROOT
BRANCH   1   2
HETATM    2  C4  UNL     1      10.085  39.085  -1.810  1.00  0.00     0.273 C 
BRANCH   2   3
HETATM    3  C3  UNL     1       9.743  38.500  -0.486  1.00  0.00     0.030 C 
BRANCH   3   4
HETATM    4  C2  UNL     1       8.968  37.244  -0.514  1.00  0.00    -0.003 C 
HETATM    5  C1  UNL     1       9.691  36.141  -1.197  1.00  0.00     0.005 C 
ENDBRANCH   3   4
ENDBRANCH   2   3
ENDBRANCH   1   2
BRANCH   1   6
HETATM    6  C5  UNL     1       9.000  38.942  -3.987  1.00  0.00     0.317 C 
BRANCH   6   7
HETATM    7  C6  UNL     1      10.388  38.553  -4.444  1.00  0.00     0.109 C 
BRANCH   7   8
HETATM    8  N2  UNL     1      11.078  39.585  -5.051  1.00  0.00    -0.204 N 
HETATM    9  C7  UNL     1      11.685  39.722  -6.167  1.00  0.00     0.682 A 
HETATM   10  N3  UNL     1      12.304  40.885  -6.532  1.00  0.00    -0.199 N 
HETATM   11  N5  UNL     1      11.882  38.877  -7.195  1.00  0.00    -0.190 N 
HETATM   12  C8  UNL     1      12.843  40.720  -7.735  1.00  0.00     0.137 A 
ATOM     13  H3  UNL     1      12.344  41.738  -5.974  1.00  0.00     0.183 HD
HETATM   14  C9  UNL     1      12.584  39.441  -8.178  1.00  0.00     0.075 A 
ATOM     15  H5  UNL     1      11.534  37.918  -7.220  1.00  0.00     0.184 HD
ATOM     16  H2  UNL     1      11.110  40.429  -4.478  1.00  0.00     0.183 HD
BRANCH  14  17
HETATM   17  C10 UNL     1      13.038  38.937  -9.454  1.00  0.00    -0.007 A 
HETATM   18  C11 UNL     1      13.542  39.752 -10.442  1.00  0.00     0.015 A 
HETATM   19  C12 UNL     1      13.986  39.303 -11.664  1.00  0.00     0.027 A 
HETATM   20  C13 UNL     1      13.923  37.932 -11.929  1.00  0.00     0.046 A 
HETATM   21  N4  UNL     1      14.384  37.466 -13.191  1.00  0.00    -0.102 NA
HETATM   22  C14 UNL     1      13.427  37.100 -10.964  1.00  0.00     0.027 A 
HETATM   23  C15 UNL     1      12.987  37.592  -9.737  1.00  0.00     0.015 A 
ENDBRANCH  14  17
ENDBRANCH   7   8
ENDBRANCH   6   7
ENDBRANCH   1   6
BRANCH   1  24
HETATM   24  C16 UNL     1       8.629  40.830  -2.588  1.00  0.00     0.299 C 
BRANCH  24  25
HETATM   25  C17 UNL     1       7.721  41.305  -3.648  1.00  0.00     0.206 C 
BRANCH  25  26
HETATM   26  O1  UNL     1       6.384  41.049  -3.618  1.00  0.00    -0.349 OA
BRANCH  26  27
HETATM   27  C18 UNL     1       5.289  41.843  -3.459  1.00  0.00     0.069 A 
HETATM   28  C19 UNL     1       5.526  43.111  -2.903  1.00  0.00     0.039 A 
HETATM   29  C20 UNL     1       4.474  43.987  -2.699  1.00  0.00     0.032 A 
HETATM   30  C21 UNL     1       3.184  43.637  -3.034  1.00  0.00     0.034 A 
HETATM   31  C22 UNL     1       2.939  42.404  -3.577  1.00  0.00    -0.027 A 
HETATM   32  N7  UNL     1       2.083  44.498  -2.830  1.00  0.00    -0.387 N 
HETATM   33  C23 UNL     1       3.986  41.514  -3.788  1.00  0.00     0.046 A 
HETATM   34  C24 UNL     1       1.581  42.011  -3.942  1.00  0.00     0.075 C 
HETATM   35  C25 UNL     1       0.511  42.613  -3.097  1.00  0.00     0.205 C 
HETATM   36  C26 UNL     1       0.791  43.952  -2.521  1.00  0.00     0.153 C 
ATOM     37  H7  UNL     1       2.207  45.508  -2.903  1.00  0.00     0.159 HD
BRANCH  35  38
HETATM   38  N6  UNL     1       0.206  41.710  -1.973  1.00  0.00    -0.073 N 
ATOM     39  H63 UNL     1       0.432  40.739  -2.186  1.00  0.00     0.274 HD
ATOM     40  H62 UNL     1       0.846  41.840  -1.189  1.00  0.00     0.274 HD
ATOM     41  H61 UNL     1      -0.768  41.827  -1.698  1.00  0.00     0.274 HD
ENDBRANCH  35  38
ENDBRANCH  26  27
ENDBRANCH  25  26
ENDBRANCH  24  25
ENDBRANCH   1  24
TORSDOF 12
ENDMDL
MODEL 2
REMARK VINA RESULT: -9.149962537      0.945      1.315
REMARK  12 active torsions:
REMARK  status: ('A' for Active; 'I' for Inactive)
REMARK    1  A    between atoms: C2_2  and  C3_3 
REMARK    2  A    between atoms: C3_3  and  C4_4 
REMARK    3  A    between atoms: C4_4  and  N1_5 
REMARK    4  A    between atoms: N1_5  and  C5_6 
REMARK    5  A    between atoms: N1_5  and  C16_24 
REMARK    6  A    between atoms: C5_6  and  C6_7 
REMARK    7  A    between atoms: C6_7  and  N2_8 
REMARK    8  A    between atoms: C9_14  and  C10_15 
REMARK    9  A    between atoms: C16_24  and  C17_25 
REMARK   10  A    between atoms: C17_25  and  O1_26 
REMARK   11  A    between atoms: O1_26  and  C18_27 
REMARK   12  A    between atoms: C25_34  and  N6_35 
ROOT
HETATM    1  N1  UNL     1       9.004  39.258  -2.669  1.00  0.00     0.095 N 
ENDROOT
BRANCH   1   2
HETATM    2  C4  UNL     1      10.110  38.986  -1.836  1.00  0.00     0.273 C 
BRANCH   2   3
HETATM    3  C3  UNL     1       9.805  38.274  -0.567  1.00  0.00     0.030 C 
BRANCH   3   4
HETATM    4  C2  UNL     1       8.871  37.135  -0.671  1.00  0.00    -0.003 C 
HETATM    5  C1  UNL     1       9.535  35.893  -1.142  1.00  0.00     0.005 C 
ENDBRANCH   3   4
ENDBRANCH   2   3
ENDBRANCH   1   2
BRANCH   1   6
HETATM    6  C5  UNL     1       9.001  38.701  -3.986  1.00  0.00     0.317 C 
BRANCH   6   7
HETATM    7  C6  UNL     1      10.390  38.325  -4.448  1.00  0.00     0.109 C 
BRANCH   7   8
HETATM    8  N2  UNL     1      11.085  39.376  -5.018  1.00  0.00    -0.204 N 
HETATM    9  C7  UNL     1      11.690  39.551  -6.129  1.00  0.00     0.682 A 
HETATM   10  N3  UNL     1      12.314  40.724  -6.452  1.00  0.00    -0.199 N 
HETATM   11  N5  UNL     1      11.879  38.744  -7.189  1.00  0.00    -0.190 N 
HETATM   12  C8  UNL     1      12.849  40.602  -7.661  1.00  0.00     0.137 A 
ATOM     13  H3  UNL     1      12.360  41.555  -5.862  1.00  0.00     0.183 HD
HETATM   14  C9  UNL     1      12.583  39.341  -8.152  1.00  0.00     0.075 A 
ATOM     15  H5  UNL     1      11.527  37.789  -7.249  1.00  0.00     0.184 HD
ATOM     16  H2  UNL     1      11.122  40.198  -4.414  1.00  0.00     0.183 HD
BRANCH  14  17
HETATM   17  C10 UNL     1      13.032  38.883  -9.447  1.00  0.00    -0.007 A 
HETATM   18  C11 UNL     1      12.999  37.560  -9.823  1.00  0.00     0.015 A 
HETATM   19  C12 UNL     1      13.415  37.094 -11.049  1.00  0.00     0.027 A 
HETATM   20  C13 UNL     1      13.905  38.015 -11.978  1.00  0.00     0.046 A 
HETATM   21  N4  UNL     1      14.332  37.535 -13.246  1.00  0.00    -0.102 NA
HETATM   22  C14 UNL     1      13.947  39.337 -11.629  1.00  0.00     0.027 A 
HETATM   23  C15 UNL     1      13.517  39.772 -10.378  1.00  0.00     0.015 A 
ENDBRANCH  14  17
ENDBRANCH   7   8
ENDBRANCH   6   7
ENDBRANCH   1   6
BRANCH   1  24
HETATM   24  C16 UNL     1       8.635  40.671  -2.704  1.00  0.00     0.299 C 
BRANCH  24  25
HETATM   25  C17 UNL     1       8.112  41.174  -3.988  1.00  0.00     0.206 C 
BRANCH  25  26
HETATM   26  O1  UNL     1       7.308  42.271  -4.057  1.00  0.00    -0.349 OA
BRANCH  26  27
HETATM   27  C18 UNL     1       5.965  42.431  -4.208  1.00  0.00     0.069 A 
HETATM   28  C19 UNL     1       5.562  43.432  -5.108  1.00  0.00     0.039 A 
HETATM   29  C20 UNL     1       4.216  43.670  -5.324  1.00  0.00     0.032 A 
HETATM   30  C21 UNL     1       3.252  42.938  -4.668  1.00  0.00     0.034 A 
HETATM   31  C22 UNL     1       3.629  41.959  -3.788  1.00  0.00    -0.027 A 
HETATM   32  N7  UNL     1       1.869  43.160  -4.853  1.00  0.00    -0.387 N 
HETATM   33  C23 UNL     1       4.978  41.708  -3.561  1.00  0.00     0.046 A 
HETATM   34  C24 UNL     1       2.626  41.169  -3.082  1.00  0.00     0.075 C 
HETATM   35  C25 UNL     1       1.352  41.890  -2.800  1.00  0.00     0.205 C 
HETATM   36  C26 UNL     1       0.954  42.944  -3.766  1.00  0.00     0.153 C 
ATOM     37  H7  UNL     1       1.520  43.474  -5.759  1.00  0.00     0.159 HD
BRANCH  35  38
HETATM   38  N6  UNL     1       1.430  42.524  -1.471  1.00  0.00    -0.073 N 
ATOM     39  H63 UNL     1       1.081  43.482  -1.481  1.00  0.00     0.274 HD
ATOM     40  H62 UNL     1       0.755  42.130  -0.815  1.00  0.00     0.274 HD
ATOM     41  H61 UNL     1       2.386  42.466  -1.123  1.00  0.00     0.274 HD
ENDBRANCH  35  38
ENDBRANCH  26  27
ENDBRANCH  25  26
ENDBRANCH  24  25
ENDBRANCH   1  24
TORSDOF 12
ENDMDL
MODEL 3
REMARK VINA RESULT: -9.021431174      1.167      1.537
REMARK  12 active torsions:
REMARK  status: ('A' for Active; 'I' for Inactive)
REMARK    1  A    between atoms: C2_2  and  C3_3 
REMARK    2  A    between atoms: C3_3  and  C4_4 
REMARK    3  A    between atoms: C4_4  and  N1_5 
REMARK    4  A    between atoms: N1_5  and  C5_6 
REMARK    5  A    between atoms: N1_5  and  C16_24 
REMARK    6  A    between atoms: C5_6  and  C6_7 
REMARK    7  A    between atoms: C6_7  and  N2_8 
REMARK    8  A    between atoms: C9_14  and  C10_15 
REMARK    9  A    between atoms: C16_24  and  C17_25 
REMARK   10  A    between atoms: C17_25  and  O1_26 
REMARK   11  A    between atoms: O1_26  and  C18_27 
REMARK   12  A    between atoms: C25_34  and  N6_35 
ROOT
HETATM    1  N1  UNL     1       9.440  38.094  -3.353  1.00  0.00     0.095 N 
ENDROOT
BRANCH   1   2
HETATM    2  C4  UNL     1       9.391  37.448  -2.100  1.00  0.00     0.273 C 
BRANCH   2   3
HETATM    3  C3  UNL     1      10.392  37.901  -1.098  1.00  0.00     0.030 C 
BRANCH   3   4
HETATM    4  C2  UNL     1       9.911  38.872  -0.095  1.00  0.00    -0.003 C 
HETATM    5  C1  UNL     1       9.201  38.221   1.036  1.00  0.00     0.005 C 
ENDBRANCH   3   4
ENDBRANCH   2   3
ENDBRANCH   1   2
BRANCH   1   6
HETATM    6  C5  UNL     1      10.697  38.618  -3.790  1.00  0.00     0.317 C 
BRANCH   6   7
HETATM    7  C6  UNL     1      11.018  38.217  -5.212  1.00  0.00     0.109 C 
BRANCH   7   8
HETATM    8  N2  UNL     1      11.633  39.218  -5.941  1.00  0.00    -0.204 N 
HETATM    9  C7  UNL     1      12.162  39.283  -7.102  1.00  0.00     0.682 A 
HETATM   10  N3  UNL     1      12.717  40.431  -7.596  1.00  0.00    -0.199 N 
HETATM   11  N5  UNL     1      12.319  38.366  -8.074  1.00  0.00    -0.190 N 
HETATM   12  C8  UNL     1      13.182  40.187  -8.816  1.00  0.00     0.137 A 
ATOM     13  H3  UNL     1      12.766  41.326  -7.108  1.00  0.00     0.183 HD
HETATM   14  C9  UNL     1      12.938  38.871  -9.142  1.00  0.00     0.075 A 
ATOM     15  H5  UNL     1      12.003  37.399  -8.002  1.00  0.00     0.184 HD
ATOM     16  H2  UNL     1      11.674  40.104  -5.438  1.00  0.00     0.183 HD
BRANCH  14  17
HETATM   17  C10 UNL     1      13.325  38.281 -10.404  1.00  0.00    -0.007 A 
HETATM   18  C11 UNL     1      13.849  39.017 -11.442  1.00  0.00     0.015 A 
HETATM   19  C12 UNL     1      14.230  38.485 -12.652  1.00  0.00     0.027 A 
HETATM   20  C13 UNL     1      14.077  37.111 -12.849  1.00  0.00     0.046 A 
HETATM   21  N4  UNL     1      14.473  36.559 -14.099  1.00  0.00    -0.102 NA
HETATM   22  C14 UNL     1      13.560  36.356 -11.833  1.00  0.00     0.027 A 
HETATM   23  C15 UNL     1      13.184  36.931 -10.621  1.00  0.00     0.015 A 
ENDBRANCH  14  17
ENDBRANCH   7   8
ENDBRANCH   6   7
ENDBRANCH   1   6
BRANCH   1  24
HETATM   24  C16 UNL     1       8.375  39.075  -3.545  1.00  0.00     0.299 C 
BRANCH  24  25
HETATM   25  C17 UNL     1       8.739  40.483  -3.300  1.00  0.00     0.206 C 
BRANCH  25  26
HETATM   26  O1  UNL     1       8.062  41.512  -3.882  1.00  0.00    -0.349 OA
BRANCH  26  27
HETATM   27  C18 UNL     1       6.918  42.174  -3.554  1.00  0.00     0.069 A 
HETATM   28  C19 UNL     1       7.074  43.293  -2.719  1.00  0.00     0.039 A 
HETATM   29  C20 UNL     1       5.967  44.027  -2.328  1.00  0.00     0.032 A 
HETATM   30  C21 UNL     1       4.702  43.679  -2.747  1.00  0.00     0.034 A 
HETATM   31  C22 UNL     1       4.535  42.591  -3.561  1.00  0.00    -0.027 A 
HETATM   32  N7  UNL     1       3.547  44.396  -2.360  1.00  0.00    -0.387 N 
HETATM   33  C23 UNL     1       5.637  41.845  -3.962  1.00  0.00     0.046 A 
HETATM   34  C24 UNL     1       3.204  42.204  -4.019  1.00  0.00     0.075 C 
HETATM   35  C25 UNL     1       2.102  42.524  -3.068  1.00  0.00     0.205 C 
HETATM   36  C26 UNL     1       2.295  43.709  -2.197  1.00  0.00     0.153 C 
ATOM     37  H7  UNL     1       3.603  45.401  -2.197  1.00  0.00     0.159 HD
BRANCH  35  38
HETATM   38  N6  UNL     1       1.864  41.367  -2.185  1.00  0.00    -0.073 N 
ATOM     39  H63 UNL     1       1.184  40.717  -2.576  1.00  0.00     0.274 HD
ATOM     40  H62 UNL     1       2.666  40.738  -2.150  1.00  0.00     0.274 HD
ATOM     41  H61 UNL     1       1.593  41.697  -1.259  1.00  0.00     0.274 HD
ENDBRANCH  35  38
ENDBRANCH  26  27
ENDBRANCH  25  26
ENDBRANCH  24  25
ENDBRANCH   1  24
TORSDOF 12
ENDMDL
MODEL 4
REMARK VINA RESULT: -8.995104254      1.027      1.243
REMARK  12 active torsions:
REMARK  status: ('A' for Active; 'I' for Inactive)
REMARK    1  A    between atoms: C2_2  and  C3_3 
REMARK    2  A    between atoms: C3_3  and  C4_4 
REMARK    3  A    between atoms: C4_4  and  N1_5 
REMARK    4  A    between atoms: N1_5  and  C5_6 
REMARK    5  A    between atoms: N1_5  and  C16_24 
REMARK    6  A    between atoms: C5_6  and  C6_7 
REMARK    7  A    between atoms: C6_7  and  N2_8 
REMARK    8  A    between atoms: C9_14  and  C10_15 
REMARK    9  A    between atoms: C16_24  and  C17_25 
REMARK   10  A    between atoms: C17_25  and  O1_26 
REMARK   11  A    between atoms: O1_26  and  C18_27 
REMARK   12  A    between atoms: C25_34  and  N6_35 
ROOT
HETATM    1  N1  UNL     1       8.853  38.973  -3.058  1.00  0.00     0.095 N 
ENDROOT
BRANCH   1   2
HETATM    2  C4  UNL     1       9.653  38.355  -2.073  1.00  0.00     0.273 C 
BRANCH   2   3
HETATM    3  C3  UNL     1       9.022  37.225  -1.342  1.00  0.00     0.030 C 
BRANCH   3   4
HETATM    4  C2  UNL     1       8.930  37.373   0.124  1.00  0.00    -0.003 C 
HETATM    5  C1  UNL     1       9.680  38.553   0.627  1.00  0.00     0.005 C 
ENDBRANCH   3   4
ENDBRANCH   2   3
ENDBRANCH   1   2
BRANCH   1   6
HETATM    6  C5  UNL     1       9.149  38.700  -4.431  1.00  0.00     0.317 C 
BRANCH   6   7
HETATM    7  C6  UNL     1      10.615  38.406  -4.651  1.00  0.00     0.109 C 
BRANCH   7   8
HETATM    8  N2  UNL     1      11.295  39.432  -5.281  1.00  0.00    -0.204 N 
HETATM    9  C7  UNL     1      11.873  39.560  -6.413  1.00  0.00     0.682 A 
HETATM   10  N3  UNL     1      12.487  40.718  -6.800  1.00  0.00    -0.199 N 
HETATM   11  N5  UNL     1      12.037  38.709  -7.443  1.00  0.00    -0.190 N 
HETATM   12  C8  UNL     1      12.993  40.545  -8.016  1.00  0.00     0.137 A 
ATOM     13  H3  UNL     1      12.548  41.573  -6.247  1.00  0.00     0.183 HD
HETATM   14  C9  UNL     1      12.716  39.265  -8.447  1.00  0.00     0.075 A 
ATOM     15  H5  UNL     1      11.684  37.753  -7.454  1.00  0.00     0.184 HD
ATOM     16  H2  UNL     1      11.346  40.278  -4.713  1.00  0.00     0.183 HD
BRANCH  14  17
HETATM   17  C10 UNL     1      13.133  38.753  -9.732  1.00  0.00    -0.007 A 
HETATM   18  C11 UNL     1      13.634  39.558 -10.729  1.00  0.00     0.015 A 
HETATM   19  C12 UNL     1      14.042  39.101 -11.961  1.00  0.00     0.027 A 
HETATM   20  C13 UNL     1      13.945  37.733 -12.225  1.00  0.00     0.046 A 
HETATM   21  N4  UNL     1      14.370  37.258 -13.497  1.00  0.00    -0.102 NA
HETATM   22  C14 UNL     1      13.452  36.910 -11.251  1.00  0.00     0.027 A 
HETATM   23  C15 UNL     1      13.047  37.410 -10.015  1.00  0.00     0.015 A 
ENDBRANCH  14  17
ENDBRANCH   7   8
ENDBRANCH   6   7
ENDBRANCH   1   6
BRANCH   1  24
HETATM   24  C16 UNL     1       8.667  40.405  -2.844  1.00  0.00     0.299 C 
BRANCH  24  25
HETATM   25  C17 UNL     1       8.221  41.184  -4.014  1.00  0.00     0.206 C 
BRANCH  25  26
HETATM   26  O1  UNL     1       7.380  42.249  -3.891  1.00  0.00    -0.349 OA
BRANCH  26  27
HETATM   27  C18 UNL     1       6.045  42.407  -4.106  1.00  0.00     0.069 A 
HETATM   28  C19 UNL     1       5.686  43.397  -5.037  1.00  0.00     0.039 A 
HETATM   29  C20 UNL     1       4.352  43.633  -5.318  1.00  0.00     0.032 A 
HETATM   30  C21 UNL     1       3.357  42.911  -4.697  1.00  0.00     0.034 A 
HETATM   31  C22 UNL     1       3.692  41.944  -3.787  1.00  0.00    -0.027 A 
HETATM   32  N7  UNL     1       1.984  43.132  -4.948  1.00  0.00    -0.387 N 
HETATM   33  C23 UNL     1       5.028  41.694  -3.495  1.00  0.00     0.046 A 
HETATM   34  C24 UNL     1       2.656  41.164  -3.117  1.00  0.00     0.075 C 
HETATM   35  C25 UNL     1       1.372  41.890  -2.904  1.00  0.00     0.205 C 
HETATM   36  C26 UNL     1       1.020  42.931  -3.901  1.00  0.00     0.153 C 
ATOM     37  H7  UNL     1       1.678  43.434  -5.873  1.00  0.00     0.159 HD
BRANCH  35  38
HETATM   38  N6  UNL     1       1.390  42.542  -1.582  1.00  0.00    -0.073 N 
ATOM     39  H63 UNL     1       0.619  42.234  -0.990  1.00  0.00     0.274 HD
ATOM     40  H62 UNL     1       2.160  42.213  -1.000  1.00  0.00     0.274 HD
ATOM     41  H61 UNL     1       1.403  43.554  -1.702  1.00  0.00     0.274 HD
ENDBRANCH  35  38
ENDBRANCH  26  27
ENDBRANCH  25  26
ENDBRANCH  24  25
ENDBRANCH   1  24
TORSDOF 12
ENDMDL
MODEL 5
REMARK VINA RESULT: -8.911688420      1.407      2.155
REMARK  12 active torsions:
REMARK  status: ('A' for Active; 'I' for Inactive)
REMARK    1  A    between atoms: C2_2  and  C3_3 
REMARK    2  A    between atoms: C3_3  and  C4_4 
REMARK    3  A    between atoms: C4_4  and  N1_5 
REMARK    4  A    between atoms: N1_5  and  C5_6 
REMARK    5  A    between atoms: N1_5  and  C16_24 
REMARK    6  A    between atoms: C5_6  and  C6_7 
REMARK    7  A    between atoms: C6_7  and  N2_8 
REMARK    8  A    between atoms: C9_14  and  C10_15 
REMARK    9  A    between atoms: C16_24  and  C17_25 
REMARK   10  A    between atoms: C17_25  and  O1_26 
REMARK   11  A    between atoms: O1_26  and  C18_27 
REMARK   12  A    between atoms: C25_34  and  N6_35 
ROOT
HETATM    1  N1  UNL     1       9.613  37.980  -3.320  1.00  0.00     0.095 N 
ENDROOT
BRANCH   1   2
HETATM    2  C4  UNL     1       9.819  37.162  -2.189  1.00  0.00     0.273 C 
BRANCH   2   3
HETATM    3  C3  UNL     1       8.644  36.986  -1.294  1.00  0.00     0.030 C 
BRANCH   3   4
HETATM    4  C2  UNL     1       8.847  37.359   0.120  1.00  0.00    -0.003 C 
HETATM    5  C1  UNL     1       9.788  38.496   0.282  1.00  0.00     0.005 C 
ENDBRANCH   3   4
ENDBRANCH   2   3
ENDBRANCH   1   2
BRANCH   1   6
HETATM    6  C5  UNL     1      10.744  38.659  -3.873  1.00  0.00     0.317 C 
BRANCH   6   7
HETATM    7  C6  UNL     1      10.998  38.266  -5.310  1.00  0.00     0.109 C 
BRANCH   7   8
HETATM    8  N2  UNL     1      11.647  39.243  -6.042  1.00  0.00    -0.204 N 
HETATM    9  C7  UNL     1      12.185  39.285  -7.200  1.00  0.00     0.682 A 
HETATM   10  N3  UNL     1      12.777  40.413  -7.697  1.00  0.00    -0.199 N 
HETATM   11  N5  UNL     1      12.321  38.357  -8.165  1.00  0.00    -0.190 N 
HETATM   12  C8  UNL     1      13.243  40.147  -8.913  1.00  0.00     0.137 A 
ATOM     13  H3  UNL     1      12.850  41.309  -7.215  1.00  0.00     0.183 HD
HETATM   14  C9  UNL     1      12.961  38.836  -9.232  1.00  0.00     0.075 A 
ATOM     15  H5  UNL     1      11.975  37.401  -8.089  1.00  0.00     0.184 HD
ATOM     16  H2  UNL     1      11.712  40.132  -5.544  1.00  0.00     0.183 HD
BRANCH  14  17
HETATM   17  C10 UNL     1      13.338  38.227 -10.487  1.00  0.00    -0.007 A 
HETATM   18  C11 UNL     1      13.172  36.886 -10.745  1.00  0.00     0.015 A 
HETATM   19  C12 UNL     1      13.517  36.277 -11.930  1.00  0.00     0.027 A 
HETATM   20  C13 UNL     1      14.074  37.064 -12.942  1.00  0.00     0.046 A 
HETATM   21  N4  UNL     1      14.429  36.437 -14.167  1.00  0.00    -0.102 NA
HETATM   22  C14 UNL     1      14.249  38.401 -12.711  1.00  0.00     0.027 A 
HETATM   23  C15 UNL     1      13.888  38.981 -11.497  1.00  0.00     0.015 A 
ENDBRANCH  14  17
ENDBRANCH   7   8
ENDBRANCH   6   7
ENDBRANCH   1   6
BRANCH   1  24
HETATM   24  C16 UNL     1       8.479  38.890  -3.182  1.00  0.00     0.299 C 
BRANCH  24  25
HETATM   25  C17 UNL     1       8.810  40.305  -2.927  1.00  0.00     0.206 C 
BRANCH  25  26
HETATM   26  O1  UNL     1       8.491  41.289  -3.813  1.00  0.00    -0.349 OA
BRANCH  26  27
HETATM   27  C18 UNL     1       7.320  41.902  -4.137  1.00  0.00     0.069 A 
HETATM   28  C19 UNL     1       7.401  42.900  -5.123  1.00  0.00     0.039 A 
HETATM   29  C20 UNL     1       6.263  43.582  -5.515  1.00  0.00     0.032 A 
HETATM   30  C21 UNL     1       5.038  43.300  -4.953  1.00  0.00     0.034 A 
HETATM   31  C22 UNL     1       4.943  42.330  -3.991  1.00  0.00    -0.027 A 
HETATM   32  N7  UNL     1       3.856  43.983  -5.318  1.00  0.00    -0.387 N 
HETATM   33  C23 UNL     1       6.078  41.636  -3.587  1.00  0.00     0.046 A 
HETATM   34  C24 UNL     1       3.656  42.013  -3.382  1.00  0.00     0.075 C 
HETATM   35  C25 UNL     1       2.709  43.161  -3.292  1.00  0.00     0.205 C 
HETATM   36  C26 UNL     1       2.821  44.200  -4.345  1.00  0.00     0.153 C 
ATOM     37  H7  UNL     1       3.738  44.322  -6.273  1.00  0.00     0.159 HD
BRANCH  35  38
HETATM   38  N6  UNL     1       2.879  43.837  -1.993  1.00  0.00    -0.073 N 
ATOM     39  H63 UNL     1       3.736  43.554  -1.521  1.00  0.00     0.274 HD
ATOM     40  H62 UNL     1       3.091  44.829  -2.100  1.00  0.00     0.274 HD
ATOM     41  H61 UNL     1       2.052  43.679  -1.418  1.00  0.00     0.274 HD
ENDBRANCH  35  38
ENDBRANCH  26  27
ENDBRANCH  25  26
ENDBRANCH  24  25
ENDBRANCH   1  24
TORSDOF 12
ENDMDL
