MODEL 1
REMARK VINA RESULT: -7.880065366      0.000      0.000
REMARK  14 active torsions:
REMARK  status: ('A' for Active; 'I' for Inactive)
REMARK    1  A    between atoms: C3_5  and  N2_6 
REMARK    2  A    between atoms: N2_6  and  C4_8 
REMARK    3  A    between atoms: C4_8  and  C5_9 
REMARK    4  A    between atoms: C5_9  and  C6_10 
REMARK    5  A    between atoms: C6_10  and  C7_11 
REMARK    6  A    between atoms: C7_11  and  C8_12 
REMARK    7  A    between atoms: C8_12  and  C9_13 
REMARK    8  A    between atoms: C9_13  and  C10_14 
REMARK    9  A    between atoms: C10_14  and  N3_15 
REMARK   10  A    between atoms: C13_19  and  N4_20 
REMARK   11  A    between atoms: N4_20  and  C14_22 
REMARK   12  A    between atoms: C17_25  and  C18_26 
REMARK   13  A    between atoms: C18_26  and  C19_27 
REMARK   14  A    between atoms: C19_27  and  O1_28 
ROOT
HETATM    1  N3  UNL     1      15.576  43.566  -8.661  1.00  0.00    -0.376 N 
ATOM      2  H3  UNL     1      16.039  44.474  -8.662  1.00  0.00     0.161 HD
HETATM    3  C11 UNL     1      16.019  42.609  -9.398  1.00  0.00     0.105 A 
HETATM    4  C12 UNL     1      15.402  41.352  -9.416  1.00  0.00     0.096 A 
HETATM    5  C13 UNL     1      15.863  40.328 -10.198  1.00  0.00     0.105 A 
HETATM    6  N5  UNL     1      16.954  40.538 -10.980  1.00  0.00    -0.339 N 
ATOM      7  H5  UNL     1      17.321  39.793 -11.574  1.00  0.00     0.168 HD
HETATM    8  C22 UNL     1      17.536  41.738 -10.955  1.00  0.00     0.183 A 
HETATM    9  N6  UNL     1      17.092  42.757 -10.190  1.00  0.00    -0.339 N 
ATOM     10  H6  UNL     1      17.580  43.652 -10.214  1.00  0.00     0.168 HD
ENDROOT
BRANCH   1  11
HETATM   11  C10 UNL     1      14.392  43.334  -7.819  1.00  0.00     0.121 C 
BRANCH  11  12
HETATM   12  C9  UNL     1      13.200  43.822  -8.584  1.00  0.00     0.020 C 
BRANCH  12  13
HETATM   13  C8  UNL     1      11.895  43.240  -8.138  1.00  0.00     0.002 C 
BRANCH  13  14
HETATM   14  C7  UNL     1      11.955  41.740  -8.276  1.00  0.00     0.000 C 
BRANCH  14  15
HETATM   15  C6  UNL     1      11.585  41.016  -7.000  1.00  0.00     0.002 C 
BRANCH  15  16
HETATM   16  C5  UNL     1      11.988  39.581  -7.112  1.00  0.00     0.020 C 
BRANCH  16  17
HETATM   17  C4  UNL     1      11.260  38.667  -6.156  1.00  0.00     0.138 C 
BRANCH  17  18
HETATM   18  N2  UNL     1      10.850  39.431  -4.990  1.00  0.00    -0.225 N 
ATOM     19  H2  UNL     1      10.690  40.436  -5.068  1.00  0.00     0.177 HD
BRANCH  18  20
HETATM   20  C3  UNL     1      10.687  38.834  -3.852  1.00  0.00     0.694 A 
HETATM   21  N1  UNL     1       9.724  37.932  -3.578  1.00  0.00    -0.179 N 
HETATM   22  C2  UNL     1       9.856  37.520  -2.303  1.00  0.00     0.108 A 
ATOM     23  H1  UNL     1       9.009  37.613  -4.232  1.00  0.00     0.185 HD
HETATM   24  C1  UNL     1       9.015  36.533  -1.571  1.00  0.00     0.091 C 
HETATM   25  N8  UNL     1      10.909  38.175  -1.791  1.00  0.00    -0.275 N 
HETATM   26  N7  UNL     1      11.407  38.967  -2.730  1.00  0.00    -0.131 N 
ATOM     27  H8  UNL     1      11.264  38.080  -0.839  1.00  0.00     0.189 HD
ATOM     28  H7  UNL     1      12.212  39.581  -2.616  1.00  0.00     0.205 HD
ENDBRANCH  18  20
ENDBRANCH  17  18
ENDBRANCH  16  17
ENDBRANCH  15  16
ENDBRANCH  14  15
ENDBRANCH  13  14
ENDBRANCH  12  13
ENDBRANCH  11  12
ENDBRANCH   1  11
BRANCH   5  29
HETATM   29  N4  UNL     1      15.205  39.069 -10.220  1.00  0.00    -0.372 N 
ATOM     30  H4  UNL     1      15.741  38.207 -10.117  1.00  0.00     0.161 HD
BRANCH  29  31
HETATM   31  C14 UNL     1      13.777  39.019 -10.389  1.00  0.00     0.083 C 
HETATM   32  C15 UNL     1      13.235  37.623 -10.123  1.00  0.00     0.025 C 
HETATM   33  C16 UNL     1      13.692  36.621 -11.116  1.00  0.00     0.007 C 
HETATM   34  C17 UNL     1      13.608  37.071 -12.560  1.00  0.00    -0.012 C 
HETATM   35  C20 UNL     1      14.105  38.445 -12.814  1.00  0.00     0.007 C 
HETATM   36  C21 UNL     1      13.489  39.409 -11.824  1.00  0.00     0.025 C 
BRANCH  34  37
HETATM   37  C18 UNL     1      14.239  35.986 -13.379  1.00  0.00     0.030 C 
BRANCH  37  38
HETATM   38  C19 UNL     1      13.771  35.862 -14.783  1.00  0.00     0.164 C 
BRANCH  38  39
HETATM   39  O1  UNL     1      12.861  34.844 -15.004  1.00  0.00    -0.401 OA
ATOM     40  H1  UNL     1      12.689  34.654 -15.919  1.00  0.00     0.209 HD
ENDBRANCH  38  39
ENDBRANCH  37  38
ENDBRANCH  34  37
ENDBRANCH  29  31
ENDBRANCH   5  29
TORSDOF 14
ENDMDL
MODEL 2
REMARK VINA RESULT: -7.874078410      3.179      5.726
REMARK  14 active torsions:
REMARK  status: ('A' for Active; 'I' for Inactive)
REMARK    1  A    between atoms: C3_5  and  N2_6 
REMARK    2  A    between atoms: N2_6  and  C4_8 
REMARK    3  A    between atoms: C4_8  and  C5_9 
REMARK    4  A    between atoms: C5_9  and  C6_10 
REMARK    5  A    between atoms: C6_10  and  C7_11 
REMARK    6  A    between atoms: C7_11  and  C8_12 
REMARK    7  A    between atoms: C8_12  and  C9_13 
REMARK    8  A    between atoms: C9_13  and  C10_14 
REMARK    9  A    between atoms: C10_14  and  N3_15 
REMARK   10  A    between atoms: C13_19  and  N4_20 
REMARK   11  A    between atoms: N4_20  and  C14_22 
REMARK   12  A    between atoms: C17_25  and  C18_26 
REMARK   13  A    between atoms: C18_26  and  C19_27 
REMARK   14  A    between atoms: C19_27  and  O1_28 
ROOT
HETATM    1  N3  UNL     1      10.522  39.696  -4.860  1.00  0.00    -0.376 N 
ATOM      2  H3  UNL     1      10.104  40.392  -4.242  1.00  0.00     0.161 HD
HETATM    3  C11 UNL     1      10.983  40.041  -6.010  1.00  0.00     0.105 A 
HETATM    4  C12 UNL     1      11.562  39.108  -6.878  1.00  0.00     0.096 A 
HETATM    5  C13 UNL     1      12.053  39.463  -8.105  1.00  0.00     0.105 A 
HETATM    6  N5  UNL     1      11.976  40.764  -8.492  1.00  0.00    -0.339 N 
ATOM      7  H5  UNL     1      12.334  41.059  -9.401  1.00  0.00     0.168 HD
HETATM    8  C22 UNL     1      11.424  41.646  -7.658  1.00  0.00     0.183 A 
HETATM    9  N6  UNL     1      10.935  41.310  -6.447  1.00  0.00    -0.339 N 
ATOM     10  H6  UNL     1      10.524  42.031  -5.853  1.00  0.00     0.168 HD
ENDROOT
BRANCH   1  11
HETATM   11  C10 UNL     1      10.605  38.287  -4.447  1.00  0.00     0.121 C 
BRANCH  11  12
HETATM   12  C9  UNL     1       9.493  38.043  -3.472  1.00  0.00     0.020 C 
BRANCH  12  13
HETATM   13  C8  UNL     1       9.797  37.014  -2.429  1.00  0.00     0.002 C 
BRANCH  13  14
HETATM   14  C7  UNL     1       9.126  37.410  -1.139  1.00  0.00     0.000 C 
BRANCH  14  15
HETATM   15  C6  UNL     1      10.035  38.194  -0.219  1.00  0.00     0.002 C 
BRANCH  15  16
HETATM   16  C5  UNL     1       9.497  39.580  -0.058  1.00  0.00     0.020 C 
BRANCH  16  17
HETATM   17  C4  UNL     1      10.145  40.594  -0.970  1.00  0.00     0.138 C 
BRANCH  17  18
HETATM   18  N2  UNL     1       9.133  41.158  -1.847  1.00  0.00    -0.225 N 
ATOM     19  H2  UNL     1       8.746  40.599  -2.607  1.00  0.00     0.177 HD
BRANCH  18  20
HETATM   20  C3  UNL     1       8.724  42.374  -1.661  1.00  0.00     0.694 A 
HETATM   21  N1  UNL     1       7.505  42.723  -1.207  1.00  0.00    -0.179 N 
HETATM   22  C2  UNL     1       7.428  44.065  -1.138  1.00  0.00     0.108 A 
ATOM     23  H1  UNL     1       6.759  42.073  -0.956  1.00  0.00     0.185 HD
HETATM   24  C1  UNL     1       6.271  44.892  -0.693  1.00  0.00     0.091 C 
HETATM   25  N8  UNL     1       8.609  44.543  -1.555  1.00  0.00    -0.275 N 
HETATM   26  N7  UNL     1       9.389  43.518  -1.869  1.00  0.00    -0.131 N 
ATOM     27  H8  UNL     1       8.864  45.529  -1.619  1.00  0.00     0.189 HD
ATOM     28  H7  UNL     1      10.345  43.590  -2.216  1.00  0.00     0.205 HD
ENDBRANCH  18  20
ENDBRANCH  17  18
ENDBRANCH  16  17
ENDBRANCH  15  16
ENDBRANCH  14  15
ENDBRANCH  13  14
ENDBRANCH  12  13
ENDBRANCH  11  12
ENDBRANCH   1  11
BRANCH   5  29
HETATM   29  N4  UNL     1      12.613  38.494  -8.980  1.00  0.00    -0.372 N 
ATOM     30  H4  UNL     1      12.005  37.882  -9.525  1.00  0.00     0.161 HD
BRANCH  29  31
HETATM   31  C14 UNL     1      14.043  38.382  -9.090  1.00  0.00     0.083 C 
HETATM   32  C15 UNL     1      14.594  39.326 -10.150  1.00  0.00     0.025 C 
HETATM   33  C16 UNL     1      14.156  38.979 -11.523  1.00  0.00     0.007 C 
HETATM   34  C17 UNL     1      14.253  37.508 -11.871  1.00  0.00    -0.012 C 
HETATM   35  C20 UNL     1      13.748  36.586 -10.824  1.00  0.00     0.007 C 
HETATM   36  C21 UNL     1      14.344  36.951  -9.483  1.00  0.00     0.025 C 
BRANCH  34  37
HETATM   37  C18 UNL     1      13.640  37.352 -13.229  1.00  0.00     0.030 C 
BRANCH  37  38
HETATM   38  C19 UNL     1      14.060  36.160 -14.009  1.00  0.00     0.164 C 
BRANCH  38  39
HETATM   39  O1  UNL     1      13.200  35.079 -13.928  1.00  0.00    -0.401 OA
ATOM     40  H1  UNL     1      13.484  34.306 -14.401  1.00  0.00     0.209 HD
ENDBRANCH  38  39
ENDBRANCH  37  38
ENDBRANCH  34  37
ENDBRANCH  29  31
ENDBRANCH   5  29
TORSDOF 14
ENDMDL
MODEL 3
REMARK VINA RESULT: -7.751710343      5.091     11.298
REMARK  14 active torsions:
REMARK  status: ('A' for Active; 'I' for Inactive)
REMARK    1  A    between atoms: C3_5  and  N2_6 
REMARK    2  A    between atoms: N2_6  and  C4_8 
REMARK    3  A    between atoms: C4_8  and  C5_9 
REMARK    4  A    between atoms: C5_9  and  C6_10 
REMARK    5  A    between atoms: C6_10  and  C7_11 
REMARK    6  A    between atoms: C7_11  and  C8_12 
REMARK    7  A    between atoms: C8_12  and  C9_13 
REMARK    8  A    between atoms: C9_13  and  C10_14 
REMARK    9  A    between atoms: C10_14  and  N3_15 
REMARK   10  A    between atoms: C13_19  and  N4_20 
REMARK   11  A    between atoms: N4_20  and  C14_22 
REMARK   12  A    between atoms: C17_25  and  C18_26 
REMARK   13  A    between atoms: C18_26  and  C19_27 
REMARK   14  A    between atoms: C19_27  and  O1_28 
ROOT
HETATM    1  N3  UNL     1      11.551  37.979  -5.231  1.00  0.00    -0.376 N 
ATOM      2  H3  UNL     1      12.196  37.211  -5.043  1.00  0.00     0.161 HD
HETATM    3  C11 UNL     1      10.676  38.324  -4.354  1.00  0.00     0.105 A 
HETATM    4  C12 UNL     1       9.780  39.373  -4.585  1.00  0.00     0.096 A 
HETATM    5  C13 UNL     1       8.842  39.746  -3.660  1.00  0.00     0.105 A 
HETATM    6  N5  UNL     1       8.781  39.075  -2.479  1.00  0.00    -0.339 N 
ATOM      7  H5  UNL     1       8.093  39.330  -1.770  1.00  0.00     0.168 HD
HETATM    8  C22 UNL     1       9.640  38.077  -2.268  1.00  0.00     0.183 A 
HETATM    9  N6  UNL     1      10.568  37.699  -3.170  1.00  0.00    -0.339 N 
ATOM     10  H6  UNL     1      11.198  36.927  -2.950  1.00  0.00     0.168 HD
ENDROOT
BRANCH   1  11
HETATM   11  C10 UNL     1      11.611  38.706  -6.509  1.00  0.00     0.121 C 
BRANCH  11  12
HETATM   12  C9  UNL     1      12.844  38.246  -7.225  1.00  0.00     0.020 C 
BRANCH  12  13
HETATM   13  C8  UNL     1      12.861  38.551  -8.690  1.00  0.00     0.002 C 
BRANCH  13  14
HETATM   14  C7  UNL     1      13.743  37.548  -9.390  1.00  0.00     0.000 C 
BRANCH  14  15
HETATM   15  C6  UNL     1      13.211  37.142 -10.747  1.00  0.00     0.002 C 
BRANCH  15  16
HETATM   16  C5  UNL     1      14.122  36.119 -11.347  1.00  0.00     0.020 C 
BRANCH  16  17
HETATM   17  C4  UNL     1      13.562  35.456 -12.582  1.00  0.00     0.138 C 
BRANCH  17  18
HETATM   18  N2  UNL     1      14.478  35.669 -13.690  1.00  0.00    -0.225 N 
ATOM     19  H2  UNL     1      15.481  35.743 -13.518  1.00  0.00     0.177 HD
BRANCH  18  20
HETATM   20  C3  UNL     1      14.018  35.764 -14.898  1.00  0.00     0.694 A 
HETATM   21  N1  UNL     1      14.318  36.748 -15.768  1.00  0.00    -0.179 N 
HETATM   22  C2  UNL     1      13.663  36.528 -16.924  1.00  0.00     0.108 A 
ATOM     23  H1  UNL     1      14.942  37.533 -15.581  1.00  0.00     0.185 HD
HETATM   24  C1  UNL     1      13.694  37.356 -18.163  1.00  0.00     0.091 C 
HETATM   25  N8  UNL     1      12.955  35.402 -16.761  1.00  0.00    -0.275 N 
HETATM   26  N7  UNL     1      13.172  34.944 -15.535  1.00  0.00    -0.131 N 
ATOM     27  H8  UNL     1      12.351  34.970 -17.460  1.00  0.00     0.189 HD
ATOM     28  H7  UNL     1      12.760  34.099 -15.140  1.00  0.00     0.205 HD
ENDBRANCH  18  20
ENDBRANCH  17  18
ENDBRANCH  16  17
ENDBRANCH  15  16
ENDBRANCH  14  15
ENDBRANCH  13  14
ENDBRANCH  12  13
ENDBRANCH  11  12
ENDBRANCH   1  11
BRANCH   5  29
HETATM   29  N4  UNL     1       7.926  40.798  -3.927  1.00  0.00    -0.372 N 
ATOM     30  H4  UNL     1       6.944  40.589  -4.109  1.00  0.00     0.161 HD
BRANCH  29  31
HETATM   31  C14 UNL     1       8.394  42.158  -3.940  1.00  0.00     0.083 C 
HETATM   32  C15 UNL     1       8.087  42.863  -2.626  1.00  0.00     0.025 C 
HETATM   33  C16 UNL     1       6.635  43.044  -2.387  1.00  0.00     0.007 C 
HETATM   34  C17 UNL     1       5.851  43.554  -3.579  1.00  0.00    -0.012 C 
HETATM   35  C20 UNL     1       6.175  42.890  -4.866  1.00  0.00     0.007 C 
HETATM   36  C21 UNL     1       7.673  42.862  -5.071  1.00  0.00     0.025 C 
BRANCH  34  37
HETATM   37  C18 UNL     1       4.409  43.533  -3.178  1.00  0.00     0.030 C 
BRANCH  37  38
HETATM   38  C19 UNL     1       3.560  42.498  -3.820  1.00  0.00     0.164 C 
BRANCH  38  39
HETATM   39  O1  UNL     1       3.506  41.290  -3.145  1.00  0.00    -0.401 OA
ATOM     40  H1  UNL     1       2.649  40.880  -3.128  1.00  0.00     0.209 HD
ENDBRANCH  38  39
ENDBRANCH  37  38
ENDBRANCH  34  37
ENDBRANCH  29  31
ENDBRANCH   5  29
TORSDOF 14
ENDMDL
MODEL 4
REMARK VINA RESULT: -7.721254023      1.652      2.479
REMARK  14 active torsions:
REMARK  status: ('A' for Active; 'I' for Inactive)
REMARK    1  A    between atoms: C3_5  and  N2_6 
REMARK    2  A    between atoms: N2_6  and  C4_8 
REMARK    3  A    between atoms: C4_8  and  C5_9 
REMARK    4  A    between atoms: C5_9  and  C6_10 
REMARK    5  A    between atoms: C6_10  and  C7_11 
REMARK    6  A    between atoms: C7_11  and  C8_12 
REMARK    7  A    between atoms: C8_12  and  C9_13 
REMARK    8  A    between atoms: C9_13  and  C10_14 
REMARK    9  A    between atoms: C10_14  and  N3_15 
REMARK   10  A    between atoms: C13_19  and  N4_20 
REMARK   11  A    between atoms: N4_20  and  C14_22 
REMARK   12  A    between atoms: C17_25  and  C18_26 
REMARK   13  A    between atoms: C18_26  and  C19_27 
REMARK   14  A    between atoms: C19_27  and  O1_28 
ROOT
HETATM    1  N3  UNL     1      17.507  44.323  -9.710  1.00  0.00    -0.376 N 
ATOM      2  H3  UNL     1      18.226  45.029  -9.551  1.00  0.00     0.161 HD
HETATM    3  C11 UNL     1      17.804  43.210 -10.284  1.00  0.00     0.105 A 
HETATM    4  C12 UNL     1      16.838  42.224 -10.515  1.00  0.00     0.096 A 
HETATM    5  C13 UNL     1      17.142  41.038 -11.127  1.00  0.00     0.105 A 
HETATM    6  N5  UNL     1      18.423  40.812 -11.522  1.00  0.00    -0.339 N 
ATOM      7  H5  UNL     1      18.680  39.938 -11.981  1.00  0.00     0.168 HD
HETATM    8  C22 UNL     1      19.336  41.758 -11.297  1.00  0.00     0.183 A 
HETATM    9  N6  UNL     1      19.051  42.931 -10.695  1.00  0.00    -0.339 N 
ATOM     10  H6  UNL     1      19.794  43.615 -10.551  1.00  0.00     0.168 HD
ENDROOT
BRANCH   1  11
HETATM   11  C10 UNL     1      16.119  44.564  -9.287  1.00  0.00     0.121 C 
BRANCH  11  12
HETATM   12  C9  UNL     1      16.023  44.189  -7.840  1.00  0.00     0.020 C 
BRANCH  12  13
HETATM   13  C8  UNL     1      14.769  43.462  -7.468  1.00  0.00     0.002 C 
BRANCH  13  14
HETATM   14  C7  UNL     1      13.945  43.238  -8.711  1.00  0.00     0.000 C 
BRANCH  14  15
HETATM   15  C6  UNL     1      12.487  43.592  -8.522  1.00  0.00     0.002 C 
BRANCH  15  16
HETATM   16  C5  UNL     1      11.657  42.355  -8.662  1.00  0.00     0.020 C 
BRANCH  16  17
HETATM   17  C4  UNL     1      11.300  41.709  -7.345  1.00  0.00     0.138 C 
BRANCH  17  18
HETATM   18  N2  UNL     1      12.221  40.615  -7.089  1.00  0.00    -0.225 N 
ATOM     19  H2  UNL     1      13.142  40.608  -7.527  1.00  0.00     0.177 HD
BRANCH  18  20
HETATM   20  C3  UNL     1      11.868  39.646  -6.303  1.00  0.00     0.694 A 
HETATM   21  N1  UNL     1      10.915  39.723  -5.355  1.00  0.00    -0.179 N 
HETATM   22  C2  UNL     1      10.816  38.533  -4.732  1.00  0.00     0.108 A 
ATOM     23  H1  UNL     1      10.357  40.551  -5.142  1.00  0.00     0.185 HD
HETATM   24  C1  UNL     1       9.897  38.157  -3.621  1.00  0.00     0.091 C 
HETATM   25  N8  UNL     1      11.716  37.720  -5.303  1.00  0.00    -0.275 N 
HETATM   26  N7  UNL     1      12.350  38.397  -6.251  1.00  0.00    -0.131 N 
ATOM     27  H8  UNL     1      11.886  36.747  -5.051  1.00  0.00     0.189 HD
ATOM     28  H7  UNL     1      13.088  38.025  -6.848  1.00  0.00     0.205 HD
ENDBRANCH  18  20
ENDBRANCH  17  18
ENDBRANCH  16  17
ENDBRANCH  15  16
ENDBRANCH  14  15
ENDBRANCH  13  14
ENDBRANCH  12  13
ENDBRANCH  11  12
ENDBRANCH   1  11
BRANCH   5  29
HETATM   29  N4  UNL     1      16.140  40.063 -11.374  1.00  0.00    -0.372 N 
ATOM     30  H4  UNL     1      16.402  39.107 -11.619  1.00  0.00     0.161 HD
BRANCH  29  31
HETATM   31  C14 UNL     1      14.753  40.432 -11.277  1.00  0.00     0.083 C 
HETATM   32  C15 UNL     1      14.098  39.815 -10.049  1.00  0.00     0.025 C 
HETATM   33  C16 UNL     1      14.014  38.336 -10.116  1.00  0.00     0.007 C 
HETATM   34  C17 UNL     1      13.527  37.784 -11.440  1.00  0.00    -0.012 C 
HETATM   35  C20 UNL     1      14.140  38.410 -12.637  1.00  0.00     0.007 C 
HETATM   36  C21 UNL     1      14.071  39.917 -12.526  1.00  0.00     0.025 C 
BRANCH  34  37
HETATM   37  C18 UNL     1      13.647  36.294 -11.348  1.00  0.00     0.030 C 
BRANCH  37  38
HETATM   38  C19 UNL     1      13.260  35.525 -12.557  1.00  0.00     0.164 C 
BRANCH  38  39
HETATM   39  O1  UNL     1      13.207  34.153 -12.381  1.00  0.00    -0.401 OA
ATOM     40  H1  UNL     1      12.815  33.870 -11.563  1.00  0.00     0.209 HD
ENDBRANCH  38  39
ENDBRANCH  37  38
ENDBRANCH  34  37
ENDBRANCH  29  31
ENDBRANCH   5  29
TORSDOF 14
ENDMDL
MODEL 5
REMARK VINA RESULT: -7.684926436      2.539      4.182
REMARK  14 active torsions:
REMARK  status: ('A' for Active; 'I' for Inactive)
REMARK    1  A    between atoms: C3_5  and  N2_6 
REMARK    2  A    between atoms: N2_6  and  C4_8 
REMARK    3  A    between atoms: C4_8  and  C5_9 
REMARK    4  A    between atoms: C5_9  and  C6_10 
REMARK    5  A    between atoms: C6_10  and  C7_11 
REMARK    6  A    between atoms: C7_11  and  C8_12 
REMARK    7  A    between atoms: C8_12  and  C9_13 
REMARK    8  A    between atoms: C9_13  and  C10_14 
REMARK    9  A    between atoms: C10_14  and  N3_15 
REMARK   10  A    between atoms: C13_19  and  N4_20 
REMARK   11  A    between atoms: N4_20  and  C14_22 
REMARK   12  A    between atoms: C17_25  and  C18_26 
REMARK   13  A    between atoms: C18_26  and  C19_27 
REMARK   14  A    between atoms: C19_27  and  O1_28 
ROOT
HETATM    1  N3  UNL     1      10.574  41.689  -6.202  1.00  0.00    -0.376 N 
ATOM      2  H3  UNL     1      10.192  42.001  -5.309  1.00  0.00     0.161 HD
HETATM    3  C11 UNL     1      11.060  40.504  -6.323  1.00  0.00     0.105 A 
HETATM    4  C12 UNL     1      11.590  40.050  -7.537  1.00  0.00     0.096 A 
HETATM    5  C13 UNL     1      12.112  38.792  -7.676  1.00  0.00     0.105 A 
HETATM    6  N5  UNL     1      12.116  37.959  -6.602  1.00  0.00    -0.339 N 
ATOM      7  H5  UNL     1      12.499  37.016  -6.675  1.00  0.00     0.168 HD
HETATM    8  C22 UNL     1      11.608  38.401  -5.451  1.00  0.00     0.183 A 
HETATM    9  N6  UNL     1      11.090  39.637  -5.298  1.00  0.00    -0.339 N 
ATOM     10  H6  UNL     1      10.716  39.917  -4.392  1.00  0.00     0.168 HD
ENDROOT
BRANCH   1  11
HETATM   11  C10 UNL     1      10.576  42.588  -7.367  1.00  0.00     0.121 C 
BRANCH  11  12
HETATM   12  C9  UNL     1       9.445  43.554  -7.185  1.00  0.00     0.020 C 
BRANCH  12  13
HETATM   13  C8  UNL     1       8.938  43.660  -5.781  1.00  0.00     0.002 C 
BRANCH  13  14
HETATM   14  C7  UNL     1       7.437  43.529  -5.790  1.00  0.00     0.000 C 
BRANCH  14  15
HETATM   15  C6  UNL     1       6.926  42.540  -4.765  1.00  0.00     0.002 C 
BRANCH  15  16
HETATM   16  C5  UNL     1       7.964  42.346  -3.707  1.00  0.00     0.020 C 
BRANCH  16  17
HETATM   17  C4  UNL     1       8.230  40.898  -3.373  1.00  0.00     0.138 C 
BRANCH  17  18
HETATM   18  N2  UNL     1       9.231  40.830  -2.322  1.00  0.00    -0.225 N 
ATOM     19  H2  UNL     1       9.525  41.680  -1.839  1.00  0.00     0.177 HD
BRANCH  18  20
HETATM   20  C3  UNL     1       9.750  39.688  -1.999  1.00  0.00     0.694 A 
HETATM   21  N1  UNL     1       9.072  38.529  -1.890  1.00  0.00    -0.179 N 
HETATM   22  C2  UNL     1       9.927  37.550  -1.539  1.00  0.00     0.108 A 
ATOM     23  H1  UNL     1       8.071  38.412  -2.048  1.00  0.00     0.185 HD
HETATM   24  C1  UNL     1       9.621  36.110  -1.305  1.00  0.00     0.091 C 
HETATM   25  N8  UNL     1      11.139  38.113  -1.430  1.00  0.00    -0.275 N 
HETATM   26  N7  UNL     1      11.027  39.404  -1.709  1.00  0.00    -0.131 N 
ATOM     27  H8  UNL     1      12.001  37.629  -1.176  1.00  0.00     0.189 HD
ATOM     28  H7  UNL     1      11.794  40.076  -1.704  1.00  0.00     0.205 HD
ENDBRANCH  18  20
ENDBRANCH  17  18
ENDBRANCH  16  17
ENDBRANCH  15  16
ENDBRANCH  14  15
ENDBRANCH  13  14
ENDBRANCH  12  13
ENDBRANCH  11  12
ENDBRANCH   1  11
BRANCH   5  29
HETATM   29  N4  UNL     1      12.668  38.362  -8.910  1.00  0.00    -0.372 N 
ATOM     30  H4  UNL     1      12.060  38.041  -9.663  1.00  0.00     0.161 HD
BRANCH  29  31
HETATM   31  C14 UNL     1      14.096  38.383  -9.089  1.00  0.00     0.083 C 
HETATM   32  C15 UNL     1      14.503  39.347 -10.193  1.00  0.00     0.025 C 
HETATM   33  C16 UNL     1      14.036  38.926 -11.536  1.00  0.00     0.007 C 
HETATM   34  C17 UNL     1      14.256  37.462 -11.858  1.00  0.00    -0.012 C 
HETATM   35  C20 UNL     1      13.892  36.524 -10.768  1.00  0.00     0.007 C 
HETATM   36  C21 UNL     1      14.514  36.977  -9.466  1.00  0.00     0.025 C 
BRANCH  34  37
HETATM   37  C18 UNL     1      13.598  37.215 -13.180  1.00  0.00     0.030 C 
BRANCH  37  38
HETATM   38  C19 UNL     1      14.069  36.030 -13.941  1.00  0.00     0.164 C 
BRANCH  38  39
HETATM   39  O1  UNL     1      13.063  35.198 -14.401  1.00  0.00    -0.401 OA
ATOM     40  H1  UNL     1      13.365  34.405 -14.828  1.00  0.00     0.209 HD
ENDBRANCH  38  39
ENDBRANCH  37  38
ENDBRANCH  34  37
ENDBRANCH  29  31
ENDBRANCH   5  29
TORSDOF 14
ENDMDL
