MODEL 1
REMARK VINA RESULT: -7.320458972      0.000      0.000
REMARK  17 active torsions:
REMARK  status: ('A' for Active; 'I' for Inactive)
REMARK    1  A    between atoms: C6_6  and  C7_7 
REMARK    2  A    between atoms: C7_7  and  C8_8 
REMARK    3  A    between atoms: C8_8  and  C9_9 
REMARK    4  A    between atoms: C9_9  and  C10_10 
REMARK    5  A    between atoms: C10_10  and  C11_11 
REMARK    6  A    between atoms: C11_11  and  C12_12 
REMARK    7  A    between atoms: C12_12  and  C13_13 
REMARK    8  A    between atoms: C13_13  and  C14_14 
REMARK    9  A    between atoms: C14_14  and  C15_15 
REMARK   10  A    between atoms: C15_15  and  C16_16 
REMARK   11  A    between atoms: C16_16  and  O1_17 
REMARK   12  A    between atoms: O1_17  and  C17_18 
REMARK   13  A    between atoms: C18_19  and  O2_20 
REMARK   14  A    between atoms: C19_22  and  O3_23 
REMARK   15  A    between atoms: C20_25  and  O4_26 
REMARK   16  A    between atoms: C21_28  and  O5_29 
REMARK   17  A    between atoms: C22_31  and  O6_32 
ROOT
HETATM    1  C16 UNL     1      11.061  38.487  -6.036  1.00  0.00     0.168 C 
ENDROOT
BRANCH   1   2
HETATM    2  C15 UNL     1      11.405  39.860  -6.553  1.00  0.00     0.026 C 
BRANCH   2   3
HETATM    3  C14 UNL     1      12.533  39.783  -7.542  1.00  0.00     0.002 C 
BRANCH   3   4
HETATM    4  C13 UNL     1      12.543  38.525  -8.371  1.00  0.00     0.000 C 
BRANCH   4   5
HETATM    5  C12 UNL     1      13.988  38.014  -8.361  1.00  0.00     0.000 C 
BRANCH   5   6
HETATM    6  C11 UNL     1      14.332  37.292  -9.636  1.00  0.00     0.000 C 
BRANCH   6   7
HETATM    7  C10 UNL     1      13.223  37.371 -10.643  1.00  0.00     0.000 C 
BRANCH   7   8
HETATM    8  C9  UNL     1      13.757  37.332 -12.034  1.00  0.00     0.000 C 
BRANCH   8   9
HETATM    9  C8  UNL     1      13.905  38.712 -12.599  1.00  0.00     0.000 C 
BRANCH   9  10
HETATM   10  C7  UNL     1      15.293  39.283 -12.276  1.00  0.00     0.005 C 
BRANCH  10  11
HETATM   11  C6  UNL     1      15.057  40.737 -11.858  1.00  0.00    -0.009 C 
HETATM   12  C5  UNL     1      14.040  40.903 -10.775  1.00  0.00    -0.002 C 
HETATM   13  C4  UNL     1      13.255  42.204 -10.870  1.00  0.00     0.010 C 
HETATM   14  C24 UNL     1      15.157  41.183  -9.794  1.00  0.00     0.018 C 
HETATM   15  C3  UNL     1      13.462  42.836  -9.487  1.00  0.00     0.034 C 
HETATM   16  C2  UNL     1      14.883  42.525  -9.231  1.00  0.00    -0.085 C 
HETATM   17  C1  UNL     1      15.747  43.300  -8.614  1.00  0.00     0.014 C 
HETATM   18  C23 UNL     1      16.168  41.171 -10.923  1.00  0.00     0.014 C 
ENDBRANCH  10  11
ENDBRANCH   9  10
ENDBRANCH   8   9
ENDBRANCH   7   8
ENDBRANCH   6   7
ENDBRANCH   5   6
ENDBRANCH   4   5
ENDBRANCH   3   4
ENDBRANCH   2   3
ENDBRANCH   1   2
BRANCH   1  19
HETATM   19  O1  UNL     1       9.890  38.429  -5.303  1.00  0.00    -0.381 OA
BRANCH  19  20
HETATM   20  C17 UNL     1       9.993  39.161  -4.164  1.00  0.00     0.183 C 
HETATM   21  C18 UNL     1       8.903  40.204  -4.013  1.00  0.00     0.181 C 
HETATM   22  C19 UNL     1       9.230  41.109  -2.868  1.00  0.00     0.180 C 
HETATM   23  C20 UNL     1       9.569  40.407  -1.596  1.00  0.00     0.180 C 
HETATM   24  C21 UNL     1      10.360  39.151  -1.768  1.00  0.00     0.180 C 
HETATM   25  C22 UNL     1       9.881  38.291  -2.900  1.00  0.00     0.181 C 
BRANCH  21  26
HETATM   26  O2  UNL     1       7.679  39.588  -3.797  1.00  0.00    -0.390 OA
ATOM     27  H2  UNL     1       7.166  39.591  -4.597  1.00  0.00     0.210 HD
ENDBRANCH  21  26
BRANCH  22  28
HETATM   28  O3  UNL     1       8.082  41.891  -2.619  1.00  0.00    -0.390 OA
ATOM     29  H3  UNL     1       7.857  41.772  -1.704  1.00  0.00     0.210 HD
ENDBRANCH  22  28
BRANCH  23  30
HETATM   30  O4  UNL     1      10.338  41.283  -0.815  1.00  0.00    -0.390 OA
ATOM     31  H4  UNL     1       9.788  41.601  -0.108  1.00  0.00     0.210 HD
ENDBRANCH  23  30
BRANCH  24  32
HETATM   32  O5  UNL     1      11.724  39.383  -1.969  1.00  0.00    -0.390 OA
ATOM     33  H5  UNL     1      11.969  39.413  -2.886  1.00  0.00     0.210 HD
ENDBRANCH  24  32
BRANCH  25  34
HETATM   34  O6  UNL     1      10.644  37.156  -2.998  1.00  0.00    -0.390 OA
ATOM     35  H6  UNL     1      10.106  36.374  -3.050  1.00  0.00     0.210 HD
ENDBRANCH  25  34
ENDBRANCH  19  20
ENDBRANCH   1  19
TORSDOF 17
ENDMDL
MODEL 2
REMARK VINA RESULT: -7.219035510      1.487      3.928
REMARK  17 active torsions:
REMARK  status: ('A' for Active; 'I' for Inactive)
REMARK    1  A    between atoms: C6_6  and  C7_7 
REMARK    2  A    between atoms: C7_7  and  C8_8 
REMARK    3  A    between atoms: C8_8  and  C9_9 
REMARK    4  A    between atoms: C9_9  and  C10_10 
REMARK    5  A    between atoms: C10_10  and  C11_11 
REMARK    6  A    between atoms: C11_11  and  C12_12 
REMARK    7  A    between atoms: C12_12  and  C13_13 
REMARK    8  A    between atoms: C13_13  and  C14_14 
REMARK    9  A    between atoms: C14_14  and  C15_15 
REMARK   10  A    between atoms: C15_15  and  C16_16 
REMARK   11  A    between atoms: C16_16  and  O1_17 
REMARK   12  A    between atoms: O1_17  and  C17_18 
REMARK   13  A    between atoms: C18_19  and  O2_20 
REMARK   14  A    between atoms: C19_22  and  O3_23 
REMARK   15  A    between atoms: C20_25  and  O4_26 
REMARK   16  A    between atoms: C21_28  and  O5_29 
REMARK   17  A    between atoms: C22_31  and  O6_32 
ROOT
HETATM    1  C16 UNL     1      11.351  38.344  -5.543  1.00  0.00     0.168 C 
ENDROOT
BRANCH   1   2
HETATM    2  C15 UNL     1      11.250  39.119  -6.831  1.00  0.00     0.026 C 
BRANCH   2   3
HETATM    3  C14 UNL     1      12.057  40.383  -6.748  1.00  0.00     0.002 C 
BRANCH   3   4
HETATM    4  C13 UNL     1      11.420  41.569  -7.426  1.00  0.00     0.000 C 
BRANCH   4   5
HETATM    5  C12 UNL     1      11.827  41.491  -8.902  1.00  0.00     0.000 C 
BRANCH   5   6
HETATM    6  C11 UNL     1      13.316  41.352  -9.063  1.00  0.00     0.000 C 
BRANCH   6   7
HETATM    7  C10 UNL     1      13.677  40.355 -10.124  1.00  0.00     0.000 C 
BRANCH   7   8
HETATM    8  C9  UNL     1      14.273  39.127  -9.528  1.00  0.00     0.000 C 
BRANCH   8   9
HETATM    9  C8  UNL     1      13.349  37.955  -9.658  1.00  0.00     0.000 C 
BRANCH   9  10
HETATM   10  C7  UNL     1      13.952  36.891 -10.584  1.00  0.00     0.005 C 
BRANCH  10  11
HETATM   11  C6  UNL     1      13.473  37.248 -11.994  1.00  0.00    -0.009 C 
HETATM   12  C5  UNL     1      14.569  37.651 -12.927  1.00  0.00    -0.002 C 
HETATM   13  C4  UNL     1      14.140  38.678 -13.966  1.00  0.00     0.010 C 
HETATM   14  C24 UNL     1      14.449  36.311 -13.618  1.00  0.00     0.018 C 
HETATM   15  C3  UNL     1      14.526  38.011 -15.293  1.00  0.00     0.034 C 
HETATM   16  C2  UNL     1      14.147  36.606 -15.037  1.00  0.00    -0.085 C 
HETATM   17  C1  UNL     1      13.634  35.771 -15.913  1.00  0.00     0.014 C 
HETATM   18  C23 UNL     1      13.236  35.972 -12.777  1.00  0.00     0.014 C 
ENDBRANCH  10  11
ENDBRANCH   9  10
ENDBRANCH   8   9
ENDBRANCH   7   8
ENDBRANCH   6   7
ENDBRANCH   5   6
ENDBRANCH   4   5
ENDBRANCH   3   4
ENDBRANCH   2   3
ENDBRANCH   1   2
BRANCH   1  19
HETATM   19  O1  UNL     1      10.161  38.238  -4.845  1.00  0.00    -0.381 OA
BRANCH  19  20
HETATM   20  C17 UNL     1      10.113  39.138  -3.830  1.00  0.00     0.183 C 
HETATM   21  C18 UNL     1       8.967  40.124  -3.948  1.00  0.00     0.181 C 
HETATM   22  C19 UNL     1       9.132  41.209  -2.932  1.00  0.00     0.180 C 
HETATM   23  C20 UNL     1       9.369  40.729  -1.540  1.00  0.00     0.180 C 
HETATM   24  C21 UNL     1      10.229  39.512  -1.438  1.00  0.00     0.180 C 
HETATM   25  C22 UNL     1       9.909  38.464  -2.463  1.00  0.00     0.181 C 
BRANCH  21  26
HETATM   26  O2  UNL     1       7.756  39.475  -3.757  1.00  0.00    -0.390 OA
ATOM     27  H2  UNL     1       7.059  39.948  -4.196  1.00  0.00     0.210 HD
ENDBRANCH  21  26
BRANCH  22  28
HETATM   28  O3  UNL     1       7.930  41.949  -2.920  1.00  0.00    -0.390 OA
ATOM     29  H3  UNL     1       8.167  42.864  -3.020  1.00  0.00     0.210 HD
ENDBRANCH  22  28
BRANCH  23  30
HETATM   30  O4  UNL     1      10.012  41.757  -0.835  1.00  0.00    -0.390 OA
ATOM     31  H4  UNL     1      10.027  41.515   0.083  1.00  0.00     0.210 HD
ENDBRANCH  23  30
BRANCH  24  32
HETATM   32  O5  UNL     1      11.595  39.792  -1.540  1.00  0.00    -0.390 OA
ATOM     33  H5  UNL     1      11.889  39.898  -2.437  1.00  0.00     0.210 HD
ENDBRANCH  24  32
BRANCH  25  34
HETATM   34  O6  UNL     1      10.728  37.374  -2.308  1.00  0.00    -0.390 OA
ATOM     35  H6  UNL     1      10.449  36.824  -1.585  1.00  0.00     0.210 HD
ENDBRANCH  25  34
ENDBRANCH  19  20
ENDBRANCH   1  19
TORSDOF 17
ENDMDL
MODEL 3
REMARK VINA RESULT: -7.139758091      0.878      3.529
REMARK  17 active torsions:
REMARK  status: ('A' for Active; 'I' for Inactive)
REMARK    1  A    between atoms: C6_6  and  C7_7 
REMARK    2  A    between atoms: C7_7  and  C8_8 
REMARK    3  A    between atoms: C8_8  and  C9_9 
REMARK    4  A    between atoms: C9_9  and  C10_10 
REMARK    5  A    between atoms: C10_10  and  C11_11 
REMARK    6  A    between atoms: C11_11  and  C12_12 
REMARK    7  A    between atoms: C12_12  and  C13_13 
REMARK    8  A    between atoms: C13_13  and  C14_14 
REMARK    9  A    between atoms: C14_14  and  C15_15 
REMARK   10  A    between atoms: C15_15  and  C16_16 
REMARK   11  A    between atoms: C16_16  and  O1_17 
REMARK   12  A    between atoms: O1_17  and  C17_18 
REMARK   13  A    between atoms: C18_19  and  O2_20 
REMARK   14  A    between atoms: C19_22  and  O3_23 
REMARK   15  A    between atoms: C20_25  and  O4_26 
REMARK   16  A    between atoms: C21_28  and  O5_29 
REMARK   17  A    between atoms: C22_31  and  O6_32 
ROOT
HETATM    1  C16 UNL     1      11.046  38.398  -5.934  1.00  0.00     0.168 C 
ENDROOT
BRANCH   1   2
HETATM    2  C15 UNL     1      11.456  39.754  -6.446  1.00  0.00     0.026 C 
BRANCH   2   3
HETATM    3  C14 UNL     1      12.404  39.616  -7.603  1.00  0.00     0.002 C 
BRANCH   3   4
HETATM    4  C13 UNL     1      12.708  40.911  -8.312  1.00  0.00     0.000 C 
BRANCH   4   5
HETATM    5  C12 UNL     1      13.042  41.932  -7.218  1.00  0.00     0.000 C 
BRANCH   5   6
HETATM    6  C11 UNL     1      14.128  42.878  -7.653  1.00  0.00     0.000 C 
BRANCH   6   7
HETATM    7  C10 UNL     1      14.422  42.760  -9.119  1.00  0.00     0.000 C 
BRANCH   7   8
HETATM    8  C9  UNL     1      15.887  42.645  -9.365  1.00  0.00     0.000 C 
BRANCH   8   9
HETATM    9  C8  UNL     1      16.206  41.447 -10.207  1.00  0.00     0.000 C 
BRANCH   9  10
HETATM   10  C7  UNL     1      14.984  41.027 -11.034  1.00  0.00     0.005 C 
BRANCH  10  11
HETATM   11  C6  UNL     1      15.064  39.503 -11.149  1.00  0.00    -0.009 C 
HETATM   12  C5  UNL     1      13.733  38.825 -11.223  1.00  0.00    -0.002 C 
HETATM   13  C4  UNL     1      13.717  37.441 -10.589  1.00  0.00     0.010 C 
HETATM   14  C24 UNL     1      13.956  38.586 -12.699  1.00  0.00     0.018 C 
HETATM   15  C3  UNL     1      13.186  36.549 -11.720  1.00  0.00     0.034 C 
HETATM   16  C2  UNL     1      13.877  37.120 -12.894  1.00  0.00    -0.085 C 
HETATM   17  C1  UNL     1      14.337  36.447 -13.925  1.00  0.00     0.014 C 
HETATM   18  C23 UNL     1      15.366  39.128 -12.587  1.00  0.00     0.014 C 
ENDBRANCH  10  11
ENDBRANCH   9  10
ENDBRANCH   8   9
ENDBRANCH   7   8
ENDBRANCH   6   7
ENDBRANCH   5   6
ENDBRANCH   4   5
ENDBRANCH   3   4
ENDBRANCH   2   3
ENDBRANCH   1   2
BRANCH   1  19
HETATM   19  O1  UNL     1       9.867  38.391  -5.211  1.00  0.00    -0.381 OA
BRANCH  19  20
HETATM   20  C17 UNL     1       9.985  39.138  -4.083  1.00  0.00     0.183 C 
HETATM   21  C18 UNL     1       8.905  40.192  -3.938  1.00  0.00     0.181 C 
HETATM   22  C19 UNL     1       9.248  41.110  -2.808  1.00  0.00     0.180 C 
HETATM   23  C20 UNL     1       9.591  40.423  -1.530  1.00  0.00     0.180 C 
HETATM   24  C21 UNL     1      10.371  39.159  -1.691  1.00  0.00     0.180 C 
HETATM   25  C22 UNL     1       9.876  38.287  -2.807  1.00  0.00     0.181 C 
BRANCH  21  26
HETATM   26  O2  UNL     1       7.678  39.589  -3.705  1.00  0.00    -0.390 OA
ATOM     27  H2  UNL     1       6.973  40.169  -3.969  1.00  0.00     0.210 HD
ENDBRANCH  21  26
BRANCH  22  28
HETATM   28  O3  UNL     1       8.108  41.905  -2.562  1.00  0.00    -0.390 OA
ATOM     29  H3  UNL     1       8.417  42.732  -2.211  1.00  0.00     0.210 HD
ENDBRANCH  22  28
BRANCH  23  30
HETATM   30  O4  UNL     1      10.373  41.303  -0.766  1.00  0.00    -0.390 OA
ATOM     31  H4  UNL     1      10.087  41.237   0.137  1.00  0.00     0.210 HD
ENDBRANCH  23  30
BRANCH  24  32
HETATM   32  O5  UNL     1      11.735  39.376  -1.904  1.00  0.00    -0.390 OA
ATOM     33  H5  UNL     1      12.092  38.850  -2.610  1.00  0.00     0.210 HD
ENDBRANCH  24  32
BRANCH  25  34
HETATM   34  O6  UNL     1      10.629  37.144  -2.894  1.00  0.00    -0.390 OA
ATOM     35  H6  UNL     1      10.154  36.442  -3.325  1.00  0.00     0.210 HD
ENDBRANCH  25  34
ENDBRANCH  19  20
ENDBRANCH   1  19
TORSDOF 17
ENDMDL
MODEL 4
REMARK VINA RESULT: -7.104620465      0.727      1.434
REMARK  17 active torsions:
REMARK  status: ('A' for Active; 'I' for Inactive)
REMARK    1  A    between atoms: C6_6  and  C7_7 
REMARK    2  A    between atoms: C7_7  and  C8_8 
REMARK    3  A    between atoms: C8_8  and  C9_9 
REMARK    4  A    between atoms: C9_9  and  C10_10 
REMARK    5  A    between atoms: C10_10  and  C11_11 
REMARK    6  A    between atoms: C11_11  and  C12_12 
REMARK    7  A    between atoms: C12_12  and  C13_13 
REMARK    8  A    between atoms: C13_13  and  C14_14 
REMARK    9  A    between atoms: C14_14  and  C15_15 
REMARK   10  A    between atoms: C15_15  and  C16_16 
REMARK   11  A    between atoms: C16_16  and  O1_17 
REMARK   12  A    between atoms: O1_17  and  C17_18 
REMARK   13  A    between atoms: C18_19  and  O2_20 
REMARK   14  A    between atoms: C19_22  and  O3_23 
REMARK   15  A    between atoms: C20_25  and  O4_26 
REMARK   16  A    between atoms: C21_28  and  O5_29 
REMARK   17  A    between atoms: C22_31  and  O6_32 
ROOT
HETATM    1  C16 UNL     1      11.100  38.333  -5.890  1.00  0.00     0.168 C 
ENDROOT
BRANCH   1   2
HETATM    2  C15 UNL     1      11.395  39.495  -6.803  1.00  0.00     0.026 C 
BRANCH   2   3
HETATM    3  C14 UNL     1      12.743  39.332  -7.444  1.00  0.00     0.002 C 
BRANCH   3   4
HETATM    4  C13 UNL     1      12.747  38.442  -8.660  1.00  0.00     0.000 C 
BRANCH   4   5
HETATM    5  C12 UNL     1      14.128  37.779  -8.705  1.00  0.00     0.000 C 
BRANCH   5   6
HETATM    6  C11 UNL     1      14.404  37.158 -10.047  1.00  0.00     0.000 C 
BRANCH   6   7
HETATM    7  C10 UNL     1      13.282  37.388 -11.015  1.00  0.00     0.000 C 
BRANCH   7   8
HETATM    8  C9  UNL     1      13.781  37.988 -12.284  1.00  0.00     0.000 C 
BRANCH   8   9
HETATM    9  C8  UNL     1      14.917  38.931 -12.031  1.00  0.00     0.000 C 
BRANCH   9  10
HETATM   10  C7  UNL     1      14.393  40.292 -11.552  1.00  0.00     0.005 C 
BRANCH  10  11
HETATM   11  C6  UNL     1      15.439  40.814 -10.563  1.00  0.00    -0.009 C 
HETATM   12  C5  UNL     1      16.163  42.037 -11.029  1.00  0.00    -0.002 C 
HETATM   13  C4  UNL     1      17.600  42.122 -10.534  1.00  0.00     0.010 C 
HETATM   14  C24 UNL     1      15.355  42.865 -10.054  1.00  0.00     0.018 C 
HETATM   15  C3  UNL     1      17.649  43.494  -9.848  1.00  0.00     0.034 C 
HETATM   16  C2  UNL     1      16.337  43.530  -9.168  1.00  0.00    -0.085 C 
HETATM   17  C1  UNL     1      16.090  44.060  -7.991  1.00  0.00     0.014 C 
HETATM   18  C23 UNL     1      14.742  41.607  -9.475  1.00  0.00     0.014 C 
ENDBRANCH  10  11
ENDBRANCH   9  10
ENDBRANCH   8   9
ENDBRANCH   7   8
ENDBRANCH   6   7
ENDBRANCH   5   6
ENDBRANCH   4   5
ENDBRANCH   3   4
ENDBRANCH   2   3
ENDBRANCH   1   2
BRANCH   1  19
HETATM   19  O1  UNL     1       9.883  38.413  -5.238  1.00  0.00    -0.381 OA
BRANCH  19  20
HETATM   20  C17 UNL     1       9.985  39.159  -4.108  1.00  0.00     0.183 C 
HETATM   21  C18 UNL     1       8.903  40.213  -3.977  1.00  0.00     0.181 C 
HETATM   22  C19 UNL     1       9.230  41.130  -2.843  1.00  0.00     0.180 C 
HETATM   23  C20 UNL     1       9.557  40.443  -1.560  1.00  0.00     0.180 C 
HETATM   24  C21 UNL     1      10.338  39.179  -1.711  1.00  0.00     0.180 C 
HETATM   25  C22 UNL     1       9.859  38.307  -2.834  1.00  0.00     0.181 C 
BRANCH  21  26
HETATM   26  O2  UNL     1       7.673  39.609  -3.761  1.00  0.00    -0.390 OA
ATOM     27  H2  UNL     1       7.567  38.865  -4.343  1.00  0.00     0.210 HD
ENDBRANCH  21  26
BRANCH  22  28
HETATM   28  O3  UNL     1       8.087  41.925  -2.611  1.00  0.00    -0.390 OA
ATOM     29  H3  UNL     1       7.770  42.208  -3.460  1.00  0.00     0.210 HD
ENDBRANCH  22  28
BRANCH  23  30
HETATM   30  O4  UNL     1      10.328  41.322  -0.785  1.00  0.00    -0.390 OA
ATOM     31  H4  UNL     1      11.149  40.889  -0.584  1.00  0.00     0.210 HD
ENDBRANCH  23  30
BRANCH  24  32
HETATM   32  O5  UNL     1      11.706  39.396  -1.906  1.00  0.00    -0.390 OA
ATOM     33  H5  UNL     1      11.967  39.346  -2.817  1.00  0.00     0.210 HD
ENDBRANCH  24  32
BRANCH  25  34
HETATM   34  O6  UNL     1      10.613  37.164  -2.912  1.00  0.00    -0.390 OA
ATOM     35  H6  UNL     1      10.916  36.884  -2.056  1.00  0.00     0.210 HD
ENDBRANCH  25  34
ENDBRANCH  19  20
ENDBRANCH   1  19
TORSDOF 17
ENDMDL
MODEL 5
REMARK VINA RESULT: -6.955977064      0.948      3.394
REMARK  17 active torsions:
REMARK  status: ('A' for Active; 'I' for Inactive)
REMARK    1  A    between atoms: C6_6  and  C7_7 
REMARK    2  A    between atoms: C7_7  and  C8_8 
REMARK    3  A    between atoms: C8_8  and  C9_9 
REMARK    4  A    between atoms: C9_9  and  C10_10 
REMARK    5  A    between atoms: C10_10  and  C11_11 
REMARK    6  A    between atoms: C11_11  and  C12_12 
REMARK    7  A    between atoms: C12_12  and  C13_13 
REMARK    8  A    between atoms: C13_13  and  C14_14 
REMARK    9  A    between atoms: C14_14  and  C15_15 
REMARK   10  A    between atoms: C15_15  and  C16_16 
REMARK   11  A    between atoms: C16_16  and  O1_17 
REMARK   12  A    between atoms: O1_17  and  C17_18 
REMARK   13  A    between atoms: C18_19  and  O2_20 
REMARK   14  A    between atoms: C19_22  and  O3_23 
REMARK   15  A    between atoms: C20_25  and  O4_26 
REMARK   16  A    between atoms: C21_28  and  O5_29 
REMARK   17  A    between atoms: C22_31  and  O6_32 
ROOT
HETATM    1  C16 UNL     1      10.918  38.613  -6.072  1.00  0.00     0.168 C 
ENDROOT
BRANCH   1   2
HETATM    2  C15 UNL     1      11.457  40.019  -6.117  1.00  0.00     0.026 C 
BRANCH   2   3
HETATM    3  C14 UNL     1      11.688  40.449  -7.537  1.00  0.00     0.002 C 
BRANCH   3   4
HETATM    4  C13 UNL     1      11.604  41.938  -7.754  1.00  0.00     0.000 C 
BRANCH   4   5
HETATM    5  C12 UNL     1      11.290  42.140  -9.240  1.00  0.00     0.000 C 
BRANCH   5   6
HETATM    6  C11 UNL     1      12.300  43.034  -9.907  1.00  0.00     0.000 C 
BRANCH   6   7
HETATM    7  C10 UNL     1      13.051  43.871  -8.915  1.00  0.00     0.000 C 
BRANCH   7   8
HETATM    8  C9  UNL     1      14.518  43.823  -9.172  1.00  0.00     0.000 C 
BRANCH   8   9
HETATM    9  C8  UNL     1      15.061  42.441  -8.972  1.00  0.00     0.000 C 
BRANCH   9  10
HETATM   10  C7  UNL     1      15.833  41.979 -10.215  1.00  0.00     0.005 C 
BRANCH  10  11
HETATM   11  C6  UNL     1      15.662  40.458 -10.267  1.00  0.00    -0.009 C 
HETATM   12  C5  UNL     1      14.296  39.984  -9.887  1.00  0.00    -0.002 C 
HETATM   13  C4  UNL     1      14.290  38.621  -9.207  1.00  0.00     0.010 C 
HETATM   14  C24 UNL     1      14.006  39.704 -11.345  1.00  0.00     0.018 C 
HETATM   15  C3  UNL     1      13.312  37.810 -10.067  1.00  0.00     0.034 C 
HETATM   16  C2  UNL     1      13.669  38.264 -11.427  1.00  0.00    -0.085 C 
HETATM   17  C1  UNL     1      13.682  37.523 -12.513  1.00  0.00     0.014 C 
HETATM   18  C23 UNL     1      15.440  40.032 -11.706  1.00  0.00     0.014 C 
ENDBRANCH  10  11
ENDBRANCH   9  10
ENDBRANCH   8   9
ENDBRANCH   7   8
ENDBRANCH   6   7
ENDBRANCH   5   6
ENDBRANCH   4   5
ENDBRANCH   3   4
ENDBRANCH   2   3
ENDBRANCH   1   2
BRANCH   1  19
HETATM   19  O1  UNL     1       9.821  38.447  -5.245  1.00  0.00    -0.381 OA
BRANCH  19  20
HETATM   20  C17 UNL     1       9.952  39.183  -4.111  1.00  0.00     0.183 C 
HETATM   21  C18 UNL     1       8.879  40.242  -3.949  1.00  0.00     0.181 C 
HETATM   22  C19 UNL     1       9.236  41.147  -2.813  1.00  0.00     0.180 C 
HETATM   23  C20 UNL     1       9.584  40.446  -1.544  1.00  0.00     0.180 C 
HETATM   24  C21 UNL     1      10.354  39.179  -1.722  1.00  0.00     0.180 C 
HETATM   25  C22 UNL     1       9.846  38.321  -2.842  1.00  0.00     0.181 C 
BRANCH  21  26
HETATM   26  O2  UNL     1       7.650  39.645  -3.713  1.00  0.00    -0.390 OA
ATOM     27  H2  UNL     1       7.460  39.008  -4.392  1.00  0.00     0.210 HD
ENDBRANCH  21  26
BRANCH  22  28
HETATM   28  O3  UNL     1       8.103  41.947  -2.552  1.00  0.00    -0.390 OA
ATOM     29  H3  UNL     1       7.936  41.896  -1.618  1.00  0.00     0.210 HD
ENDBRANCH  22  28
BRANCH  23  30
HETATM   30  O4  UNL     1      10.377  41.314  -0.778  1.00  0.00    -0.390 OA
ATOM     31  H4  UNL     1      11.170  40.849  -0.539  1.00  0.00     0.210 HD
ENDBRANCH  23  30
BRANCH  24  32
HETATM   32  O5  UNL     1      11.719  39.389  -1.943  1.00  0.00    -0.390 OA
ATOM     33  H5  UNL     1      12.274  38.907  -1.343  1.00  0.00     0.210 HD
ENDBRANCH  24  32
BRANCH  25  34
HETATM   34  O6  UNL     1      10.591  37.173  -2.946  1.00  0.00    -0.390 OA
ATOM     35  H6  UNL     1      10.593  36.681  -2.133  1.00  0.00     0.210 HD
ENDBRANCH  25  34
ENDBRANCH  19  20
ENDBRANCH   1  19
TORSDOF 17
ENDMDL
