MODEL 1
REMARK VINA RESULT: -6.947396187      0.000      0.000
REMARK  10 active torsions:
REMARK  status: ('A' for Active; 'I' for Inactive)
REMARK    1  A    between atoms: C2_2  and  C3_3 
REMARK    2  A    between atoms: C3_3  and  N1_5 
REMARK    3  A    between atoms: C3_3  and  C11_20 
REMARK       I    between atoms: N1_5  and  C5_7 
REMARK       I    between atoms: C5_7  and  N2_9 
REMARK    4  A    between atoms: N2_9  and  C6_11 
REMARK    5  A    between atoms: C6_11  and  C8_15 
REMARK    6  A    between atoms: C8_15  and  O2_18 
REMARK       I    between atoms: C11_20  and  N4_22 
REMARK    7  A    between atoms: N4_22  and  C12_24 
REMARK    8  A    between atoms: C12_24  and  C13_25 
REMARK    9  A    between atoms: C13_25  and  C14_26 
REMARK   10  A    between atoms: C14_26  and  O4_27 
ROOT
HETATM    1  C3  UNL     1     107.182  19.990  12.924  1.00  0.00     0.111 C 
HETATM    2  C4  UNL     1     106.124  20.932  12.411  1.00  0.00     0.049 C 
ENDROOT
BRANCH   1   3
HETATM    3  C2  UNL     1     108.247  20.747  13.731  1.00  0.00     0.036 C 
HETATM    4  C1  UNL     1     108.224  22.215  13.389  1.00  0.00     0.008 C 
ENDBRANCH   1   3
BRANCH   1   5
HETATM    5  N1  UNL     1     106.648  18.907  13.670  1.00  0.00    -0.325 N 
HETATM    6  C5  UNL     1     105.781  19.117  14.800  1.00  0.00     0.322 C 
HETATM    7  O1  UNL     1     105.515  20.302  15.113  1.00  0.00    -0.247 OA
HETATM    8  N2  UNL     1     105.251  18.049  15.528  1.00  0.00    -0.296 N 
ATOM      9  H2  UNL     1     105.537  17.134  15.178  1.00  0.00     0.172 HD
ATOM     10  H1  UNL     1     106.884  17.953  13.397  1.00  0.00     0.165 HD
BRANCH   8  11
HETATM   11  C6  UNL     1     104.415  17.982  16.631  1.00  0.00     0.115 C 
HETATM   12  N3  UNL     1     103.105  17.904  16.496  1.00  0.00    -0.381 N 
HETATM   13  C7  UNL     1     102.502  17.886  15.179  1.00  0.00     0.147 C 
ATOM     14  H3  UNL     1     102.513  17.854  17.325  1.00  0.00     0.160 HD
BRANCH  11  15
HETATM   15  C8  UNL     1     104.880  17.976  18.028  1.00  0.00     0.108 C 
HETATM   16  C9  UNL     1     106.184  18.704  18.244  1.00  0.00     0.054 C 
HETATM   17  C10 UNL     1     105.105  16.542  18.525  1.00  0.00     0.054 C 
BRANCH  15  18
HETATM   18  O2  UNL     1     103.916  18.498  18.917  1.00  0.00    -0.383 OA
ATOM     19  H2  UNL     1     103.055  18.563  18.520  1.00  0.00     0.211 HD
ENDBRANCH  15  18
ENDBRANCH  11  15
ENDBRANCH   8  11
ENDBRANCH   1   5
BRANCH   1  20
HETATM   20  C11 UNL     1     107.957  19.516  11.709  1.00  0.00     0.249 C 
HETATM   21  O3  UNL     1     107.274  19.434  10.680  1.00  0.00    -0.270 OA
HETATM   22  N4  UNL     1     109.307  19.207  11.767  1.00  0.00    -0.338 N 
ATOM     23  H4  UNL     1     109.702  19.347  12.697  1.00  0.00     0.167 HD
BRANCH  22  24
HETATM   24  C12 UNL     1     110.254  18.748  10.842  1.00  0.00     0.075 C 
BRANCH  24  25
HETATM   25  C13 UNL     1     111.688  19.074  10.958  1.00  0.00     0.013 C 
HETATM   26  C15 UNL     1     111.886  20.365  11.789  1.00  0.00     0.017 C 
HETATM   27  C16 UNL     1     113.331  20.262  12.216  1.00  0.00     0.001 C 
HETATM   28  C17 UNL     1     113.684  18.804  12.192  1.00  0.00     0.001 C 
HETATM   29  C18 UNL     1     112.400  18.078  11.896  1.00  0.00     0.017 C 
BRANCH  25  30
HETATM   30  C14 UNL     1     112.500  19.257   9.733  1.00  0.00     0.178 C 
BRANCH  30  31
HETATM   31  O4  UNL     1     111.692  19.288   8.580  1.00  0.00    -0.400 OA
ATOM     32  H4  UNL     1     111.749  20.127   8.138  1.00  0.00     0.209 HD
ENDBRANCH  30  31
ENDBRANCH  25  30
ENDBRANCH  24  25
ENDBRANCH  22  24
ENDBRANCH   1  20
TORSDOF 10
ENDMDL
MODEL 2
REMARK VINA RESULT: -6.941794311      1.377      1.811
REMARK  10 active torsions:
REMARK  status: ('A' for Active; 'I' for Inactive)
REMARK    1  A    between atoms: C2_2  and  C3_3 
REMARK    2  A    between atoms: C3_3  and  N1_5 
REMARK    3  A    between atoms: C3_3  and  C11_20 
REMARK       I    between atoms: N1_5  and  C5_7 
REMARK       I    between atoms: C5_7  and  N2_9 
REMARK    4  A    between atoms: N2_9  and  C6_11 
REMARK    5  A    between atoms: C6_11  and  C8_15 
REMARK    6  A    between atoms: C8_15  and  O2_18 
REMARK       I    between atoms: C11_20  and  N4_22 
REMARK    7  A    between atoms: N4_22  and  C12_24 
REMARK    8  A    between atoms: C12_24  and  C13_25 
REMARK    9  A    between atoms: C13_25  and  C14_26 
REMARK   10  A    between atoms: C14_26  and  O4_27 
ROOT
HETATM    1  C3  UNL     1     107.750  20.161  12.480  1.00  0.00     0.111 C 
HETATM    2  C4  UNL     1     106.827  20.993  11.628  1.00  0.00     0.049 C 
ENDROOT
BRANCH   1   3
HETATM    3  C2  UNL     1     108.546  21.045  13.452  1.00  0.00     0.036 C 
HETATM    4  C1  UNL     1     108.623  22.460  12.937  1.00  0.00     0.008 C 
ENDBRANCH   1   3
BRANCH   1   5
HETATM    5  N1  UNL     1     107.078  19.117  13.170  1.00  0.00    -0.325 N 
HETATM    6  C5  UNL     1     106.204  19.381  14.283  1.00  0.00     0.322 C 
HETATM    7  O1  UNL     1     106.057  20.577  14.633  1.00  0.00    -0.247 OA
HETATM    8  N2  UNL     1     105.539  18.353  14.955  1.00  0.00    -0.296 N 
ATOM      9  H2  UNL     1     105.736  17.425  14.579  1.00  0.00     0.172 HD
ATOM     10  H1  UNL     1     107.220  18.153  12.868  1.00  0.00     0.165 HD
BRANCH   8  11
HETATM   11  C6  UNL     1     104.666  18.339  16.031  1.00  0.00     0.115 C 
HETATM   12  N3  UNL     1     103.388  18.633  15.882  1.00  0.00    -0.381 N 
HETATM   13  C7  UNL     1     102.862  18.982  14.579  1.00  0.00     0.147 C 
ATOM     14  H3  UNL     1     102.767  18.614  16.691  1.00  0.00     0.160 HD
BRANCH  11  15
HETATM   15  C8  UNL     1     105.050  17.993  17.409  1.00  0.00     0.108 C 
HETATM   16  C9  UNL     1     103.983  18.287  18.435  1.00  0.00     0.054 C 
HETATM   17  C10 UNL     1     106.291  18.781  17.848  1.00  0.00     0.054 C 
BRANCH  15  18
HETATM   18  O2  UNL     1     105.441  16.643  17.535  1.00  0.00    -0.383 OA
ATOM     19  H2  UNL     1     105.633  16.404  18.435  1.00  0.00     0.211 HD
ENDBRANCH  15  18
ENDBRANCH  11  15
ENDBRANCH   8  11
ENDBRANCH   1   5
BRANCH   1  20
HETATM   20  C11 UNL     1     108.825  19.629  11.552  1.00  0.00     0.249 C 
HETATM   21  O3  UNL     1     108.478  19.567  10.366  1.00  0.00    -0.270 OA
HETATM   22  N4  UNL     1     110.078  19.253  12.012  1.00  0.00    -0.338 N 
ATOM     23  H4  UNL     1     110.184  19.385  13.018  1.00  0.00     0.167 HD
BRANCH  22  24
HETATM   24  C12 UNL     1     111.232  18.731  11.412  1.00  0.00     0.075 C 
BRANCH  24  25
HETATM   25  C13 UNL     1     112.545  19.394  11.525  1.00  0.00     0.013 C 
HETATM   26  C15 UNL     1     113.120  19.701  10.121  1.00  0.00     0.017 C 
HETATM   27  C16 UNL     1     114.145  20.772  10.413  1.00  0.00     0.001 C 
HETATM   28  C17 UNL     1     113.722  21.435  11.690  1.00  0.00     0.001 C 
HETATM   29  C18 UNL     1     112.383  20.840  12.035  1.00  0.00     0.017 C 
BRANCH  25  30
HETATM   30  C14 UNL     1     113.639  18.732  12.270  1.00  0.00     0.178 C 
BRANCH  30  31
HETATM   31  O4  UNL     1     113.533  17.329  12.204  1.00  0.00    -0.400 OA
ATOM     32  H4  UNL     1     113.543  17.022  11.305  1.00  0.00     0.209 HD
ENDBRANCH  30  31
ENDBRANCH  25  30
ENDBRANCH  24  25
ENDBRANCH  22  24
ENDBRANCH   1  20
TORSDOF 10
ENDMDL
MODEL 3
REMARK VINA RESULT: -6.897459203      2.174      8.288
REMARK  10 active torsions:
REMARK  status: ('A' for Active; 'I' for Inactive)
REMARK    1  A    between atoms: C2_2  and  C3_3 
REMARK    2  A    between atoms: C3_3  and  N1_5 
REMARK    3  A    between atoms: C3_3  and  C11_20 
REMARK       I    between atoms: N1_5  and  C5_7 
REMARK       I    between atoms: C5_7  and  N2_9 
REMARK    4  A    between atoms: N2_9  and  C6_11 
REMARK    5  A    between atoms: C6_11  and  C8_15 
REMARK    6  A    between atoms: C8_15  and  O2_18 
REMARK       I    between atoms: C11_20  and  N4_22 
REMARK    7  A    between atoms: N4_22  and  C12_24 
REMARK    8  A    between atoms: C12_24  and  C13_25 
REMARK    9  A    between atoms: C13_25  and  C14_26 
REMARK   10  A    between atoms: C14_26  and  O4_27 
ROOT
HETATM    1  C3  UNL     1     107.826  20.722  12.944  1.00  0.00     0.111 C 
HETATM    2  C4  UNL     1     108.405  22.097  13.161  1.00  0.00     0.049 C 
ENDROOT
BRANCH   1   3
HETATM    3  C2  UNL     1     106.857  20.716  11.753  1.00  0.00     0.036 C 
HETATM    4  C1  UNL     1     106.744  22.096  11.156  1.00  0.00     0.008 C 
ENDBRANCH   1   3
BRANCH   1   5
HETATM    5  N1  UNL     1     108.819  19.717  12.802  1.00  0.00    -0.325 N 
HETATM    6  C5  UNL     1     109.956  19.889  11.936  1.00  0.00     0.322 C 
HETATM    7  O1  UNL     1     110.040  20.967  11.298  1.00  0.00    -0.247 OA
HETATM    8  N2  UNL     1     110.935  18.902  11.803  1.00  0.00    -0.296 N 
ATOM      9  H2  UNL     1     110.760  18.074  12.372  1.00  0.00     0.172 HD
ATOM     10  H1  UNL     1     108.724  18.849  13.329  1.00  0.00     0.165 HD
BRANCH   8  11
HETATM   11  C6  UNL     1     112.098  18.821  11.054  1.00  0.00     0.115 C 
HETATM   12  N3  UNL     1     112.075  18.448   9.789  1.00  0.00    -0.381 N 
HETATM   13  C7  UNL     1     110.823  18.108   9.146  1.00  0.00     0.147 C 
ATOM     14  H3  UNL     1     112.946  18.398   9.260  1.00  0.00     0.160 HD
BRANCH  11  15
HETATM   15  C8  UNL     1     113.440  19.146  11.564  1.00  0.00     0.108 C 
HETATM   16  C9  UNL     1     113.919  18.228  12.662  1.00  0.00     0.054 C 
HETATM   17  C10 UNL     1     113.476  20.564  12.150  1.00  0.00     0.054 C 
BRANCH  15  18
HETATM   18  O2  UNL     1     114.411  19.176  10.541  1.00  0.00    -0.383 OA
ATOM     19  H2  UNL     1     114.441  20.014  10.094  1.00  0.00     0.211 HD
ENDBRANCH  15  18
ENDBRANCH  11  15
ENDBRANCH   8  11
ENDBRANCH   1   5
BRANCH   1  20
HETATM   20  C11 UNL     1     106.911  20.454  14.123  1.00  0.00     0.249 C 
HETATM   21  O3  UNL     1     107.500  20.377  15.209  1.00  0.00    -0.270 OA
HETATM   22  N4  UNL     1     105.540  20.311  13.976  1.00  0.00    -0.338 N 
ATOM     23  H4  UNL     1     105.235  20.417  13.009  1.00  0.00     0.167 HD
BRANCH  22  24
HETATM   24  C12 UNL     1     104.477  20.053  14.852  1.00  0.00     0.075 C 
BRANCH  24  25
HETATM   25  C13 UNL     1     104.025  18.682  15.158  1.00  0.00     0.013 C 
HETATM   26  C15 UNL     1     103.964  18.460  16.689  1.00  0.00     0.017 C 
HETATM   27  C16 UNL     1     103.048  17.265  16.812  1.00  0.00     0.001 C 
HETATM   28  C17 UNL     1     102.194  17.250  15.578  1.00  0.00     0.001 C 
HETATM   29  C18 UNL     1     102.527  18.516  14.836  1.00  0.00     0.017 C 
BRANCH  25  30
HETATM   30  C14 UNL     1     104.773  17.526  14.616  1.00  0.00     0.178 C 
BRANCH  30  31
HETATM   31  O4  UNL     1     104.918  17.616  13.217  1.00  0.00    -0.400 OA
ATOM     32  H4  UNL     1     105.034  18.516  12.937  1.00  0.00     0.209 HD
ENDBRANCH  30  31
ENDBRANCH  25  30
ENDBRANCH  24  25
ENDBRANCH  22  24
ENDBRANCH   1  20
TORSDOF 10
ENDMDL
MODEL 4
REMARK VINA RESULT: -6.757777112      2.394      8.611
REMARK  10 active torsions:
REMARK  status: ('A' for Active; 'I' for Inactive)
REMARK    1  A    between atoms: C2_2  and  C3_3 
REMARK    2  A    between atoms: C3_3  and  N1_5 
REMARK    3  A    between atoms: C3_3  and  C11_20 
REMARK       I    between atoms: N1_5  and  C5_7 
REMARK       I    between atoms: C5_7  and  N2_9 
REMARK    4  A    between atoms: N2_9  and  C6_11 
REMARK    5  A    between atoms: C6_11  and  C8_15 
REMARK    6  A    between atoms: C8_15  and  O2_18 
REMARK       I    between atoms: C11_20  and  N4_22 
REMARK    7  A    between atoms: N4_22  and  C12_24 
REMARK    8  A    between atoms: C12_24  and  C13_25 
REMARK    9  A    between atoms: C13_25  and  C14_26 
REMARK   10  A    between atoms: C14_26  and  O4_27 
ROOT
HETATM    1  C3  UNL     1     108.775  21.133  12.380  1.00  0.00     0.111 C 
HETATM    2  C4  UNL     1     108.359  22.223  11.426  1.00  0.00     0.049 C 
ENDROOT
BRANCH   1   3
HETATM    3  C2  UNL     1     108.522  19.746  11.771  1.00  0.00     0.036 C 
HETATM    4  C1  UNL     1     107.494  19.831  10.671  1.00  0.00     0.008 C 
ENDBRANCH   1   3
BRANCH   1   5
HETATM    5  N1  UNL     1     110.119  21.263  12.819  1.00  0.00    -0.325 N 
HETATM    6  C5  UNL     1     111.231  20.905  11.979  1.00  0.00     0.322 C 
HETATM    7  O1  UNL     1     110.973  20.464  10.833  1.00  0.00    -0.247 OA
HETATM    8  N2  UNL     1     112.553  21.040  12.412  1.00  0.00    -0.296 N 
ATOM      9  H2  UNL     1     112.636  21.410  13.359  1.00  0.00     0.172 HD
ATOM     10  H1  UNL     1     110.300  21.619  13.758  1.00  0.00     0.165 HD
BRANCH   8  11
HETATM   11  C6  UNL     1     113.773  20.772  11.814  1.00  0.00     0.115 C 
HETATM   12  N3  UNL     1     114.640  21.734  11.561  1.00  0.00    -0.381 N 
HETATM   13  C7  UNL     1     114.334  23.107  11.904  1.00  0.00     0.147 C 
ATOM     14  H3  UNL     1     115.532  21.509  11.121  1.00  0.00     0.160 HD
BRANCH  11  15
HETATM   15  C8  UNL     1     114.230  19.429  11.421  1.00  0.00     0.108 C 
HETATM   16  C9  UNL     1     114.063  18.385  12.498  1.00  0.00     0.054 C 
HETATM   17  C10 UNL     1     115.723  19.439  11.067  1.00  0.00     0.054 C 
BRANCH  15  18
HETATM   18  O2  UNL     1     113.603  18.971  10.243  1.00  0.00    -0.383 OA
ATOM     19  H2  UNL     1     113.266  18.087  10.334  1.00  0.00     0.211 HD
ENDBRANCH  15  18
ENDBRANCH  11  15
ENDBRANCH   8  11
ENDBRANCH   1   5
BRANCH   1  20
HETATM   20  C11 UNL     1     107.792  21.177  13.534  1.00  0.00     0.249 C 
HETATM   21  O3  UNL     1     107.389  22.315  13.806  1.00  0.00    -0.270 OA
HETATM   22  N4  UNL     1     107.394  20.034  14.209  1.00  0.00    -0.338 N 
ATOM     23  H4  UNL     1     107.822  19.188  13.836  1.00  0.00     0.167 HD
BRANCH  22  24
HETATM   24  C12 UNL     1     106.538  19.775  15.288  1.00  0.00     0.075 C 
BRANCH  24  25
HETATM   25  C13 UNL     1     105.149  19.312  15.096  1.00  0.00     0.013 C 
HETATM   26  C15 UNL     1     105.107  18.115  14.115  1.00  0.00     0.017 C 
HETATM   27  C16 UNL     1     103.769  17.485  14.423  1.00  0.00     0.001 C 
HETATM   28  C17 UNL     1     103.424  17.877  15.830  1.00  0.00     0.001 C 
HETATM   29  C18 UNL     1     104.632  18.599  16.361  1.00  0.00     0.017 C 
BRANCH  25  30
HETATM   30  C14 UNL     1     104.121  20.262  14.614  1.00  0.00     0.178 C 
BRANCH  30  31
HETATM   31  O4  UNL     1     104.623  21.576  14.545  1.00  0.00    -0.400 OA
ATOM     32  H4  UNL     1     104.390  22.078  15.316  1.00  0.00     0.209 HD
ENDBRANCH  30  31
ENDBRANCH  25  30
ENDBRANCH  24  25
ENDBRANCH  22  24
ENDBRANCH   1  20
TORSDOF 10
ENDMDL
MODEL 5
REMARK VINA RESULT: -6.757746554      2.509      3.679
REMARK  10 active torsions:
REMARK  status: ('A' for Active; 'I' for Inactive)
REMARK    1  A    between atoms: C2_2  and  C3_3 
REMARK    2  A    between atoms: C3_3  and  N1_5 
REMARK    3  A    between atoms: C3_3  and  C11_20 
REMARK       I    between atoms: N1_5  and  C5_7 
REMARK       I    between atoms: C5_7  and  N2_9 
REMARK    4  A    between atoms: N2_9  and  C6_11 
REMARK    5  A    between atoms: C6_11  and  C8_15 
REMARK    6  A    between atoms: C8_15  and  O2_18 
REMARK       I    between atoms: C11_20  and  N4_22 
REMARK    7  A    between atoms: N4_22  and  C12_24 
REMARK    8  A    between atoms: C12_24  and  C13_25 
REMARK    9  A    between atoms: C13_25  and  C14_26 
REMARK   10  A    between atoms: C14_26  and  O4_27 
ROOT
HETATM    1  C3  UNL     1     109.226  20.931  12.419  1.00  0.00     0.111 C 
HETATM    2  C4  UNL     1     109.574  19.563  11.892  1.00  0.00     0.049 C 
ENDROOT
BRANCH   1   3
HETATM    3  C2  UNL     1     108.217  21.633  11.497  1.00  0.00     0.036 C 
HETATM    4  C1  UNL     1     108.064  20.873  10.205  1.00  0.00     0.008 C 
ENDBRANCH   1   3
BRANCH   1   5
HETATM    5  N1  UNL     1     108.765  20.910  13.761  1.00  0.00    -0.325 N 
HETATM    6  C5  UNL     1     107.686  20.055  14.181  1.00  0.00     0.322 C 
HETATM    7  O1  UNL     1     107.153  19.325  13.310  1.00  0.00    -0.247 OA
HETATM    8  N2  UNL     1     107.239  20.031  15.504  1.00  0.00    -0.296 N 
ATOM      9  H2  UNL     1     107.749  20.665  16.119  1.00  0.00     0.172 HD
ATOM     10  H1  UNL     1     109.212  21.517  14.448  1.00  0.00     0.165 HD
BRANCH   8  11
HETATM   11  C6  UNL     1     106.242  19.319  16.150  1.00  0.00     0.115 C 
HETATM   12  N3  UNL     1     106.381  18.920  17.401  1.00  0.00    -0.381 N 
HETATM   13  C7  UNL     1     107.593  19.220  18.135  1.00  0.00     0.147 C 
ATOM     14  H3  UNL     1     105.631  18.399  17.853  1.00  0.00     0.160 HD
BRANCH  11  15
HETATM   15  C8  UNL     1     104.953  18.952  15.540  1.00  0.00     0.108 C 
HETATM   16  C9  UNL     1     104.202  20.118  14.945  1.00  0.00     0.054 C 
HETATM   17  C10 UNL     1     104.013  18.326  16.579  1.00  0.00     0.054 C 
BRANCH  15  18
HETATM   18  O2  UNL     1     105.090  17.949  14.557  1.00  0.00    -0.383 OA
ATOM     19  H2  UNL     1     104.262  17.731  14.145  1.00  0.00     0.211 HD
ENDBRANCH  15  18
ENDBRANCH  11  15
ENDBRANCH   8  11
ENDBRANCH   1   5
BRANCH   1  20
HETATM   20  C11 UNL     1     110.473  21.780  12.258  1.00  0.00     0.249 C 
HETATM   21  O3  UNL     1     110.248  22.995  12.201  1.00  0.00    -0.270 OA
HETATM   22  N4  UNL     1     111.740  21.224  12.184  1.00  0.00    -0.338 N 
ATOM     23  H4  UNL     1     111.728  20.207  12.260  1.00  0.00     0.167 HD
BRANCH  22  24
HETATM   24  C12 UNL     1     113.034  21.738  12.027  1.00  0.00     0.075 C 
BRANCH  24  25
HETATM   25  C13 UNL     1     114.237  20.896  12.169  1.00  0.00     0.013 C 
HETATM   26  C15 UNL     1     113.842  19.408  12.335  1.00  0.00     0.017 C 
HETATM   27  C16 UNL     1     115.116  18.686  11.965  1.00  0.00     0.001 C 
HETATM   28  C17 UNL     1     115.893  19.613  11.077  1.00  0.00     0.001 C 
HETATM   29  C18 UNL     1     114.991  20.791  10.827  1.00  0.00     0.017 C 
BRANCH  25  30
HETATM   30  C14 UNL     1     115.205  21.176  13.253  1.00  0.00     0.178 C 
BRANCH  30  31
HETATM   31  O4  UNL     1     115.148  22.524  13.659  1.00  0.00    -0.400 OA
ATOM     32  H4  UNL     1     115.378  22.621  14.575  1.00  0.00     0.209 HD
ENDBRANCH  30  31
ENDBRANCH  25  30
ENDBRANCH  24  25
ENDBRANCH  22  24
ENDBRANCH   1  20
TORSDOF 10
ENDMDL
