MODEL 1
REMARK VINA RESULT: -8.738831403      0.000      0.000
REMARK  8 active torsions:
REMARK  status: ('A' for Active; 'I' for Inactive)
REMARK    1  A    between atoms: C2_3  and  C3_4 
REMARK    2  A    between atoms: N2_7  and  C6_8 
REMARK    3  A    between atoms: C14_18  and  N4_19 
REMARK    4  A    between atoms: N4_19  and  C15_21 
REMARK    5  A    between atoms: C15_21  and  S2_23 
REMARK    6  A    between atoms: S2_23  and  C16_24 
REMARK    7  A    between atoms: C16_24  and  C17_25 
REMARK    8  A    between atoms: C17_25  and  C19_28 
ROOT
HETATM    1  C17 UNL     1      24.257 -33.581   5.641  1.00  0.00     0.164 C 
HETATM    2  C18 UNL     1      24.947 -34.014   6.915  1.00  0.00     0.071 C 
HETATM    3  N5  UNL     1      25.491 -34.350   7.876  1.00  0.00    -0.196 NA
ENDROOT
BRANCH   1   4
HETATM    4  C16 UNL     1      22.813 -33.793   5.912  1.00  0.00     0.108 C 
BRANCH   4   5
HETATM    5  S2  UNL     1      21.817 -34.452   4.599  1.00  0.00    -0.099 SA
BRANCH   5   6
HETATM    6  C15 UNL     1      21.689 -33.400   3.203  1.00  0.00     0.139 C 
HETATM    7  S1  UNL     1      20.534 -32.203   3.134  1.00  0.00    -0.053 SA
BRANCH   6   8
HETATM    8  N4  UNL     1      22.473 -33.563   2.044  1.00  0.00    -0.342 N 
ATOM      9  H4  UNL     1      22.257 -34.344   1.424  1.00  0.00     0.167 HD
BRANCH   8  10
HETATM   10  C14 UNL     1      23.532 -32.719   1.693  1.00  0.00     0.035 A 
HETATM   11  C13 UNL     1      24.809 -33.092   1.369  1.00  0.00     0.032 A 
HETATM   12  C12 UNL     1      25.806 -32.156   1.069  1.00  0.00     0.034 A 
HETATM   13  C11 UNL     1      25.504 -30.815   1.097  1.00  0.00     0.060 A 
HETATM   14  N3  UNL     1      26.220 -29.683   0.865  1.00  0.00    -0.344 N 
HETATM   15  C21 UNL     1      24.234 -30.388   1.415  1.00  0.00     0.064 A 
HETATM   16  C2  UNL     1      25.422 -28.598   1.034  1.00  0.00     0.090 A 
ATOM     17  H3  UNL     1      27.205 -29.653   0.604  1.00  0.00     0.167 HD
HETATM   18  N1  UNL     1      24.219 -29.022   1.368  1.00  0.00    -0.339 N 
HETATM   19  C1  UNL     1      23.020 -28.272   1.654  1.00  0.00     0.158 C 
HETATM   20  C20 UNL     1      23.290 -31.336   1.702  1.00  0.00     0.061 A 
BRANCH  16  21
HETATM   21  C3  UNL     1      25.822 -27.170   0.879  1.00  0.00     0.083 C 
HETATM   22  C4  UNL     1      27.168 -27.100   0.189  1.00  0.00     0.044 C 
HETATM   23  C5  UNL     1      28.135 -27.294   1.318  1.00  0.00     0.274 C 
HETATM   24  N2  UNL     1      27.494 -26.878   2.524  1.00  0.00     0.097 N 
HETATM   25  C10 UNL     1      26.120 -26.540   2.222  1.00  0.00     0.285 C 
BRANCH  24  26
HETATM   26  C6  UNL     1      28.193 -25.899   3.289  1.00  0.00     0.149 C 
HETATM   27  C7  UNL     1      27.401 -25.688   4.581  1.00  0.00     0.048 C 
HETATM   28  C8  UNL     1      29.554 -26.492   3.653  1.00  0.00     0.048 C 
HETATM   29  C9  UNL     1      28.334 -24.576   2.615  1.00  0.00     0.048 C 
ENDBRANCH  24  26
ENDBRANCH  16  21
ENDBRANCH   8  10
ENDBRANCH   6   8
ENDBRANCH   5   6
ENDBRANCH   4   5
ENDBRANCH   1   4
BRANCH   1  30
HETATM   30  C19 UNL     1      24.639 -32.200   5.392  1.00  0.00     0.092 C 
HETATM   31  N6  UNL     1      25.854 -31.837   5.441  1.00  0.00    -0.392 N 
ATOM     32  H62 UNL     1      26.568 -32.538   5.640  1.00  0.00     0.156 HD
ATOM     33  H61 UNL     1      26.122 -30.869   5.266  1.00  0.00     0.156 HD
HETATM   34 CL1  UNL     1      23.415 -30.997   5.050  1.00  0.00    -0.068 Cl
ENDBRANCH   1  30
TORSDOF 8
ENDMDL
MODEL 2
REMARK VINA RESULT: -8.238359006      3.712      8.041
REMARK  8 active torsions:
REMARK  status: ('A' for Active; 'I' for Inactive)
REMARK    1  A    between atoms: C2_3  and  C3_4 
REMARK    2  A    between atoms: N2_7  and  C6_8 
REMARK    3  A    between atoms: C14_18  and  N4_19 
REMARK    4  A    between atoms: N4_19  and  C15_21 
REMARK    5  A    between atoms: C15_21  and  S2_23 
REMARK    6  A    between atoms: S2_23  and  C16_24 
REMARK    7  A    between atoms: C16_24  and  C17_25 
REMARK    8  A    between atoms: C17_25  and  C19_28 
ROOT
HETATM    1  C17 UNL     1      26.131 -24.098   5.320  1.00  0.00     0.164 C 
HETATM    2  C18 UNL     1      25.197 -23.485   6.340  1.00  0.00     0.071 C 
HETATM    3  N5  UNL     1      24.471 -23.034   7.114  1.00  0.00    -0.196 NA
ENDROOT
BRANCH   1   4
HETATM    4  C16 UNL     1      26.839 -22.938   4.723  1.00  0.00     0.108 C 
BRANCH   4   5
HETATM    5  S2  UNL     1      27.599 -23.166   3.136  1.00  0.00    -0.099 SA
BRANCH   5   6
HETATM    6  C15 UNL     1      27.569 -24.822   2.560  1.00  0.00     0.139 C 
HETATM    7  S1  UNL     1      28.881 -25.825   2.766  1.00  0.00    -0.053 SA
BRANCH   6   8
HETATM    8  N4  UNL     1      26.496 -25.359   1.821  1.00  0.00    -0.342 N 
ATOM      9  H4  UNL     1      25.785 -24.716   1.473  1.00  0.00     0.167 HD
BRANCH   8  10
HETATM   10  C14 UNL     1      26.349 -26.720   1.537  1.00  0.00     0.035 A 
HETATM   11  C13 UNL     1      26.549 -27.335   0.330  1.00  0.00     0.032 A 
HETATM   12  C12 UNL     1      26.334 -28.707   0.146  1.00  0.00     0.034 A 
HETATM   13  C11 UNL     1      25.908 -29.471   1.206  1.00  0.00     0.060 A 
HETATM   14  N3  UNL     1      25.613 -30.790   1.359  1.00  0.00    -0.344 N 
HETATM   15  C21 UNL     1      25.693 -28.901   2.442  1.00  0.00     0.064 A 
HETATM   16  C2  UNL     1      25.230 -31.024   2.640  1.00  0.00     0.090 A 
ATOM     17  H3  UNL     1      25.671 -31.494   0.624  1.00  0.00     0.167 HD
HETATM   18  N1  UNL     1      25.278 -29.883   3.297  1.00  0.00    -0.339 N 
HETATM   19  C1  UNL     1      24.971 -29.596   4.678  1.00  0.00     0.158 C 
HETATM   20  C20 UNL     1      25.915 -27.558   2.577  1.00  0.00     0.061 A 
BRANCH  16  21
HETATM   21  C3  UNL     1      24.821 -32.337   3.217  1.00  0.00     0.083 C 
HETATM   22  C4  UNL     1      24.670 -33.348   2.100  1.00  0.00     0.044 C 
HETATM   23  C5  UNL     1      23.283 -33.087   1.596  1.00  0.00     0.274 C 
HETATM   24  N2  UNL     1      22.531 -32.500   2.657  1.00  0.00     0.097 N 
HETATM   25  C10 UNL     1      23.417 -32.269   3.777  1.00  0.00     0.285 C 
BRANCH  24  26
HETATM   26  C6  UNL     1      21.312 -33.161   2.989  1.00  0.00     0.149 C 
HETATM   27  C7  UNL     1      20.243 -32.079   3.156  1.00  0.00     0.048 C 
HETATM   28  C8  UNL     1      20.927 -34.035   1.796  1.00  0.00     0.048 C 
HETATM   29  C9  UNL     1      21.365 -33.952   4.254  1.00  0.00     0.048 C 
ENDBRANCH  24  26
ENDBRANCH  16  21
ENDBRANCH   8  10
ENDBRANCH   6   8
ENDBRANCH   5   6
ENDBRANCH   4   5
ENDBRANCH   1   4
BRANCH   1  30
HETATM   30  C19 UNL     1      26.984 -25.040   6.029  1.00  0.00     0.092 C 
HETATM   31  N6  UNL     1      28.085 -24.670   6.540  1.00  0.00    -0.392 N 
ATOM     32  H62 UNL     1      28.358 -23.690   6.463  1.00  0.00     0.156 HD
ATOM     33  H61 UNL     1      28.683 -25.330   7.038  1.00  0.00     0.156 HD
HETATM   34 CL1  UNL     1      26.516 -26.721   6.162  1.00  0.00    -0.068 Cl
ENDBRANCH   1  30
TORSDOF 8
ENDMDL
MODEL 3
REMARK VINA RESULT: -8.098493454      3.560      7.965
REMARK  8 active torsions:
REMARK  status: ('A' for Active; 'I' for Inactive)
REMARK    1  A    between atoms: C2_3  and  C3_4 
REMARK    2  A    between atoms: N2_7  and  C6_8 
REMARK    3  A    between atoms: C14_18  and  N4_19 
REMARK    4  A    between atoms: N4_19  and  C15_21 
REMARK    5  A    between atoms: C15_21  and  S2_23 
REMARK    6  A    between atoms: S2_23  and  C16_24 
REMARK    7  A    between atoms: C16_24  and  C17_25 
REMARK    8  A    between atoms: C17_25  and  C19_28 
ROOT
HETATM    1  C17 UNL     1      26.667 -24.444   4.908  1.00  0.00     0.164 C 
HETATM    2  C18 UNL     1      25.695 -23.565   5.664  1.00  0.00     0.071 C 
HETATM    3  N5  UNL     1      24.938 -22.909   6.236  1.00  0.00    -0.196 NA
ENDROOT
BRANCH   1   4
HETATM    4  C16 UNL     1      27.628 -23.493   4.298  1.00  0.00     0.108 C 
BRANCH   4   5
HETATM    5  S2  UNL     1      28.255 -23.878   2.684  1.00  0.00    -0.099 SA
BRANCH   5   6
HETATM    6  C15 UNL     1      28.407 -25.596   2.367  1.00  0.00     0.139 C 
HETATM    7  S1  UNL     1      29.529 -26.521   3.177  1.00  0.00    -0.053 SA
BRANCH   6   8
HETATM    8  N4  UNL     1      27.674 -26.259   1.364  1.00  0.00    -0.342 N 
ATOM      9  H4  UNL     1      28.090 -26.336   0.436  1.00  0.00     0.167 HD
BRANCH   8  10
HETATM   10  C14 UNL     1      26.407 -26.819   1.564  1.00  0.00     0.035 A 
HETATM   11  C13 UNL     1      25.256 -26.153   1.887  1.00  0.00     0.032 A 
HETATM   12  C12 UNL     1      24.043 -26.820   2.103  1.00  0.00     0.034 A 
HETATM   13  C11 UNL     1      23.997 -28.189   1.990  1.00  0.00     0.060 A 
HETATM   14  N3  UNL     1      23.010 -29.113   2.134  1.00  0.00    -0.344 N 
HETATM   15  C21 UNL     1      25.128 -28.906   1.667  1.00  0.00     0.064 A 
HETATM   16  C2  UNL     1      23.513 -30.354   1.908  1.00  0.00     0.090 A 
ATOM     17  H3  UNL     1      22.041 -28.906   2.374  1.00  0.00     0.167 HD
HETATM   18  N1  UNL     1      24.795 -30.231   1.625  1.00  0.00    -0.339 N 
HETATM   19  C1  UNL     1      25.774 -31.243   1.309  1.00  0.00     0.158 C 
HETATM   20  C20 UNL     1      26.291 -28.215   1.465  1.00  0.00     0.061 A 
BRANCH  16  21
HETATM   21  C3  UNL     1      22.761 -31.640   1.969  1.00  0.00     0.083 C 
HETATM   22  C4  UNL     1      21.605 -31.497   2.935  1.00  0.00     0.044 C 
HETATM   23  C5  UNL     1      22.244 -31.757   4.266  1.00  0.00     0.274 C 
HETATM   24  N2  UNL     1      23.403 -32.561   4.049  1.00  0.00     0.097 N 
HETATM   25  C10 UNL     1      23.591 -32.723   2.623  1.00  0.00     0.285 C 
BRANCH  24  26
HETATM   26  C6  UNL     1      23.464 -33.773   4.797  1.00  0.00     0.149 C 
HETATM   27  C7  UNL     1      24.222 -34.792   3.944  1.00  0.00     0.048 C 
HETATM   28  C8  UNL     1      24.289 -33.492   6.053  1.00  0.00     0.048 C 
HETATM   29  C9  UNL     1      22.133 -34.356   5.135  1.00  0.00     0.048 C 
ENDBRANCH  24  26
ENDBRANCH  16  21
ENDBRANCH   8  10
ENDBRANCH   6   8
ENDBRANCH   5   6
ENDBRANCH   4   5
ENDBRANCH   1   4
BRANCH   1  30
HETATM   30  C19 UNL     1      27.245 -25.371   5.870  1.00  0.00     0.092 C 
HETATM   31  N6  UNL     1      28.311 -25.084   6.497  1.00  0.00    -0.392 N 
ATOM     32  H62 UNL     1      28.750 -24.179   6.330  1.00  0.00     0.156 HD
ATOM     33  H61 UNL     1      28.716 -25.733   7.171  1.00  0.00     0.156 HD
HETATM   34 CL1  UNL     1      26.491 -26.923   6.156  1.00  0.00    -0.068 Cl
ENDBRANCH   1  30
TORSDOF 8
ENDMDL
MODEL 4
REMARK VINA RESULT: -8.094673466      4.957      8.842
REMARK  8 active torsions:
REMARK  status: ('A' for Active; 'I' for Inactive)
REMARK    1  A    between atoms: C2_3  and  C3_4 
REMARK    2  A    between atoms: N2_7  and  C6_8 
REMARK    3  A    between atoms: C14_18  and  N4_19 
REMARK    4  A    between atoms: N4_19  and  C15_21 
REMARK    5  A    between atoms: C15_21  and  S2_23 
REMARK    6  A    between atoms: S2_23  and  C16_24 
REMARK    7  A    between atoms: C16_24  and  C17_25 
REMARK    8  A    between atoms: C17_25  and  C19_28 
ROOT
HETATM    1  C17 UNL     1      23.770 -22.025   7.559  1.00  0.00     0.164 C 
HETATM    2  C18 UNL     1      23.454 -20.559   7.764  1.00  0.00     0.071 C 
HETATM    3  N5  UNL     1      23.193 -19.447   7.919  1.00  0.00    -0.196 NA
ENDROOT
BRANCH   1   4
HETATM    4  C16 UNL     1      25.032 -22.026   6.779  1.00  0.00     0.108 C 
BRANCH   4   5
HETATM    5  S2  UNL     1      25.562 -23.565   6.074  1.00  0.00    -0.099 SA
BRANCH   5   6
HETATM    6  C15 UNL     1      26.563 -23.391   4.645  1.00  0.00     0.139 C 
HETATM    7  S1  UNL     1      27.247 -21.925   4.251  1.00  0.00    -0.053 SA
BRANCH   6   8
HETATM    8  N4  UNL     1      26.763 -24.431   3.716  1.00  0.00    -0.342 N 
ATOM      9  H4  UNL     1      27.262 -24.215   2.853  1.00  0.00     0.167 HD
BRANCH   8  10
HETATM   10  C14 UNL     1      26.317 -25.743   3.906  1.00  0.00     0.035 A 
HETATM   11  C13 UNL     1      26.569 -26.549   4.983  1.00  0.00     0.032 A 
HETATM   12  C12 UNL     1      26.102 -27.868   5.054  1.00  0.00     0.034 A 
HETATM   13  C11 UNL     1      25.365 -28.380   4.013  1.00  0.00     0.060 A 
HETATM   14  N3  UNL     1      24.782 -29.585   3.774  1.00  0.00    -0.344 N 
HETATM   15  C21 UNL     1      25.083 -27.609   2.906  1.00  0.00     0.064 A 
HETATM   16  C2  UNL     1      24.164 -29.558   2.565  1.00  0.00     0.090 A 
ATOM     17  H3  UNL     1      24.806 -30.385   4.405  1.00  0.00     0.167 HD
HETATM   18  N1  UNL     1      24.345 -28.364   2.038  1.00  0.00    -0.339 N 
HETATM   19  C1  UNL     1      23.890 -27.830   0.776  1.00  0.00     0.158 C 
HETATM   20  C20 UNL     1      25.559 -26.327   2.878  1.00  0.00     0.061 A 
BRANCH  16  21
HETATM   21  C3  UNL     1      23.412 -30.679   1.930  1.00  0.00     0.083 C 
HETATM   22  C4  UNL     1      21.988 -30.680   2.443  1.00  0.00     0.044 C 
HETATM   23  C5  UNL     1      22.098 -31.428   3.737  1.00  0.00     0.274 C 
HETATM   24  N2  UNL     1      23.239 -32.282   3.657  1.00  0.00     0.097 N 
HETATM   25  C10 UNL     1      23.925 -32.019   2.411  1.00  0.00     0.285 C 
BRANCH  24  26
HETATM   26  C6  UNL     1      22.997 -33.662   3.922  1.00  0.00     0.149 C 
HETATM   27  C7  UNL     1      24.057 -34.460   3.158  1.00  0.00     0.048 C 
HETATM   28  C8  UNL     1      23.217 -33.884   5.419  1.00  0.00     0.048 C 
HETATM   29  C9  UNL     1      21.655 -34.148   3.487  1.00  0.00     0.048 C 
ENDBRANCH  24  26
ENDBRANCH  16  21
ENDBRANCH   8  10
ENDBRANCH   6   8
ENDBRANCH   5   6
ENDBRANCH   4   5
ENDBRANCH   1   4
BRANCH   1  30
HETATM   30  C19 UNL     1      23.862 -22.633   8.878  1.00  0.00     0.092 C 
HETATM   31  N6  UNL     1      24.984 -22.789   9.450  1.00  0.00    -0.392 N 
ATOM     32  H62 UNL     1      25.827 -22.463   8.976  1.00  0.00     0.156 HD
ATOM     33  H61 UNL     1      25.049 -23.215  10.375  1.00  0.00     0.156 HD
HETATM   34 CL1  UNL     1      22.418 -23.191   9.691  1.00  0.00    -0.068 Cl
ENDBRANCH   1  30
TORSDOF 8
ENDMDL
MODEL 5
REMARK VINA RESULT: -8.011105547      1.493      1.808
REMARK  8 active torsions:
REMARK  status: ('A' for Active; 'I' for Inactive)
REMARK    1  A    between atoms: C2_3  and  C3_4 
REMARK    2  A    between atoms: N2_7  and  C6_8 
REMARK    3  A    between atoms: C14_18  and  N4_19 
REMARK    4  A    between atoms: N4_19  and  C15_21 
REMARK    5  A    between atoms: C15_21  and  S2_23 
REMARK    6  A    between atoms: S2_23  and  C16_24 
REMARK    7  A    between atoms: C16_24  and  C17_25 
REMARK    8  A    between atoms: C17_25  and  C19_28 
ROOT
HETATM    1  C17 UNL     1      23.672 -33.407   5.110  1.00  0.00     0.164 C 
HETATM    2  C18 UNL     1      22.508 -34.217   5.636  1.00  0.00     0.071 C 
HETATM    3  N5  UNL     1      21.630 -34.853   6.030  1.00  0.00    -0.196 NA
ENDROOT
BRANCH   1   4
HETATM    4  C16 UNL     1      23.081 -32.090   4.767  1.00  0.00     0.108 C 
BRANCH   4   5
HETATM    5  S2  UNL     1      21.923 -32.032   3.424  1.00  0.00    -0.099 SA
BRANCH   5   6
HETATM    6  C15 UNL     1      22.240 -33.201   2.156  1.00  0.00     0.139 C 
HETATM    7  S1  UNL     1      21.108 -34.351   1.747  1.00  0.00    -0.053 SA
BRANCH   6   8
HETATM    8  N4  UNL     1      23.478 -33.294   1.491  1.00  0.00    -0.342 N 
ATOM      9  H4  UNL     1      23.772 -34.210   1.149  1.00  0.00     0.167 HD
BRANCH   8  10
HETATM   10  C14 UNL     1      24.330 -32.207   1.271  1.00  0.00     0.035 A 
HETATM   11  C13 UNL     1      25.645 -32.255   0.893  1.00  0.00     0.032 A 
HETATM   12  C12 UNL     1      26.420 -31.098   0.737  1.00  0.00     0.034 A 
HETATM   13  C11 UNL     1      25.851 -29.869   0.969  1.00  0.00     0.060 A 
HETATM   14  N3  UNL     1      26.313 -28.591   0.912  1.00  0.00    -0.344 N 
HETATM   15  C21 UNL     1      24.531 -29.766   1.351  1.00  0.00     0.064 A 
HETATM   16  C2  UNL     1      25.315 -27.733   1.246  1.00  0.00     0.090 A 
ATOM     17  H3  UNL     1      27.261 -28.320   0.657  1.00  0.00     0.167 HD
HETATM   18  N1  UNL     1      24.236 -28.441   1.512  1.00  0.00    -0.339 N 
HETATM   19  C1  UNL     1      22.919 -28.007   1.911  1.00  0.00     0.158 C 
HETATM   20  C20 UNL     1      23.811 -30.921   1.492  1.00  0.00     0.061 A 
BRANCH  16  21
HETATM   21  C3  UNL     1      25.410 -26.246   1.309  1.00  0.00     0.083 C 
HETATM   22  C4  UNL     1      26.738 -25.804   0.731  1.00  0.00     0.044 C 
HETATM   23  C5  UNL     1      27.676 -25.957   1.890  1.00  0.00     0.274 C 
HETATM   24  N2  UNL     1      26.912 -25.859   3.092  1.00  0.00     0.097 N 
HETATM   25  C10 UNL     1      25.512 -25.769   2.741  1.00  0.00     0.285 C 
BRANCH  24  26
HETATM   26  C6  UNL     1      27.355 -24.879   4.027  1.00  0.00     0.149 C 
HETATM   27  C7  UNL     1      26.124 -24.410   4.806  1.00  0.00     0.048 C 
HETATM   28  C8  UNL     1      28.303 -25.576   5.004  1.00  0.00     0.048 C 
HETATM   29  C9  UNL     1      27.992 -23.679   3.409  1.00  0.00     0.048 C 
ENDBRANCH  24  26
ENDBRANCH  16  21
ENDBRANCH   8  10
ENDBRANCH   6   8
ENDBRANCH   5   6
ENDBRANCH   4   5
ENDBRANCH   1   4
BRANCH   1  30
HETATM   30  C19 UNL     1      24.682 -33.373   6.157  1.00  0.00     0.092 C 
HETATM   31  N6  UNL     1      24.604 -34.139   7.166  1.00  0.00    -0.392 N 
ATOM     32  H62 UNL     1      23.827 -34.798   7.224  1.00  0.00     0.156 HD
ATOM     33  H61 UNL     1      25.312 -34.117   7.901  1.00  0.00     0.156 HD
HETATM   34 CL1  UNL     1      26.014 -32.244   6.058  1.00  0.00    -0.068 Cl
ENDBRANCH   1  30
TORSDOF 8
ENDMDL
