MODEL 1
REMARK VINA RESULT: -6.373641138      0.000      0.000
REMARK  4 active torsions:
REMARK  status: ('A' for Active; 'I' for Inactive)
REMARK    1  A    between atoms: N1_2  and  N2_3 
REMARK       I    between atoms: N2_3  and  C2_5 
REMARK       I    between atoms: C2_5  and  N5_10 
REMARK    2  A    between atoms: N5_10  and  C4_12 
REMARK    3  A    between atoms: C7_19  and  N8_20 
REMARK    4  A    between atoms: N8_20  and  C8_22 
ROOT
HETATM    1  N2  UNL     1     -45.177   9.681  -2.168  1.00  0.00    -0.136 N 
ATOM      2  H2  UNL     1     -44.435   9.043  -2.453  1.00  0.00     0.201 HD
HETATM    3  C2  UNL     1     -44.801  10.902  -1.565  1.00  0.00     0.704 C 
HETATM    4  N3  UNL     1     -45.089  12.058  -2.070  1.00  0.00    -0.125 N 
ATOM      5  H3  UNL     1     -44.786  12.902  -1.584  1.00  0.00     0.197 HD
HETATM    6  C3  UNL     1     -45.811  12.178  -3.275  1.00  0.00     0.196 C 
HETATM    7  N4  UNL     1     -46.390  12.278  -4.272  1.00  0.00    -0.171 NA
HETATM    8  N5  UNL     1     -44.069  10.894  -0.346  1.00  0.00    -0.171 N 
ATOM      9  H5  UNL     1     -44.567  10.741   0.531  1.00  0.00     0.186 HD
ENDROOT
BRANCH   1  10
HETATM   10  N1  UNL     1     -46.491   9.291  -2.399  1.00  0.00    -0.131 NA
HETATM   11  C1  UNL     1     -46.660   8.552  -3.621  1.00  0.00     0.159 C 
ENDBRANCH   1  10
BRANCH   8  12
HETATM   12  C4  UNL     1     -42.792  11.074  -0.319  1.00  0.00     0.165 A 
HETATM   13  N6  UNL     1     -42.058  10.851  -1.418  1.00  0.00    -0.347 N 
HETATM   14  C5  UNL     1     -40.713  11.036  -1.406  1.00  0.00     0.107 A 
ATOM     15  H6  UNL     1     -42.515  10.538  -2.274  1.00  0.00     0.167 HD
HETATM   16  C6  UNL     1     -40.141  11.460  -0.219  1.00  0.00     0.107 A 
HETATM   17  N7  UNL     1     -40.871  11.686   0.885  1.00  0.00    -0.348 N 
HETATM   18  C7  UNL     1     -42.197  11.496   0.851  1.00  0.00     0.151 A 
ATOM     19  H7  UNL     1     -40.419  11.998   1.743  1.00  0.00     0.167 HD
BRANCH  18  20
HETATM   20  N8  UNL     1     -42.915  11.708   1.901  1.00  0.00    -0.339 N 
ATOM     21  H8  UNL     1     -43.401  10.939   2.364  1.00  0.00     0.167 HD
BRANCH  20  22
HETATM   22  C8  UNL     1     -43.013  13.026   2.399  1.00  0.00     0.036 A 
HETATM   23  C9  UNL     1     -43.982  13.857   1.871  1.00  0.00     0.046 A 
HETATM   24  C10 UNL     1     -44.113  15.162   2.331  1.00  0.00     0.090 A 
HETATM   25  N9  UNL     1     -43.318  15.639   3.278  1.00  0.00    -0.375 N 
HETATM   26  C11 UNL     1     -42.366  14.852   3.809  1.00  0.00     0.090 A 
ATOM     27  H9  UNL     1     -43.428  16.600   3.603  1.00  0.00     0.164 HD
HETATM   28  C12 UNL     1     -42.207  13.553   3.378  1.00  0.00     0.046 A 
ENDBRANCH  20  22
ENDBRANCH  18  20
ENDBRANCH   8  12
TORSDOF 4
ENDMDL
MODEL 2
REMARK VINA RESULT: -6.334230056      2.099      5.385
REMARK  4 active torsions:
REMARK  status: ('A' for Active; 'I' for Inactive)
REMARK    1  A    between atoms: N1_2  and  N2_3 
REMARK       I    between atoms: N2_3  and  C2_5 
REMARK       I    between atoms: C2_5  and  N5_10 
REMARK    2  A    between atoms: N5_10  and  C4_12 
REMARK    3  A    between atoms: C7_19  and  N8_20 
REMARK    4  A    between atoms: N8_20  and  C8_22 
ROOT
HETATM    1  N2  UNL     1     -38.714  10.197  -0.563  1.00  0.00    -0.136 N 
ATOM      2  H2  UNL     1     -38.997  10.139  -1.541  1.00  0.00     0.201 HD
HETATM    3  C2  UNL     1     -39.733  10.233   0.416  1.00  0.00     0.704 C 
HETATM    4  N3  UNL     1     -39.863   9.330   1.333  1.00  0.00    -0.125 N 
ATOM      5  H3  UNL     1     -40.621   9.415   2.010  1.00  0.00     0.197 HD
HETATM    6  C3  UNL     1     -38.983   8.232   1.419  1.00  0.00     0.196 C 
HETATM    7  N4  UNL     1     -38.269   7.322   1.481  1.00  0.00    -0.171 NA
HETATM    8  N5  UNL     1     -40.674  11.298   0.420  1.00  0.00    -0.171 N 
ATOM      9  H5  UNL     1     -40.407  12.195   0.823  1.00  0.00     0.186 HD
ENDROOT
BRANCH   1  10
HETATM   10  N1  UNL     1     -37.354  10.236  -0.282  1.00  0.00    -0.131 NA
HETATM   11  C1  UNL     1     -36.914  11.503   0.239  1.00  0.00     0.159 C 
ENDBRANCH   1  10
BRANCH   8  12
HETATM   12  C4  UNL     1     -41.858  11.160  -0.075  1.00  0.00     0.165 A 
HETATM   13  N6  UNL     1     -42.015  10.860  -1.372  1.00  0.00    -0.347 N 
HETATM   14  C5  UNL     1     -43.254  10.711  -1.907  1.00  0.00     0.107 A 
ATOM     15  H6  UNL     1     -41.193  10.744  -1.965  1.00  0.00     0.167 HD
HETATM   16  C6  UNL     1     -44.336  10.881  -1.061  1.00  0.00     0.107 A 
HETATM   17  N7  UNL     1     -44.185  11.180   0.239  1.00  0.00    -0.348 N 
HETATM   18  C7  UNL     1     -42.953  11.323   0.747  1.00  0.00     0.151 A 
ATOM     19  H7  UNL     1     -45.003  11.298   0.836  1.00  0.00     0.167 HD
BRANCH  18  20
HETATM   20  N8  UNL     1     -42.789  11.611   1.993  1.00  0.00    -0.339 N 
ATOM     21  H8  UNL     1     -42.523  10.889   2.664  1.00  0.00     0.167 HD
BRANCH  20  22
HETATM   22  C8  UNL     1     -42.985  12.946   2.410  1.00  0.00     0.036 A 
HETATM   23  C9  UNL     1     -42.181  13.445   3.416  1.00  0.00     0.046 A 
HETATM   24  C10 UNL     1     -42.340  14.754   3.856  1.00  0.00     0.090 A 
HETATM   25  N9  UNL     1     -43.260  15.548   3.329  1.00  0.00    -0.375 N 
HETATM   26  C11 UNL     1     -44.056  15.089   2.348  1.00  0.00     0.090 A 
ATOM     27  H9  UNL     1     -43.363  16.506   3.666  1.00  0.00     0.164 HD
HETATM   28  C12 UNL     1     -43.927  13.797   1.886  1.00  0.00     0.046 A 
ENDBRANCH  20  22
ENDBRANCH  18  20
ENDBRANCH   8  12
TORSDOF 4
ENDMDL
MODEL 3
REMARK VINA RESULT: -6.265246484      3.430      5.976
REMARK  4 active torsions:
REMARK  status: ('A' for Active; 'I' for Inactive)
REMARK    1  A    between atoms: N1_2  and  N2_3 
REMARK       I    between atoms: N2_3  and  C2_5 
REMARK       I    between atoms: C2_5  and  N5_10 
REMARK    2  A    between atoms: N5_10  and  C4_12 
REMARK    3  A    between atoms: C7_19  and  N8_20 
REMARK    4  A    between atoms: N8_20  and  C8_22 
ROOT
HETATM    1  N2  UNL     1     -38.839   8.290   3.148  1.00  0.00    -0.136 N 
ATOM      2  H2  UNL     1     -38.114   8.853   2.703  1.00  0.00     0.201 HD
HETATM    3  C2  UNL     1     -40.123   8.282   2.558  1.00  0.00     0.704 C 
HETATM    4  N3  UNL     1     -40.685   7.209   2.103  1.00  0.00    -0.125 N 
ATOM      5  H3  UNL     1     -41.614   7.273   1.687  1.00  0.00     0.197 HD
HETATM    6  C3  UNL     1     -40.043   5.955   2.167  1.00  0.00     0.196 C 
HETATM    7  N4  UNL     1     -39.511   4.928   2.207  1.00  0.00    -0.171 NA
HETATM    8  N5  UNL     1     -40.857   9.494   2.443  1.00  0.00    -0.171 N 
ATOM      9  H5  UNL     1     -41.355   9.852   3.257  1.00  0.00     0.186 HD
ENDROOT
BRANCH   1  10
HETATM   10  N1  UNL     1     -38.498   7.583   4.295  1.00  0.00    -0.131 NA
HETATM   11  C1  UNL     1     -37.146   7.092   4.281  1.00  0.00     0.159 C 
ENDBRANCH   1  10
BRANCH   8  12
HETATM   12  C4  UNL     1     -40.910  10.154   1.335  1.00  0.00     0.165 A 
HETATM   13  N6  UNL     1     -40.061   9.865   0.338  1.00  0.00    -0.347 N 
HETATM   14  C5  UNL     1     -40.105  10.549  -0.833  1.00  0.00     0.107 A 
ATOM     15  H6  UNL     1     -39.374   9.121   0.462  1.00  0.00     0.167 HD
HETATM   16  C6  UNL     1     -41.055  11.549  -0.950  1.00  0.00     0.107 A 
HETATM   17  N7  UNL     1     -41.908  11.842   0.044  1.00  0.00    -0.348 N 
HETATM   18  C7  UNL     1     -41.848  11.155   1.193  1.00  0.00     0.151 A 
ATOM     19  H7  UNL     1     -42.597  12.585  -0.074  1.00  0.00     0.167 HD
BRANCH  18  20
HETATM   20  N8  UNL     1     -42.659  11.423   2.159  1.00  0.00    -0.339 N 
ATOM     21  H8  UNL     1     -43.092  10.673   2.699  1.00  0.00     0.167 HD
BRANCH  20  22
HETATM   22  C8  UNL     1     -42.935  12.776   2.453  1.00  0.00     0.036 A 
HETATM   23  C9  UNL     1     -42.149  13.419   3.388  1.00  0.00     0.046 A 
HETATM   24  C10 UNL     1     -42.386  14.751   3.707  1.00  0.00     0.090 A 
HETATM   25  N9  UNL     1     -43.365  15.431   3.129  1.00  0.00    -0.375 N 
HETATM   26  C11 UNL     1     -44.146  14.830   2.215  1.00  0.00     0.090 A 
ATOM     27  H9  UNL     1     -43.525  16.408   3.377  1.00  0.00     0.164 HD
HETATM   28  C12 UNL     1     -43.940  13.511   1.873  1.00  0.00     0.046 A 
ENDBRANCH  20  22
ENDBRANCH  18  20
ENDBRANCH   8  12
TORSDOF 4
ENDMDL
MODEL 4
REMARK VINA RESULT: -6.223631436      2.104      5.292
REMARK  4 active torsions:
REMARK  status: ('A' for Active; 'I' for Inactive)
REMARK    1  A    between atoms: N1_2  and  N2_3 
REMARK       I    between atoms: N2_3  and  C2_5 
REMARK       I    between atoms: C2_5  and  N5_10 
REMARK    2  A    between atoms: N5_10  and  C4_12 
REMARK    3  A    between atoms: C7_19  and  N8_20 
REMARK    4  A    between atoms: N8_20  and  C8_22 
ROOT
HETATM    1  N2  UNL     1     -38.687  10.175  -0.590  1.00  0.00    -0.136 N 
ATOM      2  H2  UNL     1     -38.968  10.147  -1.570  1.00  0.00     0.201 HD
HETATM    3  C2  UNL     1     -39.707  10.189   0.388  1.00  0.00     0.704 C 
HETATM    4  N3  UNL     1     -39.845   9.261   1.278  1.00  0.00    -0.125 N 
ATOM      5  H3  UNL     1     -40.604   9.331   1.956  1.00  0.00     0.197 HD
HETATM    6  C3  UNL     1     -38.972   8.155   1.334  1.00  0.00     0.196 C 
HETATM    7  N4  UNL     1     -38.265   7.240   1.372  1.00  0.00    -0.171 NA
HETATM    8  N5  UNL     1     -40.642  11.260   0.420  1.00  0.00    -0.171 N 
ATOM      9  H5  UNL     1     -40.370  12.143   0.850  1.00  0.00     0.186 HD
ENDROOT
BRANCH   1  10
HETATM   10  N1  UNL     1     -37.327  10.197  -0.306  1.00  0.00    -0.131 NA
HETATM   11  C1  UNL     1     -36.885  11.438   0.272  1.00  0.00     0.159 C 
ENDBRANCH   1  10
BRANCH   8  12
HETATM   12  C4  UNL     1     -41.826  11.143  -0.080  1.00  0.00     0.165 A 
HETATM   13  N6  UNL     1     -41.982  10.878  -1.385  1.00  0.00    -0.347 N 
HETATM   14  C5  UNL     1     -43.220  10.752  -1.926  1.00  0.00     0.107 A 
ATOM     15  H6  UNL     1     -41.159  10.770  -1.978  1.00  0.00     0.167 HD
HETATM   16  C6  UNL     1     -44.303  10.909  -1.078  1.00  0.00     0.107 A 
HETATM   17  N7  UNL     1     -44.153  11.174   0.229  1.00  0.00    -0.348 N 
HETATM   18  C7  UNL     1     -42.921  11.295   0.744  1.00  0.00     0.151 A 
ATOM     19  H7  UNL     1     -44.972  11.284   0.827  1.00  0.00     0.167 HD
BRANCH  18  20
HETATM   20  N8  UNL     1     -42.758  11.550   1.997  1.00  0.00    -0.339 N 
ATOM     21  H8  UNL     1     -42.520  10.806   2.653  1.00  0.00     0.167 HD
BRANCH  20  22
HETATM   22  C8  UNL     1     -42.914  12.881   2.441  1.00  0.00     0.036 A 
HETATM   23  C9  UNL     1     -43.883  13.664   1.844  1.00  0.00     0.046 A 
HETATM   24  C10 UNL     1     -44.071  14.980   2.251  1.00  0.00     0.090 A 
HETATM   25  N9  UNL     1     -43.331  15.513   3.212  1.00  0.00    -0.375 N 
HETATM   26  C11 UNL     1     -42.380  14.774   3.810  1.00  0.00     0.090 A 
ATOM     27  H9  UNL     1     -43.482  16.481   3.497  1.00  0.00     0.164 HD
HETATM   28  C12 UNL     1     -42.166  13.466   3.434  1.00  0.00     0.046 A 
ENDBRANCH  20  22
ENDBRANCH  18  20
ENDBRANCH   8  12
TORSDOF 4
ENDMDL
MODEL 5
REMARK VINA RESULT: -6.008734137      1.226      1.474
REMARK  4 active torsions:
REMARK  status: ('A' for Active; 'I' for Inactive)
REMARK    1  A    between atoms: N1_2  and  N2_3 
REMARK       I    between atoms: N2_3  and  C2_5 
REMARK       I    between atoms: C2_5  and  N5_10 
REMARK    2  A    between atoms: N5_10  and  C4_12 
REMARK    3  A    between atoms: C7_19  and  N8_20 
REMARK    4  A    between atoms: N8_20  and  C8_22 
ROOT
HETATM    1  N2  UNL     1     -45.082  11.884  -3.019  1.00  0.00    -0.136 N 
ATOM      2  H2  UNL     1     -44.407  11.367  -3.583  1.00  0.00     0.201 HD
HETATM    3  C2  UNL     1     -44.637  12.425  -1.792  1.00  0.00     0.704 C 
HETATM    4  N3  UNL     1     -44.647  13.693  -1.534  1.00  0.00    -0.125 N 
ATOM      5  H3  UNL     1     -44.311  14.018  -0.628  1.00  0.00     0.197 HD
HETATM    6  C3  UNL     1     -45.112  14.634  -2.475  1.00  0.00     0.196 C 
HETATM    7  N4  UNL     1     -45.480  15.409  -3.252  1.00  0.00    -0.171 NA
HETATM    8  N5  UNL     1     -44.148  11.562  -0.773  1.00  0.00    -0.171 N 
ATOM      9  H5  UNL     1     -44.813  11.062  -0.185  1.00  0.00     0.186 HD
ENDROOT
BRANCH   1  10
HETATM   10  N1  UNL     1     -46.377  12.008  -3.509  1.00  0.00    -0.131 NA
HETATM   11  C1  UNL     1     -47.118  10.776  -3.479  1.00  0.00     0.159 C 
ENDBRANCH   1  10
BRANCH   8  12
HETATM   12  C4  UNL     1     -42.884  11.395  -0.574  1.00  0.00     0.165 A 
HETATM   13  N6  UNL     1     -42.067  11.142  -1.606  1.00  0.00    -0.347 N 
HETATM   14  C5  UNL     1     -40.735  10.964  -1.413  1.00  0.00     0.107 A 
ATOM     15  H6  UNL     1     -42.452  11.081  -2.549  1.00  0.00     0.167 HD
HETATM   16  C6  UNL     1     -40.264  11.055  -0.115  1.00  0.00     0.107 A 
HETATM   17  N7  UNL     1     -41.077  11.309   0.924  1.00  0.00    -0.348 N 
HETATM   18  C7  UNL     1     -42.389  11.481   0.711  1.00  0.00     0.151 A 
ATOM     19  H7  UNL     1     -40.699  11.370   1.868  1.00  0.00     0.167 HD
BRANCH  18  20
HETATM   20  N8  UNL     1     -43.185  11.726   1.695  1.00  0.00    -0.339 N 
ATOM     21  H8  UNL     1     -43.854  11.024   2.012  1.00  0.00     0.167 HD
BRANCH  20  22
HETATM   22  C8  UNL     1     -43.111  12.988   2.326  1.00  0.00     0.036 A 
HETATM   23  C9  UNL     1     -43.992  13.974   1.929  1.00  0.00     0.046 A 
HETATM   24  C10 UNL     1     -43.954  15.229   2.524  1.00  0.00     0.090 A 
HETATM   25  N9  UNL     1     -43.077  15.511   3.476  1.00  0.00    -0.375 N 
HETATM   26  C11 UNL     1     -42.207  14.570   3.882  1.00  0.00     0.090 A 
ATOM     27  H9  UNL     1     -43.063  16.439   3.901  1.00  0.00     0.164 HD
HETATM   28  C12 UNL     1     -42.216  13.313   3.316  1.00  0.00     0.046 A 
ENDBRANCH  20  22
ENDBRANCH  18  20
ENDBRANCH   8  12
TORSDOF 4
ENDMDL
