MODEL 1
REMARK VINA RESULT: -6.057643172      0.000      0.000
REMARK  3 active torsions:
REMARK  status: ('A' for Active; 'I' for Inactive)
REMARK    1  A    between atoms: O1_2  and  C2_3 
REMARK    2  A    between atoms: C7_8  and  O2_9 
REMARK    3  A    between atoms: C12_17  and  N2_18 
ROOT
HETATM    1  C2  UNL     1      23.852 -11.547 -17.721  1.00  0.00     0.102 A 
HETATM    2  C3  UNL     1      25.020 -10.891 -18.014  1.00  0.00     0.056 A 
HETATM    3  C4  UNL     1      26.204 -11.191 -17.339  1.00  0.00     0.024 A 
HETATM    4  C5  UNL     1      26.160 -12.173 -16.363  1.00  0.00    -0.033 A 
HETATM    5  C6  UNL     1      24.959 -12.822 -16.088  1.00  0.00     0.048 A 
HETATM    6  C7  UNL     1      23.799 -12.523 -16.754  1.00  0.00     0.102 A 
HETATM    7  C9  UNL     1      27.390 -12.477 -15.626  1.00  0.00     0.077 C 
HETATM    8  C10 UNL     1      27.501 -13.837 -15.034  1.00  0.00     0.244 C 
HETATM    9  N1  UNL     1      28.573 -13.778 -14.022  1.00  0.00    -0.072 N 
ATOM     10  H11 UNL     1      29.000 -14.695 -13.894  1.00  0.00     0.277 HD
ATOM     11  H12 UNL     1      28.184 -13.643 -13.089  1.00  0.00     0.277 HD
HETATM   12  C11 UNL     1      29.563 -12.792 -14.307  1.00  0.00     0.267 C 
HETATM   13  C12 UNL     1      29.817 -12.591 -15.770  1.00  0.00     0.239 C 
HETATM   14  C13 UNL     1      28.579 -12.279 -16.544  1.00  0.00     0.172 C 
HETATM   15  O3  UNL     1      28.581 -10.894 -16.977  1.00  0.00    -0.327 OA
HETATM   16  C14 UNL     1      27.440 -10.484 -17.704  1.00  0.00     0.147 C 
HETATM   17  N3  UNL     1      27.524  -9.586 -18.581  1.00  0.00    -0.379 N 
ATOM     18  H31 UNL     1      28.382  -9.095 -18.835  1.00  0.00     0.158 HD
ATOM     19  H32 UNL     1      26.701  -9.290 -19.106  1.00  0.00     0.158 HD
ENDROOT
BRANCH  13  20
HETATM   20  N2  UNL     1      30.826 -11.549 -15.898  1.00  0.00    -0.071 N 
ATOM     21  H23 UNL     1      30.429 -10.634 -16.110  1.00  0.00     0.274 HD
ATOM     22  H22 UNL     1      31.259 -11.302 -15.008  1.00  0.00     0.274 HD
ATOM     23  H21 UNL     1      31.501 -11.862 -16.596  1.00  0.00     0.274 HD
ENDBRANCH  13  20
BRANCH   6  24
HETATM   24  O2  UNL     1      22.589 -13.185 -16.468  1.00  0.00    -0.353 OA
HETATM   25  C8  UNL     1      22.453 -14.523 -16.935  1.00  0.00     0.210 C 
ENDBRANCH   6  24
BRANCH   1  26
HETATM   26  O1  UNL     1      22.673 -11.245 -18.395  1.00  0.00    -0.353 OA
HETATM   27  C1  UNL     1      22.614 -10.017 -19.088  1.00  0.00     0.210 C 
ENDBRANCH   1  26
TORSDOF 3
ENDMDL
MODEL 2
REMARK VINA RESULT: -6.001942214      2.219      3.328
REMARK  3 active torsions:
REMARK  status: ('A' for Active; 'I' for Inactive)
REMARK    1  A    between atoms: O1_2  and  C2_3 
REMARK    2  A    between atoms: C7_8  and  O2_9 
REMARK    3  A    between atoms: C12_17  and  N2_18 
ROOT
HETATM    1  C2  UNL     1      23.629 -14.100 -16.975  1.00  0.00     0.102 A 
HETATM    2  C3  UNL     1      24.652 -14.910 -17.399  1.00  0.00     0.056 A 
HETATM    3  C4  UNL     1      25.981 -14.603 -17.106  1.00  0.00     0.024 A 
HETATM    4  C5  UNL     1      26.233 -13.453 -16.376  1.00  0.00    -0.033 A 
HETATM    5  C6  UNL     1      25.173 -12.651 -15.960  1.00  0.00     0.048 A 
HETATM    6  C7  UNL     1      23.869 -12.958 -16.249  1.00  0.00     0.102 A 
HETATM    7  C9  UNL     1      27.627 -13.103 -16.088  1.00  0.00     0.077 C 
HETATM    8  C10 UNL     1      27.876 -12.260 -14.888  1.00  0.00     0.244 C 
HETATM    9  N1  UNL     1      29.232 -11.699 -15.030  1.00  0.00    -0.072 N 
ATOM     10  H11 UNL     1      29.636 -11.492 -14.118  1.00  0.00     0.277 HD
ATOM     11  H12 UNL     1      29.195 -10.755 -15.415  1.00  0.00     0.277 HD
HETATM   12  C11 UNL     1      30.106 -12.525 -15.797  1.00  0.00     0.267 C 
HETATM   13  C12 UNL     1      29.848 -13.993 -15.640  1.00  0.00     0.239 C 
HETATM   14  C13 UNL     1      28.434 -14.375 -15.929  1.00  0.00     0.172 C 
HETATM   15  O3  UNL     1      28.348 -15.116 -17.173  1.00  0.00    -0.327 OA
HETATM   16  C14 UNL     1      27.046 -15.512 -17.555  1.00  0.00     0.147 C 
HETATM   17  N3  UNL     1      26.862 -16.563 -18.221  1.00  0.00    -0.379 N 
ATOM     18  H31 UNL     1      27.600 -17.195 -18.532  1.00  0.00     0.158 HD
ATOM     19  H32 UNL     1      25.922 -16.850 -18.496  1.00  0.00     0.158 HD
ENDROOT
BRANCH  13  20
HETATM   20  N2  UNL     1      30.796 -14.696 -16.492  1.00  0.00    -0.071 N 
ATOM     21  H23 UNL     1      31.507 -14.081 -16.889  1.00  0.00     0.274 HD
ATOM     22  H22 UNL     1      31.425 -15.306 -15.970  1.00  0.00     0.274 HD
ATOM     23  H21 UNL     1      30.258 -15.192 -17.203  1.00  0.00     0.274 HD
ENDBRANCH  13  20
BRANCH   6  24
HETATM   24  O2  UNL     1      22.804 -12.139 -15.824  1.00  0.00    -0.353 OA
HETATM   25  C8  UNL     1      22.454 -11.041 -16.659  1.00  0.00     0.210 C 
ENDBRANCH   6  24
BRANCH   1  26
HETATM   26  O1  UNL     1      22.304 -14.409 -17.269  1.00  0.00    -0.353 OA
HETATM   27  C1  UNL     1      21.902 -15.755 -17.136  1.00  0.00     0.210 C 
ENDBRANCH   1  26
TORSDOF 3
ENDMDL
MODEL 3
REMARK VINA RESULT: -5.905706468      4.002      5.632
REMARK  3 active torsions:
REMARK  status: ('A' for Active; 'I' for Inactive)
REMARK    1  A    between atoms: O1_2  and  C2_3 
REMARK    2  A    between atoms: C7_8  and  O2_9 
REMARK    3  A    between atoms: C12_17  and  N2_18 
ROOT
HETATM    1  C2  UNL     1      28.556 -14.852 -16.568  1.00  0.00     0.102 A 
HETATM    2  C3  UNL     1      29.449 -15.053 -17.589  1.00  0.00     0.056 A 
HETATM    3  C4  UNL     1      30.527 -14.187 -17.783  1.00  0.00     0.024 A 
HETATM    4  C5  UNL     1      30.662 -13.119 -16.912  1.00  0.00    -0.033 A 
HETATM    5  C6  UNL     1      29.739 -12.942 -15.885  1.00  0.00     0.048 A 
HETATM    6  C7  UNL     1      28.683 -13.795 -15.699  1.00  0.00     0.102 A 
HETATM    7  C9  UNL     1      31.773 -12.186 -17.124  1.00  0.00     0.077 C 
HETATM    8  C10 UNL     1      32.252 -11.429 -15.936  1.00  0.00     0.244 C 
HETATM    9  N1  UNL     1      33.042 -10.291 -16.442  1.00  0.00    -0.072 N 
ATOM     10  H11 UNL     1      33.736  -9.998 -15.755  1.00  0.00     0.277 HD
ATOM     11  H12 UNL     1      32.475  -9.445 -16.479  1.00  0.00     0.277 HD
HETATM   12  C11 UNL     1      33.654 -10.547 -17.705  1.00  0.00     0.267 C 
HETATM   13  C12 UNL     1      34.070 -11.973 -17.900  1.00  0.00     0.239 C 
HETATM   14  C13 UNL     1      32.955 -12.944 -17.691  1.00  0.00     0.172 C 
HETATM   15  O3  UNL     1      32.544 -13.531 -18.952  1.00  0.00    -0.327 OA
HETATM   16  C14 UNL     1      31.477 -14.455 -18.873  1.00  0.00     0.147 C 
HETATM   17  N3  UNL     1      31.390 -15.410 -19.687  1.00  0.00    -0.379 N 
ATOM     18  H31 UNL     1      32.050 -15.596 -20.442  1.00  0.00     0.158 HD
ATOM     19  H32 UNL     1      30.620 -16.077 -19.629  1.00  0.00     0.158 HD
ENDROOT
BRANCH  13  20
HETATM   20  N2  UNL     1      34.653 -12.079 -19.230  1.00  0.00    -0.071 N 
ATOM     21  H23 UNL     1      33.987 -11.870 -19.974  1.00  0.00     0.274 HD
ATOM     22  H22 UNL     1      35.318 -11.332 -19.435  1.00  0.00     0.274 HD
ATOM     23  H21 UNL     1      35.062 -13.010 -19.312  1.00  0.00     0.274 HD
ENDBRANCH  13  20
BRANCH   6  24
HETATM   24  O2  UNL     1      27.754 -13.606 -14.656  1.00  0.00    -0.353 OA
HETATM   25  C8  UNL     1      26.871 -12.495 -14.765  1.00  0.00     0.210 C 
ENDBRANCH   6  24
BRANCH   1  26
HETATM   26  O1  UNL     1      27.482 -15.716 -16.377  1.00  0.00    -0.353 OA
HETATM   27  C1  UNL     1      26.741 -16.098 -17.516  1.00  0.00     0.210 C 
ENDBRANCH   1  26
TORSDOF 3
ENDMDL
MODEL 4
REMARK VINA RESULT: -5.843996460      3.500      6.243
REMARK  3 active torsions:
REMARK  status: ('A' for Active; 'I' for Inactive)
REMARK    1  A    between atoms: O1_2  and  C2_3 
REMARK    2  A    between atoms: C7_8  and  O2_9 
REMARK    3  A    between atoms: C12_17  and  N2_18 
ROOT
HETATM    1  C2  UNL     1      29.356 -14.622 -16.663  1.00  0.00     0.102 A 
HETATM    2  C3  UNL     1      28.767 -14.887 -17.873  1.00  0.00     0.056 A 
HETATM    3  C4  UNL     1      27.391 -14.734 -18.054  1.00  0.00     0.024 A 
HETATM    4  C5  UNL     1      26.642 -14.306 -16.970  1.00  0.00    -0.033 A 
HETATM    5  C6  UNL     1      27.268 -14.045 -15.755  1.00  0.00     0.048 A 
HETATM    6  C7  UNL     1      28.619 -14.197 -15.583  1.00  0.00     0.102 A 
HETATM    7  C9  UNL     1      25.191 -14.171 -17.139  1.00  0.00     0.077 C 
HETATM    8  C10 UNL     1      24.496 -13.215 -16.236  1.00  0.00     0.244 C 
HETATM    9  N1  UNL     1      23.060 -13.545 -16.285  1.00  0.00    -0.072 N 
ATOM     10  H11 UNL     1      22.492 -12.725 -16.073  1.00  0.00     0.277 HD
ATOM     11  H12 UNL     1      22.797 -14.139 -15.499  1.00  0.00     0.277 HD
HETATM   12  C11 UNL     1      22.659 -14.133 -17.521  1.00  0.00     0.267 C 
HETATM   13  C12 UNL     1      23.416 -13.623 -18.710  1.00  0.00     0.239 C 
HETATM   14  C13 UNL     1      24.896 -13.752 -18.564  1.00  0.00     0.172 C 
HETATM   15  O3  UNL     1      25.410 -14.782 -19.446  1.00  0.00    -0.327 OA
HETATM   16  C14 UNL     1      26.805 -15.002 -19.375  1.00  0.00     0.147 C 
HETATM   17  N3  UNL     1      27.447 -15.394 -20.382  1.00  0.00    -0.379 N 
ATOM     18  H31 UNL     1      27.041 -15.580 -21.299  1.00  0.00     0.158 HD
ATOM     19  H32 UNL     1      28.454 -15.552 -20.331  1.00  0.00     0.158 HD
ENDROOT
BRANCH  13  20
HETATM   20  N2  UNL     1      22.912 -14.328 -19.881  1.00  0.00    -0.071 N 
ATOM     21  H23 UNL     1      22.635 -15.288 -19.680  1.00  0.00     0.274 HD
ATOM     22  H22 UNL     1      22.001 -13.989 -20.189  1.00  0.00     0.274 HD
ATOM     23  H21 UNL     1      23.627 -14.264 -20.606  1.00  0.00     0.274 HD
ENDBRANCH  13  20
BRANCH   6  24
HETATM   24  O2  UNL     1      29.244 -13.929 -14.348  1.00  0.00    -0.353 OA
HETATM   25  C8  UNL     1      29.393 -12.563 -13.978  1.00  0.00     0.210 C 
ENDBRANCH   6  24
BRANCH   1  26
HETATM   26  O1  UNL     1      30.727 -14.776 -16.486  1.00  0.00    -0.353 OA
HETATM   27  C1  UNL     1      31.572 -13.787 -17.034  1.00  0.00     0.210 C 
ENDBRANCH   1  26
TORSDOF 3
ENDMDL
MODEL 5
REMARK VINA RESULT: -5.800907380      3.413      4.296
REMARK  3 active torsions:
REMARK  status: ('A' for Active; 'I' for Inactive)
REMARK    1  A    between atoms: O1_2  and  C2_3 
REMARK    2  A    between atoms: C7_8  and  O2_9 
REMARK    3  A    between atoms: C12_17  and  N2_18 
ROOT
HETATM    1  C2  UNL     1      24.382 -16.327 -18.328  1.00  0.00     0.102 A 
HETATM    2  C3  UNL     1      24.297 -15.190 -17.565  1.00  0.00     0.056 A 
HETATM    3  C4  UNL     1      25.445 -14.564 -17.075  1.00  0.00     0.024 A 
HETATM    4  C5  UNL     1      26.671 -15.131 -17.384  1.00  0.00    -0.033 A 
HETATM    5  C6  UNL     1      26.724 -16.285 -18.160  1.00  0.00     0.048 A 
HETATM    6  C7  UNL     1      25.595 -16.895 -18.639  1.00  0.00     0.102 A 
HETATM    7  C9  UNL     1      27.882 -14.500 -16.850  1.00  0.00     0.077 C 
HETATM    8  C10 UNL     1      29.145 -14.725 -17.602  1.00  0.00     0.244 C 
HETATM    9  N1  UNL     1      30.253 -14.378 -16.693  1.00  0.00    -0.072 N 
ATOM     10  H11 UNL     1      31.076 -14.086 -17.220  1.00  0.00     0.277 HD
ATOM     11  H12 UNL     1      30.629 -15.213 -16.244  1.00  0.00     0.277 HD
HETATM   12  C11 UNL     1      29.899 -13.395 -15.722  1.00  0.00     0.267 C 
HETATM   13  C12 UNL     1      28.906 -12.386 -16.213  1.00  0.00     0.239 C 
HETATM   14  C13 UNL     1      27.663 -13.004 -16.761  1.00  0.00     0.172 C 
HETATM   15  O3  UNL     1      26.540 -12.771 -15.871  1.00  0.00    -0.327 OA
HETATM   16  C14 UNL     1      25.311 -13.331 -16.286  1.00  0.00     0.147 C 
HETATM   17  N3  UNL     1      24.219 -12.786 -15.981  1.00  0.00    -0.379 N 
ATOM     18  H31 UNL     1      24.125 -11.930 -15.434  1.00  0.00     0.158 HD
ATOM     19  H32 UNL     1      23.331 -13.190 -16.281  1.00  0.00     0.158 HD
ENDROOT
BRANCH  13  20
HETATM   20  N2  UNL     1      28.632 -11.474 -15.111  1.00  0.00    -0.071 N 
ATOM     21  H23 UNL     1      27.882 -10.814 -15.318  1.00  0.00     0.274 HD
ATOM     22  H22 UNL     1      28.188 -11.933 -14.315  1.00  0.00     0.274 HD
ATOM     23  H21 UNL     1      29.510 -11.015 -14.869  1.00  0.00     0.274 HD
ENDBRANCH  13  20
BRANCH   6  24
HETATM   24  O2  UNL     1      25.660 -18.064 -19.424  1.00  0.00    -0.353 OA
HETATM   25  C8  UNL     1      26.343 -17.973 -20.669  1.00  0.00     0.210 C 
ENDBRANCH   6  24
BRANCH   1  26
HETATM   26  O1  UNL     1      23.237 -16.949 -18.814  1.00  0.00    -0.353 OA
HETATM   27  C1  UNL     1      22.248 -17.321 -17.878  1.00  0.00     0.210 C 
ENDBRANCH   1  26
TORSDOF 3
ENDMDL
