MODEL 1
REMARK VINA RESULT: -6.564655334      0.000      0.000
REMARK  3 active torsions:
REMARK  status: ('A' for Active; 'I' for Inactive)
REMARK    1  A    between atoms: C2_2  and  N1_3 
REMARK    2  A    between atoms: C6_10  and  N3_11 
REMARK    3  A    between atoms: C11_20  and  N5_21 
ROOT
HETATM    1  N1  UNL     1      23.842 -15.760 -17.948  1.00  0.00    -0.309 N 
HETATM    2  C3  UNL     1      25.195 -15.739 -17.878  1.00  0.00     0.180 A 
HETATM    3  S1  UNL     1      26.100 -16.951 -18.541  1.00  0.00    -0.040 SA
HETATM    4  N2  UNL     1      25.869 -14.742 -17.272  1.00  0.00    -0.335 N 
ATOM      5  H2  UNL     1      26.889 -14.748 -17.233  1.00  0.00     0.168 HD
HETATM    6  C4  UNL     1      25.162 -13.736 -16.718  1.00  0.00     0.038 A 
HETATM    7  C5  UNL     1      25.903 -12.651 -16.058  1.00  0.00     0.070 C 
HETATM    8  C6  UNL     1      23.782 -13.692 -16.752  1.00  0.00     0.101 A 
HETATM    9  C11 UNL     1      23.152 -14.743 -17.387  1.00  0.00     0.132 A 
ENDROOT
BRANCH   8  10
HETATM   10  N3  UNL     1      23.075 -12.609 -16.154  1.00  0.00    -0.330 N 
HETATM   11  C7  UNL     1      22.773 -11.530 -16.779  1.00  0.00     0.172 A 
HETATM   12  C8  UNL     1      23.027 -11.158 -18.089  1.00  0.00     0.085 A 
HETATM   13  O1  UNL     1      22.122 -10.541 -16.213  1.00  0.00    -0.220 OA
HETATM   14  C9  UNL     1      22.487  -9.914 -18.230  1.00  0.00     0.033 A 
HETATM   15  C10 UNL     1      22.515  -9.108 -19.478  1.00  0.00     0.070 C 
HETATM   16  N4  UNL     1      21.941  -9.575 -17.051  1.00  0.00    -0.264 N 
ATOM     17  H4  UNL     1      21.461  -8.698 -16.849  1.00  0.00     0.194 HD
ATOM     18  H3  UNL     1      22.795 -12.696 -15.178  1.00  0.00     0.168 HD
ENDBRANCH   8  10
BRANCH   9  19
HETATM   19  N5  UNL     1      21.885 -14.779 -17.462  1.00  0.00    -0.383 N 
ATOM     20  H52 UNL     1      21.424 -15.496 -18.022  1.00  0.00     0.157 HD
ATOM     21  H51 UNL     1      21.360 -14.073 -16.946  1.00  0.00     0.157 HD
ENDBRANCH   9  19
BRANCH   1  22
HETATM   22  C2  UNL     1      23.249 -16.862 -18.611  1.00  0.00     0.128 C 
HETATM   23  C1  UNL     1      22.231 -17.643 -17.875  1.00  0.00     0.027 C 
ENDBRANCH   1  22
TORSDOF 3
ENDMDL
MODEL 2
REMARK VINA RESULT: -6.256812067      2.306      4.137
REMARK  3 active torsions:
REMARK  status: ('A' for Active; 'I' for Inactive)
REMARK    1  A    between atoms: C2_2  and  N1_3 
REMARK    2  A    between atoms: C6_10  and  N3_11 
REMARK    3  A    between atoms: C11_20  and  N5_21 
ROOT
HETATM    1  N1  UNL     1      28.095 -13.368 -15.878  1.00  0.00    -0.309 N 
HETATM    2  C3  UNL     1      28.247 -14.352 -16.797  1.00  0.00     0.180 A 
HETATM    3  S1  UNL     1      29.747 -14.909 -17.205  1.00  0.00    -0.040 SA
HETATM    4  N2  UNL     1      27.199 -14.924 -17.421  1.00  0.00    -0.335 N 
ATOM      5  H2  UNL     1      27.339 -15.664 -18.108  1.00  0.00     0.168 HD
HETATM    6  C4  UNL     1      25.958 -14.492 -17.112  1.00  0.00     0.038 A 
HETATM    7  C5  UNL     1      24.818 -15.119 -17.796  1.00  0.00     0.070 C 
HETATM    8  C6  UNL     1      25.728 -13.494 -16.186  1.00  0.00     0.101 A 
HETATM    9  C11 UNL     1      26.844 -12.950 -15.583  1.00  0.00     0.132 A 
ENDROOT
BRANCH   8  10
HETATM   10  N3  UNL     1      24.401 -13.070 -15.891  1.00  0.00    -0.330 N 
HETATM   11  C7  UNL     1      23.777 -12.174 -16.566  1.00  0.00     0.172 A 
HETATM   12  C8  UNL     1      24.188 -11.443 -17.668  1.00  0.00     0.085 A 
HETATM   13  O1  UNL     1      22.554 -11.794 -16.280  1.00  0.00    -0.220 OA
HETATM   14  C9  UNL     1      23.136 -10.635 -17.986  1.00  0.00     0.033 A 
HETATM   15  C10 UNL     1      23.116  -9.665 -19.112  1.00  0.00     0.070 C 
HETATM   16  N4  UNL     1      22.154 -10.886 -17.106  1.00  0.00    -0.264 N 
ATOM     17  H4  UNL     1      21.240 -10.433 -17.092  1.00  0.00     0.194 HD
ATOM     18  H3  UNL     1      23.921 -13.501 -15.101  1.00  0.00     0.168 HD
ENDBRANCH   8  10
BRANCH   9  19
HETATM   19  N5  UNL     1      26.720 -12.027 -14.721  1.00  0.00    -0.383 N 
ATOM     20  H52 UNL     1      27.530 -11.475 -14.439  1.00  0.00     0.157 HD
ATOM     21  H51 UNL     1      25.792 -11.866 -14.330  1.00  0.00     0.157 HD
ENDBRANCH   9  19
BRANCH   1  22
HETATM   22  C2  UNL     1      29.274 -12.846 -15.292  1.00  0.00     0.128 C 
HETATM   23  C1  UNL     1      29.878 -11.645 -15.910  1.00  0.00     0.027 C 
ENDBRANCH   1  22
TORSDOF 3
ENDMDL
MODEL 3
REMARK VINA RESULT: -6.119113839      1.246      2.798
REMARK  3 active torsions:
REMARK  status: ('A' for Active; 'I' for Inactive)
REMARK    1  A    between atoms: C2_2  and  N1_3 
REMARK    2  A    between atoms: C6_10  and  N3_11 
REMARK    3  A    between atoms: C11_20  and  N5_21 
ROOT
HETATM    1  N1  UNL     1      26.233 -14.802 -17.680  1.00  0.00    -0.309 N 
HETATM    2  C3  UNL     1      25.570 -15.874 -18.176  1.00  0.00     0.180 A 
HETATM    3  S1  UNL     1      26.370 -17.065 -18.995  1.00  0.00    -0.040 SA
HETATM    4  N2  UNL     1      24.240 -16.028 -18.031  1.00  0.00    -0.335 N 
ATOM      5  H2  UNL     1      23.763 -16.846 -18.413  1.00  0.00     0.168 HD
HETATM    6  C4  UNL     1      23.554 -15.075 -17.368  1.00  0.00     0.038 A 
HETATM    7  C5  UNL     1      22.102 -15.248 -17.212  1.00  0.00     0.070 C 
HETATM    8  C6  UNL     1      24.164 -13.955 -16.836  1.00  0.00     0.101 A 
HETATM    9  C11 UNL     1      25.529 -13.858 -17.019  1.00  0.00     0.132 A 
ENDROOT
BRANCH   8  10
HETATM   10  N3  UNL     1      23.401 -12.973 -16.142  1.00  0.00    -0.330 N 
HETATM   11  C7  UNL     1      22.992 -11.883 -16.682  1.00  0.00     0.172 A 
HETATM   12  C8  UNL     1      23.165 -11.409 -17.971  1.00  0.00     0.085 A 
HETATM   13  O1  UNL     1      22.290 -10.988 -16.028  1.00  0.00    -0.220 OA
HETATM   14  C9  UNL     1      22.526 -10.204 -18.010  1.00  0.00     0.033 A 
HETATM   15  C10 UNL     1      22.442  -9.320 -19.200  1.00  0.00     0.070 C 
HETATM   16  N4  UNL     1      22.002  -9.987 -16.792  1.00  0.00    -0.264 N 
ATOM     17  H4  UNL     1      21.464  -9.166 -16.516  1.00  0.00     0.194 HD
ATOM     18  H3  UNL     1      23.167 -13.145 -15.165  1.00  0.00     0.168 HD
ENDBRANCH   8  10
BRANCH   9  19
HETATM   19  N5  UNL     1      26.166 -12.860 -16.561  1.00  0.00    -0.383 N 
ATOM     20  H52 UNL     1      26.095 -11.952 -17.019  1.00  0.00     0.157 HD
ATOM     21  H51 UNL     1      26.741 -13.005 -15.732  1.00  0.00     0.157 HD
ENDBRANCH   9  19
BRANCH   1  22
HETATM   22  C2  UNL     1      27.632 -14.753 -17.898  1.00  0.00     0.128 C 
HETATM   23  C1  UNL     1      28.516 -15.230 -16.811  1.00  0.00     0.027 C 
ENDBRANCH   1  22
TORSDOF 3
ENDMDL
MODEL 4
REMARK VINA RESULT: -6.066822223      2.881      5.393
REMARK  3 active torsions:
REMARK  status: ('A' for Active; 'I' for Inactive)
REMARK    1  A    between atoms: C2_2  and  N1_3 
REMARK    2  A    between atoms: C6_10  and  N3_11 
REMARK    3  A    between atoms: C11_20  and  N5_21 
ROOT
HETATM    1  N1  UNL     1      28.071 -12.244 -16.317  1.00  0.00    -0.309 N 
HETATM    2  C3  UNL     1      28.209 -11.416 -17.381  1.00  0.00     0.180 A 
HETATM    3  S1  UNL     1      29.703 -10.922 -17.883  1.00  0.00    -0.040 SA
HETATM    4  N2  UNL     1      27.153 -10.957 -18.078  1.00  0.00    -0.335 N 
ATOM      5  H2  UNL     1      27.284 -10.335 -18.876  1.00  0.00     0.168 HD
HETATM    6  C4  UNL     1      25.918 -11.340 -17.695  1.00  0.00     0.038 A 
HETATM    7  C5  UNL     1      24.768 -10.835 -18.460  1.00  0.00     0.070 C 
HETATM    8  C6  UNL     1      25.701 -12.181 -16.621  1.00  0.00     0.101 A 
HETATM    9  C11 UNL     1      26.825 -12.617 -15.949  1.00  0.00     0.132 A 
ENDROOT
BRANCH   8  10
HETATM   10  N3  UNL     1      24.379 -12.560 -16.252  1.00  0.00    -0.330 N 
HETATM   11  C7  UNL     1      23.813 -13.640 -16.653  1.00  0.00     0.172 A 
HETATM   12  C8  UNL     1      24.293 -14.642 -17.479  1.00  0.00     0.085 A 
HETATM   13  O1  UNL     1      22.593 -13.974 -16.304  1.00  0.00    -0.220 OA
HETATM   14  C9  UNL     1      23.283 -15.554 -17.577  1.00  0.00     0.033 A 
HETATM   15  C10 UNL     1      23.342 -16.811 -18.366  1.00  0.00     0.070 C 
HETATM   16  N4  UNL     1      22.258 -15.101 -16.837  1.00  0.00    -0.264 N 
ATOM     17  H4  UNL     1      21.361 -15.571 -16.715  1.00  0.00     0.194 HD
ATOM     18  H3  UNL     1      23.853 -11.940 -15.635  1.00  0.00     0.168 HD
ENDBRANCH   8  10
BRANCH   9  19
HETATM   19  N5  UNL     1      26.713 -13.392 -14.950  1.00  0.00    -0.383 N 
ATOM     20  H52 UNL     1      26.024 -13.198 -14.224  1.00  0.00     0.157 HD
ATOM     21  H51 UNL     1      27.331 -14.202 -14.908  1.00  0.00     0.157 HD
ENDBRANCH   9  19
BRANCH   1  22
HETATM   22  C2  UNL     1      29.257 -12.659 -15.665  1.00  0.00     0.128 C 
HETATM   23  C1  UNL     1      29.697 -11.892 -14.479  1.00  0.00     0.027 C 
ENDBRANCH   1  22
TORSDOF 3
ENDMDL
MODEL 5
REMARK VINA RESULT: -5.979273069      3.192      5.379
REMARK  3 active torsions:
REMARK  status: ('A' for Active; 'I' for Inactive)
REMARK    1  A    between atoms: C2_2  and  N1_3 
REMARK    2  A    between atoms: C6_10  and  N3_11 
REMARK    3  A    between atoms: C11_20  and  N5_21 
ROOT
HETATM    1  N1  UNL     1      28.852 -12.707 -16.117  1.00  0.00    -0.309 N 
HETATM    2  C3  UNL     1      29.083 -11.698 -16.992  1.00  0.00     0.180 A 
HETATM    3  S1  UNL     1      30.619 -11.324 -17.472  1.00  0.00    -0.040 SA
HETATM    4  N2  UNL     1      28.088 -10.954 -17.512  1.00  0.00    -0.335 N 
ATOM      5  H2  UNL     1      28.288 -10.200 -18.170  1.00  0.00     0.168 HD
HETATM    6  C4  UNL     1      26.821 -11.231 -17.142  1.00  0.00     0.038 A 
HETATM    7  C5  UNL     1      25.739 -10.416 -17.712  1.00  0.00     0.070 C 
HETATM    8  C6  UNL     1      26.512 -12.245 -16.255  1.00  0.00     0.101 A 
HETATM    9  C11 UNL     1      27.576 -12.969 -15.759  1.00  0.00     0.132 A 
ENDROOT
BRANCH   8  10
HETATM   10  N3  UNL     1      25.159 -12.503 -15.892  1.00  0.00    -0.330 N 
HETATM   11  C7  UNL     1      24.452 -13.439 -16.412  1.00  0.00     0.172 A 
HETATM   12  C8  UNL     1      24.784 -14.372 -17.380  1.00  0.00     0.085 A 
HETATM   13  O1  UNL     1      23.206 -13.663 -16.066  1.00  0.00    -0.220 OA
HETATM   14  C9  UNL     1      23.665 -15.130 -17.561  1.00  0.00     0.033 A 
HETATM   15  C10 UNL     1      23.548 -16.266 -18.511  1.00  0.00     0.070 C 
HETATM   16  N4  UNL     1      22.720 -14.658 -16.731  1.00  0.00    -0.264 N 
ATOM     17  H4  UNL     1      21.773 -15.025 -16.641  1.00  0.00     0.194 HD
ATOM     18  H3  UNL     1      24.729 -11.912 -15.181  1.00  0.00     0.168 HD
ENDBRANCH   8  10
BRANCH   9  19
HETATM   19  N5  UNL     1      27.378 -13.917 -14.939  1.00  0.00    -0.383 N 
ATOM     20  H52 UNL     1      28.102 -14.176 -14.269  1.00  0.00     0.157 HD
ATOM     21  H51 UNL     1      26.480 -14.398 -14.979  1.00  0.00     0.157 HD
ENDBRANCH   9  19
BRANCH   1  22
HETATM   22  C2  UNL     1      29.981 -13.416 -15.640  1.00  0.00     0.128 C 
HETATM   23  C1  UNL     1      30.404 -14.622 -16.386  1.00  0.00     0.027 C 
ENDBRANCH   1  22
TORSDOF 3
ENDMDL
