MODEL 1
REMARK VINA RESULT: -5.104377058      0.000      0.000
REMARK  6 active torsions:
REMARK  status: ('A' for Active; 'I' for Inactive)
REMARK    1  A    between atoms: C1_2  and  N2_4 
REMARK    2  A    between atoms: C2_5  and  C3_6 
REMARK    3  A    between atoms: C3_6  and  O1_7 
REMARK    4  A    between atoms: C4_9  and  O2_10 
REMARK    5  A    between atoms: C5_12  and  O3_13 
REMARK    6  A    between atoms: C6_15  and  C7_16 
ROOT
HETATM    1  N2  UNL     1      61.784  31.526  12.936  1.00  0.00    -0.340 N 
HETATM    2  C2  UNL     1      61.634  31.800  11.563  1.00  0.00     0.142 C 
HETATM    3  C4  UNL     1      60.681  33.026  11.660  1.00  0.00     0.174 C 
HETATM    4  C5  UNL     1      59.575  32.316  12.472  1.00  0.00     0.176 C 
HETATM    5  C6  UNL     1      60.406  31.582  13.495  1.00  0.00     0.151 C 
ENDROOT
BRANCH   5   6
HETATM    6  C7  UNL     1      59.895  30.295  13.927  1.00  0.00    -0.033 A 
HETATM    7  C8  UNL     1      59.539  29.258  13.124  1.00  0.00     0.009 A 
HETATM    8  C9  UNL     1      59.060  28.087  13.654  1.00  0.00     0.001 A 
HETATM    9  C10 UNL     1      58.914  27.900  15.015  1.00  0.00     0.000 A 
HETATM   10  C11 UNL     1      59.268  28.936  15.849  1.00  0.00     0.001 A 
HETATM   11  C12 UNL     1      59.743  30.094  15.310  1.00  0.00     0.009 A 
ENDBRANCH   5   6
BRANCH   1  12
HETATM   12  C1  UNL     1      62.860  31.283  13.786  1.00  0.00     0.184 C 
HETATM   13  N1  UNL     1      63.941  30.404  13.426  1.00  0.00    -0.070 NA
HETATM   14  S1  UNL     1      62.991  31.934  15.267  1.00  0.00    -0.044 SA
ENDBRANCH   1  12
BRANCH   4  15
HETATM   15  O3  UNL     1      58.934  31.472  11.593  1.00  0.00    -0.391 OA
ATOM     16  H3  UNL     1      58.535  30.791  12.122  1.00  0.00     0.210 HD
ENDBRANCH   4  15
BRANCH   2  17
HETATM   17  C3  UNL     1      62.761  32.087  10.677  1.00  0.00     0.192 C 
BRANCH  17  18
HETATM   18  O1  UNL     1      62.534  31.896   9.341  1.00  0.00    -0.399 OA
ATOM     19  H1  UNL     1      62.700  32.646   8.781  1.00  0.00     0.209 HD
ENDBRANCH  17  18
ENDBRANCH   2  17
BRANCH   3  20
HETATM   20  O2  UNL     1      60.229  33.412  10.423  1.00  0.00    -0.391 OA
ATOM     21  H2  UNL     1      59.325  33.704  10.457  1.00  0.00     0.210 HD
ENDBRANCH   3  20
TORSDOF 6
ENDMDL
MODEL 2
REMARK VINA RESULT: -5.050572681      4.457      5.610
REMARK  6 active torsions:
REMARK  status: ('A' for Active; 'I' for Inactive)
REMARK    1  A    between atoms: C1_2  and  N2_4 
REMARK    2  A    between atoms: C2_5  and  C3_6 
REMARK    3  A    between atoms: C3_6  and  O1_7 
REMARK    4  A    between atoms: C4_9  and  O2_10 
REMARK    5  A    between atoms: C5_12  and  O3_13 
REMARK    6  A    between atoms: C6_15  and  C7_16 
ROOT
HETATM    1  N2  UNL     1      60.479  33.210  16.867  1.00  0.00    -0.340 N 
HETATM    2  C2  UNL     1      61.516  32.932  17.779  1.00  0.00     0.142 C 
HETATM    3  C4  UNL     1      62.709  33.540  16.987  1.00  0.00     0.174 C 
HETATM    4  C5  UNL     1      62.507  32.700  15.705  1.00  0.00     0.176 C 
HETATM    5  C6  UNL     1      61.010  32.800  15.539  1.00  0.00     0.151 C 
ENDROOT
BRANCH   5   6
HETATM    6  C7  UNL     1      60.352  31.635  14.979  1.00  0.00    -0.033 A 
HETATM    7  C8  UNL     1      59.985  30.514  15.653  1.00  0.00     0.009 A 
HETATM    8  C9  UNL     1      59.372  29.470  15.007  1.00  0.00     0.001 A 
HETATM    9  C10 UNL     1      59.098  29.501  13.653  1.00  0.00     0.000 A 
HETATM   10  C11 UNL     1      59.460  30.627  12.948  1.00  0.00     0.001 A 
HETATM   11  C12 UNL     1      60.068  31.657  13.602  1.00  0.00     0.009 A 
ENDBRANCH   5   6
BRANCH   1  12
HETATM   12  C1  UNL     1      59.209  33.774  16.954  1.00  0.00     0.184 C 
HETATM   13  N1  UNL     1      58.205  33.274  17.855  1.00  0.00    -0.070 NA
HETATM   14  S1  UNL     1      58.723  35.022  16.036  1.00  0.00    -0.044 SA
ENDBRANCH   1  12
BRANCH   4  15
HETATM   15  O3  UNL     1      62.931  31.426  16.009  1.00  0.00    -0.391 OA
ATOM     16  H3  UNL     1      63.298  31.470  16.884  1.00  0.00     0.210 HD
ENDBRANCH   4  15
BRANCH   2  17
HETATM   17  C3  UNL     1      61.515  33.408  19.162  1.00  0.00     0.192 C 
BRANCH  17  18
HETATM   18  O1  UNL     1      60.535  32.896  19.969  1.00  0.00    -0.399 OA
ATOM     19  H1  UNL     1      60.371  33.371  20.775  1.00  0.00     0.209 HD
ENDBRANCH  17  18
ENDBRANCH   2  17
BRANCH   3  20
HETATM   20  O2  UNL     1      63.910  33.259  17.589  1.00  0.00    -0.391 OA
ATOM     21  H2  UNL     1      64.249  34.011  18.061  1.00  0.00     0.210 HD
ENDBRANCH   3  20
TORSDOF 6
ENDMDL
MODEL 3
REMARK VINA RESULT: -4.963903768      1.710      2.275
REMARK  6 active torsions:
REMARK  status: ('A' for Active; 'I' for Inactive)
REMARK    1  A    between atoms: C1_2  and  N2_4 
REMARK    2  A    between atoms: C2_5  and  C3_6 
REMARK    3  A    between atoms: C3_6  and  O1_7 
REMARK    4  A    between atoms: C4_9  and  O2_10 
REMARK    5  A    between atoms: C5_12  and  O3_13 
REMARK    6  A    between atoms: C6_15  and  C7_16 
ROOT
HETATM    1  N2  UNL     1      60.468  31.184  14.074  1.00  0.00    -0.340 N 
HETATM    2  C2  UNL     1      61.203  31.595  12.945  1.00  0.00     0.142 C 
HETATM    3  C4  UNL     1      60.040  32.183  12.095  1.00  0.00     0.174 C 
HETATM    4  C5  UNL     1      59.177  30.901  12.081  1.00  0.00     0.176 C 
HETATM    5  C6  UNL     1      59.277  30.480  13.526  1.00  0.00     0.151 C 
ENDROOT
BRANCH   5   6
HETATM    6  C7  UNL     1      59.275  29.051  13.775  1.00  0.00    -0.033 A 
HETATM    7  C8  UNL     1      59.501  28.073  12.859  1.00  0.00     0.009 A 
HETATM    8  C9  UNL     1      59.465  26.748  13.217  1.00  0.00     0.001 A 
HETATM    9  C10 UNL     1      59.201  26.342  14.511  1.00  0.00     0.000 A 
HETATM   10  C11 UNL     1      58.969  27.315  15.457  1.00  0.00     0.001 A 
HETATM   11  C12 UNL     1      59.008  28.627  15.088  1.00  0.00     0.009 A 
ENDBRANCH   5   6
BRANCH   1  12
HETATM   12  C1  UNL     1      60.604  31.333  15.452  1.00  0.00     0.184 C 
HETATM   13  N1  UNL     1      59.524  31.792  16.285  1.00  0.00    -0.070 NA
HETATM   14  S1  UNL     1      61.987  31.039  16.249  1.00  0.00    -0.044 SA
ENDBRANCH   1  12
BRANCH   4  15
HETATM   15  O3  UNL     1      59.802  30.026  11.220  1.00  0.00    -0.391 OA
ATOM     16  H3  UNL     1      60.348  30.556  10.653  1.00  0.00     0.210 HD
ENDBRANCH   4  15
BRANCH   2  17
HETATM   17  C3  UNL     1      62.321  32.535  13.017  1.00  0.00     0.192 C 
BRANCH  17  18
HETATM   18  O1  UNL     1      61.985  33.862  13.016  1.00  0.00    -0.399 OA
ATOM     19  H1  UNL     1      61.101  34.066  12.735  1.00  0.00     0.209 HD
ENDBRANCH  17  18
ENDBRANCH   2  17
BRANCH   3  20
HETATM   20  O2  UNL     1      60.460  32.522  10.833  1.00  0.00    -0.391 OA
ATOM     21  H2  UNL     1      59.754  32.453  10.200  1.00  0.00     0.210 HD
ENDBRANCH   3  20
TORSDOF 6
ENDMDL
MODEL 4
REMARK VINA RESULT: -4.842929233      1.183      1.243
REMARK  6 active torsions:
REMARK  status: ('A' for Active; 'I' for Inactive)
REMARK    1  A    between atoms: C1_2  and  N2_4 
REMARK    2  A    between atoms: C2_5  and  C3_6 
REMARK    3  A    between atoms: C3_6  and  O1_7 
REMARK    4  A    between atoms: C4_9  and  O2_10 
REMARK    5  A    between atoms: C5_12  and  O3_13 
REMARK    6  A    between atoms: C6_15  and  C7_16 
ROOT
HETATM    1  N2  UNL     1      61.854  32.162  12.142  1.00  0.00    -0.340 N 
HETATM    2  C2  UNL     1      61.485  32.794  10.940  1.00  0.00     0.142 C 
HETATM    3  C4  UNL     1      60.822  34.073  11.528  1.00  0.00     0.174 C 
HETATM    4  C5  UNL     1      59.789  33.337  12.411  1.00  0.00     0.176 C 
HETATM    5  C6  UNL     1      60.655  32.260  13.017  1.00  0.00     0.151 C 
ENDROOT
BRANCH   5   6
HETATM    6  C7  UNL     1      60.006  30.988  13.270  1.00  0.00    -0.033 A 
HETATM    7  C8  UNL     1      59.456  30.165  12.339  1.00  0.00     0.009 A 
HETATM    8  C9  UNL     1      58.861  28.983  12.705  1.00  0.00     0.001 A 
HETATM    9  C10 UNL     1      58.791  28.571  14.021  1.00  0.00     0.000 A 
HETATM   10  C11 UNL     1      59.342  29.388  14.983  1.00  0.00     0.001 A 
HETATM   11  C12 UNL     1      59.930  30.558  14.606  1.00  0.00     0.009 A 
ENDBRANCH   5   6
BRANCH   1  12
HETATM   12  C1  UNL     1      63.014  31.566  12.632  1.00  0.00     0.184 C 
HETATM   13  N1  UNL     1      63.438  30.255  12.219  1.00  0.00    -0.070 NA
HETATM   14  S1  UNL     1      63.980  32.268  13.732  1.00  0.00    -0.044 SA
ENDBRANCH   1  12
BRANCH   4  15
HETATM   15  O3  UNL     1      58.834  32.839  11.552  1.00  0.00    -0.391 OA
ATOM     16  H3  UNL     1      58.046  32.726  12.068  1.00  0.00     0.210 HD
ENDBRANCH   4  15
BRANCH   2  17
HETATM   17  C3  UNL     1      62.442  33.141   9.891  1.00  0.00     0.192 C 
BRANCH  17  18
HETATM   18  O1  UNL     1      61.925  33.279   8.631  1.00  0.00    -0.399 OA
ATOM     19  H1  UNL     1      62.277  33.994   8.114  1.00  0.00     0.209 HD
ENDBRANCH  17  18
ENDBRANCH   2  17
BRANCH   3  20
HETATM   20  O2  UNL     1      60.211  34.819  10.552  1.00  0.00    -0.391 OA
ATOM     21  H2  UNL     1      60.198  35.743  10.776  1.00  0.00     0.210 HD
ENDBRANCH   3  20
TORSDOF 6
ENDMDL
MODEL 5
REMARK VINA RESULT: -4.762784030      3.911      4.985
REMARK  6 active torsions:
REMARK  status: ('A' for Active; 'I' for Inactive)
REMARK    1  A    between atoms: C1_2  and  N2_4 
REMARK    2  A    between atoms: C2_5  and  C3_6 
REMARK    3  A    between atoms: C3_6  and  O1_7 
REMARK    4  A    between atoms: C4_9  and  O2_10 
REMARK    5  A    between atoms: C5_12  and  O3_13 
REMARK    6  A    between atoms: C6_15  and  C7_16 
ROOT
HETATM    1  N2  UNL     1      60.863  33.008  16.040  1.00  0.00    -0.340 N 
HETATM    2  C2  UNL     1      62.021  32.665  16.763  1.00  0.00     0.142 C 
HETATM    3  C4  UNL     1      63.094  33.261  15.805  1.00  0.00     0.174 C 
HETATM    4  C5  UNL     1      62.655  32.472  14.550  1.00  0.00     0.176 C 
HETATM    5  C6  UNL     1      61.156  32.626  14.632  1.00  0.00     0.151 C 
ENDROOT
BRANCH   5   6
HETATM    6  C7  UNL     1      60.373  31.503  14.154  1.00  0.00    -0.033 A 
HETATM    7  C8  UNL     1      59.985  30.423  14.880  1.00  0.00     0.009 A 
HETATM    8  C9  UNL     1      59.248  29.415  14.309  1.00  0.00     0.001 A 
HETATM    9  C10 UNL     1      58.865  29.445  12.983  1.00  0.00     0.000 A 
HETATM   10  C11 UNL     1      59.246  30.530  12.226  1.00  0.00     0.001 A 
HETATM   11  C12 UNL     1      59.977  31.523  12.805  1.00  0.00     0.009 A 
ENDBRANCH   5   6
BRANCH   1  12
HETATM   12  C1  UNL     1      59.645  33.610  16.349  1.00  0.00     0.184 C 
HETATM   13  N1  UNL     1      58.780  33.108  17.383  1.00  0.00    -0.070 NA
HETATM   14  S1  UNL     1      59.068  34.907  15.562  1.00  0.00    -0.044 SA
ENDBRANCH   1  12
BRANCH   4  15
HETATM   15  O3  UNL     1      63.074  31.175  14.745  1.00  0.00    -0.391 OA
ATOM     16  H3  UNL     1      62.729  30.909  15.588  1.00  0.00     0.210 HD
ENDBRANCH   4  15
BRANCH   2  17
HETATM   17  C3  UNL     1      62.262  33.093  18.141  1.00  0.00     0.192 C 
BRANCH  17  18
HETATM   18  O1  UNL     1      61.417  32.573  19.084  1.00  0.00    -0.399 OA
ATOM     19  H1  UNL     1      61.103  33.183  19.741  1.00  0.00     0.209 HD
ENDBRANCH  17  18
ENDBRANCH   2  17
BRANCH   3  20
HETATM   20  O2  UNL     1      64.364  32.921  16.196  1.00  0.00    -0.391 OA
ATOM     21  H2  UNL     1      64.567  32.019  15.976  1.00  0.00     0.210 HD
ENDBRANCH   3  20
TORSDOF 6
ENDMDL
