MODEL 1
REMARK VINA RESULT: -4.320289365      0.000      0.000
REMARK  5 active torsions:
REMARK  status: ('A' for Active; 'I' for Inactive)
REMARK    1  A    between atoms: N1_2  and  C2_4 
REMARK    2  A    between atoms: C2_4  and  N2_6 
REMARK    3  A    between atoms: N2_6  and  C3_8 
REMARK    4  A    between atoms: C4_9  and  N3_10 
REMARK    5  A    between atoms: S2_16  and  N6_18 
ROOT
HETATM    1  N3  UNL     1      60.106  30.902  14.908  1.00  0.00    -0.301 N 
ATOM      2  H3  UNL     1      60.125  31.818  15.356  1.00  0.00     0.174 HD
HETATM    3  C5  UNL     1      59.549  29.783  15.582  1.00  0.00     0.179 C 
HETATM    4  N4  UNL     1      59.094  28.868  16.123  1.00  0.00    -0.172 NA
ENDROOT
BRANCH   1   5
HETATM    5  C4  UNL     1      60.646  30.726  13.573  1.00  0.00     0.244 C 
HETATM    6  C3  UNL     1      59.665  31.195  12.567  1.00  0.00     0.037 C 
HETATM    7  C9  UNL     1      59.688  32.589  12.123  1.00  0.00     0.052 A 
HETATM    8  C7  UNL     1      60.714  33.508  12.581  1.00  0.00     0.075 A 
HETATM    9  C8  UNL     1      60.679  33.046  11.100  1.00  0.00     0.029 A 
HETATM   10  S2  UNL     1      62.063  32.843  13.477  1.00  0.00    -0.109 SA
HETATM   11  N5  UNL     1      61.933  31.310  13.535  1.00  0.00    -0.340 N 
HETATM   12  C6  UNL     1      62.184  33.602  15.074  1.00  0.00     0.112 C 
ATOM     13  H5  UNL     1      62.767  30.722  13.545  1.00  0.00     0.170 HD
BRANCH   6  14
HETATM   14  N2  UNL     1      59.355  30.285  11.502  1.00  0.00    -0.336 N 
ATOM     15  H2  UNL     1      58.696  30.637  10.808  1.00  0.00     0.168 HD
BRANCH  14  16
HETATM   16  C2  UNL     1      59.824  28.983  11.272  1.00  0.00     0.171 C 
HETATM   17  S1  UNL     1      59.268  27.659  12.034  1.00  0.00    -0.041 SA
BRANCH  16  18
HETATM   18  N1  UNL     1      60.841  28.736  10.288  1.00  0.00    -0.371 N 
HETATM   19  C1  UNL     1      62.137  29.332  10.385  1.00  0.00     0.148 C 
ATOM     20  H1  UNL     1      60.634  28.121   9.501  1.00  0.00     0.161 HD
ENDBRANCH  16  18
ENDBRANCH  14  16
ENDBRANCH   6  14
BRANCH  10  21
HETATM   21  N6  UNL     1      63.405  33.166  12.718  1.00  0.00    -0.376 N 
ATOM     22  H62 UNL     1      63.648  34.062  12.295  1.00  0.00     0.164 HD
ATOM     23  H61 UNL     1      63.969  32.317  12.733  1.00  0.00     0.164 HD
ENDBRANCH  10  21
ENDBRANCH   1   5
TORSDOF 5
ENDMDL
MODEL 2
REMARK VINA RESULT: -4.282408449      1.814      4.505
REMARK  5 active torsions:
REMARK  status: ('A' for Active; 'I' for Inactive)
REMARK    1  A    between atoms: N1_2  and  C2_4 
REMARK    2  A    between atoms: C2_4  and  N2_6 
REMARK    3  A    between atoms: N2_6  and  C3_8 
REMARK    4  A    between atoms: C4_9  and  N3_10 
REMARK    5  A    between atoms: S2_16  and  N6_18 
ROOT
HETATM    1  N3  UNL     1      59.219  30.177  13.775  1.00  0.00    -0.301 N 
ATOM      2  H3  UNL     1      58.532  29.423  13.808  1.00  0.00     0.174 HD
HETATM    3  C5  UNL     1      59.843  30.633  14.966  1.00  0.00     0.179 C 
HETATM    4  N4  UNL     1      60.357  31.008  15.931  1.00  0.00    -0.172 NA
ENDROOT
BRANCH   1   5
HETATM    5  C4  UNL     1      59.571  30.795  12.511  1.00  0.00     0.244 C 
HETATM    6  C3  UNL     1      60.985  31.235  12.544  1.00  0.00     0.037 C 
HETATM    7  C9  UNL     1      62.042  30.321  12.107  1.00  0.00     0.052 A 
HETATM    8  C7  UNL     1      61.728  29.017  11.555  1.00  0.00     0.075 A 
HETATM    9  C8  UNL     1      62.328  30.127  10.652  1.00  0.00     0.029 A 
HETATM   10  S2  UNL     1      60.051  28.667  11.192  1.00  0.00    -0.109 SA
HETATM   11  N5  UNL     1      59.197  29.917  11.468  1.00  0.00    -0.340 N 
HETATM   12  C6  UNL     1      59.510  27.231  12.080  1.00  0.00     0.112 C 
ATOM     13  H5  UNL     1      58.369  30.110  10.904  1.00  0.00     0.170 HD
BRANCH   6  14
HETATM   14  N2  UNL     1      61.242  32.594  12.161  1.00  0.00    -0.336 N 
ATOM     15  H2  UNL     1      62.219  32.883  12.217  1.00  0.00     0.168 HD
BRANCH  14  16
HETATM   16  C2  UNL     1      60.352  33.583  11.721  1.00  0.00     0.171 C 
HETATM   17  S1  UNL     1      59.595  34.639  12.699  1.00  0.00    -0.041 SA
BRANCH  16  18
HETATM   18  N1  UNL     1      60.072  33.743  10.320  1.00  0.00    -0.371 N 
HETATM   19  C1  UNL     1      59.288  34.836   9.834  1.00  0.00     0.148 C 
ATOM     20  H1  UNL     1      60.441  33.062   9.657  1.00  0.00     0.161 HD
ENDBRANCH  16  18
ENDBRANCH  14  16
ENDBRANCH   6  14
BRANCH  10  21
HETATM   21  N6  UNL     1      59.906  28.335   9.660  1.00  0.00    -0.376 N 
ATOM     22  H62 UNL     1      59.142  28.639   9.055  1.00  0.00     0.164 HD
ATOM     23  H61 UNL     1      60.712  27.768   9.398  1.00  0.00     0.164 HD
ENDBRANCH  10  21
ENDBRANCH   1   5
TORSDOF 5
ENDMDL
MODEL 3
REMARK VINA RESULT: -4.227278772      2.284      3.897
REMARK  5 active torsions:
REMARK  status: ('A' for Active; 'I' for Inactive)
REMARK    1  A    between atoms: N1_2  and  C2_4 
REMARK    2  A    between atoms: C2_4  and  N2_6 
REMARK    3  A    between atoms: N2_6  and  C3_8 
REMARK    4  A    between atoms: C4_9  and  N3_10 
REMARK    5  A    between atoms: S2_16  and  N6_18 
ROOT
HETATM    1  N3  UNL     1      60.518  29.859  11.042  1.00  0.00    -0.301 N 
ATOM      2  H3  UNL     1      61.437  30.293  10.948  1.00  0.00     0.174 HD
HETATM    3  C5  UNL     1      60.155  28.761  10.218  1.00  0.00     0.179 C 
HETATM    4  N4  UNL     1      59.853  27.864   9.553  1.00  0.00    -0.172 NA
ENDROOT
BRANCH   1   5
HETATM    5  C4  UNL     1      59.567  30.354  12.019  1.00  0.00     0.244 C 
HETATM    6  C3  UNL     1      60.059  30.070  13.388  1.00  0.00     0.037 C 
HETATM    7  C9  UNL     1      60.899  31.050  14.077  1.00  0.00     0.052 A 
HETATM    8  C7  UNL     1      61.191  32.342  13.482  1.00  0.00     0.075 A 
HETATM    9  C8  UNL     1      60.289  32.243  14.741  1.00  0.00     0.029 A 
HETATM   10  S2  UNL     1      60.309  32.792  12.039  1.00  0.00    -0.109 SA
HETATM   11  N5  UNL     1      59.274  31.702  11.710  1.00  0.00    -0.340 N 
HETATM   12  C6  UNL     1      61.429  33.128  10.706  1.00  0.00     0.112 C 
ATOM     13  H5  UNL     1      58.386  31.949  11.273  1.00  0.00     0.170 HD
BRANCH   6  14
HETATM   14  N2  UNL     1      59.140  29.414  14.275  1.00  0.00    -0.336 N 
ATOM     15  H2  UNL     1      58.518  30.036  14.791  1.00  0.00     0.168 HD
BRANCH  14  16
HETATM   16  C2  UNL     1      58.971  28.047  14.537  1.00  0.00     0.171 C 
HETATM   17  S1  UNL     1      58.415  27.443  15.941  1.00  0.00    -0.041 SA
BRANCH  16  18
HETATM   18  N1  UNL     1      59.263  27.068  13.526  1.00  0.00    -0.371 N 
HETATM   19  C1  UNL     1      59.415  25.683  13.848  1.00  0.00     0.148 C 
ATOM     20  H1  UNL     1      59.364  27.367  12.556  1.00  0.00     0.161 HD
ENDBRANCH  16  18
ENDBRANCH  14  16
ENDBRANCH   6  14
BRANCH  10  21
HETATM   21  N6  UNL     1      59.511  34.123  12.308  1.00  0.00    -0.376 N 
ATOM     22  H62 UNL     1      58.747  34.484  11.736  1.00  0.00     0.164 HD
ATOM     23  H61 UNL     1      59.903  34.543  13.150  1.00  0.00     0.164 HD
ENDBRANCH  10  21
ENDBRANCH   1   5
TORSDOF 5
ENDMDL
MODEL 4
REMARK VINA RESULT: -4.136917749      1.087      1.363
REMARK  5 active torsions:
REMARK  status: ('A' for Active; 'I' for Inactive)
REMARK    1  A    between atoms: N1_2  and  C2_4 
REMARK    2  A    between atoms: C2_4  and  N2_6 
REMARK    3  A    between atoms: N2_6  and  C3_8 
REMARK    4  A    between atoms: C4_9  and  N3_10 
REMARK    5  A    between atoms: S2_16  and  N6_18 
ROOT
HETATM    1  N3  UNL     1      59.996  30.890  14.968  1.00  0.00    -0.301 N 
ATOM      2  H3  UNL     1      59.889  31.804  15.408  1.00  0.00     0.174 HD
HETATM    3  C5  UNL     1      59.500  29.722  15.607  1.00  0.00     0.179 C 
HETATM    4  N4  UNL     1      59.096  28.768  16.119  1.00  0.00    -0.172 NA
ENDROOT
BRANCH   1   5
HETATM    5  C4  UNL     1      60.656  30.766  13.682  1.00  0.00     0.244 C 
HETATM    6  C3  UNL     1      59.722  31.150  12.599  1.00  0.00     0.037 C 
HETATM    7  C9  UNL     1      59.659  32.542  12.153  1.00  0.00     0.052 A 
HETATM    8  C7  UNL     1      60.560  33.546  12.688  1.00  0.00     0.075 A 
HETATM    9  C8  UNL     1      60.685  33.087  11.211  1.00  0.00     0.029 A 
HETATM   10  S2  UNL     1      61.885  32.998  13.692  1.00  0.00    -0.109 SA
HETATM   11  N5  UNL     1      61.885  31.460  13.746  1.00  0.00    -0.340 N 
HETATM   12  C6  UNL     1      61.809  33.760  15.291  1.00  0.00     0.112 C 
ATOM     13  H5  UNL     1      62.764  30.948  13.826  1.00  0.00     0.170 HD
BRANCH   6  14
HETATM   14  N2  UNL     1      59.580  30.220  11.515  1.00  0.00    -0.336 N 
ATOM     15  H2  UNL     1      58.783  30.387  10.901  1.00  0.00     0.168 HD
BRANCH  14  16
HETATM   16  C2  UNL     1      60.373  29.115  11.175  1.00  0.00     0.171 C 
HETATM   17  S1  UNL     1      61.913  29.214  10.659  1.00  0.00    -0.041 SA
BRANCH  16  18
HETATM   18  N1  UNL     1      59.858  27.779  11.298  1.00  0.00    -0.371 N 
HETATM   19  C1  UNL     1      59.453  27.247  12.561  1.00  0.00     0.148 C 
ATOM     20  H1  UNL     1      59.779  27.197  10.464  1.00  0.00     0.161 HD
ENDBRANCH  16  18
ENDBRANCH  14  16
ENDBRANCH   6  14
BRANCH  10  21
HETATM   21  N6  UNL     1      63.250  33.440  13.043  1.00  0.00    -0.376 N 
ATOM     22  H62 UNL     1      63.946  32.813  12.636  1.00  0.00     0.164 HD
ATOM     23  H61 UNL     1      63.299  34.456  13.110  1.00  0.00     0.164 HD
ENDBRANCH  10  21
ENDBRANCH   1   5
TORSDOF 5
ENDMDL
MODEL 5
REMARK VINA RESULT: -4.129122772      2.345      3.643
REMARK  5 active torsions:
REMARK  status: ('A' for Active; 'I' for Inactive)
REMARK    1  A    between atoms: N1_2  and  C2_4 
REMARK    2  A    between atoms: C2_4  and  N2_6 
REMARK    3  A    between atoms: N2_6  and  C3_8 
REMARK    4  A    between atoms: C4_9  and  N3_10 
REMARK    5  A    between atoms: S2_16  and  N6_18 
ROOT
HETATM    1  N3  UNL     1      60.955  31.156  11.212  1.00  0.00    -0.301 N 
ATOM      2  H3  UNL     1      61.181  31.937  10.596  1.00  0.00     0.174 HD
HETATM    3  C5  UNL     1      61.738  29.972  11.186  1.00  0.00     0.179 C 
HETATM    4  N4  UNL     1      62.373  29.005  11.174  1.00  0.00    -0.172 NA
ENDROOT
BRANCH   1   5
HETATM    5  C4  UNL     1      59.831  31.240  12.124  1.00  0.00     0.244 C 
HETATM    6  C3  UNL     1      60.048  30.333  13.274  1.00  0.00     0.037 C 
HETATM    7  C9  UNL     1      60.735  30.824  14.469  1.00  0.00     0.052 A 
HETATM    8  C7  UNL     1      61.132  32.215  14.591  1.00  0.00     0.075 A 
HETATM    9  C8  UNL     1      60.004  31.640  15.487  1.00  0.00     0.029 A 
HETATM   10  S2  UNL     1      60.547  33.338  13.383  1.00  0.00    -0.109 SA
HETATM   11  N5  UNL     1      59.599  32.604  12.418  1.00  0.00    -0.340 N 
HETATM   12  C6  UNL     1      61.903  34.138  12.568  1.00  0.00     0.112 C 
ATOM     13  H5  UNL     1      58.812  33.096  11.994  1.00  0.00     0.170 HD
BRANCH   6  14
HETATM   14  N2  UNL     1      58.977  29.430  13.589  1.00  0.00    -0.336 N 
ATOM     15  H2  UNL     1      58.041  29.783  13.391  1.00  0.00     0.168 HD
BRANCH  14  16
HETATM   16  C2  UNL     1      59.026  28.137  14.129  1.00  0.00     0.171 C 
HETATM   17  S1  UNL     1      58.661  27.771  15.670  1.00  0.00    -0.041 SA
BRANCH  16  18
HETATM   18  N1  UNL     1      59.387  27.016  13.306  1.00  0.00    -0.371 N 
HETATM   19  C1  UNL     1      59.390  25.681  13.819  1.00  0.00     0.148 C 
ATOM     20  H1  UNL     1      59.648  27.175  12.333  1.00  0.00     0.161 HD
ENDBRANCH  16  18
ENDBRANCH  14  16
ENDBRANCH   6  14
BRANCH  10  21
HETATM   21  N6  UNL     1      59.707  34.470  14.085  1.00  0.00    -0.376 N 
ATOM     22  H62 UNL     1      59.511  35.394  13.697  1.00  0.00     0.164 HD
ATOM     23  H61 UNL     1      59.404  34.103  14.987  1.00  0.00     0.164 HD
ENDBRANCH  10  21
ENDBRANCH   1   5
TORSDOF 5
ENDMDL
