MODEL 1
REMARK VINA RESULT: -6.812758718      0.000      0.000
REMARK  10 active torsions:
REMARK  status: ('A' for Active; 'I' for Inactive)
REMARK    1  A    between atoms: O1_2  and  C2_3 
REMARK    2  A    between atoms: C2_3  and  C3_4 
REMARK    3  A    between atoms: C3_4  and  N1_5 
REMARK       I    between atoms: N1_5  and  C4_7 
REMARK    4  A    between atoms: C4_7  and  C5_9 
REMARK    5  A    between atoms: C6_10  and  C7_11 
REMARK    6  A    between atoms: C7_11  and  O4_13 
REMARK    7  A    between atoms: C17_25  and  C18_26 
REMARK    8  A    between atoms: C18_26  and  O6_28 
REMARK    9  A    between atoms: C20_30  and  C21_31 
REMARK   10  A    between atoms: C21_31  and  O8_33 
ROOT
HETATM    1  C5  UNL     1      59.992  51.867 140.127  1.00  0.00     0.037 C 
HETATM    2  C6  UNL     1      60.043  52.351 138.907  1.00  0.00     0.036 C 
HETATM    3  C9  UNL     1      60.771  51.436 137.978  1.00  0.00     0.056 C 
HETATM    4  C10 UNL     1      61.161  50.310 138.858  1.00  0.00     0.076 C 
HETATM    5  S1  UNL     1      60.707  48.852 137.875  1.00  0.00    -0.149 SA
HETATM    6  C11 UNL     1      60.859  49.767 136.276  1.00  0.00     0.047 C 
HETATM    7  C12 UNL     1      62.270  50.058 135.925  1.00  0.00     0.051 C 
HETATM    8  C13 UNL     1      62.222  50.101 134.399  1.00  0.00     0.238 C 
HETATM    9  N2  UNL     1      61.285  49.064 134.084  1.00  0.00    -0.073 N 
HETATM   10  C14 UNL     1      61.968  47.811 133.998  1.00  0.00     0.272 C 
HETATM   11  C15 UNL     1      60.692  49.379 132.793  1.00  0.00     0.272 C 
HETATM   12  C16 UNL     1      60.275  49.079 135.144  1.00  0.00     0.257 C 
HETATM   13  C17 UNL     1      60.100  51.022 136.751  1.00  0.00     0.115 C 
HETATM   14  C20 UNL     1      60.563  50.472 140.169  1.00  0.00     0.139 C 
ENDROOT
BRANCH   1  15
HETATM   15  C4  UNL     1      59.443  52.455 141.366  1.00  0.00     0.249 C 
HETATM   16  N1  UNL     1      59.557  53.853 141.644  1.00  0.00    -0.355 N 
ATOM     17  H1  UNL     1      60.019  54.468 140.974  1.00  0.00     0.162 HD
HETATM   18  O2  UNL     1      58.854  51.807 142.256  1.00  0.00    -0.268 OA
BRANCH  16  19
HETATM   19  C3  UNL     1      59.028  54.391 142.856  1.00  0.00     0.149 C 
BRANCH  19  20
HETATM   20  C2  UNL     1      58.359  55.716 142.759  1.00  0.00     0.186 C 
BRANCH  20  21
HETATM   21  O1  UNL     1      58.521  56.311 141.504  1.00  0.00    -0.394 OA
HETATM   22  C1  UNL     1      57.270  56.869 141.181  1.00  0.00     0.201 C 
ENDBRANCH  20  21
ENDBRANCH  19  20
ENDBRANCH  16  19
ENDBRANCH   1  15
BRANCH   2  23
HETATM   23  C7  UNL     1      59.552  53.635 138.429  1.00  0.00     0.290 C 
HETATM   24  O3  UNL     1      60.126  54.436 137.662  1.00  0.00    -0.260 OA
BRANCH  23  25
HETATM   25  O4  UNL     1      58.280  54.105 138.835  1.00  0.00    -0.323 OA
HETATM   26  C8  UNL     1      57.354  54.663 137.912  1.00  0.00     0.213 C 
ENDBRANCH  23  25
ENDBRANCH   2  23
BRANCH  14  27
HETATM   27  C21 UNL     1      59.520  49.500 140.535  1.00  0.00     0.268 C 
HETATM   28  O7  UNL     1      58.367  49.642 140.057  1.00  0.00    -0.264 OA
BRANCH  27  29
HETATM   29  O8  UNL     1      59.726  48.435 141.373  1.00  0.00    -0.326 OA
HETATM   30  C22 UNL     1      60.815  48.395 142.277  1.00  0.00     0.213 C 
ENDBRANCH  27  29
ENDBRANCH  14  27
BRANCH  13  31
HETATM   31  C18 UNL     1      58.686  50.677 136.794  1.00  0.00     0.265 C 
HETATM   32  O5  UNL     1      57.747  51.501 136.492  1.00  0.00    -0.265 OA
BRANCH  31  33
HETATM   33  O6  UNL     1      58.167  49.424 137.162  1.00  0.00    -0.326 OA
HETATM   34  C19 UNL     1      56.922  48.937 136.756  1.00  0.00     0.213 C 
ENDBRANCH  31  33
ENDBRANCH  13  31
TORSDOF 10
ENDMDL
MODEL 2
REMARK VINA RESULT: -6.602491505      0.974      1.013
REMARK  10 active torsions:
REMARK  status: ('A' for Active; 'I' for Inactive)
REMARK    1  A    between atoms: O1_2  and  C2_3 
REMARK    2  A    between atoms: C2_3  and  C3_4 
REMARK    3  A    between atoms: C3_4  and  N1_5 
REMARK       I    between atoms: N1_5  and  C4_7 
REMARK    4  A    between atoms: C4_7  and  C5_9 
REMARK    5  A    between atoms: C6_10  and  C7_11 
REMARK    6  A    between atoms: C7_11  and  O4_13 
REMARK    7  A    between atoms: C17_25  and  C18_26 
REMARK    8  A    between atoms: C18_26  and  O6_28 
REMARK    9  A    between atoms: C20_30  and  C21_31 
REMARK   10  A    between atoms: C21_31  and  O8_33 
ROOT
HETATM    1  C5  UNL     1      59.706  52.680 139.884  1.00  0.00     0.037 C 
HETATM    2  C6  UNL     1      59.457  52.946 138.623  1.00  0.00     0.036 C 
HETATM    3  C9  UNL     1      60.362  52.188 137.707  1.00  0.00     0.056 C 
HETATM    4  C10 UNL     1      61.212  51.417 138.644  1.00  0.00     0.076 C 
HETATM    5  S1  UNL     1      61.203  49.751 137.921  1.00  0.00    -0.149 SA
HETATM    6  C11 UNL     1      60.857  50.389 136.221  1.00  0.00     0.047 C 
HETATM    7  C12 UNL     1      62.030  51.073 135.626  1.00  0.00     0.051 C 
HETATM    8  C13 UNL     1      61.813  50.847 134.131  1.00  0.00     0.238 C 
HETATM    9  N2  UNL     1      61.275  49.520 134.088  1.00  0.00    -0.073 N 
HETATM   10  C14 UNL     1      62.343  48.571 134.046  1.00  0.00     0.272 C 
HETATM   11  C15 UNL     1      60.479  49.403 132.875  1.00  0.00     0.272 C 
HETATM   12  C16 UNL     1      60.439  49.370 135.282  1.00  0.00     0.257 C 
HETATM   13  C17 UNL     1      59.757  51.378 136.655  1.00  0.00     0.115 C 
HETATM   14  C20 UNL     1      60.734  51.582 140.002  1.00  0.00     0.139 C 
ENDROOT
BRANCH   1  15
HETATM   15  C4  UNL     1      59.116  53.245 141.115  1.00  0.00     0.249 C 
HETATM   16  N1  UNL     1      59.188  54.644 141.404  1.00  0.00    -0.355 N 
ATOM     17  H1  UNL     1      59.647  55.275 140.747  1.00  0.00     0.162 HD
HETATM   18  O2  UNL     1      58.525  52.577 141.988  1.00  0.00    -0.268 OA
BRANCH  16  19
HETATM   19  C3  UNL     1      58.619  55.160 142.607  1.00  0.00     0.149 C 
BRANCH  19  20
HETATM   20  C2  UNL     1      57.579  56.212 142.453  1.00  0.00     0.186 C 
BRANCH  20  21
HETATM   21  O1  UNL     1      57.846  57.084 141.393  1.00  0.00    -0.394 OA
HETATM   22  C1  UNL     1      56.761  57.978 141.350  1.00  0.00     0.201 C 
ENDBRANCH  20  21
ENDBRANCH  19  20
ENDBRANCH  16  19
ENDBRANCH   1  15
BRANCH   2  23
HETATM   23  C7  UNL     1      58.499  53.896 138.078  1.00  0.00     0.290 C 
HETATM   24  O3  UNL     1      58.163  54.044 136.884  1.00  0.00    -0.260 OA
BRANCH  23  25
HETATM   25  O4  UNL     1      57.822  54.795 138.937  1.00  0.00    -0.323 OA
HETATM   26  C8  UNL     1      56.634  55.465 138.541  1.00  0.00     0.213 C 
ENDBRANCH  23  25
ENDBRANCH   2  23
BRANCH  14  27
HETATM   27  C21 UNL     1      60.144  50.392 140.636  1.00  0.00     0.268 C 
HETATM   28  O7  UNL     1      58.945  50.107 140.390  1.00  0.00    -0.264 OA
BRANCH  27  29
HETATM   29  O8  UNL     1      60.824  49.561 141.488  1.00  0.00    -0.326 OA
HETATM   30  C22 UNL     1      60.937  49.840 142.873  1.00  0.00     0.213 C 
ENDBRANCH  27  29
ENDBRANCH  14  27
BRANCH  13  31
HETATM   31  C18 UNL     1      58.568  50.593 136.955  1.00  0.00     0.265 C 
HETATM   32  O5  UNL     1      57.393  50.899 136.533  1.00  0.00    -0.265 OA
BRANCH  31  33
HETATM   33  O6  UNL     1      58.544  49.420 137.728  1.00  0.00    -0.326 OA
HETATM   34  C19 UNL     1      57.575  48.420 137.612  1.00  0.00     0.213 C 
ENDBRANCH  31  33
ENDBRANCH  13  31
TORSDOF 10
ENDMDL
MODEL 3
REMARK VINA RESULT: -5.980143385      7.497     11.360
REMARK  10 active torsions:
REMARK  status: ('A' for Active; 'I' for Inactive)
REMARK    1  A    between atoms: O1_2  and  C2_3 
REMARK    2  A    between atoms: C2_3  and  C3_4 
REMARK    3  A    between atoms: C3_4  and  N1_5 
REMARK       I    between atoms: N1_5  and  C4_7 
REMARK    4  A    between atoms: C4_7  and  C5_9 
REMARK    5  A    between atoms: C6_10  and  C7_11 
REMARK    6  A    between atoms: C7_11  and  O4_13 
REMARK    7  A    between atoms: C17_25  and  C18_26 
REMARK    8  A    between atoms: C18_26  and  O6_28 
REMARK    9  A    between atoms: C20_30  and  C21_31 
REMARK   10  A    between atoms: C21_31  and  O8_33 
ROOT
HETATM    1  C5  UNL     1      63.368  53.290 128.478  1.00  0.00     0.037 C 
HETATM    2  C6  UNL     1      63.433  53.568 129.760  1.00  0.00     0.036 C 
HETATM    3  C9  UNL     1      62.773  52.516 130.590  1.00  0.00     0.056 C 
HETATM    4  C10 UNL     1      62.286  51.551 129.577  1.00  0.00     0.076 C 
HETATM    5  S1  UNL     1      62.798  49.949 130.266  1.00  0.00    -0.149 SA
HETATM    6  C11 UNL     1      62.804  50.591 131.999  1.00  0.00     0.047 C 
HETATM    7  C12 UNL     1      61.435  50.827 132.518  1.00  0.00     0.051 C 
HETATM    8  C13 UNL     1      61.618  50.620 134.020  1.00  0.00     0.238 C 
HETATM    9  N2  UNL     1      62.560  49.541 134.077  1.00  0.00    -0.073 N 
HETATM   10  C14 UNL     1      61.864  48.294 134.020  1.00  0.00     0.272 C 
HETATM   11  C15 UNL     1      63.270  49.640 135.344  1.00  0.00     0.272 C 
HETATM   12  C16 UNL     1      63.473  49.726 132.946  1.00  0.00     0.257 C 
HETATM   13  C17 UNL     1      63.542  51.904 131.668  1.00  0.00     0.115 C 
HETATM   14  C20 UNL     1      62.769  51.922 128.262  1.00  0.00     0.139 C 
ENDROOT
BRANCH   1  15
HETATM   15  C4  UNL     1      63.816  54.070 127.307  1.00  0.00     0.249 C 
HETATM   16  N1  UNL     1      63.871  55.498 127.337  1.00  0.00    -0.355 N 
ATOM     17  H1  UNL     1      63.604  55.998 128.185  1.00  0.00     0.162 HD
HETATM   18  O2  UNL     1      64.171  53.571 126.219  1.00  0.00    -0.268 OA
BRANCH  16  19
HETATM   19  C3  UNL     1      64.296  56.227 126.185  1.00  0.00     0.149 C 
BRANCH  19  20
HETATM   20  C2  UNL     1      65.508  57.074 126.345  1.00  0.00     0.186 C 
BRANCH  20  21
HETATM   21  O1  UNL     1      65.977  57.103 127.662  1.00  0.00    -0.394 OA
HETATM   22  C1  UNL     1      67.174  57.841 127.626  1.00  0.00     0.201 C 
ENDBRANCH  20  21
ENDBRANCH  19  20
ENDBRANCH  16  19
ENDBRANCH   1  15
BRANCH   2  23
HETATM   23  C7  UNL     1      63.987  54.754 130.394  1.00  0.00     0.290 C 
HETATM   24  O3  UNL     1      64.959  54.821 131.176  1.00  0.00    -0.260 OA
BRANCH  23  25
HETATM   25  O4  UNL     1      63.416  56.026 130.145  1.00  0.00    -0.323 OA
HETATM   26  C8  UNL     1      64.066  57.231 130.523  1.00  0.00     0.213 C 
ENDBRANCH  23  25
ENDBRANCH   2  23
BRANCH  14  27
HETATM   27  C21 UNL     1      63.757  51.019 127.650  1.00  0.00     0.268 C 
HETATM   28  O7  UNL     1      64.963  51.124 127.990  1.00  0.00    -0.264 OA
BRANCH  27  29
HETATM   29  O8  UNL     1      63.447  50.058 126.724  1.00  0.00    -0.326 OA
HETATM   30  C22 UNL     1      63.429  50.337 125.335  1.00  0.00     0.213 C 
ENDBRANCH  27  29
ENDBRANCH  14  27
BRANCH  13  31
HETATM   31  C18 UNL     1      64.940  51.566 131.442  1.00  0.00     0.265 C 
HETATM   32  O5  UNL     1      65.919  52.277 131.876  1.00  0.00    -0.265 OA
BRANCH  31  33
HETATM   33  O6  UNL     1      65.398  50.440 130.737  1.00  0.00    -0.326 OA
HETATM   34  C19 UNL     1      66.647  49.844 130.932  1.00  0.00     0.213 C 
ENDBRANCH  31  33
ENDBRANCH  13  31
TORSDOF 10
ENDMDL
MODEL 4
REMARK VINA RESULT: -5.709778337      8.578     12.484
REMARK  10 active torsions:
REMARK  status: ('A' for Active; 'I' for Inactive)
REMARK    1  A    between atoms: O1_2  and  C2_3 
REMARK    2  A    between atoms: C2_3  and  C3_4 
REMARK    3  A    between atoms: C3_4  and  N1_5 
REMARK       I    between atoms: N1_5  and  C4_7 
REMARK    4  A    between atoms: C4_7  and  C5_9 
REMARK    5  A    between atoms: C6_10  and  C7_11 
REMARK    6  A    between atoms: C7_11  and  O4_13 
REMARK    7  A    between atoms: C17_25  and  C18_26 
REMARK    8  A    between atoms: C18_26  and  O6_28 
REMARK    9  A    between atoms: C20_30  and  C21_31 
REMARK   10  A    between atoms: C21_31  and  O8_33 
ROOT
HETATM    1  C5  UNL     1      63.448  51.263 127.700  1.00  0.00     0.037 C 
HETATM    2  C6  UNL     1      63.955  50.062 127.859  1.00  0.00     0.036 C 
HETATM    3  C9  UNL     1      65.252  50.101 128.599  1.00  0.00     0.056 C 
HETATM    4  C10 UNL     1      65.445  51.547 128.855  1.00  0.00     0.076 C 
HETATM    5  S1  UNL     1      65.922  51.588 130.607  1.00  0.00    -0.149 SA
HETATM    6  C11 UNL     1      66.584  49.863 130.563  1.00  0.00     0.047 C 
HETATM    7  C12 UNL     1      67.857  49.767 129.808  1.00  0.00     0.051 C 
HETATM    8  C13 UNL     1      68.544  48.580 130.481  1.00  0.00     0.238 C 
HETATM    9  N2  UNL     1      68.184  48.748 131.858  1.00  0.00    -0.073 N 
HETATM   10  C14 UNL     1      69.123  49.616 132.496  1.00  0.00     0.272 C 
HETATM   11  C15 UNL     1      68.231  47.438 132.491  1.00  0.00     0.272 C 
HETATM   12  C16 UNL     1      66.823  49.289 131.870  1.00  0.00     0.257 C 
HETATM   13  C17 UNL     1      65.393  49.267 129.787  1.00  0.00     0.115 C 
HETATM   14  C20 UNL     1      64.269  52.288 128.443  1.00  0.00     0.139 C 
ENDROOT
BRANCH   1  15
HETATM   15  C4  UNL     1      62.236  51.702 126.978  1.00  0.00     0.249 C 
HETATM   16  N1  UNL     1      61.909  51.185 125.685  1.00  0.00    -0.355 N 
ATOM     17  H1  UNL     1      62.516  50.491 125.248  1.00  0.00     0.162 HD
HETATM   18  O2  UNL     1      61.418  52.538 127.412  1.00  0.00    -0.268 OA
BRANCH  16  19
HETATM   19  C3  UNL     1      60.738  51.637 125.005  1.00  0.00     0.149 C 
BRANCH  19  20
HETATM   20  C2  UNL     1      60.235  50.773 123.903  1.00  0.00     0.186 C 
BRANCH  20  21
HETATM   21  O1  UNL     1      60.304  51.398 122.654  1.00  0.00    -0.394 OA
HETATM   22  C1  UNL     1      59.362  52.442 122.695  1.00  0.00     0.201 C 
ENDBRANCH  20  21
ENDBRANCH  19  20
ENDBRANCH  16  19
ENDBRANCH   1  15
BRANCH   2  23
HETATM   23  C7  UNL     1      63.442  48.797 127.354  1.00  0.00     0.290 C 
HETATM   24  O3  UNL     1      62.249  48.473 127.172  1.00  0.00    -0.260 OA
BRANCH  23  25
HETATM   25  O4  UNL     1      64.335  47.757 127.002  1.00  0.00    -0.323 OA
HETATM   26  C8  UNL     1      64.642  46.694 127.894  1.00  0.00     0.213 C 
ENDBRANCH  23  25
ENDBRANCH   2  23
BRANCH  14  27
HETATM   27  C21 UNL     1      63.473  52.902 129.519  1.00  0.00     0.268 C 
HETATM   28  O7  UNL     1      62.688  52.176 130.180  1.00  0.00    -0.264 OA
BRANCH  27  29
HETATM   29  O8  UNL     1      63.534  54.229 129.854  1.00  0.00    -0.326 OA
HETATM   30  C22 UNL     1      63.822  55.230 128.893  1.00  0.00     0.213 C 
ENDBRANCH  27  29
ENDBRANCH  14  27
BRANCH  13  31
HETATM   31  C18 UNL     1      64.281  49.163 130.721  1.00  0.00     0.265 C 
HETATM   32  O5  UNL     1      63.141  48.655 130.412  1.00  0.00    -0.265 OA
BRANCH  31  33
HETATM   33  O6  UNL     1      64.302  49.593 132.059  1.00  0.00    -0.326 OA
HETATM   34  C19 UNL     1      63.161  49.891 132.808  1.00  0.00     0.213 C 
ENDBRANCH  31  33
ENDBRANCH  13  31
TORSDOF 10
ENDMDL
MODEL 5
REMARK VINA RESULT: -5.696411930      8.742     12.243
REMARK  10 active torsions:
REMARK  status: ('A' for Active; 'I' for Inactive)
REMARK    1  A    between atoms: O1_2  and  C2_3 
REMARK    2  A    between atoms: C2_3  and  C3_4 
REMARK    3  A    between atoms: C3_4  and  N1_5 
REMARK       I    between atoms: N1_5  and  C4_7 
REMARK    4  A    between atoms: C4_7  and  C5_9 
REMARK    5  A    between atoms: C6_10  and  C7_11 
REMARK    6  A    between atoms: C7_11  and  O4_13 
REMARK    7  A    between atoms: C17_25  and  C18_26 
REMARK    8  A    between atoms: C18_26  and  O6_28 
REMARK    9  A    between atoms: C20_30  and  C21_31 
REMARK   10  A    between atoms: C21_31  and  O8_33 
ROOT
HETATM    1  C5  UNL     1      63.812  51.755 127.831  1.00  0.00     0.037 C 
HETATM    2  C6  UNL     1      64.380  50.571 127.800  1.00  0.00     0.036 C 
HETATM    3  C9  UNL     1      65.572  50.505 128.697  1.00  0.00     0.056 C 
HETATM    4  C10 UNL     1      65.631  51.868 129.273  1.00  0.00     0.076 C 
HETATM    5  S1  UNL     1      65.890  51.549 131.043  1.00  0.00    -0.149 SA
HETATM    6  C11 UNL     1      66.673  49.904 130.727  1.00  0.00     0.047 C 
HETATM    7  C12 UNL     1      68.031  50.029 130.144  1.00  0.00     0.051 C 
HETATM    8  C13 UNL     1      68.714  48.756 130.638  1.00  0.00     0.238 C 
HETATM    9  N2  UNL     1      68.181  48.606 131.959  1.00  0.00    -0.073 N 
HETATM   10  C14 UNL     1      68.972  49.355 132.884  1.00  0.00     0.272 C 
HETATM   11  C15 UNL     1      68.243  47.193 132.305  1.00  0.00     0.272 C 
HETATM   12  C16 UNL     1      66.793  49.072 131.904  1.00  0.00     0.257 C 
HETATM   13  C17 UNL     1      65.628  49.440 129.692  1.00  0.00     0.115 C 
HETATM   14  C20 UNL     1      64.464  52.629 128.874  1.00  0.00     0.139 C 
ENDROOT
BRANCH   1  15
HETATM   15  C4  UNL     1      62.668  52.287 127.062  1.00  0.00     0.249 C 
HETATM   16  N1  UNL     1      61.376  51.679 127.129  1.00  0.00    -0.355 N 
ATOM     17  H1  UNL     1      61.229  50.865 127.725  1.00  0.00     0.162 HD
HETATM   18  O2  UNL     1      62.724  53.279 126.306  1.00  0.00    -0.268 OA
BRANCH  16  19
HETATM   19  C3  UNL     1      60.292  52.208 126.365  1.00  0.00     0.149 C 
BRANCH  19  20
HETATM   20  C2  UNL     1      60.023  51.557 125.054  1.00  0.00     0.186 C 
BRANCH  20  21
HETATM   21  O1  UNL     1      60.022  52.465 123.991  1.00  0.00    -0.394 OA
HETATM   22  C1  UNL     1      59.459  51.777 122.901  1.00  0.00     0.201 C 
ENDBRANCH  20  21
ENDBRANCH  19  20
ENDBRANCH  16  19
ENDBRANCH   1  15
BRANCH   2  23
HETATM   23  C7  UNL     1      64.021  49.425 126.978  1.00  0.00     0.290 C 
HETATM   24  O3  UNL     1      64.684  48.384 126.787  1.00  0.00    -0.260 OA
BRANCH  23  25
HETATM   25  O4  UNL     1      62.790  49.409 126.280  1.00  0.00    -0.323 OA
HETATM   26  C8  UNL     1      62.722  49.186 124.878  1.00  0.00     0.213 C 
ENDBRANCH  23  25
ENDBRANCH   2  23
BRANCH  14  27
HETATM   27  C21 UNL     1      63.504  52.961 129.939  1.00  0.00     0.268 C 
HETATM   28  O7  UNL     1      62.629  52.113 130.250  1.00  0.00    -0.264 OA
BRANCH  27  29
HETATM   29  O8  UNL     1      63.500  54.147 130.625  1.00  0.00    -0.326 OA
HETATM   30  C22 UNL     1      64.124  55.310 130.110  1.00  0.00     0.213 C 
ENDBRANCH  27  29
ENDBRANCH  14  27
BRANCH  13  31
HETATM   31  C18 UNL     1      64.422  49.088 130.428  1.00  0.00     0.265 C 
HETATM   32  O5  UNL     1      63.470  48.381 129.931  1.00  0.00    -0.265 OA
BRANCH  31  33
HETATM   33  O6  UNL     1      64.142  49.464 131.753  1.00  0.00    -0.326 OA
HETATM   34  C19 UNL     1      62.873  49.408 132.335  1.00  0.00     0.213 C 
ENDBRANCH  31  33
ENDBRANCH  13  31
TORSDOF 10
ENDMDL
