MODEL 1
REMARK VINA RESULT: -6.860150957      0.000      0.000
REMARK  19 active torsions:
REMARK  status: ('A' for Active; 'I' for Inactive)
REMARK       I    between atoms: N2_3  and  C2_4 
REMARK       I    between atoms: C2_4  and  N3_5 
REMARK       I    between atoms: C2_4  and  N8_24 
REMARK    1  A    between atoms: N3_5  and  C3_7 
REMARK    2  A    between atoms: C3_7  and  C4_8 
REMARK    3  A    between atoms: C4_8  and  C5_9 
REMARK    4  A    between atoms: C5_9  and  N4_10 
REMARK       I    between atoms: N4_10  and  C6_12 
REMARK    5  A    between atoms: C6_12  and  C7_14 
REMARK    6  A    between atoms: C8_16  and  N5_17 
REMARK    7  A    between atoms: N8_24  and  C10_26 
REMARK    8  A    between atoms: C10_26  and  C11_27 
REMARK    9  A    between atoms: C13_30  and  N9_31 
REMARK   10  A    between atoms: N9_31  and  C14_33 
REMARK   11  A    between atoms: C14_33  and  C15_34 
REMARK   12  A    between atoms: C15_34  and  C16_35 
REMARK   13  A    between atoms: C16_35  and  N10_36 
REMARK   14  A    between atoms: N10_36  and  C17_38 
REMARK   15  A    between atoms: C18_41  and  N12_42 
REMARK   16  A    between atoms: C20_50  and  N15_51 
REMARK   17  A    between atoms: N15_51  and  C21_53 
REMARK   18  A    between atoms: C21_53  and  C22_54 
REMARK   19  A    between atoms: C22_54  and  O2_55 
ROOT
HETATM    1  N1  UNL     1     -26.597  18.688 -23.408  1.00  0.00    -0.156 NA
HETATM    2  C1  UNL     1     -27.205  19.297 -22.653  1.00  0.00     0.271 C 
HETATM    3  N2  UNL     1     -27.864  19.950 -21.809  1.00  0.00    -0.294 NA
HETATM    4  C2  UNL     1     -28.486  20.572 -21.030  1.00  0.00     0.263 C 
HETATM    5  N3  UNL     1     -28.497  20.241 -19.612  1.00  0.00    -0.350 N 
ATOM      6  H3  UNL     1     -29.179  20.668 -18.986  1.00  0.00     0.163 HD
HETATM    7  N8  UNL     1     -29.286  21.719 -21.426  1.00  0.00    -0.344 N 
ATOM      8  H8  UNL     1     -29.011  22.654 -21.126  1.00  0.00     0.164 HD
ENDROOT
BRANCH   5   9
HETATM    9  C3  UNL     1     -27.544  19.315 -19.114  1.00  0.00     0.125 C 
BRANCH   9  10
HETATM   10  C4  UNL     1     -27.673  18.928 -17.679  1.00  0.00     0.039 C 
BRANCH  10  11
HETATM   11  C5  UNL     1     -28.465  17.713 -17.367  1.00  0.00     0.124 C 
BRANCH  11  12
HETATM   12  N4  UNL     1     -28.898  17.483 -16.044  1.00  0.00    -0.356 N 
HETATM   13  C6  UNL     1     -30.124  16.899 -15.707  1.00  0.00     0.262 C 
HETATM   14  O1  UNL     1     -30.920  16.542 -16.602  1.00  0.00    -0.267 OA
ATOM     15  H4  UNL     1     -28.277  17.760 -15.284  1.00  0.00     0.162 HD
BRANCH  13  16
HETATM   16  C7  UNL     1     -30.537  16.678 -14.307  1.00  0.00     0.117 A 
HETATM   17  S1  UNL     1     -30.839  15.211 -13.480  1.00  0.00    -0.045 SA
HETATM   18  C8  UNL     1     -31.255  15.866 -11.964  1.00  0.00     0.144 A 
HETATM   19  N6  UNL     1     -31.143  17.181 -12.162  1.00  0.00    -0.324 N 
HETATM   20  C9  UNL     1     -30.782  17.607 -13.338  1.00  0.00     0.141 A 
ATOM     21  H6  UNL     1     -31.336  17.839 -11.406  1.00  0.00     0.169 HD
HETATM   22  N7  UNL     1     -30.635  19.029 -13.639  1.00  0.00    -0.081 NA
BRANCH  18  23
HETATM   23  N5  UNL     1     -31.606  15.252 -10.853  1.00  0.00    -0.380 N 
ATOM     24  H52 UNL     1     -31.533  14.256 -10.647  1.00  0.00     0.158 HD
ATOM     25  H51 UNL     1     -32.008  15.636  -9.998  1.00  0.00     0.158 HD
ENDBRANCH  18  23
ENDBRANCH  13  16
ENDBRANCH  11  12
ENDBRANCH  10  11
ENDBRANCH   9  10
ENDBRANCH   5   9
BRANCH   7  26
HETATM   26  C10 UNL     1     -30.442  21.553 -22.224  1.00  0.00     0.181 C 
BRANCH  26  27
HETATM   27  C11 UNL     1     -31.726  22.014 -21.545  1.00  0.00     0.035 A 
HETATM   28  C12 UNL     1     -32.706  22.631 -22.296  1.00  0.00     0.080 A 
HETATM   29  S2  UNL     1     -33.891  22.975 -21.132  1.00  0.00    -0.064 SA
HETATM   30  C13 UNL     1     -33.101  22.331 -19.766  1.00  0.00     0.144 A 
HETATM   31  N17 UNL     1     -31.953  21.876 -20.268  1.00  0.00    -0.338 N 
ATOM     32  H17 UNL     1     -31.264  21.427 -19.664  1.00  0.00     0.168 HD
BRANCH  30  33
HETATM   33  N9  UNL     1     -33.539  22.304 -18.534  1.00  0.00    -0.370 N 
ATOM     34  H9  UNL     1     -33.909  23.161 -18.123  1.00  0.00     0.161 HD
BRANCH  33  35
HETATM   35  C14 UNL     1     -33.517  21.116 -17.745  1.00  0.00     0.123 C 
BRANCH  35  36
HETATM   36  C15 UNL     1     -34.248  21.295 -16.426  1.00  0.00     0.039 C 
BRANCH  36  37
HETATM   37  C16 UNL     1     -35.629  20.673 -16.487  1.00  0.00     0.123 C 
BRANCH  37  38
HETATM   38  N10 UNL     1     -35.642  19.333 -15.969  1.00  0.00    -0.375 N 
ATOM     39  H10 UNL     1     -35.209  19.186 -15.057  1.00  0.00     0.161 HD
BRANCH  38  40
HETATM   40  C17 UNL     1     -36.142  18.313 -16.542  1.00  0.00     0.136 A 
HETATM   41  N11 UNL     1     -37.286  18.394 -17.248  1.00  0.00    -0.176 N 
HETATM   42  C18 UNL     1     -37.755  17.267 -17.820  1.00  0.00     0.679 A 
ATOM     43  H11 UNL     1     -37.782  19.280 -17.346  1.00  0.00     0.186 HD
HETATM   44  N13 UNL     1     -37.117  16.088 -17.705  1.00  0.00    -0.175 N 
HETATM   45  C19 UNL     1     -35.976  15.969 -17.010  1.00  0.00     0.156 A 
ATOM     46  H13 UNL     1     -37.511  15.263 -18.157  1.00  0.00     0.186 HD
HETATM   47  N14 UNL     1     -35.348  14.789 -16.900  1.00  0.00    -0.175 N 
HETATM   48  C24 UNL     1     -35.456  17.092 -16.405  1.00  0.00     0.122 A 
HETATM   49  C20 UNL     1     -34.187  14.702 -16.184  1.00  0.00     0.682 A 
ATOM     50  H14 UNL     1     -35.736  13.960 -17.348  1.00  0.00     0.186 HD
HETATM   51  N16 UNL     1     -33.668  15.792 -15.589  1.00  0.00    -0.155 N 
HETATM   52  C23 UNL     1     -34.280  17.006 -15.681  1.00  0.00     0.277 A 
ATOM     53  H16 UNL     1     -32.801  15.708 -15.060  1.00  0.00     0.187 HD
HETATM   54  O3  UNL     1     -33.823  18.028 -15.141  1.00  0.00    -0.266 OA
BRANCH  42  55
HETATM   55  N12 UNL     1     -38.868  17.339 -18.507  1.00  0.00    -0.234 N 
ATOM     56 2H12 UNL     1     -38.986  18.074 -19.205  1.00  0.00     0.174 HD
ATOM     57 1H12 UNL     1     -39.594  16.648 -18.322  1.00  0.00     0.174 HD
ENDBRANCH  42  55
BRANCH  49  58
HETATM   58  N15 UNL     1     -33.591  13.559 -16.084  1.00  0.00    -0.224 N 
ATOM     59  H15 UNL     1     -33.733  12.989 -15.250  1.00  0.00     0.177 HD
BRANCH  58  60
HETATM   60  C21 UNL     1     -32.723  13.078 -17.139  1.00  0.00     0.164 C 
BRANCH  60  61
HETATM   61  C22 UNL     1     -31.313  12.949 -16.599  1.00  0.00     0.184 C 
BRANCH  61  62
HETATM   62  O2  UNL     1     -30.443  13.769 -17.314  1.00  0.00    -0.399 OA
ATOM     63  H2  UNL     1     -29.727  13.259 -17.673  1.00  0.00     0.209 HD
ENDBRANCH  61  62
ENDBRANCH  60  61
ENDBRANCH  58  60
ENDBRANCH  49  58
ENDBRANCH  38  40
ENDBRANCH  37  38
ENDBRANCH  36  37
ENDBRANCH  35  36
ENDBRANCH  33  35
ENDBRANCH  30  33
ENDBRANCH  26  27
ENDBRANCH   7  26
TORSDOF 19
ENDMDL
MODEL 2
REMARK VINA RESULT: -6.816816528      3.387      6.133
REMARK  19 active torsions:
REMARK  status: ('A' for Active; 'I' for Inactive)
REMARK       I    between atoms: N2_3  and  C2_4 
REMARK       I    between atoms: C2_4  and  N3_5 
REMARK       I    between atoms: C2_4  and  N8_24 
REMARK    1  A    between atoms: N3_5  and  C3_7 
REMARK    2  A    between atoms: C3_7  and  C4_8 
REMARK    3  A    between atoms: C4_8  and  C5_9 
REMARK    4  A    between atoms: C5_9  and  N4_10 
REMARK       I    between atoms: N4_10  and  C6_12 
REMARK    5  A    between atoms: C6_12  and  C7_14 
REMARK    6  A    between atoms: C8_16  and  N5_17 
REMARK    7  A    between atoms: N8_24  and  C10_26 
REMARK    8  A    between atoms: C10_26  and  C11_27 
REMARK    9  A    between atoms: C13_30  and  N9_31 
REMARK   10  A    between atoms: N9_31  and  C14_33 
REMARK   11  A    between atoms: C14_33  and  C15_34 
REMARK   12  A    between atoms: C15_34  and  C16_35 
REMARK   13  A    between atoms: C16_35  and  N10_36 
REMARK   14  A    between atoms: N10_36  and  C17_38 
REMARK   15  A    between atoms: C18_41  and  N12_42 
REMARK   16  A    between atoms: C20_50  and  N15_51 
REMARK   17  A    between atoms: N15_51  and  C21_53 
REMARK   18  A    between atoms: C21_53  and  C22_54 
REMARK   19  A    between atoms: C22_54  and  O2_55 
ROOT
HETATM    1  N1  UNL     1     -31.089  19.147 -12.859  1.00  0.00    -0.156 NA
HETATM    2  C1  UNL     1     -30.961  18.701 -13.905  1.00  0.00     0.271 C 
HETATM    3  N2  UNL     1     -30.800  18.206 -15.046  1.00  0.00    -0.294 NA
HETATM    4  C2  UNL     1     -30.665  17.747 -16.120  1.00  0.00     0.263 C 
HETATM    5  N3  UNL     1     -29.423  17.111 -16.534  1.00  0.00    -0.350 N 
ATOM      6  H3  UNL     1     -29.258  16.887 -17.515  1.00  0.00     0.163 HD
HETATM    7  N8  UNL     1     -31.731  17.778 -17.108  1.00  0.00    -0.344 N 
ATOM      8  H8  UNL     1     -32.180  16.908 -17.392  1.00  0.00     0.164 HD
ENDROOT
BRANCH   5   9
HETATM    9  C3  UNL     1     -28.445  16.806 -15.552  1.00  0.00     0.125 C 
BRANCH   9  10
HETATM   10  C4  UNL     1     -28.714  15.624 -14.683  1.00  0.00     0.039 C 
BRANCH  10  11
HETATM   11  C5  UNL     1     -28.635  14.282 -15.310  1.00  0.00     0.124 C 
BRANCH  11  12
HETATM   12  N4  UNL     1     -29.612  13.893 -16.252  1.00  0.00    -0.356 N 
HETATM   13  C6  UNL     1     -30.499  12.825 -16.070  1.00  0.00     0.262 C 
HETATM   14  O1  UNL     1     -30.461  12.145 -15.023  1.00  0.00    -0.267 OA
ATOM     15  H4  UNL     1     -29.675  14.423 -17.120  1.00  0.00     0.162 HD
BRANCH  13  16
HETATM   16  C7  UNL     1     -31.505  12.452 -17.084  1.00  0.00     0.117 A 
HETATM   17  S1  UNL     1     -32.031  10.900 -17.575  1.00  0.00    -0.045 SA
HETATM   18  C8  UNL     1     -33.162  11.386 -18.752  1.00  0.00     0.144 A 
HETATM   19  N6  UNL     1     -33.084  12.717 -18.715  1.00  0.00    -0.324 N 
HETATM   20  C9  UNL     1     -32.253  13.271 -17.879  1.00  0.00     0.141 A 
ATOM     21  H6  UNL     1     -33.664  13.290 -19.329  1.00  0.00     0.169 HD
HETATM   22  N7  UNL     1     -32.105  14.721 -17.774  1.00  0.00    -0.081 NA
BRANCH  18  23
HETATM   23  N5  UNL     1     -33.936  10.652 -19.525  1.00  0.00    -0.380 N 
ATOM     24  H52 UNL     1     -33.798   9.677 -19.792  1.00  0.00     0.158 HD
ATOM     25  H51 UNL     1     -34.804  10.901 -19.999  1.00  0.00     0.158 HD
ENDBRANCH  18  23
ENDBRANCH  13  16
ENDBRANCH  11  12
ENDBRANCH  10  11
ENDBRANCH   9  10
ENDBRANCH   5   9
BRANCH   7  26
HETATM   26  C10 UNL     1     -32.150  19.002 -17.680  1.00  0.00     0.181 C 
BRANCH  26  27
HETATM   27  C11 UNL     1     -33.633  19.037 -18.029  1.00  0.00     0.035 A 
HETATM   28  C12 UNL     1     -34.050  19.736 -19.144  1.00  0.00     0.080 A 
HETATM   29  S2  UNL     1     -35.731  19.512 -19.103  1.00  0.00    -0.064 SA
HETATM   30  C13 UNL     1     -35.827  18.556 -17.695  1.00  0.00     0.144 A 
HETATM   31  N17 UNL     1     -34.553  18.450 -17.316  1.00  0.00    -0.338 N 
ATOM     32  H17 UNL     1     -34.303  17.918 -16.482  1.00  0.00     0.168 HD
BRANCH  30  33
HETATM   33  N9  UNL     1     -36.904  18.060 -17.143  1.00  0.00    -0.370 N 
ATOM     34  H9  UNL     1     -37.766  18.605 -17.167  1.00  0.00     0.161 HD
BRANCH  33  35
HETATM   35  C14 UNL     1     -36.915  16.783 -16.509  1.00  0.00     0.123 C 
BRANCH  35  36
HETATM   36  C15 UNL     1     -36.977  15.647 -17.515  1.00  0.00     0.039 C 
BRANCH  36  37
HETATM   37  C16 UNL     1     -35.779  14.730 -17.366  1.00  0.00     0.123 C 
BRANCH  37  38
HETATM   38  N10 UNL     1     -35.124  14.898 -16.099  1.00  0.00    -0.375 N 
ATOM     39  H10 UNL     1     -35.071  15.847 -15.728  1.00  0.00     0.161 HD
BRANCH  38  40
HETATM   40  C17 UNL     1     -34.603  13.974 -15.397  1.00  0.00     0.136 A 
HETATM   41  N11 UNL     1     -34.972  12.687 -15.543  1.00  0.00    -0.176 N 
HETATM   42  C18 UNL     1     -34.377  11.766 -14.757  1.00  0.00     0.679 A 
ATOM     43  H11 UNL     1     -35.679  12.417 -16.227  1.00  0.00     0.186 HD
HETATM   44  N13 UNL     1     -33.441  12.100 -13.849  1.00  0.00    -0.175 N 
HETATM   45  C19 UNL     1     -33.049  13.371 -13.675  1.00  0.00     0.156 A 
ATOM     46  H13 UNL     1     -33.019  11.368 -13.278  1.00  0.00     0.186 HD
HETATM   47  N14 UNL     1     -32.117  13.693 -12.766  1.00  0.00    -0.175 N 
HETATM   48  C24 UNL     1     -33.627  14.349 -14.454  1.00  0.00     0.122 A 
HETATM   49  C20 UNL     1     -31.740  14.997 -12.614  1.00  0.00     0.682 A 
ATOM     50  H14 UNL     1     -31.691  12.966 -12.191  1.00  0.00     0.186 HD
HETATM   51  N16 UNL     1     -32.297  15.962 -13.369  1.00  0.00    -0.155 N 
HETATM   52  C23 UNL     1     -33.247  15.670 -14.301  1.00  0.00     0.277 A 
ATOM     53  H16 UNL     1     -32.002  16.930 -13.241  1.00  0.00     0.187 HD
HETATM   54  O3  UNL     1     -33.777  16.542 -15.011  1.00  0.00    -0.266 OA
BRANCH  42  55
HETATM   55  N12 UNL     1     -34.732  10.514 -14.894  1.00  0.00    -0.234 N 
ATOM     56 2H12 UNL     1     -35.634  10.285 -15.312  1.00  0.00     0.174 HD
ATOM     57 1H12 UNL     1     -34.085   9.792 -14.575  1.00  0.00     0.174 HD
ENDBRANCH  42  55
BRANCH  49  58
HETATM   58  N15 UNL     1     -30.841  15.297 -11.734  1.00  0.00    -0.224 N 
ATOM     59  H15 UNL     1     -29.897  14.923 -11.831  1.00  0.00     0.177 HD
BRANCH  58  60
HETATM   60  C21 UNL     1     -31.156  16.156 -10.611  1.00  0.00     0.164 C 
BRANCH  60  61
HETATM   61  C22 UNL     1     -31.459  15.297  -9.401  1.00  0.00     0.184 C 
BRANCH  61  62
HETATM   62  O2  UNL     1     -30.294  15.044  -8.681  1.00  0.00    -0.399 OA
ATOM     63  H2  UNL     1     -29.933  15.853  -8.340  1.00  0.00     0.209 HD
ENDBRANCH  61  62
ENDBRANCH  60  61
ENDBRANCH  58  60
ENDBRANCH  49  58
ENDBRANCH  38  40
ENDBRANCH  37  38
ENDBRANCH  36  37
ENDBRANCH  35  36
ENDBRANCH  33  35
ENDBRANCH  30  33
ENDBRANCH  26  27
ENDBRANCH   7  26
TORSDOF 19
ENDMDL
MODEL 3
REMARK VINA RESULT: -6.746474757      3.431      8.718
REMARK  19 active torsions:
REMARK  status: ('A' for Active; 'I' for Inactive)
REMARK       I    between atoms: N2_3  and  C2_4 
REMARK       I    between atoms: C2_4  and  N3_5 
REMARK       I    between atoms: C2_4  and  N8_24 
REMARK    1  A    between atoms: N3_5  and  C3_7 
REMARK    2  A    between atoms: C3_7  and  C4_8 
REMARK    3  A    between atoms: C4_8  and  C5_9 
REMARK    4  A    between atoms: C5_9  and  N4_10 
REMARK       I    between atoms: N4_10  and  C6_12 
REMARK    5  A    between atoms: C6_12  and  C7_14 
REMARK    6  A    between atoms: C8_16  and  N5_17 
REMARK    7  A    between atoms: N8_24  and  C10_26 
REMARK    8  A    between atoms: C10_26  and  C11_27 
REMARK    9  A    between atoms: C13_30  and  N9_31 
REMARK   10  A    between atoms: N9_31  and  C14_33 
REMARK   11  A    between atoms: C14_33  and  C15_34 
REMARK   12  A    between atoms: C15_34  and  C16_35 
REMARK   13  A    between atoms: C16_35  and  N10_36 
REMARK   14  A    between atoms: N10_36  and  C17_38 
REMARK   15  A    between atoms: C18_41  and  N12_42 
REMARK   16  A    between atoms: C20_50  and  N15_51 
REMARK   17  A    between atoms: N15_51  and  C21_53 
REMARK   18  A    between atoms: C21_53  and  C22_54 
REMARK   19  A    between atoms: C22_54  and  O2_55 
ROOT
HETATM    1  N1  UNL     1     -29.168  12.808 -12.002  1.00  0.00    -0.156 NA
HETATM    2  C1  UNL     1     -30.023  13.537 -12.218  1.00  0.00     0.271 C 
HETATM    3  N2  UNL     1     -30.971  14.320 -12.467  1.00  0.00    -0.294 NA
HETATM    4  C2  UNL     1     -31.852  15.064 -12.690  1.00  0.00     0.263 C 
HETATM    5  N3  UNL     1     -32.983  14.690 -13.528  1.00  0.00    -0.350 N 
ATOM      6  H3  UNL     1     -33.636  15.399 -13.861  1.00  0.00     0.163 HD
HETATM    7  N8  UNL     1     -31.877  16.411 -12.143  1.00  0.00    -0.344 N 
ATOM      8  H8  UNL     1     -32.576  16.658 -11.444  1.00  0.00     0.164 HD
ENDROOT
BRANCH   5   9
HETATM    9  C3  UNL     1     -33.162  13.326 -13.873  1.00  0.00     0.125 C 
BRANCH   9  10
HETATM   10  C4  UNL     1     -33.208  13.005 -15.329  1.00  0.00     0.039 C 
BRANCH  10  11
HETATM   11  C5  UNL     1     -34.261  12.067 -15.790  1.00  0.00     0.124 C 
BRANCH  11  12
HETATM   12  N4  UNL     1     -35.620  12.432 -15.675  1.00  0.00    -0.356 N 
HETATM   13  C6  UNL     1     -36.553  11.750 -14.885  1.00  0.00     0.262 C 
HETATM   14  O1  UNL     1     -36.208  10.750 -14.222  1.00  0.00    -0.267 OA
ATOM     15  H4  UNL     1     -35.942  13.244 -16.201  1.00  0.00     0.162 HD
BRANCH  13  16
HETATM   16  C7  UNL     1     -37.966  12.167 -14.796  1.00  0.00     0.117 A 
HETATM   17  S1  UNL     1     -39.364  11.420 -15.442  1.00  0.00    -0.045 SA
HETATM   18  C8  UNL     1     -40.519  12.540 -14.883  1.00  0.00     0.144 A 
HETATM   19  N6  UNL     1     -39.780  13.435 -14.226  1.00  0.00    -0.324 N 
HETATM   20  C9  UNL     1     -38.491  13.262 -14.172  1.00  0.00     0.141 A 
ATOM     21  H6  UNL     1     -40.217  14.239 -13.775  1.00  0.00     0.169 HD
HETATM   22  N7  UNL     1     -37.609  14.194 -13.474  1.00  0.00    -0.081 NA
BRANCH  18  23
HETATM   23  N5  UNL     1     -41.827  12.547 -15.046  1.00  0.00    -0.380 N 
ATOM     24  H52 UNL     1     -42.442  11.740 -15.151  1.00  0.00     0.158 HD
ATOM     25  H51 UNL     1     -42.471  13.336 -15.097  1.00  0.00     0.158 HD
ENDBRANCH  18  23
ENDBRANCH  13  16
ENDBRANCH  11  12
ENDBRANCH  10  11
ENDBRANCH   9  10
ENDBRANCH   5   9
BRANCH   7  26
HETATM   26  C10 UNL     1     -30.941  17.382 -12.571  1.00  0.00     0.181 C 
BRANCH  26  27
HETATM   27  C11 UNL     1     -30.727  17.403 -14.079  1.00  0.00     0.035 A 
HETATM   28  C12 UNL     1     -29.549  16.910 -14.603  1.00  0.00     0.080 A 
HETATM   29  S2  UNL     1     -29.760  17.165 -16.268  1.00  0.00    -0.064 SA
HETATM   30  C13 UNL     1     -31.309  17.875 -16.223  1.00  0.00     0.144 A 
HETATM   31  N17 UNL     1     -31.599  17.884 -14.922  1.00  0.00    -0.338 N 
ATOM     32  H17 UNL     1     -32.487  18.261 -14.591  1.00  0.00     0.168 HD
BRANCH  30  33
HETATM   33  N9  UNL     1     -32.019  18.298 -17.236  1.00  0.00    -0.370 N 
ATOM     34  H9  UNL     1     -31.552  18.471 -18.127  1.00  0.00     0.161 HD
BRANCH  33  35
HETATM   35  C14 UNL     1     -33.423  18.527 -17.140  1.00  0.00     0.123 C 
BRANCH  35  36
HETATM   36  C15 UNL     1     -33.743  19.967 -16.778  1.00  0.00     0.039 C 
BRANCH  36  37
HETATM   37  C16 UNL     1     -34.151  20.753 -18.007  1.00  0.00     0.123 C 
BRANCH  37  38
HETATM   38  N10 UNL     1     -33.021  21.118 -18.815  1.00  0.00    -0.375 N 
ATOM     39  H10 UNL     1     -32.097  21.006 -18.396  1.00  0.00     0.161 HD
BRANCH  38  40
HETATM   40  C17 UNL     1     -33.064  21.569 -20.004  1.00  0.00     0.136 A 
HETATM   41  N11 UNL     1     -34.161  22.189 -20.481  1.00  0.00    -0.176 N 
HETATM   42  C18 UNL     1     -34.130  22.633 -21.754  1.00  0.00     0.679 A 
ATOM     43  H11 UNL     1     -34.988  22.318 -19.898  1.00  0.00     0.186 HD
HETATM   44  N13 UNL     1     -33.050  22.475 -22.541  1.00  0.00    -0.175 N 
HETATM   45  C19 UNL     1     -31.941  21.862 -22.100  1.00  0.00     0.156 A 
ATOM     46  H13 UNL     1     -33.075  22.829 -23.497  1.00  0.00     0.186 HD
HETATM   47  N14 UNL     1     -30.870  21.709 -22.893  1.00  0.00    -0.175 N 
HETATM   48  C24 UNL     1     -31.922  21.390 -20.806  1.00  0.00     0.122 A 
HETATM   49  C20 UNL     1     -29.756  21.080 -22.413  1.00  0.00     0.682 A 
ATOM     50  H14 UNL     1     -30.888  22.059 -23.850  1.00  0.00     0.186 HD
HETATM   51  N16 UNL     1     -29.724  20.614 -21.151  1.00  0.00    -0.155 N 
HETATM   52  C23 UNL     1     -30.795  20.754 -20.319  1.00  0.00     0.277 A 
ATOM     53  H16 UNL     1     -28.883  20.149 -20.811  1.00  0.00     0.187 HD
HETATM   54  O3  UNL     1     -30.791  20.332 -19.150  1.00  0.00    -0.266 OA
BRANCH  42  55
HETATM   55  N12 UNL     1     -35.193  23.236 -22.224  1.00  0.00    -0.234 N 
ATOM     56 2H12 UNL     1     -35.991  22.684 -22.540  1.00  0.00     0.174 HD
ATOM     57 1H12 UNL     1     -35.192  24.255 -22.261  1.00  0.00     0.174 HD
ENDBRANCH  42  55
BRANCH  49  58
HETATM   58  N15 UNL     1     -28.729  20.936 -23.186  1.00  0.00    -0.224 N 
ATOM     59  H15 UNL     1     -28.284  21.760 -23.591  1.00  0.00     0.177 HD
BRANCH  58  60
HETATM   60  C21 UNL     1     -28.201  19.620 -23.485  1.00  0.00     0.164 C 
BRANCH  60  61
HETATM   61  C22 UNL     1     -26.783  19.526 -22.960  1.00  0.00     0.184 C 
BRANCH  61  62
HETATM   62  O2  UNL     1     -26.786  19.155 -21.617  1.00  0.00    -0.399 OA
ATOM     63  H2  UNL     1     -26.513  19.883 -21.072  1.00  0.00     0.209 HD
ENDBRANCH  61  62
ENDBRANCH  60  61
ENDBRANCH  58  60
ENDBRANCH  49  58
ENDBRANCH  38  40
ENDBRANCH  37  38
ENDBRANCH  36  37
ENDBRANCH  35  36
ENDBRANCH  33  35
ENDBRANCH  30  33
ENDBRANCH  26  27
ENDBRANCH   7  26
TORSDOF 19
ENDMDL
MODEL 4
REMARK VINA RESULT: -6.696513122      2.990      8.168
REMARK  19 active torsions:
REMARK  status: ('A' for Active; 'I' for Inactive)
REMARK       I    between atoms: N2_3  and  C2_4 
REMARK       I    between atoms: C2_4  and  N3_5 
REMARK       I    between atoms: C2_4  and  N8_24 
REMARK    1  A    between atoms: N3_5  and  C3_7 
REMARK    2  A    between atoms: C3_7  and  C4_8 
REMARK    3  A    between atoms: C4_8  and  C5_9 
REMARK    4  A    between atoms: C5_9  and  N4_10 
REMARK       I    between atoms: N4_10  and  C6_12 
REMARK    5  A    between atoms: C6_12  and  C7_14 
REMARK    6  A    between atoms: C8_16  and  N5_17 
REMARK    7  A    between atoms: N8_24  and  C10_26 
REMARK    8  A    between atoms: C10_26  and  C11_27 
REMARK    9  A    between atoms: C13_30  and  N9_31 
REMARK   10  A    between atoms: N9_31  and  C14_33 
REMARK   11  A    between atoms: C14_33  and  C15_34 
REMARK   12  A    between atoms: C15_34  and  C16_35 
REMARK   13  A    between atoms: C16_35  and  N10_36 
REMARK   14  A    between atoms: N10_36  and  C17_38 
REMARK   15  A    between atoms: C18_41  and  N12_42 
REMARK   16  A    between atoms: C20_50  and  N15_51 
REMARK   17  A    between atoms: N15_51  and  C21_53 
REMARK   18  A    between atoms: C21_53  and  C22_54 
REMARK   19  A    between atoms: C22_54  and  O2_55 
ROOT
HETATM    1  N1  UNL     1     -29.779  17.930 -16.847  1.00  0.00    -0.156 NA
HETATM    2  C1  UNL     1     -30.825  18.295 -17.134  1.00  0.00     0.271 C 
HETATM    3  N2  UNL     1     -31.962  18.713 -17.459  1.00  0.00    -0.294 NA
HETATM    4  C2  UNL     1     -33.034  19.091 -17.756  1.00  0.00     0.263 C 
HETATM    5  N3  UNL     1     -33.234  20.307 -18.531  1.00  0.00    -0.350 N 
ATOM      6  H3  UNL     1     -34.164  20.717 -18.619  1.00  0.00     0.163 HD
HETATM    7  N8  UNL     1     -34.236  18.369 -17.374  1.00  0.00    -0.344 N 
ATOM      8  H8  UNL     1     -34.799  17.912 -18.091  1.00  0.00     0.164 HD
ENDROOT
BRANCH   5   9
HETATM    9  C3  UNL     1     -32.117  20.913 -19.162  1.00  0.00     0.125 C 
BRANCH   9  10
HETATM   10  C4  UNL     1     -31.934  20.631 -20.615  1.00  0.00     0.039 C 
BRANCH  10  11
HETATM   11  C5  UNL     1     -30.981  21.485 -21.363  1.00  0.00     0.124 C 
BRANCH  11  12
HETATM   12  N4  UNL     1     -29.636  21.563 -20.944  1.00  0.00    -0.356 N 
HETATM   13  C6  UNL     1     -28.623  20.701 -21.383  1.00  0.00     0.262 C 
HETATM   14  O1  UNL     1     -28.880  19.790 -22.198  1.00  0.00    -0.267 OA
ATOM     15  H4  UNL     1     -29.385  22.293 -20.279  1.00  0.00     0.162 HD
BRANCH  13  16
HETATM   16  C7  UNL     1     -27.228  20.819 -20.916  1.00  0.00     0.117 A 
HETATM   17  S1  UNL     1     -25.817  21.223 -21.795  1.00  0.00    -0.045 SA
HETATM   18  C8  UNL     1     -24.695  21.120 -20.517  1.00  0.00     0.144 A 
HETATM   19  N6  UNL     1     -25.455  20.780 -19.475  1.00  0.00    -0.324 N 
HETATM   20  C9  UNL     1     -26.734  20.625 -19.658  1.00  0.00     0.141 A 
ATOM     21  H6  UNL     1     -25.041  20.646 -18.552  1.00  0.00     0.169 HD
HETATM   22  N7  UNL     1     -27.637  20.254 -18.572  1.00  0.00    -0.081 NA
BRANCH  18  23
HETATM   23  N5  UNL     1     -23.393  21.319 -20.526  1.00  0.00    -0.380 N 
ATOM     24  H52 UNL     1     -22.873  21.987 -21.095  1.00  0.00     0.158 HD
ATOM     25  H51 UNL     1     -22.662  20.860 -19.983  1.00  0.00     0.158 HD
ENDBRANCH  18  23
ENDBRANCH  13  16
ENDBRANCH  11  12
ENDBRANCH  10  11
ENDBRANCH   9  10
ENDBRANCH   5   9
BRANCH   7  26
HETATM   26  C10 UNL     1     -34.634  18.292 -16.019  1.00  0.00     0.181 C 
BRANCH  26  27
HETATM   27  C11 UNL     1     -34.969  16.880 -15.558  1.00  0.00     0.035 A 
HETATM   28  C12 UNL     1     -35.995  16.687 -14.655  1.00  0.00     0.080 A 
HETATM   29  S2  UNL     1     -35.972  15.005 -14.434  1.00  0.00    -0.064 SA
HETATM   30  C13 UNL     1     -34.680  14.628 -15.481  1.00  0.00     0.144 A 
HETATM   31  N17 UNL     1     -34.322  15.820 -15.958  1.00  0.00    -0.338 N 
ATOM     32  H17 UNL     1     -33.554  15.903 -16.625  1.00  0.00     0.168 HD
BRANCH  30  33
HETATM   33  N9  UNL     1     -34.182  13.446 -15.735  1.00  0.00    -0.370 N 
ATOM     34  H9  UNL     1     -33.854  12.872 -14.958  1.00  0.00     0.161 HD
BRANCH  33  35
HETATM   35  C14 UNL     1     -34.082  12.932 -17.061  1.00  0.00     0.123 C 
BRANCH  35  36
HETATM   36  C15 UNL     1     -33.404  11.573 -17.096  1.00  0.00     0.039 C 
BRANCH  36  37
HETATM   37  C16 UNL     1     -32.063  11.657 -17.797  1.00  0.00     0.123 C 
BRANCH  37  38
HETATM   38  N10 UNL     1     -31.130  12.484 -17.083  1.00  0.00    -0.375 N 
ATOM     39  H10 UNL     1     -30.771  13.304 -17.572  1.00  0.00     0.161 HD
BRANCH  38  40
HETATM   40  C17 UNL     1     -30.711  12.288 -15.898  1.00  0.00     0.136 A 
HETATM   41  N11 UNL     1     -30.416  11.052 -15.452  1.00  0.00    -0.176 N 
HETATM   42  C18 UNL     1     -29.982  10.927 -14.181  1.00  0.00     0.679 A 
ATOM     43  H11 UNL     1     -30.517  10.236 -16.056  1.00  0.00     0.186 HD
HETATM   44  N13 UNL     1     -29.840  11.989 -13.366  1.00  0.00    -0.175 N 
HETATM   45  C19 UNL     1     -30.125  13.234 -13.776  1.00  0.00     0.156 A 
ATOM     46  H13 UNL     1     -29.508  11.843 -12.413  1.00  0.00     0.186 HD
HETATM   47  N14 UNL     1     -29.981  14.285 -12.956  1.00  0.00    -0.175 N 
HETATM   48  C24 UNL     1     -30.572  13.415 -15.066  1.00  0.00     0.122 A 
HETATM   49  C20 UNL     1     -30.280  15.541 -13.404  1.00  0.00     0.682 A 
ATOM     50  H14 UNL     1     -29.650  14.148 -12.001  1.00  0.00     0.186 HD
HETATM   51  N16 UNL     1     -30.717  15.732 -14.662  1.00  0.00    -0.155 N 
HETATM   52  C23 UNL     1     -30.874  14.685 -15.522  1.00  0.00     0.277 A 
ATOM     53  H16 UNL     1     -30.934  16.676 -14.979  1.00  0.00     0.187 HD
HETATM   54  O3  UNL     1     -31.277  14.834 -16.688  1.00  0.00    -0.266 OA
BRANCH  42  55
HETATM   55  N12 UNL     1     -29.694   9.728 -13.741  1.00  0.00    -0.234 N 
ATOM     56 2H12 UNL     1     -28.805   9.296 -13.993  1.00  0.00     0.174 HD
ATOM     57 1H12 UNL     1     -30.378   9.254 -13.151  1.00  0.00     0.174 HD
ENDBRANCH  42  55
BRANCH  49  58
HETATM   58  N15 UNL     1     -30.138  16.548 -12.605  1.00  0.00    -0.224 N 
ATOM     59  H15 UNL     1     -29.217  16.762 -12.222  1.00  0.00     0.177 HD
BRANCH  58  60
HETATM   60  C21 UNL     1     -31.271  17.376 -12.244  1.00  0.00     0.164 C 
BRANCH  60  61
HETATM   61  C22 UNL     1     -31.553  17.211 -10.764  1.00  0.00     0.184 C 
BRANCH  61  62
HETATM   62  O2  UNL     1     -32.646  17.988 -10.388  1.00  0.00    -0.399 OA
ATOM     63  H2  UNL     1     -32.462  18.447  -9.578  1.00  0.00     0.209 HD
ENDBRANCH  61  62
ENDBRANCH  60  61
ENDBRANCH  58  60
ENDBRANCH  49  58
ENDBRANCH  38  40
ENDBRANCH  37  38
ENDBRANCH  36  37
ENDBRANCH  35  36
ENDBRANCH  33  35
ENDBRANCH  30  33
ENDBRANCH  26  27
ENDBRANCH   7  26
TORSDOF 19
ENDMDL
MODEL 5
REMARK VINA RESULT: -6.576976082      2.559      8.382
REMARK  19 active torsions:
REMARK  status: ('A' for Active; 'I' for Inactive)
REMARK       I    between atoms: N2_3  and  C2_4 
REMARK       I    between atoms: C2_4  and  N3_5 
REMARK       I    between atoms: C2_4  and  N8_24 
REMARK    1  A    between atoms: N3_5  and  C3_7 
REMARK    2  A    between atoms: C3_7  and  C4_8 
REMARK    3  A    between atoms: C4_8  and  C5_9 
REMARK    4  A    between atoms: C5_9  and  N4_10 
REMARK       I    between atoms: N4_10  and  C6_12 
REMARK    5  A    between atoms: C6_12  and  C7_14 
REMARK    6  A    between atoms: C8_16  and  N5_17 
REMARK    7  A    between atoms: N8_24  and  C10_26 
REMARK    8  A    between atoms: C10_26  and  C11_27 
REMARK    9  A    between atoms: C13_30  and  N9_31 
REMARK   10  A    between atoms: N9_31  and  C14_33 
REMARK   11  A    between atoms: C14_33  and  C15_34 
REMARK   12  A    between atoms: C15_34  and  C16_35 
REMARK   13  A    between atoms: C16_35  and  N10_36 
REMARK   14  A    between atoms: N10_36  and  C17_38 
REMARK   15  A    between atoms: C18_41  and  N12_42 
REMARK   16  A    between atoms: C20_50  and  N15_51 
REMARK   17  A    between atoms: N15_51  and  C21_53 
REMARK   18  A    between atoms: C21_53  and  C22_54 
REMARK   19  A    between atoms: C22_54  and  O2_55 
ROOT
HETATM    1  N1  UNL     1     -29.873  12.256 -12.059  1.00  0.00    -0.156 NA
HETATM    2  C1  UNL     1     -30.561  13.132 -12.320  1.00  0.00     0.271 C 
HETATM    3  N2  UNL     1     -31.328  14.078 -12.620  1.00  0.00    -0.294 NA
HETATM    4  C2  UNL     1     -32.038  14.975 -12.891  1.00  0.00     0.263 C 
HETATM    5  N3  UNL     1     -33.151  14.822 -13.817  1.00  0.00    -0.350 N 
ATOM      6  H3  UNL     1     -33.636  15.642 -14.182  1.00  0.00     0.163 HD
HETATM    7  N8  UNL     1     -31.857  16.298 -12.317  1.00  0.00    -0.344 N 
ATOM      8  H8  UNL     1     -32.551  16.664 -11.666  1.00  0.00     0.164 HD
ENDROOT
BRANCH   5   9
HETATM    9  C3  UNL     1     -33.550  13.517 -14.205  1.00  0.00     0.125 C 
BRANCH   9  10
HETATM   10  C4  UNL     1     -33.003  13.006 -15.495  1.00  0.00     0.039 C 
BRANCH  10  11
HETATM   11  C5  UNL     1     -33.848  13.156 -16.705  1.00  0.00     0.124 C 
BRANCH  11  12
HETATM   12  N4  UNL     1     -34.350  14.428 -17.052  1.00  0.00    -0.356 N 
HETATM   13  C6  UNL     1     -35.705  14.710 -17.263  1.00  0.00     0.262 C 
HETATM   14  O1  UNL     1     -36.561  13.807 -17.147  1.00  0.00    -0.267 OA
ATOM     15  H4  UNL     1     -33.683  15.193 -17.156  1.00  0.00     0.162 HD
BRANCH  13  16
HETATM   16  C7  UNL     1     -36.185  16.057 -17.626  1.00  0.00     0.117 A 
HETATM   17  S1  UNL     1     -36.364  16.768 -19.172  1.00  0.00    -0.045 SA
HETATM   18  C8  UNL     1     -36.949  18.288 -18.676  1.00  0.00     0.144 A 
HETATM   19  N6  UNL     1     -36.981  18.181 -17.347  1.00  0.00    -0.324 N 
HETATM   20  C9  UNL     1     -36.599  17.062 -16.801  1.00  0.00     0.141 A 
ATOM     21  H6  UNL     1     -37.298  18.960 -16.769  1.00  0.00     0.169 HD
HETATM   22  N7  UNL     1     -36.603  16.861 -15.355  1.00  0.00    -0.081 NA
BRANCH  18  23
HETATM   23  N5  UNL     1     -37.292  19.333 -19.402  1.00  0.00    -0.380 N 
ATOM     24  H52 UNL     1     -37.029  19.528 -20.368  1.00  0.00     0.158 HD
ATOM     25  H51 UNL     1     -37.873  20.133 -19.154  1.00  0.00     0.158 HD
ENDBRANCH  18  23
ENDBRANCH  13  16
ENDBRANCH  11  12
ENDBRANCH  10  11
ENDBRANCH   9  10
ENDBRANCH   5   9
BRANCH   7  26
HETATM   26  C10 UNL     1     -30.730  17.083 -12.653  1.00  0.00     0.181 C 
BRANCH  26  27
HETATM   27  C11 UNL     1     -30.506  17.223 -14.154  1.00  0.00     0.035 A 
HETATM   28  C12 UNL     1     -29.300  16.830 -14.699  1.00  0.00     0.080 A 
HETATM   29  S2  UNL     1     -29.512  17.191 -16.343  1.00  0.00    -0.064 SA
HETATM   30  C13 UNL     1     -31.097  17.815 -16.265  1.00  0.00     0.144 A 
HETATM   31  N17 UNL     1     -31.396  17.716 -14.970  1.00  0.00    -0.338 N 
ATOM     32  H17 UNL     1     -32.305  18.022 -14.623  1.00  0.00     0.168 HD
BRANCH  30  33
HETATM   33  N9  UNL     1     -31.820  18.272 -17.254  1.00  0.00    -0.370 N 
ATOM     34  H9  UNL     1     -31.363  18.493 -18.139  1.00  0.00     0.161 HD
BRANCH  33  35
HETATM   35  C14 UNL     1     -33.227  18.472 -17.138  1.00  0.00     0.123 C 
BRANCH  35  36
HETATM   36  C15 UNL     1     -33.574  19.918 -16.830  1.00  0.00     0.039 C 
BRANCH  36  37
HETATM   37  C16 UNL     1     -34.044  20.637 -18.079  1.00  0.00     0.123 C 
BRANCH  37  38
HETATM   38  N10 UNL     1     -32.952  21.200 -18.822  1.00  0.00    -0.375 N 
ATOM     39  H10 UNL     1     -32.060  21.294 -18.334  1.00  0.00     0.161 HD
BRANCH  38  40
HETATM   40  C17 UNL     1     -32.992  21.594 -20.031  1.00  0.00     0.136 A 
HETATM   41  N11 UNL     1     -34.099  22.158 -20.550  1.00  0.00    -0.176 N 
HETATM   42  C18 UNL     1     -34.064  22.544 -21.842  1.00  0.00     0.679 A 
ATOM     43  H11 UNL     1     -34.937  22.290 -19.984  1.00  0.00     0.186 HD
HETATM   44  N13 UNL     1     -32.969  22.380 -22.607  1.00  0.00    -0.175 N 
HETATM   45  C19 UNL     1     -31.849  21.822 -22.125  1.00  0.00     0.156 A 
ATOM     46  H13 UNL     1     -32.991  22.689 -23.579  1.00  0.00     0.186 HD
HETATM   47  N14 UNL     1     -30.764  21.663 -22.896  1.00  0.00    -0.175 N 
HETATM   48  C24 UNL     1     -31.834  21.411 -20.810  1.00  0.00     0.122 A 
HETATM   49  C20 UNL     1     -29.639  21.090 -22.374  1.00  0.00     0.682 A 
ATOM     50  H14 UNL     1     -30.779  21.968 -23.869  1.00  0.00     0.186 HD
HETATM   51  N16 UNL     1     -29.610  20.685 -21.091  1.00  0.00    -0.155 N 
HETATM   52  C23 UNL     1     -30.696  20.831 -20.280  1.00  0.00     0.277 A 
ATOM     53  H16 UNL     1     -28.761  20.260 -20.719  1.00  0.00     0.187 HD
HETATM   54  O3  UNL     1     -30.696  20.465 -19.092  1.00  0.00    -0.266 OA
BRANCH  42  55
HETATM   55  N12 UNL     1     -35.138  23.093 -22.353  1.00  0.00    -0.234 N 
ATOM     56 2H12 UNL     1     -35.525  22.733 -23.225  1.00  0.00     0.174 HD
ATOM     57 1H12 UNL     1     -35.561  23.876 -21.855  1.00  0.00     0.174 HD
ENDBRANCH  42  55
BRANCH  49  58
HETATM   58  N15 UNL     1     -28.598  20.940 -23.127  1.00  0.00    -0.224 N 
ATOM     59  H15 UNL     1     -28.108  21.763 -23.479  1.00  0.00     0.177 HD
BRANCH  58  60
HETATM   60  C21 UNL     1     -28.117  19.619 -23.477  1.00  0.00     0.164 C 
BRANCH  60  61
HETATM   61  C22 UNL     1     -26.728  19.431 -22.903  1.00  0.00     0.184 C 
BRANCH  61  62
HETATM   62  O2  UNL     1     -26.799  19.174 -21.535  1.00  0.00    -0.399 OA
ATOM     63  H2  UNL     1     -26.199  19.737 -21.061  1.00  0.00     0.209 HD
ENDBRANCH  61  62
ENDBRANCH  60  61
ENDBRANCH  58  60
ENDBRANCH  49  58
ENDBRANCH  38  40
ENDBRANCH  37  38
ENDBRANCH  36  37
ENDBRANCH  35  36
ENDBRANCH  33  35
ENDBRANCH  30  33
ENDBRANCH  26  27
ENDBRANCH   7  26
TORSDOF 19
ENDMDL
