MODEL 1
REMARK VINA RESULT: -7.301537814      0.000      0.000
REMARK  17 active torsions:
REMARK  status: ('A' for Active; 'I' for Inactive)
REMARK    1  A    between atoms: C2_2  and  N8_31 
REMARK       I    between atoms: N1_3  and  C3_5 
REMARK    2  A    between atoms: C3_5  and  C4_7 
REMARK    3  A    between atoms: C4_7  and  N2_8 
REMARK    4  A    between atoms: C4_7  and  C5_12 
REMARK    5  A    between atoms: C5_12  and  C6_13 
REMARK    6  A    between atoms: C9_20  and  N5_21 
REMARK    7  A    between atoms: N8_31  and  C12_33 
REMARK    8  A    between atoms: C12_33  and  C13_34 
REMARK    9  A    between atoms: C13_34  and  C14_35 
REMARK   10  A    between atoms: C14_35  and  N9_36 
REMARK       I    between atoms: N9_36  and  C15_38 
REMARK   11  A    between atoms: C15_38  and  C16_40 
REMARK   12  A    between atoms: C19_43  and  C20_44 
REMARK   13  A    between atoms: C20_44  and  N10_45 
REMARK   14  A    between atoms: N10_45  and  C21_46 
REMARK   15  A    between atoms: C22_49  and  N12_50 
REMARK   16  A    between atoms: C24_56  and  N14_57 
REMARK   17  A    between atoms: C27_60  and  N15_61 
ROOT
HETATM    1  C13 UNL     1     -29.232  14.283 -14.473  1.00  0.00     0.039 C 
ENDROOT
BRANCH   1   2
HETATM    2  C12 UNL     1     -29.222  13.020 -15.297  1.00  0.00     0.122 C 
BRANCH   2   3
HETATM    3  N8  UNL     1     -30.126  13.140 -16.420  1.00  0.00    -0.380 N 
ATOM      4  H8  UNL     1     -29.986  13.837 -17.151  1.00  0.00     0.160 HD
BRANCH   3   5
HETATM    5  C2  UNL     1     -31.236  12.220 -16.450  1.00  0.00     0.075 C 
HETATM    6  C1  UNL     1     -31.023  10.774 -16.214  1.00  0.00     0.089 C 
HETATM    7  N1  UNL     1     -32.400  12.697 -16.688  1.00  0.00    -0.315 N 
HETATM    8  C3  UNL     1     -32.613  14.090 -16.918  1.00  0.00     0.254 C 
ATOM      9  H1  UNL     1     -33.199  12.062 -16.715  1.00  0.00     0.170 HD
HETATM   10  O1  UNL     1     -31.802  14.659 -17.689  1.00  0.00    -0.271 OA
BRANCH   8  11
HETATM   11  C4  UNL     1     -33.703  14.874 -16.311  1.00  0.00     0.280 C 
BRANCH  11  12
HETATM   12  N2  UNL     1     -34.843  14.841 -17.228  1.00  0.00    -0.066 N 
ATOM     13  H23 UNL     1     -35.154  15.772 -17.505  1.00  0.00     0.275 HD
ATOM     14  H22 UNL     1     -34.594  14.501 -18.156  1.00  0.00     0.275 HD
ATOM     15  H21 UNL     1     -35.581  14.292 -16.789  1.00  0.00     0.275 HD
ENDBRANCH  11  12
BRANCH  11  16
HETATM   16  C5  UNL     1     -34.205  14.351 -15.002  1.00  0.00     0.101 C 
BRANCH  16  17
HETATM   17  C6  UNL     1     -33.247  14.391 -13.894  1.00  0.00     0.028 A 
HETATM   18  C7  UNL     1     -32.845  13.205 -13.287  1.00  0.00     0.114 A 
HETATM   19  N3  UNL     1     -31.961  13.232 -12.279  1.00  0.00    -0.348 N 
HETATM   20  C8  UNL     1     -31.452  14.379 -11.838  1.00  0.00     0.153 A 
ATOM     21  H3  UNL     1     -31.674  12.356 -11.842  1.00  0.00     0.167 HD
HETATM   22  N4  UNL     1     -30.560  14.460 -10.826  1.00  0.00    -0.174 N 
HETATM   23  C11 UNL     1     -31.832  15.572 -12.422  1.00  0.00     0.147 A 
HETATM   24  C9  UNL     1     -30.051  15.628 -10.390  1.00  0.00     0.680 A 
ATOM     25  H4  UNL     1     -30.258  13.598 -10.371  1.00  0.00     0.186 HD
HETATM   26  N6  UNL     1     -30.407  16.787 -10.941  1.00  0.00    -0.154 N 
HETATM   27  C10 UNL     1     -31.283  16.765 -11.941  1.00  0.00     0.290 A 
ATOM     28  H6  UNL     1     -30.019  17.668 -10.605  1.00  0.00     0.187 HD
HETATM   29  O2  UNL     1     -31.661  17.827 -12.508  1.00  0.00    -0.265 OA
HETATM   30  N7  UNL     1     -32.706  15.523 -13.417  1.00  0.00    -0.351 N 
ATOM     31  H7  UNL     1     -32.987  16.404 -13.848  1.00  0.00     0.166 HD
BRANCH  24  32
HETATM   32  N5  UNL     1     -29.198  15.633  -9.414  1.00  0.00    -0.234 N 
ATOM     33  H52 UNL     1     -29.299  14.946  -8.667  1.00  0.00     0.174 HD
ATOM     34  H51 UNL     1     -28.442  16.317  -9.406  1.00  0.00     0.174 HD
ENDBRANCH  24  32
ENDBRANCH  16  17
ENDBRANCH  11  16
ENDBRANCH   8  11
ENDBRANCH   3   5
ENDBRANCH   2   3
ENDBRANCH   1   2
BRANCH   1  35
HETATM   35  C14 UNL     1     -28.878  15.436 -15.371  1.00  0.00     0.124 C 
BRANCH  35  36
HETATM   36  N9  UNL     1     -30.056  16.068 -15.974  1.00  0.00    -0.356 N 
HETATM   37  C15 UNL     1     -30.404  17.403 -15.694  1.00  0.00     0.268 C 
HETATM   38  O3  UNL     1     -29.718  18.094 -14.911  1.00  0.00    -0.266 OA
ATOM     39  H9  UNL     1     -30.639  15.525 -16.612  1.00  0.00     0.162 HD
BRANCH  37  40
HETATM   40  C16 UNL     1     -31.575  18.015 -16.313  1.00  0.00     0.100 A 
HETATM   41  C17 UNL     1     -31.642  18.340 -17.641  1.00  0.00     0.036 A 
HETATM   42  C18 UNL     1     -32.772  18.934 -18.187  1.00  0.00     0.017 A 
HETATM   43  C19 UNL     1     -33.841  19.203 -17.387  1.00  0.00     0.008 A 
HETATM   44  C28 UNL     1     -33.766  18.873 -16.053  1.00  0.00     0.102 A 
HETATM   45  N17 UNL     1     -32.668  18.301 -15.550  1.00  0.00    -0.361 N 
ATOM     46  H17 UNL     1     -32.646  18.072 -14.556  1.00  0.00     0.165 HD
BRANCH  43  47
HETATM   47  C20 UNL     1     -35.111  19.864 -17.906  1.00  0.00     0.197 C 
BRANCH  47  48
HETATM   48  N10 UNL     1     -35.155  20.028 -19.228  1.00  0.00    -0.396 NA
BRANCH  48  49
HETATM   49  C21 UNL     1     -35.139  20.408 -20.363  1.00  0.00     0.223 A 
HETATM   50  N11 UNL     1     -34.169  21.253 -20.850  1.00  0.00    -0.162 N 
HETATM   51  C22 UNL     1     -34.142  21.675 -22.115  1.00  0.00     0.678 A 
ATOM     52  H11 UNL     1     -33.437  21.572 -20.215  1.00  0.00     0.187 HD
HETATM   53  N13 UNL     1     -35.092  21.272 -22.975  1.00  0.00    -0.200 N 
HETATM   54  C23 UNL     1     -36.088  20.445 -22.609  1.00  0.00     0.142 A 
ATOM     55  H13 UNL     1     -35.057  21.603 -23.939  1.00  0.00     0.183 HD
HETATM   56  C24 UNL     1     -36.086  20.029 -21.290  1.00  0.00     0.130 A 
BRANCH  51  57
HETATM   57  N12 UNL     1     -33.212  22.477 -22.552  1.00  0.00    -0.234 N 
ATOM     58 2H12 UNL     1     -33.048  22.527 -23.557  1.00  0.00     0.174 HD
ATOM     59 1H12 UNL     1     -32.653  23.048 -21.917  1.00  0.00     0.174 HD
ENDBRANCH  51  57
BRANCH  56  60
HETATM   60  N14 UNL     1     -37.132  19.147 -20.879  1.00  0.00    -0.260 N 
HETATM   61  C25 UNL     1     -37.216  17.893 -21.339  1.00  0.00     0.120 A 
HETATM   62  C26 UNL     1     -38.300  17.312 -20.761  1.00  0.00     0.068 A 
HETATM   63  C27 UNL     1     -38.859  18.265 -19.941  1.00  0.00     0.115 A 
HETATM   64  N16 UNL     1     -38.114  19.367 -20.044  1.00  0.00    -0.279 N 
ATOM     65  H16 UNL     1     -38.283  20.244 -19.550  1.00  0.00     0.189 HD
BRANCH  63  66
HETATM   66  N15 UNL     1     -39.932  18.100 -19.198  1.00  0.00    -0.384 N 
ATOM     67 2H15 UNL     1     -40.169  18.600 -18.341  1.00  0.00     0.157 HD
ATOM     68 1H15 UNL     1     -40.683  17.435 -19.381  1.00  0.00     0.157 HD
ENDBRANCH  63  66
ENDBRANCH  56  60
ENDBRANCH  48  49
ENDBRANCH  47  48
ENDBRANCH  43  47
ENDBRANCH  37  40
ENDBRANCH  35  36
ENDBRANCH   1  35
TORSDOF 17
ENDMDL
MODEL 2
REMARK VINA RESULT: -7.277589036      2.001      5.070
REMARK  17 active torsions:
REMARK  status: ('A' for Active; 'I' for Inactive)
REMARK    1  A    between atoms: C2_2  and  N8_31 
REMARK       I    between atoms: N1_3  and  C3_5 
REMARK    2  A    between atoms: C3_5  and  C4_7 
REMARK    3  A    between atoms: C4_7  and  N2_8 
REMARK    4  A    between atoms: C4_7  and  C5_12 
REMARK    5  A    between atoms: C5_12  and  C6_13 
REMARK    6  A    between atoms: C9_20  and  N5_21 
REMARK    7  A    between atoms: N8_31  and  C12_33 
REMARK    8  A    between atoms: C12_33  and  C13_34 
REMARK    9  A    between atoms: C13_34  and  C14_35 
REMARK   10  A    between atoms: C14_35  and  N9_36 
REMARK       I    between atoms: N9_36  and  C15_38 
REMARK   11  A    between atoms: C15_38  and  C16_40 
REMARK   12  A    between atoms: C19_43  and  C20_44 
REMARK   13  A    between atoms: C20_44  and  N10_45 
REMARK   14  A    between atoms: N10_45  and  C21_46 
REMARK   15  A    between atoms: C22_49  and  N12_50 
REMARK   16  A    between atoms: C24_56  and  N14_57 
REMARK   17  A    between atoms: C27_60  and  N15_61 
ROOT
HETATM    1  C13 UNL     1     -29.611  16.144 -13.171  1.00  0.00     0.039 C 
ENDROOT
BRANCH   1   2
HETATM    2  C12 UNL     1     -30.799  16.717 -12.442  1.00  0.00     0.122 C 
BRANCH   2   3
HETATM    3  N8  UNL     1     -30.506  16.866 -11.033  1.00  0.00    -0.380 N 
ATOM      4  H8  UNL     1     -29.549  16.933 -10.687  1.00  0.00     0.160 HD
BRANCH   3   5
HETATM    5  C2  UNL     1     -31.639  16.913 -10.144  1.00  0.00     0.075 C 
HETATM    6  C1  UNL     1     -32.482  18.128 -10.061  1.00  0.00     0.089 C 
HETATM    7  N1  UNL     1     -31.885  15.877  -9.434  1.00  0.00    -0.315 N 
HETATM    8  C3  UNL     1     -31.076  14.702  -9.507  1.00  0.00     0.254 C 
ATOM      9  H1  UNL     1     -32.682  15.891  -8.797  1.00  0.00     0.170 HD
HETATM   10  O1  UNL     1     -29.834  14.880  -9.507  1.00  0.00    -0.271 OA
BRANCH   8  11
HETATM   11  C4  UNL     1     -31.610  13.331  -9.584  1.00  0.00     0.280 C 
BRANCH  11  12
HETATM   12  N2  UNL     1     -32.248  13.025  -8.303  1.00  0.00    -0.066 N 
ATOM     13  H23 UNL     1     -31.576  12.911  -7.544  1.00  0.00     0.275 HD
ATOM     14  H22 UNL     1     -32.756  13.819  -7.914  1.00  0.00     0.275 HD
ATOM     15  H21 UNL     1     -32.838  12.204  -8.436  1.00  0.00     0.275 HD
ENDBRANCH  11  12
BRANCH  11  16
HETATM   16  C5  UNL     1     -32.655  13.117 -10.633  1.00  0.00     0.101 C 
BRANCH  16  17
HETATM   17  C6  UNL     1     -32.158  12.974 -12.003  1.00  0.00     0.028 A 
HETATM   18  C7  UNL     1     -30.975  12.279 -12.240  1.00  0.00     0.114 A 
HETATM   19  N3  UNL     1     -30.519  12.136 -13.492  1.00  0.00    -0.348 N 
HETATM   20  C8  UNL     1     -31.175  12.649 -14.529  1.00  0.00     0.153 A 
ATOM     21  H3  UNL     1     -29.651  11.624 -13.653  1.00  0.00     0.167 HD
HETATM   22  N4  UNL     1     -30.758  12.533 -15.810  1.00  0.00    -0.174 N 
HETATM   23  C11 UNL     1     -32.352  13.343 -14.325  1.00  0.00     0.147 A 
HETATM   24  C9  UNL     1     -31.433  13.056 -16.851  1.00  0.00     0.680 A 
ATOM     25  H4  UNL     1     -29.892  12.028 -15.996  1.00  0.00     0.186 HD
HETATM   26  N6  UNL     1     -32.569  13.729 -16.671  1.00  0.00    -0.154 N 
HETATM   27  C10 UNL     1     -33.025  13.873 -15.431  1.00  0.00     0.290 A 
ATOM     28  H6  UNL     1     -33.074  14.124 -17.464  1.00  0.00     0.187 HD
HETATM   29  O2  UNL     1     -34.094  14.498 -15.192  1.00  0.00    -0.265 OA
HETATM   30  N7  UNL     1     -32.787  13.473 -13.080  1.00  0.00    -0.351 N 
ATOM     31  H7  UNL     1     -33.655  13.986 -12.928  1.00  0.00     0.166 HD
BRANCH  24  32
HETATM   32  N5  UNL     1     -30.975  12.908 -18.053  1.00  0.00    -0.234 N 
ATOM     33  H52 UNL     1     -31.541  12.410 -18.740  1.00  0.00     0.174 HD
ATOM     34  H51 UNL     1     -30.061  13.289 -18.297  1.00  0.00     0.174 HD
ENDBRANCH  24  32
ENDBRANCH  16  17
ENDBRANCH  11  16
ENDBRANCH   8  11
ENDBRANCH   3   5
ENDBRANCH   2   3
ENDBRANCH   1   2
BRANCH   1  35
HETATM   35  C14 UNL     1     -29.733  16.499 -14.628  1.00  0.00     0.124 C 
BRANCH  35  36
HETATM   36  N9  UNL     1     -31.128  16.629 -15.063  1.00  0.00    -0.356 N 
HETATM   37  C15 UNL     1     -31.513  17.565 -16.043  1.00  0.00     0.268 C 
HETATM   38  O3  UNL     1     -30.673  18.325 -16.568  1.00  0.00    -0.266 OA
ATOM     39  H9  UNL     1     -31.837  16.025 -14.646  1.00  0.00     0.162 HD
BRANCH  37  40
HETATM   40  C16 UNL     1     -32.904  17.669 -16.469  1.00  0.00     0.100 A 
HETATM   41  C17 UNL     1     -33.789  18.567 -15.936  1.00  0.00     0.036 A 
HETATM   42  C18 UNL     1     -35.110  18.624 -16.361  1.00  0.00     0.017 A 
HETATM   43  C19 UNL     1     -35.540  17.768 -17.330  1.00  0.00     0.008 A 
HETATM   44  C28 UNL     1     -34.644  16.869 -17.861  1.00  0.00     0.102 A 
HETATM   45  N17 UNL     1     -33.377  16.833 -17.436  1.00  0.00    -0.361 N 
ATOM     46  H17 UNL     1     -32.740  16.153 -17.850  1.00  0.00     0.165 HD
BRANCH  43  47
HETATM   47  C20 UNL     1     -36.975  17.758 -17.841  1.00  0.00     0.197 C 
BRANCH  47  48
HETATM   48  N10 UNL     1     -37.213  18.591 -18.853  1.00  0.00    -0.396 NA
BRANCH  48  49
HETATM   49  C21 UNL     1     -37.534  19.144 -19.865  1.00  0.00     0.223 A 
HETATM   50  N11 UNL     1     -38.849  19.298 -20.242  1.00  0.00    -0.162 N 
HETATM   51  C22 UNL     1     -39.213  19.919 -21.366  1.00  0.00     0.678 A 
ATOM     52  H11 UNL     1     -39.577  18.920 -19.637  1.00  0.00     0.187 HD
HETATM   53  N13 UNL     1     -38.276  20.428 -22.183  1.00  0.00    -0.200 N 
HETATM   54  C23 UNL     1     -36.961  20.336 -21.913  1.00  0.00     0.142 A 
ATOM     55  H13 UNL     1     -38.571  20.899 -23.038  1.00  0.00     0.183 HD
HETATM   56  C24 UNL     1     -36.619  19.685 -20.742  1.00  0.00     0.130 A 
BRANCH  51  57
HETATM   57  N12 UNL     1     -40.465  20.050 -21.702  1.00  0.00    -0.234 N 
ATOM     58 2H12 UNL     1     -40.743  20.884 -22.219  1.00  0.00     0.174 HD
ATOM     59 1H12 UNL     1     -41.163  19.345 -21.462  1.00  0.00     0.174 HD
ENDBRANCH  51  57
BRANCH  56  60
HETATM   60  N14 UNL     1     -35.229  19.580 -20.432  1.00  0.00    -0.260 N 
HETATM   61  C25 UNL     1     -34.420  18.750 -21.102  1.00  0.00     0.120 A 
HETATM   62  C26 UNL     1     -33.170  18.885 -20.584  1.00  0.00     0.068 A 
HETATM   63  C27 UNL     1     -33.264  19.823 -19.583  1.00  0.00     0.115 A 
HETATM   64  N16 UNL     1     -34.537  20.220 -19.525  1.00  0.00    -0.279 N 
ATOM     65  H16 UNL     1     -34.911  20.913 -18.876  1.00  0.00     0.189 HD
BRANCH  63  66
HETATM   66  N15 UNL     1     -32.269  20.241 -18.831  1.00  0.00    -0.384 N 
ATOM     67 2H15 UNL     1     -31.833  21.163 -18.845  1.00  0.00     0.157 HD
ATOM     68 1H15 UNL     1     -31.789  19.687 -18.121  1.00  0.00     0.157 HD
ENDBRANCH  63  66
ENDBRANCH  56  60
ENDBRANCH  48  49
ENDBRANCH  47  48
ENDBRANCH  43  47
ENDBRANCH  37  40
ENDBRANCH  35  36
ENDBRANCH   1  35
TORSDOF 17
ENDMDL
MODEL 3
REMARK VINA RESULT: -7.270971550      2.558      5.532
REMARK  17 active torsions:
REMARK  status: ('A' for Active; 'I' for Inactive)
REMARK    1  A    between atoms: C2_2  and  N8_31 
REMARK       I    between atoms: N1_3  and  C3_5 
REMARK    2  A    between atoms: C3_5  and  C4_7 
REMARK    3  A    between atoms: C4_7  and  N2_8 
REMARK    4  A    between atoms: C4_7  and  C5_12 
REMARK    5  A    between atoms: C5_12  and  C6_13 
REMARK    6  A    between atoms: C9_20  and  N5_21 
REMARK    7  A    between atoms: N8_31  and  C12_33 
REMARK    8  A    between atoms: C12_33  and  C13_34 
REMARK    9  A    between atoms: C13_34  and  C14_35 
REMARK   10  A    between atoms: C14_35  and  N9_36 
REMARK       I    between atoms: N9_36  and  C15_38 
REMARK   11  A    between atoms: C15_38  and  C16_40 
REMARK   12  A    between atoms: C19_43  and  C20_44 
REMARK   13  A    between atoms: C20_44  and  N10_45 
REMARK   14  A    between atoms: N10_45  and  C21_46 
REMARK   15  A    between atoms: C22_49  and  N12_50 
REMARK   16  A    between atoms: C24_56  and  N14_57 
REMARK   17  A    between atoms: C27_60  and  N15_61 
ROOT
HETATM    1  C13 UNL     1     -31.475  16.416 -10.285  1.00  0.00     0.039 C 
ENDROOT
BRANCH   1   2
HETATM    2  C12 UNL     1     -31.394  15.098  -9.559  1.00  0.00     0.122 C 
BRANCH   2   3
HETATM    3  N8  UNL     1     -30.621  14.144 -10.325  1.00  0.00    -0.380 N 
ATOM      4  H8  UNL     1     -29.614  14.247 -10.453  1.00  0.00     0.160 HD
BRANCH   3   5
HETATM    5  C2  UNL     1     -31.350  13.041 -10.899  1.00  0.00     0.075 C 
HETATM    6  C1  UNL     1     -32.634  12.598 -10.308  1.00  0.00     0.089 C 
HETATM    7  N1  UNL     1     -30.850  12.464 -11.927  1.00  0.00    -0.315 N 
HETATM    8  C3  UNL     1     -29.613  12.886 -12.501  1.00  0.00     0.254 C 
ATOM      9  H1  UNL     1     -31.350  11.681 -12.347  1.00  0.00     0.170 HD
HETATM   10  O1  UNL     1     -28.676  13.117 -11.698  1.00  0.00    -0.271 OA
BRANCH   8  11
HETATM   11  C4  UNL     1     -29.385  13.061 -13.946  1.00  0.00     0.280 C 
BRANCH  11  12
HETATM   12  N2  UNL     1     -27.982  12.747 -14.220  1.00  0.00    -0.066 N 
ATOM     13  H23 UNL     1     -27.642  11.952 -13.680  1.00  0.00     0.275 HD
ATOM     14  H22 UNL     1     -27.840  12.349 -15.148  1.00  0.00     0.275 HD
ATOM     15  H21 UNL     1     -27.436  13.594 -14.065  1.00  0.00     0.275 HD
ENDBRANCH  11  12
BRANCH  11  16
HETATM   16  C5  UNL     1     -30.194  12.162 -14.827  1.00  0.00     0.101 C 
BRANCH  16  17
HETATM   17  C6  UNL     1     -30.994  12.834 -15.854  1.00  0.00     0.028 A 
HETATM   18  C7  UNL     1     -31.812  13.904 -15.502  1.00  0.00     0.114 A 
HETATM   19  N3  UNL     1     -32.539  14.530 -16.439  1.00  0.00    -0.348 N 
HETATM   20  C8  UNL     1     -32.499  14.150 -17.712  1.00  0.00     0.153 A 
ATOM     21  H3  UNL     1     -33.135  15.312 -16.169  1.00  0.00     0.167 HD
HETATM   22  N4  UNL     1     -33.212  14.747 -18.693  1.00  0.00    -0.174 N 
HETATM   23  C11 UNL     1     -31.695  13.092 -18.092  1.00  0.00     0.147 A 
HETATM   24  C9  UNL     1     -33.161  14.353 -19.980  1.00  0.00     0.680 A 
ATOM     25  H4  UNL     1     -33.817  15.531 -18.448  1.00  0.00     0.186 HD
HETATM   26  N6  UNL     1     -32.392  13.334 -20.362  1.00  0.00    -0.154 N 
HETATM   27  C10 UNL     1     -31.669  12.710 -19.437  1.00  0.00     0.290 A 
ATOM     28  H6  UNL     1     -32.359  13.040 -21.338  1.00  0.00     0.187 HD
HETATM   29  O2  UNL     1     -30.920  11.740 -19.732  1.00  0.00    -0.265 OA
HETATM   30  N7  UNL     1     -30.984  12.486 -17.151  1.00  0.00    -0.351 N 
ATOM     31  H7  UNL     1     -30.391  11.705 -17.430  1.00  0.00     0.166 HD
BRANCH  24  32
HETATM   32  N5  UNL     1     -33.872  14.971 -20.870  1.00  0.00    -0.234 N 
ATOM     33  H52 UNL     1     -34.825  14.654 -21.048  1.00  0.00     0.174 HD
ATOM     34  H51 UNL     1     -33.473  15.762 -21.375  1.00  0.00     0.174 HD
ENDBRANCH  24  32
ENDBRANCH  16  17
ENDBRANCH  11  16
ENDBRANCH   8  11
ENDBRANCH   3   5
ENDBRANCH   2   3
ENDBRANCH   1   2
BRANCH   1  35
HETATM   35  C14 UNL     1     -30.338  16.488 -11.266  1.00  0.00     0.124 C 
BRANCH  35  36
HETATM   36  N9  UNL     1     -30.794  16.581 -12.656  1.00  0.00    -0.356 N 
HETATM   37  C15 UNL     1     -31.113  17.818 -13.250  1.00  0.00     0.268 C 
HETATM   38  O3  UNL     1     -31.023  18.881 -12.601  1.00  0.00    -0.266 OA
ATOM     39  H9  UNL     1     -30.884  15.727 -13.208  1.00  0.00     0.162 HD
BRANCH  37  40
HETATM   40  C16 UNL     1     -31.555  17.887 -14.638  1.00  0.00     0.100 A 
HETATM   41  C17 UNL     1     -32.872  17.940 -15.007  1.00  0.00     0.036 A 
HETATM   42  C18 UNL     1     -33.251  17.992 -16.342  1.00  0.00     0.017 A 
HETATM   43  C19 UNL     1     -32.294  17.989 -17.311  1.00  0.00     0.008 A 
HETATM   44  C28 UNL     1     -30.972  17.937 -16.932  1.00  0.00     0.102 A 
HETATM   45  N17 UNL     1     -30.631  17.887 -15.640  1.00  0.00    -0.361 N 
ATOM     46  H17 UNL     1     -29.642  17.848 -15.395  1.00  0.00     0.165 HD
BRANCH  43  47
HETATM   47  C20 UNL     1     -32.627  18.030 -18.796  1.00  0.00     0.197 C 
BRANCH  47  48
HETATM   48  N10 UNL     1     -32.393  19.201 -19.389  1.00  0.00    -0.396 NA
BRANCH  48  49
HETATM   49  C21 UNL     1     -32.417  20.237 -19.988  1.00  0.00     0.223 A 
HETATM   50  N11 UNL     1     -31.695  20.445 -21.141  1.00  0.00    -0.162 N 
HETATM   51  C22 UNL     1     -31.722  21.595 -21.817  1.00  0.00     0.678 A 
ATOM     52  H11 UNL     1     -31.113  19.686 -21.495  1.00  0.00     0.187 HD
HETATM   53  N13 UNL     1     -32.481  22.613 -21.375  1.00  0.00    -0.200 N 
HETATM   54  C23 UNL     1     -33.228  22.520 -20.260  1.00  0.00     0.142 A 
ATOM     55  H13 UNL     1     -32.491  23.485 -21.903  1.00  0.00     0.183 HD
HETATM   56  C24 UNL     1     -33.175  21.315 -19.584  1.00  0.00     0.130 A 
BRANCH  51  57
HETATM   57  N12 UNL     1     -31.028  21.768 -22.906  1.00  0.00    -0.234 N 
ATOM     58 2H12 UNL     1     -31.467  22.253 -23.688  1.00  0.00     0.174 HD
ATOM     59 1H12 UNL     1     -30.068  21.433 -22.990  1.00  0.00     0.174 HD
ENDBRANCH  51  57
BRANCH  56  60
HETATM   60  N14 UNL     1     -33.964  21.192 -18.400  1.00  0.00    -0.260 N 
HETATM   61  C25 UNL     1     -33.649  21.844 -17.274  1.00  0.00     0.120 A 
HETATM   62  C26 UNL     1     -34.586  21.531 -16.340  1.00  0.00     0.068 A 
HETATM   63  C27 UNL     1     -35.468  20.670 -16.949  1.00  0.00     0.115 A 
HETATM   64  N16 UNL     1     -35.051  20.491 -18.204  1.00  0.00    -0.279 N 
ATOM     65  H16 UNL     1     -35.507  19.901 -18.900  1.00  0.00     0.189 HD
BRANCH  63  66
HETATM   66  N15 UNL     1     -36.527  20.133 -16.381  1.00  0.00    -0.384 N 
ATOM     67 2H15 UNL     1     -36.598  19.774 -15.429  1.00  0.00     0.157 HD
ATOM     68 1H15 UNL     1     -37.434  19.998 -16.827  1.00  0.00     0.157 HD
ENDBRANCH  63  66
ENDBRANCH  56  60
ENDBRANCH  48  49
ENDBRANCH  47  48
ENDBRANCH  43  47
ENDBRANCH  37  40
ENDBRANCH  35  36
ENDBRANCH   1  35
TORSDOF 17
ENDMDL
MODEL 4
REMARK VINA RESULT: -7.256167773      2.502     10.494
REMARK  17 active torsions:
REMARK  status: ('A' for Active; 'I' for Inactive)
REMARK    1  A    between atoms: C2_2  and  N8_31 
REMARK       I    between atoms: N1_3  and  C3_5 
REMARK    2  A    between atoms: C3_5  and  C4_7 
REMARK    3  A    between atoms: C4_7  and  N2_8 
REMARK    4  A    between atoms: C4_7  and  C5_12 
REMARK    5  A    between atoms: C5_12  and  C6_13 
REMARK    6  A    between atoms: C9_20  and  N5_21 
REMARK    7  A    between atoms: N8_31  and  C12_33 
REMARK    8  A    between atoms: C12_33  and  C13_34 
REMARK    9  A    between atoms: C13_34  and  C14_35 
REMARK   10  A    between atoms: C14_35  and  N9_36 
REMARK       I    between atoms: N9_36  and  C15_38 
REMARK   11  A    between atoms: C15_38  and  C16_40 
REMARK   12  A    between atoms: C19_43  and  C20_44 
REMARK   13  A    between atoms: C20_44  and  N10_45 
REMARK   14  A    between atoms: N10_45  and  C21_46 
REMARK   15  A    between atoms: C22_49  and  N12_50 
REMARK   16  A    between atoms: C24_56  and  N14_57 
REMARK   17  A    between atoms: C27_60  and  N15_61 
ROOT
HETATM    1  C13 UNL     1     -35.565  20.816 -17.211  1.00  0.00     0.039 C 
ENDROOT
BRANCH   1   2
HETATM    2  C12 UNL     1     -34.189  21.187 -16.720  1.00  0.00     0.122 C 
BRANCH   2   3
HETATM    3  N8  UNL     1     -33.344  21.579 -17.827  1.00  0.00    -0.380 N 
ATOM      4  H8  UNL     1     -33.130  22.558 -18.019  1.00  0.00     0.160 HD
BRANCH   3   5
HETATM    5  C2  UNL     1     -32.822  20.514 -18.644  1.00  0.00     0.075 C 
HETATM    6  C1  UNL     1     -32.371  19.244 -18.029  1.00  0.00     0.089 C 
HETATM    7  N1  UNL     1     -32.761  20.705 -19.909  1.00  0.00    -0.315 N 
HETATM    8  C3  UNL     1     -33.193  21.927 -20.508  1.00  0.00     0.254 C 
ATOM      9  H1  UNL     1     -32.393  19.963 -20.505  1.00  0.00     0.170 HD
HETATM   10  O1  UNL     1     -32.826  22.986 -19.943  1.00  0.00    -0.271 OA
BRANCH   8  11
HETATM   11  C4  UNL     1     -34.026  22.007 -21.721  1.00  0.00     0.280 C 
BRANCH  11  12
HETATM   12  N2  UNL     1     -33.210  22.590 -22.787  1.00  0.00    -0.066 N 
ATOM     13  H23 UNL     1     -32.410  23.112 -22.433  1.00  0.00     0.275 HD
ATOM     14  H22 UNL     1     -32.691  21.889 -23.316  1.00  0.00     0.275 HD
ATOM     15  H21 UNL     1     -33.823  23.155 -23.376  1.00  0.00     0.275 HD
ENDBRANCH  11  12
BRANCH  11  16
HETATM   16  C5  UNL     1     -34.515  20.692 -22.240  1.00  0.00     0.101 C 
BRANCH  16  17
HETATM   17  C6  UNL     1     -35.767  20.206 -21.654  1.00  0.00     0.028 A 
HETATM   18  C7  UNL     1     -36.983  20.704 -22.113  1.00  0.00     0.114 A 
HETATM   19  N3  UNL     1     -38.133  20.257 -21.588  1.00  0.00    -0.348 N 
HETATM   20  C8  UNL     1     -38.142  19.337 -20.627  1.00  0.00     0.153 A 
ATOM     21  H3  UNL     1     -39.018  20.629 -21.933  1.00  0.00     0.167 HD
HETATM   22  N4  UNL     1     -39.273  18.854 -20.065  1.00  0.00    -0.174 N 
HETATM   23  C11 UNL     1     -36.950  18.824 -20.153  1.00  0.00     0.147 A 
HETATM   24  C9  UNL     1     -39.268  17.922 -19.094  1.00  0.00     0.680 A 
ATOM     25  H4  UNL     1     -40.170  19.212 -20.392  1.00  0.00     0.186 HD
HETATM   26  N6  UNL     1     -38.127  17.417 -18.625  1.00  0.00    -0.154 N 
HETATM   27  C10 UNL     1     -36.985  17.858 -19.142  1.00  0.00     0.290 A 
ATOM     28  H6  UNL     1     -38.131  16.712 -17.888  1.00  0.00     0.187 HD
HETATM   29  O2  UNL     1     -35.871  17.421 -18.743  1.00  0.00    -0.265 OA
HETATM   30  N7  UNL     1     -35.825  19.279 -20.684  1.00  0.00    -0.351 N 
ATOM     31  H7  UNL     1     -34.945  18.901 -20.334  1.00  0.00     0.166 HD
BRANCH  24  32
HETATM   32  N5  UNL     1     -40.390  17.503 -18.600  1.00  0.00    -0.234 N 
ATOM     33  H52 UNL     1     -41.174  17.331 -19.230  1.00  0.00     0.174 HD
ATOM     34  H51 UNL     1     -40.474  17.350 -17.596  1.00  0.00     0.174 HD
ENDBRANCH  24  32
ENDBRANCH  16  17
ENDBRANCH  11  16
ENDBRANCH   8  11
ENDBRANCH   3   5
ENDBRANCH   2   3
ENDBRANCH   1   2
BRANCH   1  35
HETATM   35  C14 UNL     1     -36.213  19.932 -16.181  1.00  0.00     0.124 C 
BRANCH  35  36
HETATM   36  N9  UNL     1     -35.358  18.809 -15.782  1.00  0.00    -0.356 N 
HETATM   37  C15 UNL     1     -35.883  17.519 -15.573  1.00  0.00     0.268 C 
HETATM   38  O3  UNL     1     -37.103  17.292 -15.715  1.00  0.00    -0.266 OA
ATOM     39  H9  UNL     1     -34.359  18.967 -15.652  1.00  0.00     0.162 HD
BRANCH  37  40
HETATM   40  C16 UNL     1     -35.013  16.414 -15.186  1.00  0.00     0.100 A 
HETATM   41  C17 UNL     1     -33.728  16.273 -15.635  1.00  0.00     0.036 A 
HETATM   42  C18 UNL     1     -32.938  15.197 -15.252  1.00  0.00     0.017 A 
HETATM   43  C19 UNL     1     -33.449  14.256 -14.411  1.00  0.00     0.008 A 
HETATM   44  C28 UNL     1     -34.742  14.404 -13.963  1.00  0.00     0.102 A 
HETATM   45  N17 UNL     1     -35.484  15.449 -14.346  1.00  0.00    -0.361 N 
ATOM     46  H17 UNL     1     -36.439  15.526 -13.996  1.00  0.00     0.165 HD
BRANCH  43  47
HETATM   47  C20 UNL     1     -32.653  13.040 -13.955  1.00  0.00     0.197 C 
BRANCH  47  48
HETATM   48  N10 UNL     1     -32.268  13.071 -12.679  1.00  0.00    -0.396 NA
BRANCH  48  49
HETATM   49  C21 UNL     1     -32.089  13.276 -11.514  1.00  0.00     0.223 A 
HETATM   50  N11 UNL     1     -32.519  12.412 -10.533  1.00  0.00    -0.162 N 
HETATM   51  C22 UNL     1     -32.318  12.633  -9.233  1.00  0.00     0.678 A 
ATOM     52  H11 UNL     1     -33.014  11.566 -10.812  1.00  0.00     0.187 HD
HETATM   53  N13 UNL     1     -31.668  13.739  -8.834  1.00  0.00    -0.200 N 
HETATM   54  C23 UNL     1     -31.203  14.652  -9.706  1.00  0.00     0.142 A 
ATOM     55  H13 UNL     1     -31.522  13.892  -7.836  1.00  0.00     0.183 HD
HETATM   56  C24 UNL     1     -31.430  14.392 -11.046  1.00  0.00     0.130 A 
BRANCH  51  57
HETATM   57  N12 UNL     1     -32.736  11.799  -8.322  1.00  0.00    -0.234 N 
ATOM     58 2H12 UNL     1     -33.483  12.101  -7.696  1.00  0.00     0.174 HD
ATOM     59 1H12 UNL     1     -32.338  10.865  -8.225  1.00  0.00     0.174 HD
ENDBRANCH  51  57
BRANCH  56  60
HETATM   60  N14 UNL     1     -30.941  15.346 -11.991  1.00  0.00    -0.260 N 
HETATM   61  C25 UNL     1     -31.394  16.605 -12.018  1.00  0.00     0.120 A 
HETATM   62  C26 UNL     1     -30.735  17.259 -13.011  1.00  0.00     0.068 A 
HETATM   63  C27 UNL     1     -29.875  16.345 -13.573  1.00  0.00     0.115 A 
HETATM   64  N16 UNL     1     -30.034  15.192 -12.920  1.00  0.00    -0.279 N 
ATOM     65  H16 UNL     1     -29.528  14.327 -13.115  1.00  0.00     0.189 HD
BRANCH  63  66
HETATM   66  N15 UNL     1     -29.052  16.583 -14.572  1.00  0.00    -0.384 N 
ATOM     67 2H15 UNL     1     -28.172  17.098 -14.534  1.00  0.00     0.157 HD
ATOM     68 1H15 UNL     1     -29.188  16.281 -15.537  1.00  0.00     0.157 HD
ENDBRANCH  63  66
ENDBRANCH  56  60
ENDBRANCH  48  49
ENDBRANCH  47  48
ENDBRANCH  43  47
ENDBRANCH  37  40
ENDBRANCH  35  36
ENDBRANCH   1  35
TORSDOF 17
ENDMDL
MODEL 5
REMARK VINA RESULT: -7.210425033      3.103      5.162
REMARK  17 active torsions:
REMARK  status: ('A' for Active; 'I' for Inactive)
REMARK    1  A    between atoms: C2_2  and  N8_31 
REMARK       I    between atoms: N1_3  and  C3_5 
REMARK    2  A    between atoms: C3_5  and  C4_7 
REMARK    3  A    between atoms: C4_7  and  N2_8 
REMARK    4  A    between atoms: C4_7  and  C5_12 
REMARK    5  A    between atoms: C5_12  and  C6_13 
REMARK    6  A    between atoms: C9_20  and  N5_21 
REMARK    7  A    between atoms: N8_31  and  C12_33 
REMARK    8  A    between atoms: C12_33  and  C13_34 
REMARK    9  A    between atoms: C13_34  and  C14_35 
REMARK   10  A    between atoms: C14_35  and  N9_36 
REMARK       I    between atoms: N9_36  and  C15_38 
REMARK   11  A    between atoms: C15_38  and  C16_40 
REMARK   12  A    between atoms: C19_43  and  C20_44 
REMARK   13  A    between atoms: C20_44  and  N10_45 
REMARK   14  A    between atoms: N10_45  and  C21_46 
REMARK   15  A    between atoms: C22_49  and  N12_50 
REMARK   16  A    between atoms: C24_56  and  N14_57 
REMARK   17  A    between atoms: C27_60  and  N15_61 
ROOT
HETATM    1  C13 UNL     1     -28.890  16.472 -14.202  1.00  0.00     0.039 C 
ENDROOT
BRANCH   1   2
HETATM    2  C12 UNL     1     -30.195  16.458 -13.449  1.00  0.00     0.122 C 
BRANCH   2   3
HETATM    3  N8  UNL     1     -29.959  16.501 -12.022  1.00  0.00    -0.380 N 
ATOM      4  H8  UNL     1     -29.016  16.559 -11.635  1.00  0.00     0.160 HD
BRANCH   3   5
HETATM    5  C2  UNL     1     -31.124  16.455 -11.177  1.00  0.00     0.075 C 
HETATM    6  C1  UNL     1     -31.909  17.683 -10.908  1.00  0.00     0.089 C 
HETATM    7  N1  UNL     1     -31.452  15.326 -10.670  1.00  0.00    -0.315 N 
HETATM    8  C3  UNL     1     -30.700  14.139 -10.924  1.00  0.00     0.254 C 
ATOM      9  H1  UNL     1     -32.274  15.273 -10.068  1.00  0.00     0.170 HD
HETATM   10  O1  UNL     1     -29.451  14.243 -10.851  1.00  0.00    -0.271 OA
BRANCH   8  11
HETATM   11  C4  UNL     1     -31.297  12.835 -11.261  1.00  0.00     0.280 C 
BRANCH  11  12
HETATM   12  N2  UNL     1     -32.752  12.992 -11.254  1.00  0.00    -0.066 N 
ATOM     13  H23 UNL     1     -33.088  13.528 -10.454  1.00  0.00     0.275 HD
ATOM     14  H22 UNL     1     -33.086  13.619 -11.986  1.00  0.00     0.275 HD
ATOM     15  H21 UNL     1     -33.167  12.062 -11.309  1.00  0.00     0.275 HD
ENDBRANCH  11  12
BRANCH  11  16
HETATM   16  C5  UNL     1     -30.941  12.306 -12.614  1.00  0.00     0.101 C 
BRANCH  16  17
HETATM   17  C6  UNL     1     -29.507  12.165 -12.882  1.00  0.00     0.028 A 
HETATM   18  C7  UNL     1     -28.955  12.755 -14.016  1.00  0.00     0.114 A 
HETATM   19  N3  UNL     1     -27.643  12.638 -14.263  1.00  0.00    -0.348 N 
HETATM   20  C8  UNL     1     -26.843  11.963 -13.442  1.00  0.00     0.153 A 
ATOM     21  H3  UNL     1     -27.250  13.074 -15.097  1.00  0.00     0.167 HD
HETATM   22  N4  UNL     1     -25.515  11.816 -13.645  1.00  0.00    -0.174 N 
HETATM   23  C11 UNL     1     -27.362  11.368 -12.308  1.00  0.00     0.147 A 
HETATM   24  C9  UNL     1     -24.716  11.132 -12.804  1.00  0.00     0.680 A 
ATOM     25  H4  UNL     1     -25.099  12.241 -14.473  1.00  0.00     0.186 HD
HETATM   26  N6  UNL     1     -25.201  10.551 -11.708  1.00  0.00    -0.154 N 
HETATM   27  C10 UNL     1     -26.502  10.664 -11.459  1.00  0.00     0.290 A 
ATOM     28  H6  UNL     1     -24.591  10.033 -11.076  1.00  0.00     0.187 HD
HETATM   29  O2  UNL     1     -27.024  10.140 -10.438  1.00  0.00    -0.265 OA
HETATM   30  N7  UNL     1     -28.662  11.495 -12.081  1.00  0.00    -0.351 N 
ATOM     31  H7  UNL     1     -29.046  11.056 -11.245  1.00  0.00     0.166 HD
BRANCH  24  32
HETATM   32  N5  UNL     1     -23.450  11.030 -13.061  1.00  0.00    -0.234 N 
ATOM     33  H52 UNL     1     -23.051  11.596 -13.810  1.00  0.00     0.174 HD
ATOM     34  H51 UNL     1     -22.873  10.391 -12.515  1.00  0.00     0.174 HD
ENDBRANCH  24  32
ENDBRANCH  16  17
ENDBRANCH  11  16
ENDBRANCH   8  11
ENDBRANCH   3   5
ENDBRANCH   2   3
ENDBRANCH   1   2
BRANCH   1  35
HETATM   35  C14 UNL     1     -29.167  16.110 -15.635  1.00  0.00     0.124 C 
BRANCH  35  36
HETATM   36  N9  UNL     1     -30.590  16.206 -15.979  1.00  0.00    -0.356 N 
HETATM   37  C15 UNL     1     -31.129  17.358 -16.581  1.00  0.00     0.268 C 
HETATM   38  O3  UNL     1     -30.408  18.346 -16.837  1.00  0.00    -0.266 OA
ATOM     39  H9  UNL     1     -31.203  15.416 -15.775  1.00  0.00     0.162 HD
BRANCH  37  40
HETATM   40  C16 UNL     1     -32.545  17.428 -16.924  1.00  0.00     0.100 A 
HETATM   41  C17 UNL     1     -33.118  16.678 -17.916  1.00  0.00     0.036 A 
HETATM   42  C18 UNL     1     -34.469  16.786 -18.219  1.00  0.00     0.017 A 
HETATM   43  C19 UNL     1     -35.247  17.656 -17.517  1.00  0.00     0.008 A 
HETATM   44  C28 UNL     1     -34.663  18.406 -16.521  1.00  0.00     0.102 A 
HETATM   45  N17 UNL     1     -33.361  18.285 -16.246  1.00  0.00    -0.361 N 
ATOM     46  H17 UNL     1     -32.961  18.857 -15.503  1.00  0.00     0.165 HD
BRANCH  43  47
HETATM   47  C20 UNL     1     -36.732  17.842 -17.796  1.00  0.00     0.197 C 
BRANCH  47  48
HETATM   48  N10 UNL     1     -37.011  18.654 -18.816  1.00  0.00    -0.396 NA
BRANCH  48  49
HETATM   49  C21 UNL     1     -37.382  19.190 -19.820  1.00  0.00     0.223 A 
HETATM   50  N11 UNL     1     -38.712  19.280 -20.165  1.00  0.00    -0.162 N 
HETATM   51  C22 UNL     1     -39.133  19.881 -21.279  1.00  0.00     0.678 A 
ATOM     52  H11 UNL     1     -39.406  18.870 -19.541  1.00  0.00     0.187 HD
HETATM   53  N13 UNL     1     -38.241  20.432 -22.120  1.00  0.00    -0.200 N 
HETATM   54  C23 UNL     1     -36.917  20.402 -21.883  1.00  0.00     0.142 A 
ATOM     55  H13 UNL     1     -38.580  20.887 -22.968  1.00  0.00     0.183 HD
HETATM   56  C24 UNL     1     -36.516  19.771 -20.720  1.00  0.00     0.130 A 
BRANCH  51  57
HETATM   57  N12 UNL     1     -40.398  19.953 -21.584  1.00  0.00    -0.234 N 
ATOM     58 2H12 UNL     1     -41.083  19.870 -20.833  1.00  0.00     0.174 HD
ATOM     59 1H12 UNL     1     -40.712  20.089 -22.545  1.00  0.00     0.174 HD
ENDBRANCH  51  57
BRANCH  56  60
HETATM   60  N14 UNL     1     -35.115  19.732 -20.445  1.00  0.00    -0.260 N 
HETATM   61  C25 UNL     1     -34.269  19.024 -21.204  1.00  0.00     0.120 A 
HETATM   62  C26 UNL     1     -33.019  19.194 -20.697  1.00  0.00     0.068 A 
HETATM   63  C27 UNL     1     -33.151  20.026 -19.610  1.00  0.00     0.115 A 
HETATM   64  N16 UNL     1     -34.446  20.329 -19.494  1.00  0.00    -0.279 N 
ATOM     65  H16 UNL     1     -34.850  20.932 -18.776  1.00  0.00     0.189 HD
BRANCH  63  66
HETATM   66  N15 UNL     1     -32.168  20.439 -18.839  1.00  0.00    -0.384 N 
ATOM     67 2H15 UNL     1     -31.931  20.095 -17.908  1.00  0.00     0.157 HD
ATOM     68 1H15 UNL     1     -31.500  21.174 -19.072  1.00  0.00     0.157 HD
ENDBRANCH  63  66
ENDBRANCH  56  60
ENDBRANCH  48  49
ENDBRANCH  47  48
ENDBRANCH  43  47
ENDBRANCH  37  40
ENDBRANCH  35  36
ENDBRANCH   1  35
TORSDOF 17
ENDMDL
