MODEL 1
REMARK VINA RESULT: -5.131584428      0.000      0.000
REMARK  1 active torsions:
REMARK  status: ('A' for Active; 'I' for Inactive)
REMARK    1  A    between atoms: N4_8  and  O1_9 
ROOT
HETATM    1  N1  UNL     1       2.996  78.525  77.492  1.00  0.00    -0.170 NA
HETATM    2  C1  UNL     1       2.244  77.780  77.997  1.00  0.00     0.208 C 
HETATM    3  N2  UNL     1       1.330  76.900  78.597  1.00  0.00    -0.158 N 
HETATM    4  C2  UNL     1       1.680  75.943  79.499  1.00  0.00     0.151 A 
HETATM    5  C3  UNL     1       0.510  75.293  79.850  1.00  0.00     0.131 A 
HETATM    6  N3  UNL     1      -0.461  75.898  79.143  1.00  0.00    -0.268 N 
ATOM      7  H3  UNL     1      -1.449  75.645  79.183  1.00  0.00     0.190 HD
HETATM    8  N4  UNL     1       0.033  76.865  78.390  1.00  0.00    -0.080 N 
ENDROOT
BRANCH   8   9
HETATM    9  O1  UNL     1      -0.663  77.704  77.528  1.00  0.00    -0.252 OA
ATOM     10  H1  UNL     1      -1.355  77.430  76.937  1.00  0.00     0.248 HD
ENDBRANCH   8   9
TORSDOF 1
ENDMDL
MODEL 2
REMARK VINA RESULT: -5.004819844      4.046      5.194
REMARK  1 active torsions:
REMARK  status: ('A' for Active; 'I' for Inactive)
REMARK    1  A    between atoms: N4_8  and  O1_9 
ROOT
HETATM    1  N1  UNL     1      -1.040  75.620  79.441  1.00  0.00    -0.170 NA
HETATM    2  C1  UNL     1      -1.474  74.537  79.324  1.00  0.00     0.208 C 
HETATM    3  N2  UNL     1      -2.009  73.246  79.194  1.00  0.00    -0.158 N 
HETATM    4  C2  UNL     1      -1.263  72.141  78.920  1.00  0.00     0.151 A 
HETATM    5  C3  UNL     1      -2.147  71.077  78.873  1.00  0.00     0.131 A 
HETATM    6  N3  UNL     1      -3.358  71.607  79.120  1.00  0.00    -0.268 N 
ATOM      7  H3  UNL     1      -4.226  71.073  79.154  1.00  0.00     0.190 HD
HETATM    8  N4  UNL     1      -3.274  72.912  79.313  1.00  0.00    -0.080 N 
ENDROOT
BRANCH   8   9
HETATM    9  O1  UNL     1      -4.312  73.793  79.591  1.00  0.00    -0.252 OA
ATOM     10  H1  UNL     1      -4.234  74.583  80.114  1.00  0.00     0.248 HD
ENDBRANCH   8   9
TORSDOF 1
ENDMDL
MODEL 3
REMARK VINA RESULT: -4.947393700      1.974      2.971
REMARK  1 active torsions:
REMARK  status: ('A' for Active; 'I' for Inactive)
REMARK    1  A    between atoms: N4_8  and  O1_9 
ROOT
HETATM    1  N1  UNL     1      -0.572  77.694  77.641  1.00  0.00    -0.170 NA
HETATM    2  C1  UNL     1       0.497  77.303  77.923  1.00  0.00     0.208 C 
HETATM    3  N2  UNL     1       1.785  76.848  78.249  1.00  0.00    -0.158 N 
HETATM    4  C2  UNL     1       2.044  75.621  78.776  1.00  0.00     0.151 A 
HETATM    5  C3  UNL     1       3.415  75.555  78.953  1.00  0.00     0.131 A 
HETATM    6  N3  UNL     1       3.888  76.738  78.522  1.00  0.00    -0.268 N 
ATOM      7  H3  UNL     1       4.873  77.001  78.522  1.00  0.00     0.190 HD
HETATM    8  N4  UNL     1       2.906  77.515  78.099  1.00  0.00    -0.080 N 
ENDROOT
BRANCH   8   9
HETATM    9  O1  UNL     1       3.010  78.803  77.586  1.00  0.00    -0.252 OA
ATOM     10  H1  UNL     1       3.253  79.018  76.693  1.00  0.00     0.248 HD
ENDBRANCH   8   9
TORSDOF 1
ENDMDL
MODEL 4
REMARK VINA RESULT: -4.883364545      2.026      2.268
REMARK  1 active torsions:
REMARK  status: ('A' for Active; 'I' for Inactive)
REMARK    1  A    between atoms: N4_8  and  O1_9 
ROOT
HETATM    1  N1  UNL     1       2.330  77.419  80.927  1.00  0.00    -0.170 NA
HETATM    2  C1  UNL     1       1.453  76.700  80.629  1.00  0.00     0.208 C 
HETATM    3  N2  UNL     1       0.395  75.853  80.261  1.00  0.00    -0.158 N 
HETATM    4  C2  UNL     1       0.053  74.727  80.945  1.00  0.00     0.151 A 
HETATM    5  C3  UNL     1      -1.025  74.178  80.275  1.00  0.00     0.131 A 
HETATM    6  N3  UNL     1      -1.261  75.003  79.240  1.00  0.00    -0.268 N 
ATOM      7  H3  UNL     1      -2.002  74.870  78.552  1.00  0.00     0.190 HD
HETATM    8  N4  UNL     1      -0.406  76.011  79.232  1.00  0.00    -0.080 N 
ENDROOT
BRANCH   8   9
HETATM    9  O1  UNL     1      -0.341  77.057  78.320  1.00  0.00    -0.252 OA
ATOM     10  H1  UNL     1      -1.050  77.331  77.750  1.00  0.00     0.248 HD
ENDBRANCH   8   9
TORSDOF 1
ENDMDL
MODEL 5
REMARK VINA RESULT: -4.866214308      1.593      3.223
REMARK  1 active torsions:
REMARK  status: ('A' for Active; 'I' for Inactive)
REMARK    1  A    between atoms: N4_8  and  O1_9 
ROOT
HETATM    1  N1  UNL     1      -1.885  74.374  79.332  1.00  0.00    -0.170 NA
HETATM    2  C1  UNL     1      -1.093  75.229  79.459  1.00  0.00     0.208 C 
HETATM    3  N2  UNL     1      -0.147  76.258  79.594  1.00  0.00    -0.158 N 
HETATM    4  C2  UNL     1       0.748  76.335  80.616  1.00  0.00     0.151 A 
HETATM    5  C3  UNL     1       1.496  77.478  80.392  1.00  0.00     0.131 A 
HETATM    6  N3  UNL     1       1.006  78.009  79.259  1.00  0.00    -0.268 N 
ATOM      7  H3  UNL     1       1.351  78.866  78.826  1.00  0.00     0.190 HD
HETATM    8  N4  UNL     1       0.018  77.275  78.779  1.00  0.00    -0.080 N 
ENDROOT
BRANCH   8   9
HETATM    9  O1  UNL     1      -0.728  77.508  77.629  1.00  0.00    -0.252 OA
ATOM     10  H1  UNL     1      -1.534  78.009  77.592  1.00  0.00     0.248 HD
ENDBRANCH   8   9
TORSDOF 1
ENDMDL
