MODEL 1
REMARK VINA RESULT: -9.722950638      0.000      0.000
REMARK  11 active torsions:
REMARK  status: ('A' for Active; 'I' for Inactive)
REMARK    1  A    between atoms: C2_2  and  N1_3 
REMARK       I    between atoms: N1_3  and  C3_5 
REMARK    2  A    between atoms: C3_5  and  C4_7 
REMARK    3  A    between atoms: C4_7  and  S1_8 
REMARK    4  A    between atoms: S1_8  and  C5_9 
REMARK       I    between atoms: N4_15  and  C7_17 
REMARK    5  A    between atoms: C7_17  and  C8_19 
REMARK    6  A    between atoms: C8_19  and  C9_20 
REMARK    7  A    between atoms: C9_20  and  C10_21 
REMARK    8  A    between atoms: C10_21  and  C11_22 
REMARK    9  A    between atoms: C11_22  and  C12_23 
REMARK   10  A    between atoms: C12_23  and  N5_24 
REMARK   11  A    between atoms: C19_33  and  N6_34 
REMARK       I    between atoms: N6_34  and  C20_36 
ROOT
HETATM    1  C9  UNL     1     -21.380   9.297 -20.568  1.00  0.00     0.009 C 
ENDROOT
BRANCH   1   2
HETATM    2  C8  UNL     1     -20.967   9.268 -19.139  1.00  0.00     0.103 C 
BRANCH   2   3
HETATM    3  C7  UNL     1     -20.317   8.020 -18.695  1.00  0.00     0.223 C 
HETATM    4  N4  UNL     1     -18.958   7.831 -19.051  1.00  0.00    -0.306 N 
HETATM    5  C6  UNL     1     -18.064   8.437 -18.326  1.00  0.00     0.168 A 
ATOM      6  H4  UNL     1     -18.691   7.243 -19.842  1.00  0.00     0.171 HD
HETATM    7  N3  UNL     1     -18.251   9.229 -17.269  1.00  0.00    -0.278 N 
HETATM    8  S2  UNL     1     -16.352   8.447 -18.460  1.00  0.00    -0.026 SA
HETATM    9  N2  UNL     1     -17.241   9.735 -16.693  1.00  0.00    -0.286 N 
ATOM     10  H3  UNL     1     -19.192   9.424 -16.929  1.00  0.00     0.189 HD
HETATM   11  C5  UNL     1     -16.020   9.478 -17.136  1.00  0.00     0.130 A 
ATOM     12  H2  UNL     1     -17.371  10.344 -15.884  1.00  0.00     0.188 HD
HETATM   13  O2  UNL     1     -20.882   7.124 -18.032  1.00  0.00    -0.273 OA
BRANCH  11  14
HETATM   14  S1  UNL     1     -14.438  10.070 -16.501  1.00  0.00    -0.094 SA
BRANCH  14  15
HETATM   15  C4  UNL     1     -13.986   9.124 -15.046  1.00  0.00     0.184 C 
BRANCH  15  16
HETATM   16  C3  UNL     1     -14.942   7.993 -14.891  1.00  0.00     0.227 C 
HETATM   17  N1  UNL     1     -14.658   6.754 -15.485  1.00  0.00    -0.361 N 
ATOM     18  H1  UNL     1     -13.800   6.626 -16.023  1.00  0.00     0.162 HD
HETATM   19  O1  UNL     1     -16.011   8.151 -14.220  1.00  0.00    -0.273 OA
BRANCH  17  20
HETATM   20  C2  UNL     1     -15.594   5.660 -15.329  1.00  0.00     0.118 C 
HETATM   21  C1  UNL     1     -15.885   5.006 -16.683  1.00  0.00     0.026 C 
ENDBRANCH  17  20
ENDBRANCH  15  16
ENDBRANCH  14  15
ENDBRANCH  11  14
ENDBRANCH   2   3
ENDBRANCH   1   2
BRANCH   1  22
HETATM   22  C10 UNL     1     -20.648  10.281 -21.421  1.00  0.00     0.002 C 
BRANCH  22  23
HETATM   23  C11 UNL     1     -19.462  10.890 -20.727  1.00  0.00     0.020 C 
BRANCH  23  24
HETATM   24  C12 UNL     1     -19.693  12.276 -20.203  1.00  0.00     0.132 C 
BRANCH  24  25
HETATM   25  N5  UNL     1     -18.425  12.943 -20.106  1.00  0.00    -0.316 N 
HETATM   26  C13 UNL     1     -17.558  12.696 -19.015  1.00  0.00     0.235 C 
HETATM   27  O3  UNL     1     -18.021  12.293 -17.903  1.00  0.00    -0.272 OA
HETATM   28  C14 UNL     1     -16.104  12.917 -19.199  1.00  0.00     0.149 C 
HETATM   29  C15 UNL     1     -15.579  11.802 -20.082  1.00  0.00     0.028 C 
HETATM   30  C16 UNL     1     -15.944  14.228 -19.909  1.00  0.00     0.174 C 
HETATM   31  O4  UNL     1     -15.093  15.079 -19.544  1.00  0.00    -0.291 OA
HETATM   32  C17 UNL     1     -16.796  14.514 -21.043  1.00  0.00     0.040 A 
HETATM   33  C18 UNL     1     -16.418  15.411 -22.045  1.00  0.00     0.047 A 
HETATM   34  C24 UNL     1     -18.011  13.863 -21.109  1.00  0.00     0.051 A 
HETATM   35  C19 UNL     1     -17.203  15.693 -23.121  1.00  0.00     0.035 A 
HETATM   36  C22 UNL     1     -18.435  15.025 -23.177  1.00  0.00     0.032 A 
HETATM   37  C23 UNL     1     -18.810  14.143 -22.194  1.00  0.00     0.033 A 
BRANCH  35  38
HETATM   38  N6  UNL     1     -16.896  16.575 -24.156  1.00  0.00    -0.327 N 
HETATM   39  C20 UNL     1     -17.157  17.946 -24.155  1.00  0.00     0.218 C 
HETATM   40  C21 UNL     1     -16.752  18.762 -25.376  1.00  0.00     0.117 C 
HETATM   41  O5  UNL     1     -17.702  18.623 -23.251  1.00  0.00    -0.274 OA
ATOM     42  H6  UNL     1     -16.444  16.185 -24.982  1.00  0.00     0.169 HD
ENDBRANCH  35  38
ENDBRANCH  24  25
ENDBRANCH  23  24
ENDBRANCH  22  23
ENDBRANCH   1  22
TORSDOF 11
ENDMDL
MODEL 2
REMARK VINA RESULT: -9.304489638      1.607      2.135
REMARK  11 active torsions:
REMARK  status: ('A' for Active; 'I' for Inactive)
REMARK    1  A    between atoms: C2_2  and  N1_3 
REMARK       I    between atoms: N1_3  and  C3_5 
REMARK    2  A    between atoms: C3_5  and  C4_7 
REMARK    3  A    between atoms: C4_7  and  S1_8 
REMARK    4  A    between atoms: S1_8  and  C5_9 
REMARK       I    between atoms: N4_15  and  C7_17 
REMARK    5  A    between atoms: C7_17  and  C8_19 
REMARK    6  A    between atoms: C8_19  and  C9_20 
REMARK    7  A    between atoms: C9_20  and  C10_21 
REMARK    8  A    between atoms: C10_21  and  C11_22 
REMARK    9  A    between atoms: C11_22  and  C12_23 
REMARK   10  A    between atoms: C12_23  and  N5_24 
REMARK   11  A    between atoms: C19_33  and  N6_34 
REMARK       I    between atoms: N6_34  and  C20_36 
ROOT
HETATM    1  C9  UNL     1     -20.832  10.370 -21.164  1.00  0.00     0.009 C 
ENDROOT
BRANCH   1   2
HETATM    2  C8  UNL     1     -21.330   9.355 -20.197  1.00  0.00     0.103 C 
BRANCH   2   3
HETATM    3  C7  UNL     1     -21.241   9.740 -18.775  1.00  0.00     0.223 C 
HETATM    4  N4  UNL     1     -21.204   8.694 -17.818  1.00  0.00    -0.306 N 
HETATM    5  C6  UNL     1     -20.061   8.104 -17.627  1.00  0.00     0.168 A 
ATOM      6  H4  UNL     1     -22.039   8.417 -17.301  1.00  0.00     0.171 HD
HETATM    7  N3  UNL     1     -18.891   8.351 -18.217  1.00  0.00    -0.278 N 
HETATM    8  S2  UNL     1     -19.645   6.815 -16.572  1.00  0.00    -0.026 SA
HETATM    9  N2  UNL     1     -17.880   7.656 -17.895  1.00  0.00    -0.286 N 
ATOM     10  H3  UNL     1     -18.810   9.088 -18.918  1.00  0.00     0.189 HD
HETATM   11  C5  UNL     1     -17.988   6.701 -16.985  1.00  0.00     0.130 A 
ATOM     12  H2  UNL     1     -16.979   7.833 -18.341  1.00  0.00     0.188 HD
HETATM   13  O2  UNL     1     -21.198  10.918 -18.362  1.00  0.00    -0.273 OA
BRANCH  11  14
HETATM   14  S1  UNL     1     -16.716   5.584 -16.360  1.00  0.00    -0.094 SA
BRANCH  14  15
HETATM   15  C4  UNL     1     -16.097   6.199 -14.793  1.00  0.00     0.184 C 
BRANCH  15  16
HETATM   16  C3  UNL     1     -15.430   7.512 -15.021  1.00  0.00     0.227 C 
HETATM   17  N1  UNL     1     -14.730   7.740 -16.215  1.00  0.00    -0.361 N 
ATOM     18  H1  UNL     1     -14.676   7.011 -16.927  1.00  0.00     0.162 HD
HETATM   19  O1  UNL     1     -15.498   8.422 -14.134  1.00  0.00    -0.273 OA
BRANCH  17  20
HETATM   20  C2  UNL     1     -14.086   9.019 -16.426  1.00  0.00     0.118 C 
HETATM   21  C1  UNL     1     -14.875   9.855 -17.438  1.00  0.00     0.026 C 
ENDBRANCH  17  20
ENDBRANCH  15  16
ENDBRANCH  14  15
ENDBRANCH  11  14
ENDBRANCH   2   3
ENDBRANCH   1   2
BRANCH   1  22
HETATM   22  C10 UNL     1     -19.413  10.195 -21.597  1.00  0.00     0.002 C 
BRANCH  22  23
HETATM   23  C11 UNL     1     -18.441  10.953 -20.738  1.00  0.00     0.020 C 
BRANCH  23  24
HETATM   24  C12 UNL     1     -18.921  12.303 -20.298  1.00  0.00     0.132 C 
BRANCH  24  25
HETATM   25  N5  UNL     1     -17.807  13.211 -20.317  1.00  0.00    -0.316 N 
HETATM   26  C13 UNL     1     -16.860  13.217 -19.265  1.00  0.00     0.235 C 
HETATM   27  O3  UNL     1     -17.184  12.814 -18.105  1.00  0.00    -0.272 OA
HETATM   28  C14 UNL     1     -15.489  13.704 -19.547  1.00  0.00     0.149 C 
HETATM   29  C15 UNL     1     -14.794  12.653 -20.389  1.00  0.00     0.028 C 
HETATM   30  C16 UNL     1     -15.626  14.966 -20.345  1.00  0.00     0.174 C 
HETATM   31  O4  UNL     1     -14.946  15.992 -20.085  1.00  0.00    -0.291 OA
HETATM   32  C17 UNL     1     -16.568  14.997 -21.444  1.00  0.00     0.040 A 
HETATM   33  C18 UNL     1     -16.421  15.876 -22.519  1.00  0.00     0.047 A 
HETATM   34  C24 UNL     1     -17.630  14.119 -21.398  1.00  0.00     0.051 A 
HETATM   35  C19 UNL     1     -17.294  15.921 -23.563  1.00  0.00     0.035 A 
HETATM   36  C22 UNL     1     -18.371  15.023 -23.505  1.00  0.00     0.032 A 
HETATM   37  C23 UNL     1     -18.518  14.158 -22.450  1.00  0.00     0.033 A 
BRANCH  35  38
HETATM   38  N6  UNL     1     -17.216  16.769 -24.666  1.00  0.00    -0.327 N 
HETATM   39  C20 UNL     1     -18.031  17.880 -24.893  1.00  0.00     0.218 C 
HETATM   40  C21 UNL     1     -17.805  18.698 -26.158  1.00  0.00     0.117 C 
HETATM   41  O5  UNL     1     -18.961  18.310 -24.171  1.00  0.00    -0.274 OA
ATOM     42  H6  UNL     1     -16.505  16.560 -25.366  1.00  0.00     0.169 HD
ENDBRANCH  35  38
ENDBRANCH  24  25
ENDBRANCH  23  24
ENDBRANCH  22  23
ENDBRANCH   1  22
TORSDOF 11
ENDMDL
MODEL 3
REMARK VINA RESULT: -9.127332159      3.369     10.055
REMARK  11 active torsions:
REMARK  status: ('A' for Active; 'I' for Inactive)
REMARK    1  A    between atoms: C2_2  and  N1_3 
REMARK       I    between atoms: N1_3  and  C3_5 
REMARK    2  A    between atoms: C3_5  and  C4_7 
REMARK    3  A    between atoms: C4_7  and  S1_8 
REMARK    4  A    between atoms: S1_8  and  C5_9 
REMARK       I    between atoms: N4_15  and  C7_17 
REMARK    5  A    between atoms: C7_17  and  C8_19 
REMARK    6  A    between atoms: C8_19  and  C9_20 
REMARK    7  A    between atoms: C9_20  and  C10_21 
REMARK    8  A    between atoms: C10_21  and  C11_22 
REMARK    9  A    between atoms: C11_22  and  C12_23 
REMARK   10  A    between atoms: C12_23  and  N5_24 
REMARK   11  A    between atoms: C19_33  and  N6_34 
REMARK       I    between atoms: N6_34  and  C20_36 
ROOT
HETATM    1  C9  UNL     1     -14.585  12.927 -20.499  1.00  0.00     0.009 C 
ENDROOT
BRANCH   1   2
HETATM    2  C8  UNL     1     -14.481  14.404 -20.364  1.00  0.00     0.103 C 
BRANCH   2   3
HETATM    3  C7  UNL     1     -14.315  15.144 -21.630  1.00  0.00     0.223 C 
HETATM    4  N4  UNL     1     -15.058  14.693 -22.751  1.00  0.00    -0.306 N 
HETATM    5  C6  UNL     1     -16.306  15.052 -22.819  1.00  0.00     0.168 A 
ATOM      6  H4  UNL     1     -14.631  14.112 -23.473  1.00  0.00     0.171 HD
HETATM    7  N3  UNL     1     -17.001  15.804 -21.966  1.00  0.00    -0.278 N 
HETATM    8  S2  UNL     1     -17.495  14.695 -24.005  1.00  0.00    -0.026 SA
HETATM    9  N2  UNL     1     -18.224  16.041 -22.208  1.00  0.00    -0.286 N 
ATOM     10  H3  UNL     1     -16.557  16.182 -21.129  1.00  0.00     0.189 HD
HETATM   11  C5  UNL     1     -18.797  15.549 -23.295  1.00  0.00     0.130 A 
ATOM     12  H2  UNL     1     -18.767  16.614 -21.561  1.00  0.00     0.188 HD
HETATM   13  O2  UNL     1     -13.568  16.134 -21.780  1.00  0.00    -0.273 OA
BRANCH  11  14
HETATM   14  S1  UNL     1     -20.501  15.738 -23.859  1.00  0.00    -0.094 SA
BRANCH  14  15
HETATM   15  C4  UNL     1     -20.518  16.600 -25.432  1.00  0.00     0.184 C 
BRANCH  15  16
HETATM   16  C3  UNL     1     -19.422  17.609 -25.440  1.00  0.00     0.227 C 
HETATM   17  N1  UNL     1     -18.352  17.466 -26.335  1.00  0.00    -0.361 N 
ATOM     18  H1  UNL     1     -18.320  16.676 -26.980  1.00  0.00     0.162 HD
HETATM   19  O1  UNL     1     -19.460  18.596 -24.638  1.00  0.00    -0.273 OA
BRANCH  17  20
HETATM   20  C2  UNL     1     -17.291  18.453 -26.335  1.00  0.00     0.118 C 
HETATM   21  C1  UNL     1     -17.296  19.244 -27.647  1.00  0.00     0.026 C 
ENDBRANCH  17  20
ENDBRANCH  15  16
ENDBRANCH  14  15
ENDBRANCH  11  14
ENDBRANCH   2   3
ENDBRANCH   1   2
BRANCH   1  22
HETATM   22  C10 UNL     1     -15.451  12.254 -19.485  1.00  0.00     0.002 C 
BRANCH  22  23
HETATM   23  C11 UNL     1     -16.357  13.211 -18.762  1.00  0.00     0.020 C 
BRANCH  23  24
HETATM   24  C12 UNL     1     -17.554  12.573 -18.123  1.00  0.00     0.132 C 
BRANCH  24  25
HETATM   25  N5  UNL     1     -18.350  11.966 -19.154  1.00  0.00    -0.316 N 
HETATM   26  C13 UNL     1     -18.840  12.735 -20.237  1.00  0.00     0.235 C 
HETATM   27  O3  UNL     1     -19.018  13.986 -20.110  1.00  0.00    -0.272 OA
HETATM   28  C14 UNL     1     -19.142  12.048 -21.515  1.00  0.00     0.149 C 
HETATM   29  C15 UNL     1     -17.820  11.680 -22.160  1.00  0.00     0.028 C 
HETATM   30  C16 UNL     1     -19.893  10.796 -21.176  1.00  0.00     0.174 C 
HETATM   31  O4  UNL     1     -20.923  10.449 -21.810  1.00  0.00    -0.291 OA
HETATM   32  C17 UNL     1     -19.414   9.969 -20.089  1.00  0.00     0.040 A 
HETATM   33  C18 UNL     1     -19.698   8.603 -20.018  1.00  0.00     0.047 A 
HETATM   34  C24 UNL     1     -18.657  10.578 -19.111  1.00  0.00     0.051 A 
HETATM   35  C19 UNL     1     -19.256   7.807 -19.006  1.00  0.00     0.035 A 
HETATM   36  C22 UNL     1     -18.487   8.437 -18.017  1.00  0.00     0.032 A 
HETATM   37  C23 UNL     1     -18.206   9.779 -18.083  1.00  0.00     0.033 A 
BRANCH  35  38
HETATM   38  N6  UNL     1     -19.499   6.442 -18.866  1.00  0.00    -0.327 N 
HETATM   39  C20 UNL     1     -20.420   5.869 -17.987  1.00  0.00     0.218 C 
HETATM   40  C21 UNL     1     -20.556   4.352 -17.967  1.00  0.00     0.117 C 
HETATM   41  O5  UNL     1     -21.179   6.457 -17.180  1.00  0.00    -0.274 OA
ATOM     42  H6  UNL     1     -18.959   5.809 -19.455  1.00  0.00     0.169 HD
ENDBRANCH  35  38
ENDBRANCH  24  25
ENDBRANCH  23  24
ENDBRANCH  22  23
ENDBRANCH   1  22
TORSDOF 11
ENDMDL
MODEL 4
REMARK VINA RESULT: -9.008467440      1.989      2.511
REMARK  11 active torsions:
REMARK  status: ('A' for Active; 'I' for Inactive)
REMARK    1  A    between atoms: C2_2  and  N1_3 
REMARK       I    between atoms: N1_3  and  C3_5 
REMARK    2  A    between atoms: C3_5  and  C4_7 
REMARK    3  A    between atoms: C4_7  and  S1_8 
REMARK    4  A    between atoms: S1_8  and  C5_9 
REMARK       I    between atoms: N4_15  and  C7_17 
REMARK    5  A    between atoms: C7_17  and  C8_19 
REMARK    6  A    between atoms: C8_19  and  C9_20 
REMARK    7  A    between atoms: C9_20  and  C10_21 
REMARK    8  A    between atoms: C10_21  and  C11_22 
REMARK    9  A    between atoms: C11_22  and  C12_23 
REMARK   10  A    between atoms: C12_23  and  N5_24 
REMARK   11  A    between atoms: C19_33  and  N6_34 
REMARK       I    between atoms: N6_34  and  C20_36 
ROOT
HETATM    1  C9  UNL     1     -21.158  10.032 -21.087  1.00  0.00     0.009 C 
ENDROOT
BRANCH   1   2
HETATM    2  C8  UNL     1     -21.509   8.942 -20.137  1.00  0.00     0.103 C 
BRANCH   2   3
HETATM    3  C7  UNL     1     -21.312   9.261 -18.709  1.00  0.00     0.223 C 
HETATM    4  N4  UNL     1     -21.527   8.219 -17.772  1.00  0.00    -0.306 N 
HETATM    5  C6  UNL     1     -20.564   7.359 -17.611  1.00  0.00     0.168 A 
ATOM      6  H4  UNL     1     -22.398   8.146 -17.247  1.00  0.00     0.171 HD
HETATM    7  N3  UNL     1     -19.376   7.320 -18.214  1.00  0.00    -0.278 N 
HETATM    8  S2  UNL     1     -20.470   5.984 -16.587  1.00  0.00    -0.026 SA
HETATM    9  N2  UNL     1     -18.566   6.389 -17.922  1.00  0.00    -0.286 N 
ATOM     10  H3  UNL     1     -19.122   8.030 -18.902  1.00  0.00     0.189 HD
HETATM   11  C5  UNL     1     -18.898   5.471 -17.027  1.00  0.00     0.130 A 
ATOM     12  H2  UNL     1     -17.654   6.348 -18.378  1.00  0.00     0.188 HD
HETATM   13  O2  UNL     1     -20.974  10.383 -18.274  1.00  0.00    -0.273 OA
BRANCH  11  14
HETATM   14  S1  UNL     1     -17.937   4.060 -16.444  1.00  0.00    -0.094 SA
BRANCH  14  15
HETATM   15  C4  UNL     1     -16.791   4.600 -15.174  1.00  0.00     0.184 C 
BRANCH  15  16
HETATM   16  C3  UNL     1     -15.801   5.532 -15.784  1.00  0.00     0.227 C 
HETATM   17  N1  UNL     1     -15.184   6.509 -14.989  1.00  0.00    -0.361 N 
ATOM     18  H1  UNL     1     -15.410   6.584 -13.996  1.00  0.00     0.162 HD
HETATM   19  O1  UNL     1     -15.518   5.440 -17.021  1.00  0.00    -0.273 OA
BRANCH  17  20
HETATM   20  C2  UNL     1     -14.224   7.411 -15.590  1.00  0.00     0.118 C 
HETATM   21  C1  UNL     1     -14.297   8.791 -14.929  1.00  0.00     0.026 C 
ENDBRANCH  17  20
ENDBRANCH  15  16
ENDBRANCH  14  15
ENDBRANCH  11  14
ENDBRANCH   2   3
ENDBRANCH   1   2
BRANCH   1  22
HETATM   22  C10 UNL     1     -19.790   9.942 -21.679  1.00  0.00     0.002 C 
BRANCH  22  23
HETATM   23  C11 UNL     1     -18.776  10.771 -20.941  1.00  0.00     0.020 C 
BRANCH  23  24
HETATM   24  C12 UNL     1     -19.250  12.143 -20.565  1.00  0.00     0.132 C 
BRANCH  24  25
HETATM   25  N5  UNL     1     -18.101  12.976 -20.343  1.00  0.00    -0.316 N 
HETATM   26  C13 UNL     1     -17.326  12.841 -19.165  1.00  0.00     0.235 C 
HETATM   27  O3  UNL     1     -17.843  12.373 -18.105  1.00  0.00    -0.272 OA
HETATM   28  C14 UNL     1     -15.905  13.260 -19.200  1.00  0.00     0.149 C 
HETATM   29  C15 UNL     1     -15.144  12.232 -20.015  1.00  0.00     0.028 C 
HETATM   30  C16 UNL     1     -15.852  14.584 -19.899  1.00  0.00     0.174 C 
HETATM   31  O4  UNL     1     -15.167  15.541 -19.455  1.00  0.00    -0.291 OA
HETATM   32  C17 UNL     1     -16.612  14.759 -21.118  1.00  0.00     0.040 A 
HETATM   33  C18 UNL     1     -16.257  15.706 -22.082  1.00  0.00     0.047 A 
HETATM   34  C24 UNL     1     -17.713  13.950 -21.304  1.00  0.00     0.051 A 
HETATM   35  C19 UNL     1     -16.957  15.886 -23.236  1.00  0.00     0.035 A 
HETATM   36  C22 UNL     1     -18.075  15.057 -23.414  1.00  0.00     0.032 A 
HETATM   37  C23 UNL     1     -18.427  14.126 -22.469  1.00  0.00     0.033 A 
BRANCH  35  38
HETATM   38  N6  UNL     1     -16.668  16.807 -24.240  1.00  0.00    -0.327 N 
HETATM   39  C20 UNL     1     -17.375  17.986 -24.486  1.00  0.00     0.218 C 
HETATM   40  C21 UNL     1     -16.916  18.881 -25.630  1.00  0.00     0.117 C 
HETATM   41  O5  UNL     1     -18.376  18.423 -23.870  1.00  0.00    -0.274 OA
ATOM     42  H6  UNL     1     -15.873  16.604 -24.845  1.00  0.00     0.169 HD
ENDBRANCH  35  38
ENDBRANCH  24  25
ENDBRANCH  23  24
ENDBRANCH  22  23
ENDBRANCH   1  22
TORSDOF 11
ENDMDL
MODEL 5
REMARK VINA RESULT: -8.985338653      1.395      1.566
REMARK  11 active torsions:
REMARK  status: ('A' for Active; 'I' for Inactive)
REMARK    1  A    between atoms: C2_2  and  N1_3 
REMARK       I    between atoms: N1_3  and  C3_5 
REMARK    2  A    between atoms: C3_5  and  C4_7 
REMARK    3  A    between atoms: C4_7  and  S1_8 
REMARK    4  A    between atoms: S1_8  and  C5_9 
REMARK       I    between atoms: N4_15  and  C7_17 
REMARK    5  A    between atoms: C7_17  and  C8_19 
REMARK    6  A    between atoms: C8_19  and  C9_20 
REMARK    7  A    between atoms: C9_20  and  C10_21 
REMARK    8  A    between atoms: C10_21  and  C11_22 
REMARK    9  A    between atoms: C11_22  and  C12_23 
REMARK   10  A    between atoms: C12_23  and  N5_24 
REMARK   11  A    between atoms: C19_33  and  N6_34 
REMARK       I    between atoms: N6_34  and  C20_36 
ROOT
HETATM    1  C9  UNL     1     -21.119   9.806 -20.894  1.00  0.00     0.009 C 
ENDROOT
BRANCH   1   2
HETATM    2  C8  UNL     1     -21.086   8.603 -20.019  1.00  0.00     0.103 C 
BRANCH   2   3
HETATM    3  C7  UNL     1     -21.505   8.827 -18.621  1.00  0.00     0.223 C 
HETATM    4  N4  UNL     1     -20.958   7.972 -17.631  1.00  0.00    -0.306 N 
HETATM    5  C6  UNL     1     -19.758   8.244 -17.210  1.00  0.00     0.168 A 
ATOM      6  H4  UNL     1     -21.483   7.178 -17.265  1.00  0.00     0.171 HD
HETATM    7  N3  UNL     1     -18.951   9.238 -17.586  1.00  0.00    -0.278 N 
HETATM    8  S2  UNL     1     -18.786   7.440 -16.045  1.00  0.00    -0.026 SA
HETATM    9  N2  UNL     1     -17.803   9.333 -17.056  1.00  0.00    -0.286 N 
ATOM     10  H3  UNL     1     -19.254   9.912 -18.289  1.00  0.00     0.189 HD
HETATM   11  C5  UNL     1     -17.414   8.458 -16.142  1.00  0.00     0.130 A 
ATOM     12  H2  UNL     1     -17.176  10.088 -17.336  1.00  0.00     0.188 HD
HETATM   13  O2  UNL     1     -22.307   9.713 -18.255  1.00  0.00    -0.273 OA
BRANCH  11  14
HETATM   14  S1  UNL     1     -15.848   8.375 -15.249  1.00  0.00    -0.094 SA
BRANCH  14  15
HETATM   15  C4  UNL     1     -14.862   7.023 -15.896  1.00  0.00     0.184 C 
BRANCH  15  16
HETATM   16  C3  UNL     1     -15.670   5.772 -15.849  1.00  0.00     0.227 C 
HETATM   17  N1  UNL     1     -15.968   5.091 -17.039  1.00  0.00    -0.361 N 
ATOM     18  H1  UNL     1     -15.634   5.448 -17.934  1.00  0.00     0.162 HD
HETATM   19  O1  UNL     1     -16.086   5.325 -14.733  1.00  0.00    -0.273 OA
BRANCH  17  20
HETATM   20  C2  UNL     1     -16.754   3.876 -16.983  1.00  0.00     0.118 C 
HETATM   21  C1  UNL     1     -15.841   2.646 -16.997  1.00  0.00     0.026 C 
ENDBRANCH  17  20
ENDBRANCH  15  16
ENDBRANCH  14  15
ENDBRANCH  11  14
ENDBRANCH   2   3
ENDBRANCH   1   2
BRANCH   1  22
HETATM   22  C10 UNL     1     -19.886  10.036 -21.706  1.00  0.00     0.002 C 
BRANCH  22  23
HETATM   23  C11 UNL     1     -18.780  10.685 -20.922  1.00  0.00     0.020 C 
BRANCH  23  24
HETATM   24  C12 UNL     1     -19.185  11.929 -20.190  1.00  0.00     0.132 C 
BRANCH  24  25
HETATM   25  N5  UNL     1     -18.034  12.780 -20.069  1.00  0.00    -0.316 N 
HETATM   26  C13 UNL     1     -17.172  12.679 -18.950  1.00  0.00     0.235 C 
HETATM   27  O3  UNL     1     -17.602  12.224 -17.845  1.00  0.00    -0.272 OA
HETATM   28  C14 UNL     1     -15.763  13.114 -19.099  1.00  0.00     0.149 C 
HETATM   29  C15 UNL     1     -15.052  12.081 -19.949  1.00  0.00     0.028 C 
HETATM   30  C16 UNL     1     -15.782  14.426 -19.825  1.00  0.00     0.174 C 
HETATM   31  O4  UNL     1     -15.079  15.400 -19.451  1.00  0.00    -0.291 OA
HETATM   32  C17 UNL     1     -16.633  14.567 -20.986  1.00  0.00     0.040 A 
HETATM   33  C18 UNL     1     -16.365  15.500 -21.991  1.00  0.00     0.047 A 
HETATM   34  C24 UNL     1     -17.734  13.741 -21.074  1.00  0.00     0.051 A 
HETATM   35  C19 UNL     1     -17.151  15.648 -23.093  1.00  0.00     0.035 A 
HETATM   36  C22 UNL     1     -18.268  14.802 -23.171  1.00  0.00     0.032 A 
HETATM   37  C23 UNL     1     -18.535  13.885 -22.185  1.00  0.00     0.033 A 
BRANCH  35  38
HETATM   38  N6  UNL     1     -16.951  16.554 -24.132  1.00  0.00    -0.327 N 
HETATM   39  C20 UNL     1     -17.195  17.927 -24.068  1.00  0.00     0.218 C 
HETATM   40  C21 UNL     1     -16.917  18.771 -25.306  1.00  0.00     0.117 C 
HETATM   41  O5  UNL     1     -17.630  18.585 -23.094  1.00  0.00    -0.274 OA
ATOM     42  H6  UNL     1     -16.596  16.182 -25.013  1.00  0.00     0.169 HD
ENDBRANCH  35  38
ENDBRANCH  24  25
ENDBRANCH  23  24
ENDBRANCH  22  23
ENDBRANCH   1  22
TORSDOF 11
ENDMDL
