MODEL 1
REMARK VINA RESULT: -7.354362021      0.000      0.000
REMARK  16 active torsions:
REMARK  status: ('A' for Active; 'I' for Inactive)
REMARK    1  A    between atoms: C2_2  and  C4_4 
REMARK    2  A    between atoms: C4_4  and  C5_5 
REMARK    3  A    between atoms: C7_10  and  C8_11 
REMARK    4  A    between atoms: N3_13  and  C9_15 
REMARK    5  A    between atoms: N5_18  and  C10_19 
REMARK    6  A    between atoms: C10_19  and  C11_20 
REMARK    7  A    between atoms: C11_20  and  C12_21 
REMARK    8  A    between atoms: C12_21  and  C13_22 
REMARK    9  A    between atoms: C13_22  and  C14_23 
REMARK   10  A    between atoms: C14_23  and  N6_24 
REMARK   11  A    between atoms: C15_28  and  O2_29 
REMARK   12  A    between atoms: C16_31  and  C17_32 
REMARK   13  A    between atoms: C17_32  and  C18_33 
REMARK   14  A    between atoms: C25_45  and  O4_46 
REMARK   15  A    between atoms: C26_48  and  C27_49 
REMARK   16  A    between atoms: C27_49  and  C28_50 
ROOT
HETATM    1  C5  UNL     1      -6.269 -19.034  55.360  1.00  0.00     0.177 C 
HETATM    2  N1  UNL     1      -5.622 -19.385  54.170  1.00  0.00    -0.346 N 
ATOM      3  H1  UNL     1      -6.227 -19.902  53.532  1.00  0.00     0.163 HD
HETATM    4  C6  UNL     1      -4.318 -19.187  53.650  1.00  0.00     0.248 C 
HETATM    5  O1  UNL     1      -3.810 -20.234  53.164  1.00  0.00    -0.271 OA
HETATM    6  C7  UNL     1      -3.509 -17.985  53.591  1.00  0.00     0.243 C 
HETATM    7  N5  UNL     1      -2.272 -17.867  54.282  1.00  0.00    -0.344 N 
HETATM    8  C15 UNL     1      -1.564 -18.619  55.188  1.00  0.00     0.138 C 
HETATM    9  C16 UNL     1      -1.176 -20.048  55.272  1.00  0.00     0.159 C 
HETATM   10  N7  UNL     1      -0.485 -20.320  56.514  1.00  0.00    -0.347 N 
ATOM     11  H7  UNL     1       0.289 -19.692  56.730  1.00  0.00     0.163 HD
HETATM   12  C21 UNL     1      -0.729 -21.324  57.461  1.00  0.00     0.245 C 
HETATM   13  O3  UNL     1       0.207 -22.168  57.700  1.00  0.00    -0.271 OA
HETATM   14  C22 UNL     1      -1.989 -21.527  58.249  1.00  0.00     0.105 C 
HETATM   15  C23 UNL     1      -1.683 -22.515  59.416  1.00  0.00     0.048 C 
HETATM   16  C24 UNL     1      -2.348 -20.276  58.985  1.00  0.00     0.048 C 
HETATM   17  N8  UNL     1      -3.031 -22.186  57.527  1.00  0.00    -0.355 N 
ATOM     18  H8  UNL     1      -2.756 -23.125  57.242  1.00  0.00     0.162 HD
HETATM   19  C25 UNL     1      -4.314 -21.881  57.115  1.00  0.00     0.136 C 
HETATM   20  C26 UNL     1      -5.494 -21.319  57.739  1.00  0.00     0.161 C 
HETATM   21  N9  UNL     1      -5.660 -19.885  57.754  1.00  0.00    -0.343 N 
HETATM   22  C31 UNL     1      -5.982 -19.293  59.102  1.00  0.00     0.153 C 
HETATM   23  C32 UNL     1      -5.566 -19.018  56.639  1.00  0.00     0.243 C 
HETATM   24  O5  UNL     1      -4.722 -18.077  56.820  1.00  0.00    -0.271 OA
ENDROOT
BRANCH   7  25
HETATM   25  C10 UNL     1      -1.630 -16.548  53.940  1.00  0.00     0.126 C 
BRANCH  25  26
HETATM   26  C11 UNL     1      -0.216 -16.765  53.484  1.00  0.00     0.020 C 
BRANCH  26  27
HETATM   27  C12 UNL     1       0.192 -15.763  52.426  1.00  0.00     0.003 C 
BRANCH  27  28
HETATM   28  C13 UNL     1      -0.214 -14.359  52.767  1.00  0.00     0.027 C 
BRANCH  28  29
HETATM   29  C14 UNL     1      -0.831 -13.700  51.553  1.00  0.00     0.229 C 
BRANCH  29  30
HETATM   30  N6  UNL     1      -2.144 -14.266  51.309  1.00  0.00    -0.079 N 
ATOM     31  H63 UNL     1      -2.230 -14.646  50.366  1.00  0.00     0.274 HD
ATOM     32  H62 UNL     1      -2.294 -15.130  51.829  1.00  0.00     0.274 HD
ATOM     33  H61 UNL     1      -2.859 -13.567  51.509  1.00  0.00     0.274 HD
ENDBRANCH  29  30
ENDBRANCH  28  29
ENDBRANCH  27  28
ENDBRANCH  26  27
ENDBRANCH  25  26
ENDBRANCH   7  25
BRANCH   6  34
HETATM   34  C8  UNL     1      -3.250 -17.747  52.103  1.00  0.00     0.127 C 
HETATM   35  N2  UNL     1      -4.071 -16.876  51.346  1.00  0.00    -0.085 NA
HETATM   36  N3  UNL     1      -2.259 -18.316  51.505  1.00  0.00    -0.325 N 
ATOM     37  H3  UNL     1      -1.657 -18.929  52.055  1.00  0.00     0.168 HD
BRANCH  36  38
HETATM   38  C9  UNL     1      -1.958 -18.146  50.149  1.00  0.00     0.186 C 
HETATM   39  N4  UNL     1      -1.899 -16.846  49.585  1.00  0.00    -0.070 NA
HETATM   40  S1  UNL     1      -1.673 -19.438  49.213  1.00  0.00    -0.044 SA
ENDBRANCH  36  38
ENDBRANCH   6  34
BRANCH   8  41
HETATM   41  O2  UNL     1      -1.128 -17.931  56.216  1.00  0.00    -0.348 OA
ATOM     42  H2  UNL     1      -0.214 -18.089  56.418  1.00  0.00     0.219 HD
ENDBRANCH   8  41
BRANCH   9  43
HETATM   43  C17 UNL     1      -0.360 -20.551  54.131  1.00  0.00     0.037 C 
BRANCH  43  44
HETATM   44  C18 UNL     1       0.847 -19.807  53.707  1.00  0.00    -0.020 C 
HETATM   45  C19 UNL     1       0.890 -20.007  52.159  1.00  0.00     0.009 C 
HETATM   46  C20 UNL     1       2.125 -20.458  54.172  1.00  0.00     0.009 C 
ENDBRANCH  43  44
ENDBRANCH   9  43
BRANCH   1  47
HETATM   47  C4  UNL     1      -7.039 -17.729  55.172  1.00  0.00     0.038 C 
BRANCH  47  48
HETATM   48  C2  UNL     1      -8.329 -17.810  54.473  1.00  0.00    -0.020 C 
HETATM   49  C1  UNL     1      -8.282 -17.484  53.001  1.00  0.00     0.009 C 
HETATM   50  C3  UNL     1      -9.466 -17.178  55.179  1.00  0.00     0.009 C 
ENDBRANCH  47  48
ENDBRANCH   1  47
BRANCH  20  51
HETATM   51  C27 UNL     1      -5.784 -21.922  59.113  1.00  0.00     0.037 C 
BRANCH  51  52
HETATM   52  C28 UNL     1      -6.520 -23.238  58.799  1.00  0.00    -0.020 C 
HETATM   53  C29 UNL     1      -6.124 -24.327  59.757  1.00  0.00     0.009 C 
HETATM   54  C30 UNL     1      -8.006 -23.065  58.855  1.00  0.00     0.009 C 
ENDBRANCH  51  52
ENDBRANCH  20  51
BRANCH  19  55
HETATM   55  O4  UNL     1      -4.502 -22.178  55.854  1.00  0.00    -0.348 OA
ATOM     56  H4  UNL     1      -5.396 -22.008  55.582  1.00  0.00     0.219 HD
ENDBRANCH  19  55
TORSDOF 16
ENDMDL
MODEL 2
REMARK VINA RESULT: -7.298760501      1.000      1.168
REMARK  16 active torsions:
REMARK  status: ('A' for Active; 'I' for Inactive)
REMARK    1  A    between atoms: C2_2  and  C4_4 
REMARK    2  A    between atoms: C4_4  and  C5_5 
REMARK    3  A    between atoms: C7_10  and  C8_11 
REMARK    4  A    between atoms: N3_13  and  C9_15 
REMARK    5  A    between atoms: N5_18  and  C10_19 
REMARK    6  A    between atoms: C10_19  and  C11_20 
REMARK    7  A    between atoms: C11_20  and  C12_21 
REMARK    8  A    between atoms: C12_21  and  C13_22 
REMARK    9  A    between atoms: C13_22  and  C14_23 
REMARK   10  A    between atoms: C14_23  and  N6_24 
REMARK   11  A    between atoms: C15_28  and  O2_29 
REMARK   12  A    between atoms: C16_31  and  C17_32 
REMARK   13  A    between atoms: C17_32  and  C18_33 
REMARK   14  A    between atoms: C25_45  and  O4_46 
REMARK   15  A    between atoms: C26_48  and  C27_49 
REMARK   16  A    between atoms: C27_49  and  C28_50 
ROOT
HETATM    1  C5  UNL     1      -6.412 -18.956  55.511  1.00  0.00     0.177 C 
HETATM    2  N1  UNL     1      -5.821 -19.259  54.280  1.00  0.00    -0.346 N 
ATOM      3  H1  UNL     1      -6.453 -19.756  53.652  1.00  0.00     0.163 HD
HETATM    4  C6  UNL     1      -4.544 -19.032  53.707  1.00  0.00     0.248 C 
HETATM    5  O1  UNL     1      -4.054 -20.057  53.159  1.00  0.00    -0.271 OA
HETATM    6  C7  UNL     1      -3.745 -17.823  53.655  1.00  0.00     0.243 C 
HETATM    7  N5  UNL     1      -2.477 -17.722  54.290  1.00  0.00    -0.344 N 
HETATM    8  C15 UNL     1      -1.724 -18.503  55.133  1.00  0.00     0.138 C 
HETATM    9  C16 UNL     1      -1.325 -19.931  55.145  1.00  0.00     0.159 C 
HETATM   10  N7  UNL     1      -0.574 -20.244  56.342  1.00  0.00    -0.347 N 
ATOM     11  H7  UNL     1       0.206 -19.619  56.545  1.00  0.00     0.163 HD
HETATM   12  C21 UNL     1      -0.768 -21.284  57.262  1.00  0.00     0.245 C 
HETATM   13  O3  UNL     1       0.183 -22.130  57.425  1.00  0.00    -0.271 OA
HETATM   14  C22 UNL     1      -1.988 -21.525  58.100  1.00  0.00     0.105 C 
HETATM   15  C23 UNL     1      -1.622 -22.554  59.214  1.00  0.00     0.048 C 
HETATM   16  C24 UNL     1      -2.318 -20.305  58.899  1.00  0.00     0.048 C 
HETATM   17  N8  UNL     1      -3.059 -22.164  57.404  1.00  0.00    -0.355 N 
ATOM     18  H8  UNL     1      -2.794 -23.090  57.072  1.00  0.00     0.162 HD
HETATM   19  C25 UNL     1      -4.362 -21.853  57.064  1.00  0.00     0.136 C 
HETATM   20  C26 UNL     1      -5.514 -21.323  57.764  1.00  0.00     0.161 C 
HETATM   21  N9  UNL     1      -5.687 -19.891  57.840  1.00  0.00    -0.343 N 
HETATM   22  C31 UNL     1      -5.948 -19.352  59.224  1.00  0.00     0.153 C 
HETATM   23  C32 UNL     1      -5.650 -18.983  56.756  1.00  0.00     0.243 C 
HETATM   24  O5  UNL     1      -4.803 -18.044  56.931  1.00  0.00    -0.271 OA
ENDROOT
BRANCH   7  25
HETATM   25  C10 UNL     1      -1.859 -16.387  53.969  1.00  0.00     0.126 C 
BRANCH  25  26
HETATM   26  C11 UNL     1      -0.439 -16.571  53.517  1.00  0.00     0.020 C 
BRANCH  26  27
HETATM   27  C12 UNL     1      -0.017 -15.497  52.540  1.00  0.00     0.003 C 
BRANCH  27  28
HETATM   28  C13 UNL     1       0.357 -14.210  53.216  1.00  0.00     0.027 C 
BRANCH  28  29
HETATM   29  C14 UNL     1      -0.526 -13.093  52.704  1.00  0.00     0.229 C 
BRANCH  29  30
HETATM   30  N6  UNL     1      -0.991 -12.292  53.821  1.00  0.00    -0.079 N 
ATOM     31  H63 UNL     1      -1.369 -12.866  54.575  1.00  0.00     0.274 HD
ATOM     32  H62 UNL     1      -0.221 -11.864  54.334  1.00  0.00     0.274 HD
ATOM     33  H61 UNL     1      -1.663 -11.602  53.488  1.00  0.00     0.274 HD
ENDBRANCH  29  30
ENDBRANCH  28  29
ENDBRANCH  27  28
ENDBRANCH  26  27
ENDBRANCH  25  26
ENDBRANCH   7  25
BRANCH   6  34
HETATM   34  C8  UNL     1      -3.557 -17.528  52.166  1.00  0.00     0.127 C 
HETATM   35  N2  UNL     1      -2.631 -18.261  51.385  1.00  0.00    -0.085 NA
HETATM   36  N3  UNL     1      -4.257 -16.618  51.579  1.00  0.00    -0.325 N 
ATOM     37  H3  UNL     1      -4.937 -16.103  52.138  1.00  0.00     0.168 HD
BRANCH  36  38
HETATM   38  C9  UNL     1      -4.143 -16.293  50.223  1.00  0.00     0.186 C 
HETATM   39  N4  UNL     1      -5.046 -16.840  49.275  1.00  0.00    -0.070 NA
HETATM   40  S1  UNL     1      -2.975 -15.285  49.725  1.00  0.00    -0.044 SA
ENDBRANCH  36  38
ENDBRANCH   6  34
BRANCH   8  41
HETATM   41  O2  UNL     1      -1.243 -17.850  56.165  1.00  0.00    -0.348 OA
ATOM     42  H2  UNL     1      -1.504 -18.216  57.001  1.00  0.00     0.219 HD
ENDBRANCH   8  41
BRANCH   9  43
HETATM   43  C17 UNL     1      -0.561 -20.385  53.950  1.00  0.00     0.037 C 
BRANCH  43  44
HETATM   44  C18 UNL     1       0.715 -19.724  53.598  1.00  0.00    -0.020 C 
HETATM   45  C19 UNL     1       0.728 -19.732  52.037  1.00  0.00     0.009 C 
HETATM   46  C20 UNL     1       1.921 -20.558  53.954  1.00  0.00     0.009 C 
ENDBRANCH  43  44
ENDBRANCH   9  43
BRANCH   1  47
HETATM   47  C4  UNL     1      -7.198 -17.650  55.408  1.00  0.00     0.038 C 
BRANCH  47  48
HETATM   48  C2  UNL     1      -8.431 -17.674  54.611  1.00  0.00    -0.020 C 
HETATM   49  C1  UNL     1      -8.275 -17.241  53.175  1.00  0.00     0.009 C 
HETATM   50  C3  UNL     1      -9.619 -17.092  55.275  1.00  0.00     0.009 C 
ENDBRANCH  47  48
ENDBRANCH   1  47
BRANCH  20  51
HETATM   51  C27 UNL     1      -5.736 -21.978  59.126  1.00  0.00     0.037 C 
BRANCH  51  52
HETATM   52  C28 UNL     1      -6.534 -23.255  58.804  1.00  0.00    -0.020 C 
HETATM   53  C29 UNL     1      -6.181 -24.372  59.747  1.00  0.00     0.009 C 
HETATM   54  C30 UNL     1      -8.011 -23.014  58.876  1.00  0.00     0.009 C 
ENDBRANCH  51  52
ENDBRANCH  20  51
BRANCH  19  55
HETATM   55  O4  UNL     1      -4.608 -22.104  55.804  1.00  0.00    -0.348 OA
ATOM     56  H4  UNL     1      -4.155 -22.883  55.505  1.00  0.00     0.219 HD
ENDBRANCH  19  55
TORSDOF 16
ENDMDL
MODEL 3
REMARK VINA RESULT: -6.651671214      1.943      2.690
REMARK  16 active torsions:
REMARK  status: ('A' for Active; 'I' for Inactive)
REMARK    1  A    between atoms: C2_2  and  C4_4 
REMARK    2  A    between atoms: C4_4  and  C5_5 
REMARK    3  A    between atoms: C7_10  and  C8_11 
REMARK    4  A    between atoms: N3_13  and  C9_15 
REMARK    5  A    between atoms: N5_18  and  C10_19 
REMARK    6  A    between atoms: C10_19  and  C11_20 
REMARK    7  A    between atoms: C11_20  and  C12_21 
REMARK    8  A    between atoms: C12_21  and  C13_22 
REMARK    9  A    between atoms: C13_22  and  C14_23 
REMARK   10  A    between atoms: C14_23  and  N6_24 
REMARK   11  A    between atoms: C15_28  and  O2_29 
REMARK   12  A    between atoms: C16_31  and  C17_32 
REMARK   13  A    between atoms: C17_32  and  C18_33 
REMARK   14  A    between atoms: C25_45  and  O4_46 
REMARK   15  A    between atoms: C26_48  and  C27_49 
REMARK   16  A    between atoms: C27_49  and  C28_50 
ROOT
HETATM    1  C5  UNL     1      -6.537 -18.582  55.238  1.00  0.00     0.177 C 
HETATM    2  N1  UNL     1      -6.416 -18.741  53.854  1.00  0.00    -0.346 N 
ATOM      3  H1  UNL     1      -7.147 -19.335  53.460  1.00  0.00     0.163 HD
HETATM    4  C6  UNL     1      -5.510 -18.265  52.873  1.00  0.00     0.248 C 
HETATM    5  O1  UNL     1      -5.101 -19.167  52.091  1.00  0.00    -0.271 OA
HETATM    6  C7  UNL     1      -5.004 -16.926  52.640  1.00  0.00     0.243 C 
HETATM    7  N5  UNL     1      -3.625 -16.601  52.769  1.00  0.00    -0.344 N 
HETATM    8  C15 UNL     1      -2.490 -17.243  53.199  1.00  0.00     0.138 C 
HETATM    9  C16 UNL     1      -1.884 -18.571  52.932  1.00  0.00     0.159 C 
HETATM   10  N7  UNL     1      -0.695 -18.762  53.734  1.00  0.00    -0.347 N 
ATOM     11  H7  UNL     1      -0.012 -18.005  53.691  1.00  0.00     0.163 HD
HETATM   12  C21 UNL     1      -0.349 -19.839  54.561  1.00  0.00     0.245 C 
HETATM   13  O3  UNL     1       0.720 -20.493  54.283  1.00  0.00    -0.271 OA
HETATM   14  C22 UNL     1      -1.100 -20.324  55.765  1.00  0.00     0.105 C 
HETATM   15  C23 UNL     1      -0.173 -21.289  56.566  1.00  0.00     0.048 C 
HETATM   16  C24 UNL     1      -1.301 -19.206  56.737  1.00  0.00     0.048 C 
HETATM   17  N8  UNL     1      -2.233 -21.139  55.458  1.00  0.00    -0.355 N 
ATOM     18  H8  UNL     1      -1.963 -21.991  54.968  1.00  0.00     0.162 HD
HETATM   19  C25 UNL     1      -3.599 -21.073  55.653  1.00  0.00     0.136 C 
HETATM   20  C26 UNL     1      -4.470 -20.785  56.774  1.00  0.00     0.161 C 
HETATM   21  N9  UNL     1      -4.837 -19.413  57.039  1.00  0.00    -0.343 N 
HETATM   22  C31 UNL     1      -4.639 -18.963  58.464  1.00  0.00     0.153 C 
HETATM   23  C32 UNL     1      -5.367 -18.491  56.105  1.00  0.00     0.243 C 
HETATM   24  O5  UNL     1      -4.686 -17.413  56.041  1.00  0.00    -0.271 OA
ENDROOT
BRANCH   7  25
HETATM   25  C10 UNL     1      -3.408 -15.167  52.365  1.00  0.00     0.126 C 
BRANCH  25  26
HETATM   26  C11 UNL     1      -2.478 -15.097  51.188  1.00  0.00     0.020 C 
BRANCH  26  27
HETATM   27  C12 UNL     1      -1.657 -13.827  51.196  1.00  0.00     0.003 C 
BRANCH  27  28
HETATM   28  C13 UNL     1      -0.295 -14.018  51.798  1.00  0.00     0.027 C 
BRANCH  28  29
HETATM   29  C14 UNL     1      -0.192 -13.225  53.083  1.00  0.00     0.229 C 
BRANCH  29  30
HETATM   30  N6  UNL     1      -0.159 -14.133  54.212  1.00  0.00    -0.079 N 
ATOM     31  H63 UNL     1      -0.995 -14.716  54.262  1.00  0.00     0.274 HD
ATOM     32  H62 UNL     1       0.529 -14.876  54.089  1.00  0.00     0.274 HD
ATOM     33  H61 UNL     1      -0.006 -13.605  55.070  1.00  0.00     0.274 HD
ENDBRANCH  29  30
ENDBRANCH  28  29
ENDBRANCH  27  28
ENDBRANCH  26  27
ENDBRANCH  25  26
ENDBRANCH   7  25
BRANCH   6  34
HETATM   34  C8  UNL     1      -5.447 -16.569  51.221  1.00  0.00     0.127 C 
HETATM   35  N2  UNL     1      -6.458 -15.604  50.990  1.00  0.00    -0.085 NA
HETATM   36  N3  UNL     1      -4.894 -17.123  50.196  1.00  0.00    -0.325 N 
ATOM     37  H3  UNL     1      -4.154 -17.804  50.362  1.00  0.00     0.168 HD
BRANCH  36  38
HETATM   38  C9  UNL     1      -5.245 -16.846  48.870  1.00  0.00     0.186 C 
HETATM   39  N4  UNL     1      -6.404 -17.432  48.297  1.00  0.00    -0.070 NA
HETATM   40  S1  UNL     1      -4.327 -15.853  47.977  1.00  0.00    -0.044 SA
ENDBRANCH  36  38
ENDBRANCH   6  34
BRANCH   8  41
HETATM   41  O2  UNL     1      -1.770 -16.534  54.035  1.00  0.00    -0.348 OA
ATOM     42  H2  UNL     1      -2.043 -16.621  54.941  1.00  0.00     0.219 HD
ENDBRANCH   8  41
BRANCH   9  43
HETATM   43  C17 UNL     1      -1.567 -18.847  51.504  1.00  0.00     0.037 C 
BRANCH  43  44
HETATM   44  C18 UNL     1      -1.126 -17.743  50.622  1.00  0.00    -0.020 C 
HETATM   45  C19 UNL     1      -1.319 -18.310  49.180  1.00  0.00     0.009 C 
HETATM   46  C20 UNL     1       0.360 -17.496  50.696  1.00  0.00     0.009 C 
ENDBRANCH  43  44
ENDBRANCH   9  43
BRANCH   1  47
HETATM   47  C4  UNL     1      -7.509 -17.446  55.552  1.00  0.00     0.038 C 
BRANCH  47  48
HETATM   48  C2  UNL     1      -8.774 -17.424  54.806  1.00  0.00    -0.020 C 
HETATM   49  C1  UNL     1      -8.703 -16.778  53.444  1.00  0.00     0.009 C 
HETATM   50  C3  UNL     1      -9.959 -17.013  55.591  1.00  0.00     0.009 C 
ENDBRANCH  47  48
ENDBRANCH   1  47
BRANCH  20  51
HETATM   51  C27 UNL     1      -4.046 -21.500  58.056  1.00  0.00     0.037 C 
BRANCH  51  52
HETATM   52  C28 UNL     1      -5.235 -22.419  58.386  1.00  0.00    -0.020 C 
HETATM   53  C29 UNL     1      -5.757 -22.162  59.772  1.00  0.00     0.009 C 
HETATM   54  C30 UNL     1      -6.357 -22.241  57.410  1.00  0.00     0.009 C 
ENDBRANCH  51  52
ENDBRANCH  20  51
BRANCH  19  55
HETATM   55  O4  UNL     1      -4.259 -21.338  54.555  1.00  0.00    -0.348 OA
ATOM     56  H4  UNL     1      -5.167 -21.553  54.733  1.00  0.00     0.219 HD
ENDBRANCH  19  55
TORSDOF 16
ENDMDL
MODEL 4
REMARK VINA RESULT: -6.483702155      4.202      9.144
REMARK  16 active torsions:
REMARK  status: ('A' for Active; 'I' for Inactive)
REMARK    1  A    between atoms: C2_2  and  C4_4 
REMARK    2  A    between atoms: C4_4  and  C5_5 
REMARK    3  A    between atoms: C7_10  and  C8_11 
REMARK    4  A    between atoms: N3_13  and  C9_15 
REMARK    5  A    between atoms: N5_18  and  C10_19 
REMARK    6  A    between atoms: C10_19  and  C11_20 
REMARK    7  A    between atoms: C11_20  and  C12_21 
REMARK    8  A    between atoms: C12_21  and  C13_22 
REMARK    9  A    between atoms: C13_22  and  C14_23 
REMARK   10  A    between atoms: C14_23  and  N6_24 
REMARK   11  A    between atoms: C15_28  and  O2_29 
REMARK   12  A    between atoms: C16_31  and  C17_32 
REMARK   13  A    between atoms: C17_32  and  C18_33 
REMARK   14  A    between atoms: C25_45  and  O4_46 
REMARK   15  A    between atoms: C26_48  and  C27_49 
REMARK   16  A    between atoms: C27_49  and  C28_50 
ROOT
HETATM    1  C5  UNL     1      -6.303 -16.233  49.856  1.00  0.00     0.177 C 
HETATM    2  N1  UNL     1      -5.649 -15.822  51.021  1.00  0.00    -0.346 N 
ATOM      3  H1  UNL     1      -6.186 -15.138  51.554  1.00  0.00     0.163 HD
HETATM    4  C6  UNL     1      -4.408 -16.138  51.630  1.00  0.00     0.248 C 
HETATM    5  O1  UNL     1      -3.760 -15.121  52.001  1.00  0.00    -0.271 OA
HETATM    6  C7  UNL     1      -3.796 -17.427  51.888  1.00  0.00     0.243 C 
HETATM    7  N5  UNL     1      -2.570 -17.822  51.284  1.00  0.00    -0.344 N 
HETATM    8  C15 UNL     1      -1.727 -17.314  50.326  1.00  0.00     0.138 C 
HETATM    9  C16 UNL     1      -1.121 -15.984  50.076  1.00  0.00     0.159 C 
HETATM   10  N7  UNL     1      -0.357 -15.990  48.847  1.00  0.00    -0.347 N 
ATOM     11  H7  UNL     1       0.317 -16.750  48.755  1.00  0.00     0.163 HD
HETATM   12  C21 UNL     1      -0.414 -15.101  47.765  1.00  0.00     0.245 C 
HETATM   13  O3  UNL     1       0.649 -14.447  47.466  1.00  0.00    -0.271 OA
HETATM   14  C22 UNL     1      -1.602 -14.823  46.892  1.00  0.00     0.105 C 
HETATM   15  C23 UNL     1      -1.110 -14.061  45.623  1.00  0.00     0.048 C 
HETATM   16  C24 UNL     1      -2.126 -16.096  46.308  1.00  0.00     0.048 C 
HETATM   17  N8  UNL     1      -2.552 -13.925  47.466  1.00  0.00    -0.355 N 
ATOM     18  H8  UNL     1      -2.145 -13.006  47.640  1.00  0.00     0.162 HD
HETATM   19  C25 UNL     1      -3.879 -13.975  47.848  1.00  0.00     0.136 C 
HETATM   20  C26 UNL     1      -5.111 -14.437  47.241  1.00  0.00     0.161 C 
HETATM   21  N9  UNL     1      -5.496 -15.819  47.406  1.00  0.00    -0.343 N 
HETATM   22  C31 UNL     1      -5.862 -16.535  46.132  1.00  0.00     0.153 C 
HETATM   23  C32 UNL     1      -5.572 -16.529  48.628  1.00  0.00     0.243 C 
HETATM   24  O5  UNL     1      -4.877 -17.600  48.616  1.00  0.00    -0.271 OA
ENDROOT
BRANCH   7  25
HETATM   25  C10 UNL     1      -2.151 -19.162  51.828  1.00  0.00     0.126 C 
BRANCH  25  26
HETATM   26  C11 UNL     1      -0.668 -19.181  52.065  1.00  0.00     0.020 C 
BRANCH  26  27
HETATM   27  C12 UNL     1      -0.318 -19.851  53.375  1.00  0.00     0.003 C 
BRANCH  27  28
HETATM   28  C13 UNL     1      -1.526 -20.169  54.207  1.00  0.00     0.027 C 
BRANCH  28  29
HETATM   29  C14 UNL     1      -1.186 -20.020  55.674  1.00  0.00     0.229 C 
BRANCH  29  30
HETATM   30  N6  UNL     1      -1.123 -18.613  56.018  1.00  0.00    -0.079 N 
ATOM     31  H63 UNL     1      -0.608 -18.070  55.324  1.00  0.00     0.274 HD
ATOM     32  H62 UNL     1      -2.028 -18.152  55.922  1.00  0.00     0.274 HD
ATOM     33  H61 UNL     1      -0.735 -18.507  56.955  1.00  0.00     0.274 HD
ENDBRANCH  29  30
ENDBRANCH  28  29
ENDBRANCH  27  28
ENDBRANCH  26  27
ENDBRANCH  25  26
ENDBRANCH   7  25
BRANCH   6  34
HETATM   34  C8  UNL     1      -3.623 -17.495  53.406  1.00  0.00     0.127 C 
HETATM   35  N2  UNL     1      -2.483 -16.943  54.039  1.00  0.00    -0.085 NA
HETATM   36  N3  UNL     1      -4.526 -18.037  54.150  1.00  0.00    -0.325 N 
ATOM     37  H3  UNL     1      -5.355 -18.418  53.695  1.00  0.00     0.168 HD
BRANCH  36  38
HETATM   38  C9  UNL     1      -4.439 -18.135  55.544  1.00  0.00     0.186 C 
HETATM   39  N4  UNL     1      -3.891 -17.070  56.305  1.00  0.00    -0.070 NA
HETATM   40  S1  UNL     1      -4.966 -19.469  56.298  1.00  0.00    -0.044 SA
ENDBRANCH  36  38
ENDBRANCH   6  34
BRANCH   8  41
HETATM   41  O2  UNL     1      -1.370 -18.194  49.421  1.00  0.00    -0.348 OA
ATOM     42  H2  UNL     1      -0.726 -17.866  48.804  1.00  0.00     0.219 HD
ENDBRANCH   8  41
BRANCH   9  43
HETATM   43  C17 UNL     1      -0.274 -15.456  51.181  1.00  0.00     0.037 C 
BRANCH  43  44
HETATM   44  C18 UNL     1      -0.626 -14.174  51.830  1.00  0.00    -0.020 C 
HETATM   45  C19 UNL     1       0.107 -13.099  50.968  1.00  0.00     0.009 C 
HETATM   46  C20 UNL     1       0.010 -14.014  53.189  1.00  0.00     0.009 C 
ENDBRANCH  43  44
ENDBRANCH   9  43
BRANCH   1  47
HETATM   47  C4  UNL     1      -7.271 -17.371  50.173  1.00  0.00     0.038 C 
BRANCH  47  48
HETATM   48  C2  UNL     1      -7.527 -17.655  51.591  1.00  0.00    -0.020 C 
HETATM   49  C1  UNL     1      -7.311 -19.089  52.008  1.00  0.00     0.009 C 
HETATM   50  C3  UNL     1      -8.771 -17.065  52.135  1.00  0.00     0.009 C 
ENDBRANCH  47  48
ENDBRANCH   1  47
BRANCH  20  51
HETATM   51  C27 UNL     1      -5.261 -13.991  45.788  1.00  0.00     0.037 C 
BRANCH  51  52
HETATM   52  C28 UNL     1      -6.258 -12.820  45.854  1.00  0.00    -0.020 C 
HETATM   53  C29 UNL     1      -7.197 -12.967  47.018  1.00  0.00     0.009 C 
HETATM   54  C30 UNL     1      -5.553 -11.503  45.968  1.00  0.00     0.009 C 
ENDBRANCH  51  52
ENDBRANCH  20  51
BRANCH  19  55
HETATM   55  O4  UNL     1      -4.059 -13.484  49.047  1.00  0.00    -0.348 OA
ATOM     56  H4  UNL     1      -3.242 -13.195  49.436  1.00  0.00     0.219 HD
ENDBRANCH  19  55
TORSDOF 16
ENDMDL
MODEL 5
REMARK VINA RESULT: -6.291971025      4.756      9.510
REMARK  16 active torsions:
REMARK  status: ('A' for Active; 'I' for Inactive)
REMARK    1  A    between atoms: C2_2  and  C4_4 
REMARK    2  A    between atoms: C4_4  and  C5_5 
REMARK    3  A    between atoms: C7_10  and  C8_11 
REMARK    4  A    between atoms: N3_13  and  C9_15 
REMARK    5  A    between atoms: N5_18  and  C10_19 
REMARK    6  A    between atoms: C10_19  and  C11_20 
REMARK    7  A    between atoms: C11_20  and  C12_21 
REMARK    8  A    between atoms: C12_21  and  C13_22 
REMARK    9  A    between atoms: C13_22  and  C14_23 
REMARK   10  A    between atoms: C14_23  and  N6_24 
REMARK   11  A    between atoms: C15_28  and  O2_29 
REMARK   12  A    between atoms: C16_31  and  C17_32 
REMARK   13  A    between atoms: C17_32  and  C18_33 
REMARK   14  A    between atoms: C25_45  and  O4_46 
REMARK   15  A    between atoms: C26_48  and  C27_49 
REMARK   16  A    between atoms: C27_49  and  C28_50 
ROOT
HETATM    1  C5  UNL     1      -7.028 -16.638  50.118  1.00  0.00     0.177 C 
HETATM    2  N1  UNL     1      -6.332 -16.082  51.196  1.00  0.00    -0.346 N 
ATOM      3  H1  UNL     1      -6.952 -15.711  51.916  1.00  0.00     0.163 HD
HETATM    4  C6  UNL     1      -4.960 -15.918  51.517  1.00  0.00     0.248 C 
HETATM    5  O1  UNL     1      -4.677 -14.756  51.917  1.00  0.00    -0.271 OA
HETATM    6  C7  UNL     1      -3.867 -16.869  51.460  1.00  0.00     0.243 C 
HETATM    7  N5  UNL     1      -2.754 -16.696  50.592  1.00  0.00    -0.344 N 
HETATM    8  C15 UNL     1      -2.403 -15.828  49.588  1.00  0.00     0.138 C 
HETATM    9  C16 UNL     1      -2.415 -14.352  49.441  1.00  0.00     0.159 C 
HETATM   10  N7  UNL     1      -2.003 -13.966  48.109  1.00  0.00    -0.347 N 
ATOM     11  H7  UNL     1      -1.131 -14.383  47.782  1.00  0.00     0.163 HD
HETATM   12  C21 UNL     1      -2.632 -13.099  47.204  1.00  0.00     0.245 C 
HETATM   13  O3  UNL     1      -1.990 -12.055  46.825  1.00  0.00    -0.271 OA
HETATM   14  C22 UNL     1      -4.000 -13.259  46.612  1.00  0.00     0.105 C 
HETATM   15  C23 UNL     1      -4.131 -12.276  45.408  1.00  0.00     0.048 C 
HETATM   16  C24 UNL     1      -4.124 -14.591  45.943  1.00  0.00     0.048 C 
HETATM   17  N8  UNL     1      -5.063 -12.858  47.478  1.00  0.00    -0.355 N 
ATOM     18  H8  UNL     1      -5.004 -11.868  47.715  1.00  0.00     0.162 HD
HETATM   19  C25 UNL     1      -6.150 -13.463  48.079  1.00  0.00     0.136 C 
HETATM   20  C26 UNL     1      -7.221 -14.335  47.640  1.00  0.00     0.161 C 
HETATM   21  N9  UNL     1      -7.010 -15.763  47.656  1.00  0.00    -0.343 N 
HETATM   22  C31 UNL     1      -7.357 -16.474  46.373  1.00  0.00     0.153 C 
HETATM   23  C32 UNL     1      -6.536 -16.528  48.748  1.00  0.00     0.243 C 
HETATM   24  O5  UNL     1      -5.511 -17.229  48.448  1.00  0.00    -0.271 OA
ENDROOT
BRANCH   7  25
HETATM   25  C10 UNL     1      -1.750 -17.791  50.840  1.00  0.00     0.126 C 
BRANCH  25  26
HETATM   26  C11 UNL     1      -0.355 -17.251  50.714  1.00  0.00     0.020 C 
BRANCH  26  27
HETATM   27  C12 UNL     1       0.576 -17.854  51.743  1.00  0.00     0.003 C 
BRANCH  27  28
HETATM   28  C13 UNL     1      -0.130 -18.773  52.697  1.00  0.00     0.027 C 
BRANCH  28  29
HETATM   29  C14 UNL     1       0.887 -19.627  53.424  1.00  0.00     0.229 C 
BRANCH  29  30
HETATM   30  N6  UNL     1       1.266 -20.748  52.587  1.00  0.00    -0.079 N 
ATOM     31  H63 UNL     1       0.859 -20.686  51.653  1.00  0.00     0.274 HD
ATOM     32  H62 UNL     1       2.250 -20.713  52.320  1.00  0.00     0.274 HD
ATOM     33  H61 UNL     1       1.025 -21.620  53.056  1.00  0.00     0.274 HD
ENDBRANCH  29  30
ENDBRANCH  28  29
ENDBRANCH  27  28
ENDBRANCH  26  27
ENDBRANCH  25  26
ENDBRANCH   7  25
BRANCH   6  34
HETATM   34  C8  UNL     1      -3.345 -16.969  52.893  1.00  0.00     0.127 C 
HETATM   35  N2  UNL     1      -2.276 -16.156  53.342  1.00  0.00    -0.085 NA
HETATM   36  N3  UNL     1      -3.882 -17.782  53.737  1.00  0.00    -0.325 N 
ATOM     37  H3  UNL     1      -4.664 -18.355  53.419  1.00  0.00     0.168 HD
BRANCH  36  38
HETATM   38  C9  UNL     1      -3.461 -17.929  55.064  1.00  0.00     0.186 C 
HETATM   39  N4  UNL     1      -3.916 -17.032  56.065  1.00  0.00    -0.070 NA
HETATM   40  S1  UNL     1      -2.447 -19.128  55.466  1.00  0.00    -0.044 SA
ENDBRANCH  36  38
ENDBRANCH   6  34
BRANCH   8  41
HETATM   41  O2  UNL     1      -1.955 -16.425  48.509  1.00  0.00    -0.348 OA
ATOM     42  H2  UNL     1      -2.359 -16.115  47.708  1.00  0.00     0.219 HD
ENDBRANCH   8  41
BRANCH   9  43
HETATM   43  C17 UNL     1      -1.603 -13.609  50.445  1.00  0.00     0.037 C 
BRANCH  43  44
HETATM   44  C18 UNL     1      -0.127 -13.720  50.425  1.00  0.00    -0.020 C 
HETATM   45  C19 UNL     1       0.262 -13.862  51.930  1.00  0.00     0.009 C 
HETATM   46  C20 UNL     1       0.549 -12.436  50.016  1.00  0.00     0.009 C 
ENDBRANCH  43  44
ENDBRANCH   9  43
BRANCH   1  47
HETATM   47  C4  UNL     1      -7.399 -18.087  50.424  1.00  0.00     0.038 C 
BRANCH  47  48
HETATM   48  C2  UNL     1      -7.492 -18.468  51.840  1.00  0.00    -0.020 C 
HETATM   49  C1  UNL     1      -7.361 -19.945  52.118  1.00  0.00     0.009 C 
HETATM   50  C3  UNL     1      -8.593 -17.824  52.592  1.00  0.00     0.009 C 
ENDBRANCH  47  48
ENDBRANCH   1  47
BRANCH  20  51
HETATM   51  C27 UNL     1      -7.851 -13.885  46.323  1.00  0.00     0.037 C 
BRANCH  51  52
HETATM   52  C28 UNL     1      -8.835 -12.775  46.735  1.00  0.00    -0.020 C 
HETATM   53  C29 UNL     1      -8.513 -11.477  46.047  1.00  0.00     0.009 C 
HETATM   54  C30 UNL     1     -10.251 -13.148  46.419  1.00  0.00     0.009 C 
ENDBRANCH  51  52
ENDBRANCH  20  51
BRANCH  19  55
HETATM   55  O4  UNL     1      -6.227 -13.171  49.352  1.00  0.00    -0.348 OA
ATOM     56  H4  UNL     1      -6.721 -13.823  49.834  1.00  0.00     0.219 HD
ENDBRANCH  19  55
TORSDOF 16
ENDMDL
