MODEL 1
REMARK VINA RESULT: -7.732413787      0.000      0.000
REMARK  2 active torsions:
REMARK  status: ('A' for Active; 'I' for Inactive)
REMARK    1  A    between atoms: O1_2  and  C2_3 
REMARK    2  A    between atoms: C8_9  and  O2_10 
ROOT
HETATM    1  C2  UNL     1      28.782  45.866  10.400  1.00  0.00     0.220 C 
HETATM    2  C3  UNL     1      29.459  45.088  11.535  1.00  0.00     0.051 C 
HETATM    3  C4  UNL     1      30.924  45.354  11.437  1.00  0.00     0.017 C 
HETATM    4  C5  UNL     1      31.222  46.830  11.124  1.00  0.00     0.002 C 
HETATM    5  C6  UNL     1      32.413  47.281  11.825  1.00  0.00     0.016 C 
HETATM    6  C7  UNL     1      33.470  47.973  11.062  1.00  0.00     0.032 C 
HETATM    7  C8  UNL     1      33.503  47.698   9.600  1.00  0.00     0.120 C 
HETATM    8  C9  UNL     1      32.113  47.973   9.063  1.00  0.00     0.066 C 
HETATM    9  C10 UNL     1      31.109  47.064   9.669  1.00  0.00     0.158 C 
HETATM   10  O3  UNL     1      29.836  47.638   9.440  1.00  0.00    -0.295 OA
HETATM   11  N1  UNL     1      29.077  47.290  10.504  1.00  0.00    -0.167 NA
HETATM   12  C11 UNL     1      29.970  47.580  11.611  1.00  0.00     0.136 C 
ENDROOT
BRANCH   1  13
HETATM   13  O1  UNL     1      27.414  45.634  10.408  1.00  0.00    -0.374 OA
HETATM   14  C1  UNL     1      26.985  45.315  11.695  1.00  0.00     0.204 C 
ENDBRANCH   1  13
BRANCH   7  15
HETATM   15  O2  UNL     1      34.342  48.669   9.009  1.00  0.00    -0.395 OA
ATOM     16  H2  UNL     1      33.860  49.058   8.289  1.00  0.00     0.210 HD
ENDBRANCH   7  15
TORSDOF 2
ENDMDL
MODEL 2
REMARK VINA RESULT: -7.630807115      1.557      4.723
REMARK  2 active torsions:
REMARK  status: ('A' for Active; 'I' for Inactive)
REMARK    1  A    between atoms: O1_2  and  C2_3 
REMARK    2  A    between atoms: C8_9  and  O2_10 
ROOT
HETATM    1  C2  UNL     1      31.996  48.435   9.121  1.00  0.00     0.220 C 
HETATM    2  C3  UNL     1      33.006  47.573   9.888  1.00  0.00     0.051 C 
HETATM    3  C4  UNL     1      32.326  47.102  11.130  1.00  0.00     0.017 C 
HETATM    4  C5  UNL     1      30.874  46.674  10.865  1.00  0.00     0.002 C 
HETATM    5  C6  UNL     1      30.513  45.523  11.677  1.00  0.00     0.016 C 
HETATM    6  C7  UNL     1      29.270  45.573  12.472  1.00  0.00     0.032 C 
HETATM    7  C8  UNL     1      28.767  46.932  12.807  1.00  0.00     0.120 C 
HETATM    8  C9  UNL     1      28.666  47.705  11.507  1.00  0.00     0.066 C 
HETATM    9  C10 UNL     1      29.996  47.863  10.868  1.00  0.00     0.158 C 
HETATM   10  O3  UNL     1      29.768  48.212   9.515  1.00  0.00    -0.295 OA
HETATM   11  N1  UNL     1      30.793  47.672   8.817  1.00  0.00    -0.167 NA
HETATM   12  C11 UNL     1      30.848  46.329   9.366  1.00  0.00     0.136 C 
ENDROOT
BRANCH   1  13
HETATM   13  O1  UNL     1      32.576  48.941   7.966  1.00  0.00    -0.374 OA
HETATM   14  C1  UNL     1      33.700  49.703   8.283  1.00  0.00     0.204 C 
ENDBRANCH   1  13
BRANCH   7  15
HETATM   15  O2  UNL     1      27.439  46.785  13.270  1.00  0.00    -0.395 OA
ATOM     16  H2  UNL     1      27.437  47.009  14.193  1.00  0.00     0.210 HD
ENDBRANCH   7  15
TORSDOF 2
ENDMDL
MODEL 3
REMARK VINA RESULT: -7.574894836      1.031      1.097
REMARK  2 active torsions:
REMARK  status: ('A' for Active; 'I' for Inactive)
REMARK    1  A    between atoms: O1_2  and  C2_3 
REMARK    2  A    between atoms: C8_9  and  O2_10 
ROOT
HETATM    1  C2  UNL     1      28.293  46.195  11.329  1.00  0.00     0.220 C 
HETATM    2  C3  UNL     1      29.268  45.162  11.906  1.00  0.00     0.051 C 
HETATM    3  C4  UNL     1      30.574  45.355  11.210  1.00  0.00     0.017 C 
HETATM    4  C5  UNL     1      30.919  46.843  11.034  1.00  0.00     0.002 C 
HETATM    5  C6  UNL     1      32.347  47.070  11.194  1.00  0.00     0.016 C 
HETATM    6  C7  UNL     1      33.067  47.838  10.160  1.00  0.00     0.032 C 
HETATM    7  C8  UNL     1      32.435  47.866   8.813  1.00  0.00     0.120 C 
HETATM    8  C9  UNL     1      31.004  48.328   9.000  1.00  0.00     0.066 C 
HETATM    9  C10 UNL     1      30.234  47.376   9.838  1.00  0.00     0.158 C 
HETATM   10  O3  UNL     1      29.081  48.059  10.292  1.00  0.00    -0.295 OA
HETATM   11  N1  UNL     1      28.805  47.548  11.513  1.00  0.00    -0.167 NA
HETATM   12  C11 UNL     1      30.115  47.552  12.138  1.00  0.00     0.136 C 
ENDROOT
BRANCH   1  13
HETATM   13  O1  UNL     1      27.040  46.049  11.907  1.00  0.00    -0.374 OA
HETATM   14  C1  UNL     1      27.161  45.879  13.285  1.00  0.00     0.204 C 
ENDBRANCH   1  13
BRANCH   7  15
HETATM   15  O2  UNL     1      33.075  48.886   8.072  1.00  0.00    -0.395 OA
ATOM     16  H2  UNL     1      32.393  49.430   7.697  1.00  0.00     0.210 HD
ENDBRANCH   7  15
TORSDOF 2
ENDMDL
MODEL 4
REMARK VINA RESULT: -7.503300089      1.847      2.475
REMARK  2 active torsions:
REMARK  status: ('A' for Active; 'I' for Inactive)
REMARK    1  A    between atoms: O1_2  and  C2_3 
REMARK    2  A    between atoms: C8_9  and  O2_10 
ROOT
HETATM    1  C2  UNL     1      29.510  46.364  12.870  1.00  0.00     0.220 C 
HETATM    2  C3  UNL     1      28.695  47.075  11.783  1.00  0.00     0.051 C 
HETATM    3  C4  UNL     1      29.656  47.867  10.962  1.00  0.00     0.017 C 
HETATM    4  C5  UNL     1      30.951  47.089  10.679  1.00  0.00     0.002 C 
HETATM    5  C6  UNL     1      31.446  47.368   9.341  1.00  0.00     0.016 C 
HETATM    6  C7  UNL     1      32.859  47.759   9.170  1.00  0.00     0.032 C 
HETATM    7  C8  UNL     1      33.520  48.346  10.366  1.00  0.00     0.120 C 
HETATM    8  C9  UNL     1      33.312  47.377  11.513  1.00  0.00     0.066 C 
HETATM    9  C10 UNL     1      31.871  47.216  11.829  1.00  0.00     0.158 C 
HETATM   10  O3  UNL     1      31.742  46.032  12.594  1.00  0.00    -0.295 OA
HETATM   11  N1  UNL     1      30.534  45.515  12.275  1.00  0.00    -0.167 NA
HETATM   12  C11 UNL     1      30.545  45.612  10.827  1.00  0.00     0.136 C 
ENDROOT
BRANCH   1  13
HETATM   13  O1  UNL     1      28.671  45.634  13.700  1.00  0.00    -0.374 OA
HETATM   14  C1  UNL     1      27.338  45.883  13.378  1.00  0.00     0.204 C 
ENDBRANCH   1  13
BRANCH   7  15
HETATM   15  O2  UNL     1      34.912  48.351  10.116  1.00  0.00    -0.395 OA
ATOM     16  H2  UNL     1      35.276  49.104  10.567  1.00  0.00     0.210 HD
ENDBRANCH   7  15
TORSDOF 2
ENDMDL
MODEL 5
REMARK VINA RESULT: -7.367065864      2.562      3.638
REMARK  2 active torsions:
REMARK  status: ('A' for Active; 'I' for Inactive)
REMARK    1  A    between atoms: O1_2  and  C2_3 
REMARK    2  A    between atoms: C8_9  and  O2_10 
ROOT
HETATM    1  C2  UNL     1      27.980  47.250  13.993  1.00  0.00     0.220 C 
HETATM    2  C3  UNL     1      26.959  46.294  13.364  1.00  0.00     0.051 C 
HETATM    3  C4  UNL     1      27.287  46.198  11.911  1.00  0.00     0.017 C 
HETATM    4  C5  UNL     1      28.801  46.103  11.667  1.00  0.00     0.002 C 
HETATM    5  C6  UNL     1      29.096  45.212  10.556  1.00  0.00     0.016 C 
HETATM    6  C7  UNL     1      29.991  45.683   9.481  1.00  0.00     0.032 C 
HETATM    7  C8  UNL     1      30.098  47.159   9.326  1.00  0.00     0.120 C 
HETATM    8  C9  UNL     1      30.459  47.726  10.684  1.00  0.00     0.066 C 
HETATM    9  C10 UNL     1      29.395  47.456  11.682  1.00  0.00     0.158 C 
HETATM   10  O3  UNL     1      29.969  47.640  12.963  1.00  0.00    -0.295 OA
HETATM   11  N1  UNL     1      29.339  46.767  13.780  1.00  0.00    -0.167 NA
HETATM   12  C11 UNL     1      29.365  45.551  12.988  1.00  0.00     0.136 C 
ENDROOT
BRANCH   1  13
HETATM   13  O1  UNL     1      27.713  47.418  15.344  1.00  0.00    -0.374 OA
HETATM   14  C1  UNL     1      26.356  47.673  15.540  1.00  0.00     0.204 C 
ENDBRANCH   1  13
BRANCH   7  15
HETATM   15  O2  UNL     1      31.214  47.413   8.495  1.00  0.00    -0.395 OA
ATOM     16  H2  UNL     1      31.779  48.019   8.960  1.00  0.00     0.210 HD
ENDBRANCH   7  15
TORSDOF 2
ENDMDL
