MODEL 1
REMARK VINA RESULT: -6.805991249      0.000      0.000
REMARK  11 active torsions:
REMARK  status: ('A' for Active; 'I' for Inactive)
REMARK    1  A    between atoms: N1_1  and  C1_5 
REMARK    2  A    between atoms: C1_5  and  C2_6 
REMARK    3  A    between atoms: C2_6  and  N2_7 
REMARK       I    between atoms: N2_7  and  C3_9 
REMARK       I    between atoms: C3_9  and  N5_15 
REMARK    4  A    between atoms: N3_10  and  N4_12 
REMARK    5  A    between atoms: C6_18  and  N6_19 
REMARK    6  A    between atoms: C6_18  and  N7_23 
REMARK    7  A    between atoms: N9_29  and  C10_31 
REMARK    8  A    between atoms: C10_31  and  C11_32 
REMARK    9  A    between atoms: C11_32  and  C12_34 
REMARK   10  A    between atoms: C12_34  and  C13_35 
REMARK   11  A    between atoms: C16_44  and  N13_45 
ROOT
HETATM    1  N7  UNL     1      37.561  90.860  -3.510  1.00  0.00    -0.292 N 
HETATM    2  C7  UNL     1      37.966  90.099  -2.448  1.00  0.00     0.188 A 
HETATM    3  N8  UNL     1      38.865  89.220  -2.873  1.00  0.00    -0.346 N 
ATOM      4  H8  UNL     1      39.343  88.522  -2.303  1.00  0.00     0.167 HD
HETATM    5  C8  UNL     1      39.031  89.421  -4.202  1.00  0.00     0.123 A 
HETATM    6  C9  UNL     1      39.817  88.817  -5.135  1.00  0.00     0.148 A 
HETATM    7  N9  UNL     1      40.587  87.855  -4.781  1.00  0.00    -0.367 N 
ATOM      8  H9  UNL     1      40.578  87.577  -3.800  1.00  0.00     0.161 HD
HETATM    9  N12 UNL     1      39.740  89.272  -6.401  1.00  0.00    -0.174 N 
ATOM     10  H12 UNL     1      40.326  88.825  -7.106  1.00  0.00     0.186 HD
HETATM   11  C16 UNL     1      38.941  90.278  -6.792  1.00  0.00     0.683 A 
HETATM   12  N15 UNL     1      38.146  90.895  -5.869  1.00  0.00    -0.174 N 
ATOM     13  H15 UNL     1      37.525  91.661  -6.131  1.00  0.00     0.186 HD
HETATM   14  C21 UNL     1      38.212  90.453  -4.607  1.00  0.00     0.157 A 
ENDROOT
BRANCH   1  15
HETATM   15  C6  UNL     1      36.585  91.897  -3.333  1.00  0.00     0.206 C 
HETATM   16  C5  UNL     1      36.584  92.239  -1.835  1.00  0.00     0.082 C 
HETATM   17  C4  UNL     1      35.938  93.577  -1.727  1.00  0.00     0.145 C 
HETATM   18  N5  UNL     1      34.644  93.547  -2.375  1.00  0.00    -0.216 N 
HETATM   19  C3  UNL     1      33.721  94.533  -1.952  1.00  0.00     0.690 C 
HETATM   20  C23 UNL     1      34.242  92.606  -3.393  1.00  0.00     0.145 C 
HETATM   21  N2  UNL     1      33.705  94.978  -0.619  1.00  0.00    -0.223 N 
HETATM   22  N3  UNL     1      32.897  95.020  -2.797  1.00  0.00    -0.139 N 
ATOM     23  H2  UNL     1      34.124  95.883  -0.405  1.00  0.00     0.177 HD
ATOM     24  H3  UNL     1      32.930  94.679  -3.758  1.00  0.00     0.205 HD
HETATM   25  C22 UNL     1      35.196  91.504  -3.672  1.00  0.00     0.082 C 
BRANCH  21  26
HETATM   26  C2  UNL     1      33.122  94.215   0.466  1.00  0.00     0.165 C 
BRANCH  26  27
HETATM   27  C1  UNL     1      31.666  94.574   0.665  1.00  0.00     0.249 C 
BRANCH  27  28
HETATM   28  N1  UNL     1      31.311  94.575   2.059  1.00  0.00    -0.078 N 
ATOM     29  H13 UNL     1      32.096  94.288   2.644  1.00  0.00     0.274 HD
ATOM     30  H12 UNL     1      31.189  95.523   2.413  1.00  0.00     0.274 HD
ATOM     31  H11 UNL     1      30.486  94.002   2.233  1.00  0.00     0.274 HD
ENDBRANCH  27  28
ENDBRANCH  26  27
ENDBRANCH  21  26
BRANCH  22  32
HETATM   32  N4  UNL     1      31.956  95.993  -2.473  1.00  0.00    -0.331 N 
ATOM     33  H42 UNL     1      31.859  96.241  -1.488  1.00  0.00     0.177 HD
ATOM     34  H41 UNL     1      31.371  96.459  -3.167  1.00  0.00     0.177 HD
ENDBRANCH  22  32
BRANCH  15  35
HETATM   35  N6  UNL     1      36.993  93.038  -4.114  1.00  0.00    -0.052 N 
ATOM     36  H63 UNL     1      36.940  93.903  -3.576  1.00  0.00     0.277 HD
ATOM     37  H62 UNL     1      37.997  93.032  -4.297  1.00  0.00     0.277 HD
ATOM     38  H61 UNL     1      36.452  93.095  -4.977  1.00  0.00     0.277 HD
ENDBRANCH  15  35
ENDBRANCH   1  15
BRANCH  11  39
HETATM   39  N13 UNL     1      38.931  90.685  -8.152  1.00  0.00    -0.214 N 
HETATM   40  C17 UNL     1      38.780  89.694  -9.198  1.00  0.00     0.168 C 
HETATM   41  C18 UNL     1      38.639  90.327 -10.555  1.00  0.00     0.252 C 
HETATM   42  N14 UNL     1      39.710  91.264 -10.814  1.00  0.00    -0.072 N 
HETATM   43  C19 UNL     1      39.974  92.178  -9.753  1.00  0.00     0.252 C 
ATOM     44 2H14 UNL     1      40.561  90.765 -11.071  1.00  0.00     0.277 HD
ATOM     45 1H14 UNL     1      39.534  91.771 -11.681  1.00  0.00     0.277 HD
HETATM   46  C20 UNL     1      39.065  92.066  -8.569  1.00  0.00     0.168 C 
ENDBRANCH  11  39
BRANCH   7  47
HETATM   47  C10 UNL     1      41.458  87.143  -5.668  1.00  0.00     0.200 C 
BRANCH  47  48
HETATM   48  C11 UNL     1      40.948  85.765  -5.867  1.00  0.00     0.149 C 
HETATM   49  O1  UNL     1      41.653  84.823  -5.612  1.00  0.00    -0.296 OA
BRANCH  48  50
HETATM   50  C12 UNL     1      39.558  85.586  -6.384  1.00  0.00     0.138 C 
BRANCH  50  51
HETATM   51  C13 UNL     1      39.637  85.479  -7.861  1.00  0.00     0.032 A 
HETATM   52  C14 UNL     1      38.675  85.816  -8.777  1.00  0.00     0.114 A 
HETATM   53  N10 UNL     1      39.188  85.549  -9.990  1.00  0.00    -0.360 N 
HETATM   54  C15 UNL     1      40.435  85.056  -9.865  1.00  0.00     0.180 A 
ATOM     55  H10 UNL     1      38.704  85.697 -10.875  1.00  0.00     0.166 HD
HETATM   56  N11 UNL     1      40.707  85.015  -8.549  1.00  0.00    -0.354 N 
ATOM     57  H11 UNL     1      41.580  84.687  -8.134  1.00  0.00     0.166 HD
ENDBRANCH  50  51
ENDBRANCH  48  50
ENDBRANCH  47  48
ENDBRANCH   7  47
TORSDOF 11
ENDMDL
MODEL 2
REMARK VINA RESULT: -6.622074723      3.016     10.098
REMARK  11 active torsions:
REMARK  status: ('A' for Active; 'I' for Inactive)
REMARK    1  A    between atoms: N1_1  and  C1_5 
REMARK    2  A    between atoms: C1_5  and  C2_6 
REMARK    3  A    between atoms: C2_6  and  N2_7 
REMARK       I    between atoms: N2_7  and  C3_9 
REMARK       I    between atoms: C3_9  and  N5_15 
REMARK    4  A    between atoms: N3_10  and  N4_12 
REMARK    5  A    between atoms: C6_18  and  N6_19 
REMARK    6  A    between atoms: C6_18  and  N7_23 
REMARK    7  A    between atoms: N9_29  and  C10_31 
REMARK    8  A    between atoms: C10_31  and  C11_32 
REMARK    9  A    between atoms: C11_32  and  C12_34 
REMARK   10  A    between atoms: C12_34  and  C13_35 
REMARK   11  A    between atoms: C16_44  and  N13_45 
ROOT
HETATM    1  N7  UNL     1      37.543  90.487  -4.193  1.00  0.00    -0.292 N 
HETATM    2  C7  UNL     1      37.766  90.172  -2.881  1.00  0.00     0.188 A 
HETATM    3  N8  UNL     1      37.257  91.134  -2.121  1.00  0.00    -0.346 N 
ATOM      4  H8  UNL     1      37.272  91.170  -1.101  1.00  0.00     0.167 HD
HETATM    5  C8  UNL     1      36.713  92.058  -2.948  1.00  0.00     0.123 A 
HETATM    6  C9  UNL     1      36.065  93.234  -2.718  1.00  0.00     0.148 A 
HETATM    7  N9  UNL     1      35.888  93.629  -1.512  1.00  0.00    -0.367 N 
ATOM      8  H9  UNL     1      36.246  93.038  -0.761  1.00  0.00     0.161 HD
HETATM    9  N12 UNL     1      35.639  93.928  -3.792  1.00  0.00    -0.174 N 
ATOM     10  H12 UNL     1      35.153  94.810  -3.628  1.00  0.00     0.186 HD
HETATM   11  C16 UNL     1      35.815  93.532  -5.063  1.00  0.00     0.683 A 
HETATM   12  N15 UNL     1      36.463  92.356  -5.311  1.00  0.00    -0.174 N 
ATOM     13  H15 UNL     1      36.615  92.024  -6.263  1.00  0.00     0.186 HD
HETATM   14  C21 UNL     1      36.891  91.654  -4.253  1.00  0.00     0.157 A 
ENDROOT
BRANCH   1  15
HETATM   15  C6  UNL     1      37.994  89.613  -5.239  1.00  0.00     0.206 C 
HETATM   16  C5  UNL     1      38.896  88.565  -4.567  1.00  0.00     0.082 C 
HETATM   17  C4  UNL     1      38.984  87.432  -5.531  1.00  0.00     0.145 C 
HETATM   18  N5  UNL     1      39.426  87.922  -6.819  1.00  0.00    -0.216 N 
HETATM   19  C3  UNL     1      40.022  86.962  -7.672  1.00  0.00     0.690 C 
HETATM   20  C23 UNL     1      39.305  89.285  -7.281  1.00  0.00     0.145 C 
HETATM   21  N2  UNL     1      40.790  85.911  -7.144  1.00  0.00    -0.223 N 
HETATM   22  N3  UNL     1      39.854  87.058  -8.934  1.00  0.00    -0.139 N 
ATOM     23  H2  UNL     1      40.370  84.982  -7.091  1.00  0.00     0.177 HD
ATOM     24  H3  UNL     1      39.292  87.831  -9.290  1.00  0.00     0.205 HD
HETATM   25  C22 UNL     1      38.821  90.268  -6.280  1.00  0.00     0.082 C 
BRANCH  21  26
HETATM   26  C2  UNL     1      42.149  86.080  -6.670  1.00  0.00     0.165 C 
BRANCH  26  27
HETATM   27  C1  UNL     1      42.191  86.193  -5.162  1.00  0.00     0.249 C 
BRANCH  27  28
HETATM   28  N1  UNL     1      42.483  87.538  -4.745  1.00  0.00    -0.078 N 
ATOM     29  H13 UNL     1      43.466  87.647  -4.497  1.00  0.00     0.274 HD
ATOM     30  H12 UNL     1      42.445  88.189  -5.528  1.00  0.00     0.274 HD
ATOM     31  H11 UNL     1      41.871  87.833  -3.984  1.00  0.00     0.274 HD
ENDBRANCH  27  28
ENDBRANCH  26  27
ENDBRANCH  21  26
BRANCH  22  32
HETATM   32  N4  UNL     1      40.400  86.161  -9.848  1.00  0.00    -0.331 N 
ATOM     33  H42 UNL     1      41.414  86.164  -9.957  1.00  0.00     0.177 HD
ATOM     34  H41 UNL     1      39.838  85.514 -10.400  1.00  0.00     0.177 HD
ENDBRANCH  22  32
BRANCH  15  35
HETATM   35  N6  UNL     1      36.839  88.985  -5.830  1.00  0.00    -0.052 N 
ATOM     36  H63 UNL     1      36.804  87.987  -5.624  1.00  0.00     0.277 HD
ATOM     37  H62 UNL     1      35.975  89.268  -5.366  1.00  0.00     0.277 HD
ATOM     38  H61 UNL     1      36.806  89.167  -6.833  1.00  0.00     0.277 HD
ENDBRANCH  15  35
ENDBRANCH   1  15
BRANCH  11  39
HETATM   39  N13 UNL     1      35.329  94.336  -6.127  1.00  0.00    -0.214 N 
HETATM   40  C17 UNL     1      35.975  94.281  -7.423  1.00  0.00     0.168 C 
HETATM   41  C18 UNL     1      35.229  95.080  -8.456  1.00  0.00     0.252 C 
HETATM   42  N14 UNL     1      34.986  96.432  -8.002  1.00  0.00    -0.072 N 
HETATM   43  C19 UNL     1      34.467  96.534  -6.679  1.00  0.00     0.252 C 
ATOM     44 2H14 UNL     1      35.832  96.993  -8.094  1.00  0.00     0.277 HD
ATOM     45 1H14 UNL     1      34.378  96.921  -8.659  1.00  0.00     0.277 HD
HETATM   46  C20 UNL     1      34.198  95.231  -5.994  1.00  0.00     0.168 C 
ENDBRANCH  11  39
BRANCH   7  47
HETATM   47  C10 UNL     1      35.223  94.843  -1.144  1.00  0.00     0.200 C 
BRANCH  47  48
HETATM   48  C11 UNL     1      33.916  94.525  -0.520  1.00  0.00     0.149 C 
HETATM   49  O1  UNL     1      33.710  93.419  -0.091  1.00  0.00    -0.296 OA
BRANCH  48  50
HETATM   50  C12 UNL     1      32.882  95.600  -0.442  1.00  0.00     0.138 C 
BRANCH  50  51
HETATM   51  C13 UNL     1      31.696  95.035   0.246  1.00  0.00     0.032 A 
HETATM   52  C14 UNL     1      30.449  94.816  -0.281  1.00  0.00     0.114 A 
HETATM   53  N10 UNL     1      29.701  94.294   0.706  1.00  0.00    -0.360 N 
HETATM   54  C15 UNL     1      30.435  94.179   1.830  1.00  0.00     0.180 A 
ATOM     55  H10 UNL     1      28.722  94.024   0.617  1.00  0.00     0.166 HD
HETATM   56  N11 UNL     1      31.665  94.638   1.540  1.00  0.00    -0.354 N 
ATOM     57  H11 UNL     1      32.450  94.681   2.190  1.00  0.00     0.166 HD
ENDBRANCH  50  51
ENDBRANCH  48  50
ENDBRANCH  47  48
ENDBRANCH   7  47
TORSDOF 11
ENDMDL
MODEL 3
REMARK VINA RESULT: -6.591474582      3.211     10.370
REMARK  11 active torsions:
REMARK  status: ('A' for Active; 'I' for Inactive)
REMARK    1  A    between atoms: N1_1  and  C1_5 
REMARK    2  A    between atoms: C1_5  and  C2_6 
REMARK    3  A    between atoms: C2_6  and  N2_7 
REMARK       I    between atoms: N2_7  and  C3_9 
REMARK       I    between atoms: C3_9  and  N5_15 
REMARK    4  A    between atoms: N3_10  and  N4_12 
REMARK    5  A    between atoms: C6_18  and  N6_19 
REMARK    6  A    between atoms: C6_18  and  N7_23 
REMARK    7  A    between atoms: N9_29  and  C10_31 
REMARK    8  A    between atoms: C10_31  and  C11_32 
REMARK    9  A    between atoms: C11_32  and  C12_34 
REMARK   10  A    between atoms: C12_34  and  C13_35 
REMARK   11  A    between atoms: C16_44  and  N13_45 
ROOT
HETATM    1  N7  UNL     1      37.282  90.798  -5.116  1.00  0.00    -0.292 N 
HETATM    2  C7  UNL     1      37.560  92.006  -5.693  1.00  0.00     0.188 A 
HETATM    3  N8  UNL     1      37.138  92.970  -4.885  1.00  0.00    -0.346 N 
ATOM      4  H8  UNL     1      37.211  93.974  -5.052  1.00  0.00     0.167 HD
HETATM    5  C8  UNL     1      36.592  92.376  -3.797  1.00  0.00     0.123 A 
HETATM    6  C9  UNL     1      36.013  92.872  -2.668  1.00  0.00     0.148 A 
HETATM    7  N9  UNL     1      35.919  94.141  -2.515  1.00  0.00    -0.367 N 
ATOM      8  H9  UNL     1      36.287  94.737  -3.257  1.00  0.00     0.161 HD
HETATM    9  N12 UNL     1      35.564  91.984  -1.760  1.00  0.00    -0.174 N 
ATOM     10  H12 UNL     1      35.128  92.347  -0.912  1.00  0.00     0.186 HD
HETATM   11  C16 UNL     1      35.652  90.651  -1.901  1.00  0.00     0.683 A 
HETATM   12  N15 UNL     1      36.229  90.138  -3.027  1.00  0.00    -0.174 N 
ATOM     13  H15 UNL     1      36.312  89.131  -3.169  1.00  0.00     0.186 HD
HETATM   14  C21 UNL     1      36.681  91.008  -3.939  1.00  0.00     0.157 A 
ENDROOT
BRANCH   1  15
HETATM   15  C6  UNL     1      37.634  89.575  -5.780  1.00  0.00     0.206 C 
HETATM   16  C5  UNL     1      38.817  88.983  -4.997  1.00  0.00     0.082 C 
HETATM   17  C4  UNL     1      38.880  87.546  -5.388  1.00  0.00     0.145 C 
HETATM   18  N5  UNL     1      38.950  87.436  -6.828  1.00  0.00    -0.216 N 
HETATM   19  C3  UNL     1      39.498  86.229  -7.328  1.00  0.00     0.690 C 
HETATM   20  C23 UNL     1      38.513  88.443  -7.766  1.00  0.00     0.145 C 
HETATM   21  N2  UNL     1      40.522  85.564  -6.633  1.00  0.00    -0.223 N 
HETATM   22  N3  UNL     1      39.051  85.746  -8.422  1.00  0.00    -0.139 N 
ATOM     23  H2  UNL     1      40.280  84.735  -6.090  1.00  0.00     0.177 HD
ATOM     24  H3  UNL     1      38.308  86.250  -8.906  1.00  0.00     0.205 HD
HETATM   25  C22 UNL     1      38.101  89.742  -7.177  1.00  0.00     0.082 C 
BRANCH  21  26
HETATM   26  C2  UNL     1      41.905  85.997  -6.650  1.00  0.00     0.165 C 
BRANCH  26  27
HETATM   27  C1  UNL     1      42.450  86.139  -5.246  1.00  0.00     0.249 C 
BRANCH  27  28
HETATM   28  N1  UNL     1      42.435  87.511  -4.814  1.00  0.00    -0.078 N 
ATOM     29  H13 UNL     1      42.520  88.152  -5.603  1.00  0.00     0.274 HD
ATOM     30  H12 UNL     1      41.511  87.789  -4.484  1.00  0.00     0.274 HD
ATOM     31  H11 UNL     1      43.151  87.688  -4.110  1.00  0.00     0.274 HD
ENDBRANCH  27  28
ENDBRANCH  26  27
ENDBRANCH  21  26
BRANCH  22  32
HETATM   32  N4  UNL     1      39.527  84.567  -8.987  1.00  0.00    -0.331 N 
ATOM     33  H42 UNL     1      40.531  84.395  -8.935  1.00  0.00     0.177 HD
ATOM     34  H41 UNL     1      38.924  83.881  -9.441  1.00  0.00     0.177 HD
ENDBRANCH  22  32
BRANCH  15  35
HETATM   35  N6  UNL     1      36.498  88.690  -5.728  1.00  0.00    -0.052 N 
ATOM     36  H63 UNL     1      36.367  88.190  -6.608  1.00  0.00     0.277 HD
ATOM     37  H62 UNL     1      36.668  87.889  -5.120  1.00  0.00     0.277 HD
ATOM     38  H61 UNL     1      35.657  89.200  -5.455  1.00  0.00     0.277 HD
ENDBRANCH  15  35
ENDBRANCH   1  15
BRANCH  11  39
HETATM   39  N13 UNL     1      35.147  89.797  -0.886  1.00  0.00    -0.214 N 
HETATM   40  C17 UNL     1      35.861  89.671   0.369  1.00  0.00     0.168 C 
HETATM   41  C18 UNL     1      35.096  88.849   1.369  1.00  0.00     0.252 C 
HETATM   42  N14 UNL     1      34.700  87.573   0.812  1.00  0.00    -0.072 N 
HETATM   43  C19 UNL     1      34.107  87.644  -0.482  1.00  0.00     0.252 C 
ATOM     44 2H14 UNL     1      35.492  86.931   0.802  1.00  0.00     0.277 HD
ATOM     45 1H14 UNL     1      34.082  87.082   1.458  1.00  0.00     0.277 HD
HETATM   46  C20 UNL     1      33.929  89.026  -1.030  1.00  0.00     0.168 C 
ENDBRANCH  11  39
BRANCH   7  47
HETATM   47  C10 UNL     1      35.333  94.781  -1.375  1.00  0.00     0.200 C 
BRANCH  47  48
HETATM   48  C11 UNL     1      33.990  95.298  -1.730  1.00  0.00     0.149 C 
HETATM   49  O1  UNL     1      33.765  95.656  -2.857  1.00  0.00    -0.296 OA
BRANCH  48  50
HETATM   50  C12 UNL     1      32.945  95.360  -0.665  1.00  0.00     0.138 C 
BRANCH  50  51
HETATM   51  C13 UNL     1      32.701  93.976  -0.192  1.00  0.00     0.032 A 
HETATM   52  C14 UNL     1      32.140  92.940  -0.892  1.00  0.00     0.114 A 
HETATM   53  N10 UNL     1      32.121  91.882  -0.063  1.00  0.00    -0.360 N 
HETATM   54  C15 UNL     1      32.648  92.219   1.129  1.00  0.00     0.180 A 
ATOM     55  H10 UNL     1      31.760  90.959  -0.302  1.00  0.00     0.166 HD
HETATM   56  N11 UNL     1      33.005  93.513   1.044  1.00  0.00    -0.354 N 
ATOM     57  H11 UNL     1      33.435  94.059   1.790  1.00  0.00     0.166 HD
ENDBRANCH  50  51
ENDBRANCH  48  50
ENDBRANCH  47  48
ENDBRANCH   7  47
TORSDOF 11
ENDMDL
MODEL 4
REMARK VINA RESULT: -6.546756649      2.550      9.454
REMARK  11 active torsions:
REMARK  status: ('A' for Active; 'I' for Inactive)
REMARK    1  A    between atoms: N1_1  and  C1_5 
REMARK    2  A    between atoms: C1_5  and  C2_6 
REMARK    3  A    between atoms: C2_6  and  N2_7 
REMARK       I    between atoms: N2_7  and  C3_9 
REMARK       I    between atoms: C3_9  and  N5_15 
REMARK    4  A    between atoms: N3_10  and  N4_12 
REMARK    5  A    between atoms: C6_18  and  N6_19 
REMARK    6  A    between atoms: C6_18  and  N7_23 
REMARK    7  A    between atoms: N9_29  and  C10_31 
REMARK    8  A    between atoms: C10_31  and  C11_32 
REMARK    9  A    between atoms: C11_32  and  C12_34 
REMARK   10  A    between atoms: C12_34  and  C13_35 
REMARK   11  A    between atoms: C16_44  and  N13_45 
ROOT
HETATM    1  N7  UNL     1      38.189  91.749  -7.804  1.00  0.00    -0.292 N 
HETATM    2  C7  UNL     1      37.312  92.656  -7.276  1.00  0.00     0.188 A 
HETATM    3  N8  UNL     1      37.095  92.347  -6.004  1.00  0.00    -0.346 N 
ATOM      4  H8  UNL     1      36.485  92.846  -5.357  1.00  0.00     0.167 HD
HETATM    5  C8  UNL     1      37.831  91.245  -5.725  1.00  0.00     0.123 A 
HETATM    6  C9  UNL     1      37.991  90.505  -4.592  1.00  0.00     0.148 A 
HETATM    7  N9  UNL     1      37.358  90.839  -3.529  1.00  0.00    -0.367 N 
ATOM      8  H9  UNL     1      36.751  91.658  -3.575  1.00  0.00     0.161 HD
HETATM    9  N12 UNL     1      38.819  89.445  -4.655  1.00  0.00    -0.174 N 
ATOM     10  H12 UNL     1      38.944  88.885  -3.812  1.00  0.00     0.186 HD
HETATM   11  C16 UNL     1      39.491  89.078  -5.759  1.00  0.00     0.683 A 
HETATM   12  N15 UNL     1      39.342  89.809  -6.903  1.00  0.00    -0.174 N 
ATOM     13  H15 UNL     1      39.836  89.559  -7.760  1.00  0.00     0.186 HD
HETATM   14  C21 UNL     1      38.522  90.866  -6.856  1.00  0.00     0.157 A 
ENDROOT
BRANCH   1  15
HETATM   15  C6  UNL     1      38.602  91.848  -9.175  1.00  0.00     0.206 C 
HETATM   16  C5  UNL     1      40.139  91.816  -9.168  1.00  0.00     0.082 C 
HETATM   17  C4  UNL     1      40.542  91.463 -10.558  1.00  0.00     0.145 C 
HETATM   18  N5  UNL     1      39.929  92.383 -11.491  1.00  0.00    -0.216 N 
HETATM   19  C3  UNL     1      40.570  92.505 -12.748  1.00  0.00     0.690 C 
HETATM   20  C23 UNL     1      38.741  93.164 -11.236  1.00  0.00     0.145 C 
HETATM   21  N2  UNL     1      41.967  92.398 -12.855  1.00  0.00    -0.223 N 
HETATM   22  N3  UNL     1      39.864  92.713 -13.791  1.00  0.00    -0.139 N 
ATOM     23  H2  UNL     1      42.360  91.527 -13.212  1.00  0.00     0.177 HD
ATOM     24  H3  UNL     1      38.852  92.787 -13.685  1.00  0.00     0.205 HD
HETATM   25  C22 UNL     1      38.215  93.110  -9.849  1.00  0.00     0.082 C 
BRANCH  21  26
HETATM   26  C2  UNL     1      42.875  93.462 -12.482  1.00  0.00     0.165 C 
BRANCH  26  27
HETATM   27  C1  UNL     1      42.119  94.703 -12.061  1.00  0.00     0.249 C 
BRANCH  27  28
HETATM   28  N1  UNL     1      42.222  94.925 -10.644  1.00  0.00    -0.078 N 
ATOM     29  H13 UNL     1      42.907  94.302 -10.217  1.00  0.00     0.274 HD
ATOM     30  H12 UNL     1      42.669  95.817 -10.436  1.00  0.00     0.274 HD
ATOM     31  H11 UNL     1      41.312  94.848 -10.188  1.00  0.00     0.274 HD
ENDBRANCH  27  28
ENDBRANCH  26  27
ENDBRANCH  21  26
BRANCH  22  32
HETATM   32  N4  UNL     1      40.406  92.844 -15.066  1.00  0.00    -0.331 N 
ATOM     33  H42 UNL     1      41.420  92.936 -15.137  1.00  0.00     0.177 HD
ATOM     34  H41 UNL     1      39.842  92.852 -15.916  1.00  0.00     0.177 HD
ENDBRANCH  22  32
BRANCH  15  35
HETATM   35  N6  UNL     1      38.074  90.712  -9.888  1.00  0.00    -0.052 N 
ATOM     36  H63 UNL     1      38.611  89.864  -9.700  1.00  0.00     0.277 HD
ATOM     37  H62 UNL     1      37.176  90.412  -9.510  1.00  0.00     0.277 HD
ATOM     38  H61 UNL     1      38.017  90.909 -10.887  1.00  0.00     0.277 HD
ENDBRANCH  15  35
ENDBRANCH   1  15
BRANCH  11  39
HETATM   39  N13 UNL     1      40.342  87.942  -5.724  1.00  0.00    -0.214 N 
HETATM   40  C17 UNL     1      41.570  87.986  -4.957  1.00  0.00     0.168 C 
HETATM   41  C18 UNL     1      42.254  86.648  -4.916  1.00  0.00     0.252 C 
HETATM   42  N14 UNL     1      42.437  86.107  -6.246  1.00  0.00    -0.072 N 
HETATM   43  C19 UNL     1      41.280  86.162  -7.077  1.00  0.00     0.252 C 
ATOM     44 2H14 UNL     1      43.225  86.561  -6.706  1.00  0.00     0.277 HD
ATOM     45 1H14 UNL     1      42.789  85.152  -6.194  1.00  0.00     0.277 HD
HETATM   46  C20 UNL     1      40.049  86.709  -6.426  1.00  0.00     0.168 C 
ENDBRANCH  11  39
BRANCH   7  47
HETATM   47  C10 UNL     1      37.443  90.143  -2.280  1.00  0.00     0.200 C 
BRANCH  47  48
HETATM   48  C11 UNL     1      37.328  91.110  -1.162  1.00  0.00     0.149 C 
HETATM   49  O1  UNL     1      38.295  91.733  -0.807  1.00  0.00    -0.296 OA
BRANCH  48  50
HETATM   50  C12 UNL     1      35.999  91.284  -0.502  1.00  0.00     0.138 C 
BRANCH  50  51
HETATM   51  C13 UNL     1      35.434  92.575  -0.963  1.00  0.00     0.032 A 
HETATM   52  C14 UNL     1      34.132  92.996  -0.874  1.00  0.00     0.114 A 
HETATM   53  N10 UNL     1      34.088  94.225  -1.419  1.00  0.00    -0.360 N 
HETATM   54  C15 UNL     1      35.314  94.585  -1.844  1.00  0.00     0.180 A 
ATOM     55  H10 UNL     1      33.250  94.799  -1.497  1.00  0.00     0.166 HD
HETATM   56  N11 UNL     1      36.140  93.563  -1.560  1.00  0.00    -0.354 N 
ATOM     57  H11 UNL     1      37.140  93.536  -1.762  1.00  0.00     0.166 HD
ENDBRANCH  50  51
ENDBRANCH  48  50
ENDBRANCH  47  48
ENDBRANCH   7  47
TORSDOF 11
ENDMDL
MODEL 5
REMARK VINA RESULT: -6.491937845      2.087      3.222
REMARK  11 active torsions:
REMARK  status: ('A' for Active; 'I' for Inactive)
REMARK    1  A    between atoms: N1_1  and  C1_5 
REMARK    2  A    between atoms: C1_5  and  C2_6 
REMARK    3  A    between atoms: C2_6  and  N2_7 
REMARK       I    between atoms: N2_7  and  C3_9 
REMARK       I    between atoms: C3_9  and  N5_15 
REMARK    4  A    between atoms: N3_10  and  N4_12 
REMARK    5  A    between atoms: C6_18  and  N6_19 
REMARK    6  A    between atoms: C6_18  and  N7_23 
REMARK    7  A    between atoms: N9_29  and  C10_31 
REMARK    8  A    between atoms: C10_31  and  C11_32 
REMARK    9  A    between atoms: C11_32  and  C12_34 
REMARK   10  A    between atoms: C12_34  and  C13_35 
REMARK   11  A    between atoms: C16_44  and  N13_45 
ROOT
HETATM    1  N7  UNL     1      36.008  90.871  -1.539  1.00  0.00    -0.292 N 
HETATM    2  C7  UNL     1      36.898  90.474  -0.579  1.00  0.00     0.188 A 
HETATM    3  N8  UNL     1      38.006  90.052  -1.176  1.00  0.00    -0.346 N 
ATOM      4  H8  UNL     1      38.844  89.697  -0.714  1.00  0.00     0.167 HD
HETATM    5  C8  UNL     1      37.819  90.180  -2.512  1.00  0.00     0.123 A 
HETATM    6  C9  UNL     1      38.613  89.904  -3.584  1.00  0.00     0.148 A 
HETATM    7  N9  UNL     1      39.786  89.424  -3.392  1.00  0.00    -0.367 N 
ATOM      8  H9  UNL     1      40.081  89.265  -2.428  1.00  0.00     0.161 HD
HETATM    9  N12 UNL     1      38.111  90.156  -4.809  1.00  0.00    -0.174 N 
ATOM     10  H12 UNL     1      38.698  89.952  -5.617  1.00  0.00     0.186 HD
HETATM   11  C16 UNL     1      36.885  90.659  -5.031  1.00  0.00     0.683 A 
HETATM   12  N15 UNL     1      36.077  90.940  -3.967  1.00  0.00    -0.174 N 
ATOM     13  H15 UNL     1      35.140  91.321  -4.099  1.00  0.00     0.186 HD
HETATM   14  C21 UNL     1      36.563  90.695  -2.743  1.00  0.00     0.157 A 
ENDROOT
BRANCH   1  15
HETATM   15  C6  UNL     1      34.716  91.376  -1.169  1.00  0.00     0.206 C 
HETATM   16  C5  UNL     1      34.624  92.796  -1.750  1.00  0.00     0.082 C 
HETATM   17  C4  UNL     1      33.173  93.131  -1.768  1.00  0.00     0.145 C 
HETATM   18  N5  UNL     1      32.614  92.946  -0.447  1.00  0.00    -0.216 N 
HETATM   19  C3  UNL     1      31.424  93.665  -0.175  1.00  0.00     0.690 C 
HETATM   20  C23 UNL     1      33.170  92.103   0.585  1.00  0.00     0.145 C 
HETATM   21  N2  UNL     1      31.209  94.935  -0.736  1.00  0.00    -0.223 N 
HETATM   22  N3  UNL     1      30.542  93.146   0.589  1.00  0.00    -0.139 N 
ATOM     23  H2  UNL     1      30.573  95.012  -1.530  1.00  0.00     0.177 HD
ATOM     24  H3  UNL     1      30.725  92.223   0.983  1.00  0.00     0.205 HD
HETATM   25  C22 UNL     1      34.498  91.508   0.291  1.00  0.00     0.082 C 
BRANCH  21  26
HETATM   26  C2  UNL     1      31.844  96.139  -0.242  1.00  0.00     0.165 C 
BRANCH  26  27
HETATM   27  C1  UNL     1      31.870  97.217  -1.304  1.00  0.00     0.249 C 
BRANCH  27  28
HETATM   28  N1  UNL     1      32.747  96.865  -2.388  1.00  0.00    -0.078 N 
ATOM     29  H13 UNL     1      33.069  95.901  -2.310  1.00  0.00     0.274 HD
ATOM     30  H12 UNL     1      32.241  96.791  -3.270  1.00  0.00     0.274 HD
ATOM     31  H11 UNL     1      33.530  97.516  -2.460  1.00  0.00     0.274 HD
ENDBRANCH  27  28
ENDBRANCH  26  27
ENDBRANCH  21  26
BRANCH  22  32
HETATM   32  N4  UNL     1      29.344  93.777   0.910  1.00  0.00    -0.331 N 
ATOM     33  H42 UNL     1      29.074  94.584   0.347  1.00  0.00     0.177 HD
ATOM     34  H41 UNL     1      28.737  93.471   1.671  1.00  0.00     0.177 HD
ENDBRANCH  22  32
BRANCH  15  35
HETATM   35  N6  UNL     1      33.714  90.521  -1.755  1.00  0.00    -0.052 N 
ATOM     36  H63 UNL     1      32.966  90.307  -1.095  1.00  0.00     0.277 HD
ATOM     37  H62 UNL     1      33.162  91.013  -2.459  1.00  0.00     0.277 HD
ATOM     38  H61 UNL     1      34.139  89.675  -2.133  1.00  0.00     0.277 HD
ENDBRANCH  15  35
ENDBRANCH   1  15
BRANCH  11  39
HETATM   39  N13 UNL     1      36.446  90.888  -6.362  1.00  0.00    -0.214 N 
HETATM   40  C17 UNL     1      37.332  90.597  -7.471  1.00  0.00     0.168 C 
HETATM   41  C18 UNL     1      36.640  90.757  -8.797  1.00  0.00     0.252 C 
HETATM   42  N14 UNL     1      36.002  92.051  -8.907  1.00  0.00    -0.072 N 
HETATM   43  C19 UNL     1      35.222  92.430  -7.777  1.00  0.00     0.252 C 
ATOM     44 2H14 UNL     1      36.695  92.770  -9.115  1.00  0.00     0.277 HD
ATOM     45 1H14 UNL     1      35.440  92.097  -9.756  1.00  0.00     0.277 HD
HETATM   46  C20 UNL     1      35.134  91.409  -6.687  1.00  0.00     0.168 C 
ENDBRANCH  11  39
BRANCH   7  47
HETATM   47  C10 UNL     1      40.710  89.095  -4.436  1.00  0.00     0.200 C 
BRANCH  47  48
HETATM   48  C11 UNL     1      41.205  87.711  -4.244  1.00  0.00     0.149 C 
HETATM   49  O1  UNL     1      40.890  87.093  -3.260  1.00  0.00    -0.296 OA
BRANCH  48  50
HETATM   50  C12 UNL     1      42.090  87.117  -5.291  1.00  0.00     0.138 C 
BRANCH  50  51
HETATM   51  C13 UNL     1      41.232  86.346  -6.222  1.00  0.00     0.032 A 
HETATM   52  C14 UNL     1      41.551  85.901  -7.479  1.00  0.00     0.114 A 
HETATM   53  N10 UNL     1      40.469  85.252  -7.943  1.00  0.00    -0.360 N 
HETATM   54  C15 UNL     1      39.486  85.277  -7.023  1.00  0.00     0.180 A 
ATOM     55  H10 UNL     1      40.403  84.807  -8.858  1.00  0.00     0.166 HD
HETATM   56  N11 UNL     1      39.963  85.953  -5.962  1.00  0.00    -0.354 N 
ATOM     57  H11 UNL     1      39.451  86.140  -5.100  1.00  0.00     0.166 HD
ENDBRANCH  50  51
ENDBRANCH  48  50
ENDBRANCH  47  48
ENDBRANCH   7  47
TORSDOF 11
ENDMDL
