MODEL 1
REMARK VINA RESULT: -6.857191542      0.000      0.000
REMARK  9 active torsions:
REMARK  status: ('A' for Active; 'I' for Inactive)
REMARK    1  A    between atoms: S1_2  and  C2_5 
REMARK    2  A    between atoms: C2_5  and  C3_6 
REMARK    3  A    between atoms: C4_7  and  C5_8 
REMARK    4  A    between atoms: C8_18  and  C9_19 
REMARK    5  A    between atoms: N3_23  and  C12_24 
REMARK    6  A    between atoms: C12_24  and  C13_25 
REMARK    7  A    between atoms: C13_25  and  C14_26 
REMARK    8  A    between atoms: C14_26  and  C15_27 
REMARK    9  A    between atoms: C15_27  and  C16_28 
ROOT
HETATM    1  C3  UNL     1      39.473  87.326  -7.936  1.00  0.00     0.071 C 
HETATM    2  C4  UNL     1      40.176  86.784  -6.943  1.00  0.00     0.157 C 
HETATM    3  N1  UNL     1      39.893  87.578  -5.776  1.00  0.00    -0.213 N 
HETATM    4  C6  UNL     1      40.306  87.921  -4.461  1.00  0.00     0.275 C 
HETATM    5  O5  UNL     1      40.885  87.156  -3.665  1.00  0.00    -0.269 OA
HETATM    6  C7  UNL     1      39.931  89.326  -4.216  1.00  0.00     0.330 C 
HETATM    7  N2  UNL     1      39.239  89.556  -2.982  1.00  0.00    -0.024 N 
ATOM      8  H21 UNL     1      39.823  89.794  -2.180  1.00  0.00     0.281 HD
ATOM      9  H22 UNL     1      38.828  88.733  -2.540  1.00  0.00     0.281 HD
HETATM   10  C8  UNL     1      38.290  90.594  -3.419  1.00  0.00     0.436 C 
HETATM   11  N8  UNL     1      37.709  89.970  -4.566  1.00  0.00    -0.018 N 
ATOM     12  H81 UNL     1      37.039  90.543  -5.079  1.00  0.00     0.282 HD
ATOM     13  H82 UNL     1      37.053  89.217  -4.364  1.00  0.00     0.282 HD
HETATM   14  C18 UNL     1      38.896  89.577  -5.319  1.00  0.00     0.344 C 
HETATM   15  N9  UNL     1      38.732  88.338  -6.004  1.00  0.00    -0.095 NA
HETATM   16  N10 UNL     1      38.745  88.430  -7.398  1.00  0.00    -0.300 N 
ATOM     17  H10 UNL     1      38.303  89.169  -7.945  1.00  0.00     0.182 HD
ENDROOT
BRANCH  10  18
HETATM   18  C9  UNL     1      37.344  90.970  -2.368  1.00  0.00     0.089 A 
HETATM   19  C10 UNL     1      36.598  92.124  -2.323  1.00  0.00     0.106 A 
HETATM   20  C11 UNL     1      35.819  92.123  -1.175  1.00  0.00     0.263 A 
HETATM   21  O6  UNL     1      35.006  93.033  -0.807  1.00  0.00    -0.267 OA
HETATM   22  N3  UNL     1      36.104  90.972  -0.544  1.00  0.00    -0.257 N 
HETATM   23  N7  UNL     1      37.005  90.301  -1.256  1.00  0.00    -0.296 N 
ATOM     24  H7  UNL     1      37.388  89.393  -0.991  1.00  0.00     0.187 HD
BRANCH  22  25
HETATM   25  C12 UNL     1      35.491  90.565   0.707  1.00  0.00     0.152 C 
BRANCH  25  26
HETATM   26  C13 UNL     1      34.437  89.498   0.508  1.00  0.00     0.022 C 
BRANCH  26  27
HETATM   27  C14 UNL     1      33.218  89.959  -0.214  1.00  0.00     0.008 C 
BRANCH  27  28
HETATM   28  C15 UNL     1      32.205  90.567   0.708  1.00  0.00     0.066 C 
BRANCH  28  29
HETATM   29  C16 UNL     1      32.185  92.059   0.693  1.00  0.00     0.069 A 
HETATM   30  N4  UNL     1      32.919  92.965   1.311  1.00  0.00    -0.296 N 
HETATM   31  N5  UNL     1      32.717  94.201   1.144  1.00  0.00    -0.279 N 
ATOM     32  H4  UNL     1      33.665  92.661   1.937  1.00  0.00     0.187 HD
HETATM   33  C17 UNL     1      31.736  94.587   0.321  1.00  0.00     0.158 A 
ATOM     34  H5  UNL     1      33.291  94.892   1.628  1.00  0.00     0.189 HD
HETATM   35  N6  UNL     1      31.379  95.816   0.023  1.00  0.00    -0.379 N 
HETATM   36  S2  UNL     1      31.112  93.088  -0.206  1.00  0.00    -0.038 SA
ATOM     37  H62 UNL     1      31.752  96.712   0.338  1.00  0.00     0.158 HD
ATOM     38  H61 UNL     1      30.630  96.110  -0.605  1.00  0.00     0.158 HD
ENDBRANCH  28  29
ENDBRANCH  27  28
ENDBRANCH  26  27
ENDBRANCH  25  26
ENDBRANCH  22  25
ENDBRANCH  10  18
BRANCH   2  39
HETATM   39  C5  UNL     1      41.050  85.652  -6.990  1.00  0.00     0.230 C 
HETATM   40  O3  UNL     1      41.120  84.892  -5.960  1.00  0.00    -0.643 OA
HETATM   41  O4  UNL     1      41.851  85.254  -8.018  1.00  0.00    -0.643 OA
ENDBRANCH   2  39
BRANCH   1  42
HETATM   42  C2  UNL     1      39.396  86.919  -9.346  1.00  0.00     0.200 C 
BRANCH  42  43
HETATM   43  S1  UNL     1      38.960  88.306 -10.380  1.00  0.00     0.146 S 
HETATM   44  C1  UNL     1      39.293  87.936 -12.091  1.00  0.00     0.161 C 
HETATM   45  O1  UNL     1      39.822  89.474  -9.996  1.00  0.00    -0.228 OA
HETATM   46  O2  UNL     1      37.527  88.665 -10.184  1.00  0.00    -0.228 OA
ENDBRANCH  42  43
ENDBRANCH   1  42
TORSDOF 9
ENDMDL
MODEL 2
REMARK VINA RESULT: -6.851273260      2.886      3.974
REMARK  9 active torsions:
REMARK  status: ('A' for Active; 'I' for Inactive)
REMARK    1  A    between atoms: S1_2  and  C2_5 
REMARK    2  A    between atoms: C2_5  and  C3_6 
REMARK    3  A    between atoms: C4_7  and  C5_8 
REMARK    4  A    between atoms: C8_18  and  C9_19 
REMARK    5  A    between atoms: N3_23  and  C12_24 
REMARK    6  A    between atoms: C12_24  and  C13_25 
REMARK    7  A    between atoms: C13_25  and  C14_26 
REMARK    8  A    between atoms: C14_26  and  C15_27 
REMARK    9  A    between atoms: C15_27  and  C16_28 
ROOT
HETATM    1  C3  UNL     1      38.959  86.311  -6.339  1.00  0.00     0.071 C 
HETATM    2  C4  UNL     1      39.990  86.714  -5.601  1.00  0.00     0.157 C 
HETATM    3  N1  UNL     1      39.517  87.840  -4.838  1.00  0.00    -0.213 N 
HETATM    4  C6  UNL     1      39.887  88.973  -4.064  1.00  0.00     0.275 C 
HETATM    5  O5  UNL     1      40.904  89.056  -3.349  1.00  0.00    -0.269 OA
HETATM    6  C7  UNL     1      38.863  90.016  -4.262  1.00  0.00     0.330 C 
HETATM    7  N2  UNL     1      38.363  90.603  -3.053  1.00  0.00    -0.024 N 
ATOM      8  H21 UNL     1      38.849  91.439  -2.730  1.00  0.00     0.281 HD
ATOM      9  H22 UNL     1      38.534  90.076  -2.197  1.00  0.00     0.281 HD
HETATM   10  C8  UNL     1      36.950  90.781  -3.429  1.00  0.00     0.436 C 
HETATM   11  N8  UNL     1      36.619  89.468  -3.885  1.00  0.00    -0.018 N 
ATOM     12  H81 UNL     1      35.675  89.362  -4.255  1.00  0.00     0.282 HD
ATOM     13  H82 UNL     1      36.511  88.769  -3.152  1.00  0.00     0.282 HD
HETATM   14  C18 UNL     1      37.694  89.209  -4.839  1.00  0.00     0.344 C 
HETATM   15  N9  UNL     1      38.112  87.847  -4.845  1.00  0.00    -0.095 NA
HETATM   16  N10 UNL     1      37.849  87.156  -6.032  1.00  0.00    -0.300 N 
ATOM     17  H10 UNL     1      37.000  87.242  -6.589  1.00  0.00     0.182 HD
ENDROOT
BRANCH  10  18
HETATM   18  C9  UNL     1      36.133  91.281  -2.324  1.00  0.00     0.089 A 
HETATM   19  C10 UNL     1      35.823  90.598  -1.171  1.00  0.00     0.106 A 
HETATM   20  C11 UNL     1      35.030  91.399  -0.362  1.00  0.00     0.263 A 
HETATM   21  O6  UNL     1      34.556  91.092   0.780  1.00  0.00    -0.267 OA
HETATM   22  N3  UNL     1      34.872  92.550  -1.034  1.00  0.00    -0.257 N 
HETATM   23  N7  UNL     1      35.526  92.470  -2.189  1.00  0.00    -0.296 N 
ATOM     24  H7  UNL     1      35.562  93.216  -2.885  1.00  0.00     0.187 HD
BRANCH  22  25
HETATM   25  C12 UNL     1      34.110  93.679  -0.532  1.00  0.00     0.152 C 
BRANCH  25  26
HETATM   26  C13 UNL     1      34.544  94.987  -1.159  1.00  0.00     0.022 C 
BRANCH  26  27
HETATM   27  C14 UNL     1      33.457  95.730  -1.856  1.00  0.00     0.008 C 
BRANCH  27  28
HETATM   28  C15 UNL     1      33.042  95.068  -3.135  1.00  0.00     0.066 C 
BRANCH  28  29
HETATM   29  C16 UNL     1      34.063  95.146  -4.221  1.00  0.00     0.069 A 
HETATM   30  N4  UNL     1      34.866  96.115  -4.620  1.00  0.00    -0.296 N 
HETATM   31  N5  UNL     1      35.666  95.952  -5.584  1.00  0.00    -0.279 N 
ATOM     32  H4  UNL     1      34.840  97.014  -4.139  1.00  0.00     0.187 HD
HETATM   33  C17 UNL     1      35.690  94.768  -6.206  1.00  0.00     0.158 A 
ATOM     34  H5  UNL     1      36.281  96.708  -5.882  1.00  0.00     0.189 HD
HETATM   35  N6  UNL     1      36.447  94.412  -7.219  1.00  0.00    -0.379 N 
HETATM   36  S2  UNL     1      34.507  93.894  -5.340  1.00  0.00    -0.038 SA
ATOM     37  H62 UNL     1      37.154  94.934  -7.737  1.00  0.00     0.158 HD
ATOM     38  H61 UNL     1      36.466  93.509  -7.693  1.00  0.00     0.158 HD
ENDBRANCH  28  29
ENDBRANCH  27  28
ENDBRANCH  26  27
ENDBRANCH  25  26
ENDBRANCH  22  25
ENDBRANCH  10  18
BRANCH   2  39
HETATM   39  C5  UNL     1      41.314  86.173  -5.554  1.00  0.00     0.230 C 
HETATM   40  O3  UNL     1      42.302  86.983  -5.458  1.00  0.00    -0.643 OA
HETATM   41  O4  UNL     1      41.685  84.862  -5.598  1.00  0.00    -0.643 OA
ENDBRANCH   2  39
BRANCH   1  42
HETATM   42  C2  UNL     1      38.887  85.205  -7.304  1.00  0.00     0.200 C 
BRANCH  42  43
HETATM   43  S1  UNL     1      39.710  85.642  -8.826  1.00  0.00     0.146 S 
HETATM   44  C1  UNL     1      38.716  85.173 -10.229  1.00  0.00     0.161 C 
HETATM   45  O1  UNL     1      40.997  84.872  -8.908  1.00  0.00    -0.228 OA
HETATM   46  O2  UNL     1      40.007  87.102  -8.851  1.00  0.00    -0.228 OA
ENDBRANCH  42  43
ENDBRANCH   1  42
TORSDOF 9
ENDMDL
MODEL 3
REMARK VINA RESULT: -6.845387271      1.208      1.331
REMARK  9 active torsions:
REMARK  status: ('A' for Active; 'I' for Inactive)
REMARK    1  A    between atoms: S1_2  and  C2_5 
REMARK    2  A    between atoms: C2_5  and  C3_6 
REMARK    3  A    between atoms: C4_7  and  C5_8 
REMARK    4  A    between atoms: C8_18  and  C9_19 
REMARK    5  A    between atoms: N3_23  and  C12_24 
REMARK    6  A    between atoms: C12_24  and  C13_25 
REMARK    7  A    between atoms: C13_25  and  C14_26 
REMARK    8  A    between atoms: C14_26  and  C15_27 
REMARK    9  A    between atoms: C15_27  and  C16_28 
ROOT
HETATM    1  C3  UNL     1      39.453  87.289  -7.921  1.00  0.00     0.071 C 
HETATM    2  C4  UNL     1      40.170  86.768  -6.928  1.00  0.00     0.157 C 
HETATM    3  N1  UNL     1      39.887  87.571  -5.768  1.00  0.00    -0.213 N 
HETATM    4  C6  UNL     1      40.306  87.935  -4.461  1.00  0.00     0.275 C 
HETATM    5  O5  UNL     1      40.901  87.187  -3.661  1.00  0.00    -0.269 OA
HETATM    6  C7  UNL     1      39.916  89.338  -4.228  1.00  0.00     0.330 C 
HETATM    7  N2  UNL     1      39.230  89.574  -2.992  1.00  0.00    -0.024 N 
ATOM      8  H21 UNL     1      39.817  89.828  -2.197  1.00  0.00     0.281 HD
ATOM      9  H22 UNL     1      38.833  88.751  -2.537  1.00  0.00     0.281 HD
HETATM   10  C8  UNL     1      38.265  90.595  -3.433  1.00  0.00     0.436 C 
HETATM   11  N8  UNL     1      37.683  89.951  -4.568  1.00  0.00    -0.018 N 
ATOM     12  H81 UNL     1      37.001  90.509  -5.082  1.00  0.00     0.282 HD
ATOM     13  H82 UNL     1      37.037  89.191  -4.353  1.00  0.00     0.282 HD
HETATM   14  C18 UNL     1      38.869  89.563  -5.326  1.00  0.00     0.344 C 
HETATM   15  N9  UNL     1      38.715  88.315  -5.995  1.00  0.00    -0.095 NA
HETATM   16  N10 UNL     1      38.715  88.391  -7.391  1.00  0.00    -0.300 N 
ATOM     17  H10 UNL     1      38.260  89.118  -7.942  1.00  0.00     0.182 HD
ENDROOT
BRANCH  10  18
HETATM   18  C9  UNL     1      37.323  90.971  -2.379  1.00  0.00     0.089 A 
HETATM   19  C10 UNL     1      36.574  92.124  -2.334  1.00  0.00     0.106 A 
HETATM   20  C11 UNL     1      35.800  92.123  -1.182  1.00  0.00     0.263 A 
HETATM   21  O6  UNL     1      34.987  93.033  -0.813  1.00  0.00    -0.267 OA
HETATM   22  N3  UNL     1      36.091  90.975  -0.550  1.00  0.00    -0.257 N 
HETATM   23  N7  UNL     1      36.990  90.304  -1.264  1.00  0.00    -0.296 N 
ATOM     24  H7  UNL     1      37.377  89.398  -0.998  1.00  0.00     0.187 HD
BRANCH  22  25
HETATM   25  C12 UNL     1      35.485  90.570   0.706  1.00  0.00     0.152 C 
BRANCH  25  26
HETATM   26  C13 UNL     1      34.422  89.510   0.512  1.00  0.00     0.022 C 
BRANCH  26  27
HETATM   27  C14 UNL     1      33.206  89.977  -0.210  1.00  0.00     0.008 C 
BRANCH  27  28
HETATM   28  C15 UNL     1      32.193  90.585   0.713  1.00  0.00     0.066 C 
BRANCH  28  29
HETATM   29  C16 UNL     1      32.174  92.077   0.698  1.00  0.00     0.069 A 
HETATM   30  N4  UNL     1      32.909  92.982   1.317  1.00  0.00    -0.296 N 
HETATM   31  N5  UNL     1      32.708  94.219   1.151  1.00  0.00    -0.279 N 
ATOM     32  H4  UNL     1      33.654  92.678   1.944  1.00  0.00     0.187 HD
HETATM   33  C17 UNL     1      31.727  94.605   0.328  1.00  0.00     0.158 A 
ATOM     34  H5  UNL     1      33.283  94.908   1.635  1.00  0.00     0.189 HD
HETATM   35  N6  UNL     1      31.371  95.835   0.030  1.00  0.00    -0.379 N 
HETATM   36  S2  UNL     1      31.103  93.107  -0.200  1.00  0.00    -0.038 SA
ATOM     37  H62 UNL     1      31.744  96.730   0.346  1.00  0.00     0.158 HD
ATOM     38  H61 UNL     1      30.623  96.130  -0.598  1.00  0.00     0.158 HD
ENDBRANCH  28  29
ENDBRANCH  27  28
ENDBRANCH  26  27
ENDBRANCH  25  26
ENDBRANCH  22  25
ENDBRANCH  10  18
BRANCH   2  39
HETATM   39  C5  UNL     1      41.058  85.646  -6.969  1.00  0.00     0.230 C 
HETATM   40  O3  UNL     1      41.140  84.895  -5.934  1.00  0.00    -0.643 OA
HETATM   41  O4  UNL     1      41.862  85.250  -7.996  1.00  0.00    -0.643 OA
ENDBRANCH   2  39
BRANCH   1  42
HETATM   42  C2  UNL     1      39.370  86.865  -9.326  1.00  0.00     0.200 C 
BRANCH  42  43
HETATM   43  S1  UNL     1      38.149  85.580  -9.526  1.00  0.00     0.146 S 
HETATM   44  C1  UNL     1      37.370  85.703 -11.124  1.00  0.00     0.161 C 
HETATM   45  O1  UNL     1      37.081  85.774  -8.488  1.00  0.00    -0.228 OA
HETATM   46  O2  UNL     1      38.775  84.240  -9.343  1.00  0.00    -0.228 OA
ENDBRANCH  42  43
ENDBRANCH   1  42
TORSDOF 9
ENDMDL
MODEL 4
REMARK VINA RESULT: -6.808029456      1.977      2.541
REMARK  9 active torsions:
REMARK  status: ('A' for Active; 'I' for Inactive)
REMARK    1  A    between atoms: S1_2  and  C2_5 
REMARK    2  A    between atoms: C2_5  and  C3_6 
REMARK    3  A    between atoms: C4_7  and  C5_8 
REMARK    4  A    between atoms: C8_18  and  C9_19 
REMARK    5  A    between atoms: N3_23  and  C12_24 
REMARK    6  A    between atoms: C12_24  and  C13_25 
REMARK    7  A    between atoms: C13_25  and  C14_26 
REMARK    8  A    between atoms: C14_26  and  C15_27 
REMARK    9  A    between atoms: C15_27  and  C16_28 
ROOT
HETATM    1  C3  UNL     1      38.832  86.137  -6.171  1.00  0.00     0.071 C 
HETATM    2  C4  UNL     1      39.910  86.660  -5.590  1.00  0.00     0.157 C 
HETATM    3  N1  UNL     1      39.465  87.865  -4.940  1.00  0.00    -0.213 N 
HETATM    4  C6  UNL     1      39.859  89.099  -4.358  1.00  0.00     0.275 C 
HETATM    5  O5  UNL     1      40.932  89.302  -3.756  1.00  0.00    -0.269 OA
HETATM    6  C7  UNL     1      38.784  90.081  -4.593  1.00  0.00     0.330 C 
HETATM    7  N2  UNL     1      38.372  90.811  -3.431  1.00  0.00    -0.024 N 
ATOM      8  H21 UNL     1      38.853  91.695  -3.265  1.00  0.00     0.281 HD
ATOM      9  H22 UNL     1      38.637  90.407  -2.532  1.00  0.00     0.281 HD
HETATM   10  C8  UNL     1      36.925  90.903  -3.695  1.00  0.00     0.436 C 
HETATM   11  N8  UNL     1      36.604  89.533  -3.943  1.00  0.00    -0.018 N 
ATOM     12  H81 UNL     1      35.635  89.355  -4.208  1.00  0.00     0.282 HD
ATOM     13  H82 UNL     1      36.587  88.935  -3.118  1.00  0.00     0.282 HD
HETATM   14  C18 UNL     1      37.599  89.176  -4.950  1.00  0.00     0.344 C 
HETATM   15  N9  UNL     1      38.065  87.836  -4.818  1.00  0.00    -0.095 NA
HETATM   16  N10 UNL     1      37.724  86.987  -5.875  1.00  0.00    -0.300 N 
ATOM     17  H10 UNL     1      36.826  86.977  -6.358  1.00  0.00     0.182 HD
ENDROOT
BRANCH  10  18
HETATM   18  C9  UNL     1      36.192  91.525  -2.593  1.00  0.00     0.089 A 
HETATM   19  C10 UNL     1      36.055  92.875  -2.370  1.00  0.00     0.106 A 
HETATM   20  C11 UNL     1      35.290  93.077  -1.229  1.00  0.00     0.263 A 
HETATM   21  O6  UNL     1      34.963  94.199  -0.723  1.00  0.00    -0.267 OA
HETATM   22  N3  UNL     1      34.978  91.851  -0.780  1.00  0.00    -0.257 N 
HETATM   23  N7  UNL     1      35.515  90.943  -1.592  1.00  0.00    -0.296 N 
ATOM     24  H7  UNL     1      35.423  89.935  -1.468  1.00  0.00     0.187 HD
BRANCH  22  25
HETATM   25  C12 UNL     1      34.169  91.606   0.400  1.00  0.00     0.152 C 
BRANCH  25  26
HETATM   26  C13 UNL     1      32.699  91.866   0.151  1.00  0.00     0.022 C 
BRANCH  26  27
HETATM   27  C14 UNL     1      32.085  92.869   1.065  1.00  0.00     0.008 C 
BRANCH  27  28
HETATM   28  C15 UNL     1      31.130  93.780   0.354  1.00  0.00     0.066 C 
BRANCH  28  29
HETATM   29  C16 UNL     1      31.788  94.754  -0.566  1.00  0.00     0.069 A 
HETATM   30  N4  UNL     1      32.574  95.792  -0.348  1.00  0.00    -0.296 N 
HETATM   31  N5  UNL     1      33.022  96.489  -1.302  1.00  0.00    -0.279 N 
ATOM     32  H4  UNL     1      32.825  96.036   0.610  1.00  0.00     0.187 HD
HETATM   33  C17 UNL     1      32.686  96.159  -2.553  1.00  0.00     0.158 A 
ATOM     34  H5  UNL     1      33.629  97.288  -1.120  1.00  0.00     0.189 HD
HETATM   35  N6  UNL     1      33.050  96.759  -3.664  1.00  0.00    -0.379 N 
HETATM   36  S2  UNL     1      31.691  94.795  -2.299  1.00  0.00    -0.038 SA
ATOM     37  H62 UNL     1      33.644  97.574  -3.815  1.00  0.00     0.158 HD
ATOM     38  H61 UNL     1      32.793  96.507  -4.619  1.00  0.00     0.158 HD
ENDBRANCH  28  29
ENDBRANCH  27  28
ENDBRANCH  26  27
ENDBRANCH  25  26
ENDBRANCH  22  25
ENDBRANCH  10  18
BRANCH   2  39
HETATM   39  C5  UNL     1      41.251  86.163  -5.595  1.00  0.00     0.230 C 
HETATM   40  O3  UNL     1      42.215  87.007  -5.599  1.00  0.00    -0.643 OA
HETATM   41  O4  UNL     1      41.663  84.863  -5.597  1.00  0.00    -0.643 OA
ENDBRANCH   2  39
BRANCH   1  42
HETATM   42  C2  UNL     1      38.717  84.911  -6.973  1.00  0.00     0.200 C 
BRANCH  42  43
HETATM   43  S1  UNL     1      39.186  85.219  -8.667  1.00  0.00     0.146 S 
HETATM   44  C1  UNL     1      38.252  84.179  -9.772  1.00  0.00     0.161 C 
HETATM   45  O1  UNL     1      40.635  84.863  -8.830  1.00  0.00    -0.228 OA
HETATM   46  O2  UNL     1      38.992  86.658  -9.002  1.00  0.00    -0.228 OA
ENDBRANCH  42  43
ENDBRANCH   1  42
TORSDOF 9
ENDMDL
MODEL 5
REMARK VINA RESULT: -6.795415516      3.760      9.698
REMARK  9 active torsions:
REMARK  status: ('A' for Active; 'I' for Inactive)
REMARK    1  A    between atoms: S1_2  and  C2_5 
REMARK    2  A    between atoms: C2_5  and  C3_6 
REMARK    3  A    between atoms: C4_7  and  C5_8 
REMARK    4  A    between atoms: C8_18  and  C9_19 
REMARK    5  A    between atoms: N3_23  and  C12_24 
REMARK    6  A    between atoms: C12_24  and  C13_25 
REMARK    7  A    between atoms: C13_25  and  C14_26 
REMARK    8  A    between atoms: C14_26  and  C15_27 
REMARK    9  A    between atoms: C15_27  and  C16_28 
ROOT
HETATM    1  C3  UNL     1      36.433  92.408  -3.304  1.00  0.00     0.071 C 
HETATM    2  C4  UNL     1      35.484  92.560  -4.226  1.00  0.00     0.157 C 
HETATM    3  N1  UNL     1      36.077  92.162  -5.476  1.00  0.00    -0.213 N 
HETATM    4  C6  UNL     1      35.975  92.210  -6.892  1.00  0.00     0.275 C 
HETATM    5  O5  UNL     1      34.909  92.249  -7.536  1.00  0.00    -0.269 OA
HETATM    6  C7  UNL     1      37.340  92.207  -7.450  1.00  0.00     0.330 C 
HETATM    7  N2  UNL     1      37.559  91.253  -8.497  1.00  0.00    -0.024 N 
ATOM      8  H21 UNL     1      37.400  91.589  -9.447  1.00  0.00     0.281 HD
ATOM      9  H22 UNL     1      36.875  90.499  -8.564  1.00  0.00     0.281 HD
HETATM   10  C8  UNL     1      38.938  90.846  -8.179  1.00  0.00     0.436 C 
HETATM   11  N8  UNL     1      38.813  90.510  -6.796  1.00  0.00    -0.018 N 
ATOM     12  H81 UNL     1      39.682  90.241  -6.334  1.00  0.00     0.282 HD
ATOM     13  H82 UNL     1      38.331  89.633  -6.603  1.00  0.00     0.282 HD
HETATM   14  C18 UNL     1      38.169  91.706  -6.260  1.00  0.00     0.344 C 
HETATM   15  N9  UNL     1      37.240  91.415  -5.219  1.00  0.00    -0.095 NA
HETATM   16  N10 UNL     1      37.597  91.904  -3.959  1.00  0.00    -0.300 N 
ATOM     17  H10 UNL     1      38.540  91.900  -3.570  1.00  0.00     0.182 HD
ENDROOT
BRANCH  10  18
HETATM   18  C9  UNL     1      39.418  89.766  -9.041  1.00  0.00     0.089 A 
HETATM   19  C10 UNL     1      39.771  89.881 -10.365  1.00  0.00     0.106 A 
HETATM   20  C11 UNL     1      40.176  88.642 -10.842  1.00  0.00     0.263 A 
HETATM   21  O6  UNL     1      40.570  88.375 -12.024  1.00  0.00    -0.267 OA
HETATM   22  N3  UNL     1      40.062  87.799  -9.804  1.00  0.00    -0.257 N 
HETATM   23  N7  UNL     1      39.614  88.472  -8.748  1.00  0.00    -0.296 N 
ATOM     24  H7  UNL     1      39.441  88.057  -7.832  1.00  0.00     0.187 HD
BRANCH  22  25
HETATM   25  C12 UNL     1      40.398  86.388  -9.871  1.00  0.00     0.152 C 
BRANCH  25  26
HETATM   26  C13 UNL     1      41.533  86.026  -8.937  1.00  0.00     0.022 C 
BRANCH  26  27
HETATM   27  C14 UNL     1      41.104  85.614  -7.572  1.00  0.00     0.008 C 
BRANCH  27  28
HETATM   28  C15 UNL     1      42.072  86.048  -6.514  1.00  0.00     0.066 C 
BRANCH  28  29
HETATM   29  C16 UNL     1      41.504  87.012  -5.526  1.00  0.00     0.069 A 
HETATM   30  N4  UNL     1      42.067  87.826  -4.653  1.00  0.00    -0.296 N 
HETATM   31  N5  UNL     1      41.372  88.568  -3.902  1.00  0.00    -0.279 N 
ATOM     32  H4  UNL     1      43.084  87.857  -4.582  1.00  0.00     0.187 HD
HETATM   33  C17 UNL     1      40.040  88.518  -4.004  1.00  0.00     0.158 A 
ATOM     34  H5  UNL     1      41.819  89.193  -3.231  1.00  0.00     0.189 HD
HETATM   35  N6  UNL     1      39.158  89.207  -3.315  1.00  0.00    -0.379 N 
HETATM   36  S2  UNL     1      39.827  87.352  -5.233  1.00  0.00    -0.038 SA
ATOM     37  H62 UNL     1      39.286  89.904  -2.581  1.00  0.00     0.158 HD
ATOM     38  H61 UNL     1      38.142  89.169  -3.393  1.00  0.00     0.158 HD
ENDBRANCH  28  29
ENDBRANCH  27  28
ENDBRANCH  26  27
ENDBRANCH  25  26
ENDBRANCH  22  25
ENDBRANCH  10  18
BRANCH   2  39
HETATM   39  C5  UNL     1      34.144  93.029  -4.051  1.00  0.00     0.230 C 
HETATM   40  O3  UNL     1      33.809  94.138  -4.599  1.00  0.00    -0.643 OA
HETATM   41  O4  UNL     1      33.132  92.436  -3.356  1.00  0.00    -0.643 OA
ENDBRANCH   2  39
BRANCH   1  42
HETATM   42  C2  UNL     1      36.372  92.675  -1.860  1.00  0.00     0.200 C 
BRANCH  42  43
HETATM   43  S1  UNL     1      36.816  91.218  -0.930  1.00  0.00     0.146 S 
HETATM   44  C1  UNL     1      35.736  91.021   0.473  1.00  0.00     0.161 C 
HETATM   45  O1  UNL     1      38.211  91.398  -0.404  1.00  0.00    -0.228 OA
HETATM   46  O2  UNL     1      36.772  90.014  -1.807  1.00  0.00    -0.228 OA
ENDBRANCH  42  43
ENDBRANCH   1  42
TORSDOF 9
ENDMDL
