MODEL 1
REMARK VINA RESULT: -6.194325197      0.000      0.000
REMARK  4 active torsions:
REMARK  status: ('A' for Active; 'I' for Inactive)
REMARK    1  A    between atoms: C2_2  and  N1_4 
REMARK    2  A    between atoms: C4_6  and  N2_7 
REMARK    3  A    between atoms: C4_6  and  C8_16 
REMARK    4  A    between atoms: N2_7  and  C5_9 
ROOT
HETATM    1  N1  UNL     1     -43.722  -1.356  68.173  1.00  0.00    -0.375 N 
ATOM      2  H1  UNL     1     -43.256  -1.742  67.353  1.00  0.00     0.161 HD
HETATM    3  C4  UNL     1     -42.997  -1.107  69.245  1.00  0.00     0.085 C 
ENDROOT
BRANCH   3   4
HETATM    4  N2  UNL     1     -41.643  -1.434  69.061  1.00  0.00    -0.318 N 
ATOM      5  H2  UNL     1     -41.187  -2.021  69.759  1.00  0.00     0.170 HD
BRANCH   4   6
HETATM    6  C5  UNL     1     -40.863  -0.979  67.933  1.00  0.00     0.176 C 
HETATM    7  N3  UNL     1     -40.171  -1.703  67.136  1.00  0.00    -0.361 N 
HETATM    8  C6  UNL     1     -39.516  -0.934  66.117  1.00  0.00     0.142 C 
ATOM      9  H3  UNL     1     -40.094  -2.717  67.216  1.00  0.00     0.162 HD
HETATM   10  C7  UNL     1     -39.592   0.501  66.613  1.00  0.00     0.142 C 
HETATM   11  N4  UNL     1     -40.729   0.368  67.501  1.00  0.00    -0.361 N 
ATOM     12  H4  UNL     1     -41.346   1.133  67.777  1.00  0.00     0.162 HD
ENDBRANCH   4   6
ENDBRANCH   3   4
BRANCH   3  13
HETATM   13  C8  UNL     1     -43.635  -0.548  70.445  1.00  0.00     0.070 A 
HETATM   14  C9  UNL     1     -43.080   0.436  71.349  1.00  0.00    -0.029 A 
HETATM   15  C10 UNL     1     -41.691   0.946  71.376  1.00  0.00     0.016 C 
HETATM   16  C11 UNL     1     -44.029   1.438  72.037  1.00  0.00     0.016 C 
HETATM   17  C12 UNL     1     -43.292  -0.994  71.806  1.00  0.00    -0.029 A 
HETATM   18  C13 UNL     1     -44.422  -1.257  72.817  1.00  0.00     0.016 C 
HETATM   19  C14 UNL     1     -42.056  -1.759  72.164  1.00  0.00     0.016 C 
ENDBRANCH   3  13
BRANCH   1  20
HETATM   20  C2  UNL     1     -45.126  -1.112  68.104  1.00  0.00     0.074 C 
HETATM   21  C1  UNL     1     -45.913  -2.363  67.737  1.00  0.00     0.031 C 
HETATM   22  C3  UNL     1     -45.352  -0.131  66.948  1.00  0.00     0.031 C 
ENDBRANCH   1  20
TORSDOF 4
ENDMDL
MODEL 2
REMARK VINA RESULT: -6.190261118      1.689      4.534
REMARK  4 active torsions:
REMARK  status: ('A' for Active; 'I' for Inactive)
REMARK    1  A    between atoms: C2_2  and  N1_4 
REMARK    2  A    between atoms: C4_6  and  N2_7 
REMARK    3  A    between atoms: C4_6  and  C8_16 
REMARK    4  A    between atoms: N2_7  and  C5_9 
ROOT
HETATM    1  N1  UNL     1     -41.857   1.315  68.105  1.00  0.00    -0.375 N 
ATOM      2  H1  UNL     1     -42.324   1.689  67.279  1.00  0.00     0.161 HD
HETATM    3  C4  UNL     1     -42.585   1.062  69.174  1.00  0.00     0.085 C 
ENDROOT
BRANCH   3   4
HETATM    4  N2  UNL     1     -43.943   1.367  68.979  1.00  0.00    -0.318 N 
ATOM      5  H2  UNL     1     -44.402   1.983  69.650  1.00  0.00     0.170 HD
BRANCH   4   6
HETATM    6  C5  UNL     1     -44.721   0.852  67.876  1.00  0.00     0.176 C 
HETATM    7  N3  UNL     1     -45.424   1.530  67.049  1.00  0.00    -0.361 N 
HETATM    8  C6  UNL     1     -46.074   0.707  66.071  1.00  0.00     0.142 C 
ATOM      9  H3  UNL     1     -45.511   2.546  67.081  1.00  0.00     0.162 HD
HETATM   10  C7  UNL     1     -45.982  -0.702  66.633  1.00  0.00     0.142 C 
HETATM   11  N4  UNL     1     -44.843  -0.516  67.509  1.00  0.00    -0.361 N 
ATOM     12  H4  UNL     1     -44.218  -1.260  67.819  1.00  0.00     0.162 HD
ENDBRANCH   4   6
ENDBRANCH   3   4
BRANCH   3  13
HETATM   13  C8  UNL     1     -41.946   0.521  70.381  1.00  0.00     0.070 A 
HETATM   14  C9  UNL     1     -42.500  -0.451  71.299  1.00  0.00    -0.029 A 
HETATM   15  C10 UNL     1     -43.888  -0.963  71.333  1.00  0.00     0.016 C 
HETATM   16  C11 UNL     1     -41.550  -1.442  72.001  1.00  0.00     0.016 C 
HETATM   17  C12 UNL     1     -42.290   0.985  71.736  1.00  0.00    -0.029 A 
HETATM   18  C13 UNL     1     -41.160   1.264  72.744  1.00  0.00     0.016 C 
HETATM   19  C14 UNL     1     -43.527   1.753  72.084  1.00  0.00     0.016 C 
ENDBRANCH   3  13
BRANCH   1  20
HETATM   20  C2  UNL     1     -40.449   1.092  68.046  1.00  0.00     0.074 C 
HETATM   21  C1  UNL     1     -39.671   2.374  67.780  1.00  0.00     0.031 C 
HETATM   22  C3  UNL     1     -40.190   0.194  66.831  1.00  0.00     0.031 C 
ENDBRANCH   1  20
TORSDOF 4
ENDMDL
MODEL 3
REMARK VINA RESULT: -5.900241484      1.371      4.193
REMARK  4 active torsions:
REMARK  status: ('A' for Active; 'I' for Inactive)
REMARK    1  A    between atoms: C2_2  and  N1_4 
REMARK    2  A    between atoms: C4_6  and  N2_7 
REMARK    3  A    between atoms: C4_6  and  C8_16 
REMARK    4  A    between atoms: N2_7  and  C5_9 
ROOT
HETATM    1  N1  UNL     1     -42.137  -0.265  68.033  1.00  0.00    -0.375 N 
ATOM      2  H1  UNL     1     -42.610  -0.311  67.131  1.00  0.00     0.161 HD
HETATM    3  C4  UNL     1     -42.793  -0.659  69.105  1.00  0.00     0.085 C 
ENDROOT
BRANCH   3   4
HETATM    4  N2  UNL     1     -44.095  -1.093  68.804  1.00  0.00    -0.318 N 
ATOM      5  H2  UNL     1     -44.473  -1.886  69.323  1.00  0.00     0.170 HD
BRANCH   4   6
HETATM    6  C5  UNL     1     -44.925  -0.474  67.796  1.00  0.00     0.176 C 
HETATM    7  N3  UNL     1     -45.671  -1.069  66.944  1.00  0.00    -0.361 N 
HETATM    8  C6  UNL     1     -46.365  -0.155  66.082  1.00  0.00     0.142 C 
ATOM      9  H3  UNL     1     -45.762  -2.083  66.883  1.00  0.00     0.162 HD
HETATM   10  C7  UNL     1     -45.645   1.170  66.270  1.00  0.00     0.142 C 
HETATM   11  N4  UNL     1     -45.065   0.923  67.575  1.00  0.00    -0.361 N 
ATOM     12  H4  UNL     1     -44.795   1.648  68.240  1.00  0.00     0.162 HD
ENDBRANCH   4   6
ENDBRANCH   3   4
BRANCH   3  13
HETATM   13  C8  UNL     1     -42.141  -0.609  70.421  1.00  0.00     0.070 A 
HETATM   14  C9  UNL     1     -42.721  -0.973  71.695  1.00  0.00    -0.029 A 
HETATM   15  C10 UNL     1     -44.139  -1.285  71.979  1.00  0.00     0.016 C 
HETATM   16  C11 UNL     1     -41.814  -1.584  72.782  1.00  0.00     0.016 C 
HETATM   17  C12 UNL     1     -42.387   0.474  71.388  1.00  0.00    -0.029 A 
HETATM   18  C13 UNL     1     -41.196   1.103  72.131  1.00  0.00     0.016 C 
HETATM   19  C14 UNL     1     -43.548   1.417  71.330  1.00  0.00     0.016 C 
ENDBRANCH   3  13
BRANCH   1  20
HETATM   20  C2  UNL     1     -40.796   0.221  68.071  1.00  0.00     0.074 C 
HETATM   21  C1  UNL     1     -40.729   1.740  67.976  1.00  0.00     0.031 C 
HETATM   22  C3  UNL     1     -40.096  -0.300  66.811  1.00  0.00     0.031 C 
ENDBRANCH   1  20
TORSDOF 4
ENDMDL
MODEL 4
REMARK VINA RESULT: -5.891330328      1.115      1.423
REMARK  4 active torsions:
REMARK  status: ('A' for Active; 'I' for Inactive)
REMARK    1  A    between atoms: C2_2  and  N1_4 
REMARK    2  A    between atoms: C4_6  and  N2_7 
REMARK    3  A    between atoms: C4_6  and  C8_16 
REMARK    4  A    between atoms: N2_7  and  C5_9 
ROOT
HETATM    1  N1  UNL     1     -43.402   0.277  68.057  1.00  0.00    -0.375 N 
ATOM      2  H1  UNL     1     -42.927   0.326  67.156  1.00  0.00     0.161 HD
HETATM    3  C4  UNL     1     -42.748   0.668  69.132  1.00  0.00     0.085 C 
ENDROOT
BRANCH   3   4
HETATM    4  N2  UNL     1     -41.447   1.107  68.834  1.00  0.00    -0.318 N 
ATOM      5  H2  UNL     1     -41.071   1.897  69.358  1.00  0.00     0.170 HD
BRANCH   4   6
HETATM    6  C5  UNL     1     -40.615   0.496  67.823  1.00  0.00     0.176 C 
HETATM    7  N3  UNL     1     -39.859   1.098  66.984  1.00  0.00    -0.361 N 
HETATM    8  C6  UNL     1     -39.166   0.190  66.115  1.00  0.00     0.142 C 
ATOM      9  H3  UNL     1     -39.760   2.111  66.938  1.00  0.00     0.162 HD
HETATM   10  C7  UNL     1     -39.897  -1.132  66.279  1.00  0.00     0.142 C 
HETATM   11  N4  UNL     1     -40.484  -0.899  67.583  1.00  0.00    -0.361 N 
ATOM     12  H4  UNL     1     -40.764  -1.631  68.236  1.00  0.00     0.162 HD
ENDBRANCH   4   6
ENDBRANCH   3   4
BRANCH   3  13
HETATM   13  C8  UNL     1     -43.403   0.612  70.446  1.00  0.00     0.070 A 
HETATM   14  C9  UNL     1     -42.826   0.974  71.723  1.00  0.00    -0.029 A 
HETATM   15  C10 UNL     1     -41.409   1.289  72.009  1.00  0.00     0.016 C 
HETATM   16  C11 UNL     1     -43.737   1.578  72.810  1.00  0.00     0.016 C 
HETATM   17  C12 UNL     1     -43.154  -0.473  71.410  1.00  0.00    -0.029 A 
HETATM   18  C13 UNL     1     -44.345  -1.108  72.149  1.00  0.00     0.016 C 
HETATM   19  C14 UNL     1     -41.991  -1.412  71.351  1.00  0.00     0.016 C 
ENDBRANCH   3  13
BRANCH   1  20
HETATM   20  C2  UNL     1     -44.741  -0.214  68.091  1.00  0.00     0.074 C 
HETATM   21  C1  UNL     1     -44.804  -1.733  67.994  1.00  0.00     0.031 C 
HETATM   22  C3  UNL     1     -45.439   0.306  66.830  1.00  0.00     0.031 C 
ENDBRANCH   1  20
TORSDOF 4
ENDMDL
MODEL 5
REMARK VINA RESULT: -5.875147634      1.827      3.143
REMARK  4 active torsions:
REMARK  status: ('A' for Active; 'I' for Inactive)
REMARK    1  A    between atoms: C2_2  and  N1_4 
REMARK    2  A    between atoms: C4_6  and  N2_7 
REMARK    3  A    between atoms: C4_6  and  C8_16 
REMARK    4  A    between atoms: N2_7  and  C5_9 
ROOT
HETATM    1  N1  UNL     1     -43.506   0.977  70.477  1.00  0.00    -0.375 N 
ATOM      2  H1  UNL     1     -43.538   1.113  69.467  1.00  0.00     0.161 HD
HETATM    3  C4  UNL     1     -43.084  -0.182  70.939  1.00  0.00     0.085 C 
ENDROOT
BRANCH   3   4
HETATM    4  N2  UNL     1     -42.735  -1.072  69.909  1.00  0.00    -0.318 N 
ATOM      5  H2  UNL     1     -42.455  -2.020  70.162  1.00  0.00     0.170 HD
BRANCH   4   6
HETATM    6  C5  UNL     1     -42.755  -0.713  68.510  1.00  0.00     0.176 C 
HETATM    7  N3  UNL     1     -41.767  -0.298  67.809  1.00  0.00    -0.361 N 
HETATM    8  C6  UNL     1     -42.129  -0.029  66.447  1.00  0.00     0.142 C 
ATOM      9  H3  UNL     1     -40.825  -0.174  68.179  1.00  0.00     0.162 HD
HETATM   10  C7  UNL     1     -43.648   0.023  66.458  1.00  0.00     0.142 C 
HETATM   11  N4  UNL     1     -43.888  -0.760  67.653  1.00  0.00    -0.361 N 
ATOM     12  H4  UNL     1     -44.747  -1.273  67.851  1.00  0.00     0.162 HD
ENDBRANCH   4   6
ENDBRANCH   3   4
BRANCH   3  13
HETATM   13  C8  UNL     1     -43.022  -0.412  72.389  1.00  0.00     0.070 A 
HETATM   14  C9  UNL     1     -42.012   0.073  73.306  1.00  0.00    -0.029 A 
HETATM   15  C10 UNL     1     -40.733   0.733  72.963  1.00  0.00     0.016 C 
HETATM   16  C11 UNL     1     -42.420   0.419  74.751  1.00  0.00     0.016 C 
HETATM   17  C12 UNL     1     -42.122  -1.408  72.996  1.00  0.00    -0.029 A 
HETATM   18  C13 UNL     1     -42.660  -2.329  74.106  1.00  0.00     0.016 C 
HETATM   19  C14 UNL     1     -40.945  -2.023  72.306  1.00  0.00     0.016 C 
ENDBRANCH   3  13
BRANCH   1  20
HETATM   20  C2  UNL     1     -43.919   2.051  71.320  1.00  0.00     0.074 C 
HETATM   21  C1  UNL     1     -44.992   1.626  72.315  1.00  0.00     0.031 C 
HETATM   22  C3  UNL     1     -44.588   3.095  70.418  1.00  0.00     0.031 C 
ENDBRANCH   1  20
TORSDOF 4
ENDMDL
