MODEL 1
REMARK VINA RESULT: -7.156989819      0.000      0.000
REMARK  6 active torsions:
REMARK  status: ('A' for Active; 'I' for Inactive)
REMARK    1  A    between atoms: C3_3  and  O1_4 
REMARK    2  A    between atoms: O1_4  and  C4_5 
REMARK    3  A    between atoms: C4_5  and  C5_7 
REMARK    4  A    between atoms: C5_7  and  N1_8 
REMARK    5  A    between atoms: N1_8  and  C6_10 
REMARK    6  A    between atoms: C6_10  and  C7_11 
ROOT
HETATM    1  O1  UNL     1       8.518  18.383  17.777  1.00  0.00    -0.310 OA
ENDROOT
BRANCH   1   2
HETATM    2  C3  UNL     1       9.008  17.887  16.531  1.00  0.00     0.144 C 
HETATM    3  C2  UNL     1       8.024  18.086  15.416  1.00  0.00     0.020 C 
HETATM    4  C1  UNL     1       8.648  18.812  14.243  1.00  0.00     0.013 C 
HETATM    5  C18 UNL     1       7.275  16.854  15.026  1.00  0.00    -0.038 C 
HETATM    6  C16 UNL     1       8.059  15.588  15.147  1.00  0.00    -0.005 C 
HETATM    7  C19 UNL     1       6.863  16.965  13.557  1.00  0.00     0.015 C 
HETATM    8  C20 UNL     1       5.949  16.774  15.795  1.00  0.00     0.015 C 
HETATM    9  C15 UNL     1       7.780  14.843  16.439  1.00  0.00     0.006 C 
HETATM   10  C17 UNL     1       9.558  15.850  15.313  1.00  0.00     0.017 C 
HETATM   11  C14 UNL     1       8.562  15.591  17.470  1.00  0.00     0.012 C 
HETATM   12  C12 UNL     1       9.505  16.498  16.703  1.00  0.00    -0.017 C 
HETATM   13  C13 UNL     1      10.857  16.497  17.355  1.00  0.00     0.018 C 
ENDBRANCH   1   2
BRANCH   1  14
HETATM   14  C4  UNL     1       7.521  19.325  17.867  1.00  0.00     0.298 C 
HETATM   15  O2  UNL     1       7.700  20.444  17.346  1.00  0.00    -0.259 OA
BRANCH  14  16
HETATM   16  C5  UNL     1       6.212  19.054  18.577  1.00  0.00     0.170 C 
BRANCH  16  17
HETATM   17  N1  UNL     1       6.337  19.006  19.972  1.00  0.00    -0.373 N 
ATOM     18  H1  UNL     1       5.790  18.302  20.467  1.00  0.00     0.164 HD
BRANCH  17  19
HETATM   19  C6  UNL     1       7.139  19.834  20.733  1.00  0.00     0.065 C 
BRANCH  19  20
HETATM   20  C7  UNL     1       8.008  19.331  21.817  1.00  0.00     0.028 C 
HETATM   21  C8  UNL     1       9.154  20.162  22.285  1.00  0.00     0.036 C 
HETATM   22  C9  UNL     1      10.175  20.421  21.187  1.00  0.00     0.168 C 
HETATM   23  O3  UNL     1      10.159  19.431  20.230  1.00  0.00    -0.391 OA
HETATM   24  C10 UNL     1       9.931  18.160  20.697  1.00  0.00     0.168 C 
HETATM   25  C11 UNL     1       8.630  17.969  21.429  1.00  0.00     0.036 C 
ENDBRANCH  19  20
ENDBRANCH  17  19
ENDBRANCH  16  17
ENDBRANCH  14  16
ENDBRANCH   1  14
TORSDOF 6
ENDMDL
MODEL 2
REMARK VINA RESULT: -7.103202602      1.746      3.338
REMARK  6 active torsions:
REMARK  status: ('A' for Active; 'I' for Inactive)
REMARK    1  A    between atoms: C3_3  and  O1_4 
REMARK    2  A    between atoms: O1_4  and  C4_5 
REMARK    3  A    between atoms: C4_5  and  C5_7 
REMARK    4  A    between atoms: C5_7  and  N1_8 
REMARK    5  A    between atoms: N1_8  and  C6_10 
REMARK    6  A    between atoms: C6_10  and  C7_11 
ROOT
HETATM    1  O1  UNL     1       9.930  17.876  15.692  1.00  0.00    -0.310 OA
ENDROOT
BRANCH   1   2
HETATM    2  C3  UNL     1       8.655  18.495  15.524  1.00  0.00     0.144 C 
HETATM    3  C2  UNL     1       7.623  17.926  16.454  1.00  0.00     0.020 C 
HETATM    4  C1  UNL     1       6.939  19.011  17.259  1.00  0.00     0.013 C 
HETATM    5  C18 UNL     1       6.672  16.969  15.810  1.00  0.00    -0.038 C 
HETATM    6  C16 UNL     1       6.339  17.288  14.390  1.00  0.00    -0.005 C 
HETATM    7  C19 UNL     1       5.348  16.992  16.577  1.00  0.00     0.015 C 
HETATM    8  C20 UNL     1       7.184  15.531  15.963  1.00  0.00     0.015 C 
HETATM    9  C15 UNL     1       7.162  16.486  13.397  1.00  0.00     0.006 C 
HETATM   10  C17 UNL     1       6.766  18.706  13.999  1.00  0.00     0.017 C 
HETATM   11  C14 UNL     1       8.491  17.169  13.386  1.00  0.00     0.012 C 
HETATM   12  C12 UNL     1       8.284  18.499  14.086  1.00  0.00    -0.017 C 
HETATM   13  C13 UNL     1       9.022  19.581  13.352  1.00  0.00     0.018 C 
ENDBRANCH   1   2
BRANCH   1  14
HETATM   14  C4  UNL     1      10.365  17.372  16.896  1.00  0.00     0.298 C 
HETATM   15  O2  UNL     1      10.258  16.148  17.111  1.00  0.00    -0.259 OA
BRANCH  14  16
HETATM   16  C5  UNL     1      10.967  18.250  17.971  1.00  0.00     0.170 C 
BRANCH  16  17
HETATM   17  N1  UNL     1      10.049  19.145  18.536  1.00  0.00    -0.373 N 
ATOM     18  H1  UNL     1       9.192  19.327  18.014  1.00  0.00     0.164 HD
BRANCH  17  19
HETATM   19  C6  UNL     1      10.207  19.799  19.742  1.00  0.00     0.065 C 
BRANCH  19  20
HETATM   20  C7  UNL     1      10.015  19.132  21.046  1.00  0.00     0.028 C 
HETATM   21  C8  UNL     1       9.111  17.951  21.140  1.00  0.00     0.036 C 
HETATM   22  C9  UNL     1       7.674  18.284  20.767  1.00  0.00     0.168 C 
HETATM   23  O3  UNL     1       7.384  19.613  20.980  1.00  0.00    -0.391 OA
HETATM   24  C10 UNL     1       7.977  20.178  22.083  1.00  0.00     0.168 C 
HETATM   25  C11 UNL     1       9.481  20.133  22.097  1.00  0.00     0.036 C 
ENDBRANCH  19  20
ENDBRANCH  17  19
ENDBRANCH  16  17
ENDBRANCH  14  16
ENDBRANCH   1  14
TORSDOF 6
ENDMDL
MODEL 3
REMARK VINA RESULT: -7.094321147      1.856      3.401
REMARK  6 active torsions:
REMARK  status: ('A' for Active; 'I' for Inactive)
REMARK    1  A    between atoms: C3_3  and  O1_4 
REMARK    2  A    between atoms: O1_4  and  C4_5 
REMARK    3  A    between atoms: C4_5  and  C5_7 
REMARK    4  A    between atoms: C5_7  and  N1_8 
REMARK    5  A    between atoms: N1_8  and  C6_10 
REMARK    6  A    between atoms: C6_10  and  C7_11 
ROOT
HETATM    1  O1  UNL     1       9.252  18.624  15.284  1.00  0.00    -0.310 OA
ENDROOT
BRANCH   1   2
HETATM    2  C3  UNL     1       7.878  18.327  15.034  1.00  0.00     0.144 C 
HETATM    3  C2  UNL     1       7.407  17.130  15.807  1.00  0.00     0.020 C 
HETATM    4  C1  UNL     1       6.168  17.440  16.619  1.00  0.00     0.013 C 
HETATM    5  C18 UNL     1       7.293  15.878  14.998  1.00  0.00    -0.038 C 
HETATM    6  C16 UNL     1       6.879  16.093  13.579  1.00  0.00    -0.005 C 
HETATM    7  C19 UNL     1       6.229  14.975  15.624  1.00  0.00     0.015 C 
HETATM    8  C20 UNL     1       8.594  15.067  15.091  1.00  0.00     0.015 C 
HETATM    9  C15 UNL     1       8.053  16.110  12.618  1.00  0.00     0.006 C 
HETATM   10  C17 UNL     1       6.328  17.502  13.345  1.00  0.00     0.017 C 
HETATM   11  C14 UNL     1       8.653  17.467  12.795  1.00  0.00     0.012 C 
HETATM   12  C12 UNL     1       7.632  18.278  13.570  1.00  0.00    -0.017 C 
HETATM   13  C13 UNL     1       7.544  19.665  13.002  1.00  0.00     0.018 C 
ENDBRANCH   1   2
BRANCH   1  14
HETATM   14  C4  UNL     1       9.859  18.392  16.497  1.00  0.00     0.298 C 
HETATM   15  O2  UNL     1      10.739  17.512  16.572  1.00  0.00    -0.259 OA
BRANCH  14  16
HETATM   16  C5  UNL     1       9.496  19.167  17.744  1.00  0.00     0.170 C 
BRANCH  16  17
HETATM   17  N1  UNL     1      10.269  18.818  18.859  1.00  0.00    -0.373 N 
ATOM     18  H1  UNL     1      10.934  18.053  18.746  1.00  0.00     0.164 HD
BRANCH  17  19
HETATM   19  C6  UNL     1      10.205  19.422  20.099  1.00  0.00     0.065 C 
BRANCH  19  20
HETATM   20  C7  UNL     1       9.630  18.756  21.286  1.00  0.00     0.028 C 
HETATM   21  C8  UNL     1       8.520  17.776  21.111  1.00  0.00     0.036 C 
HETATM   22  C9  UNL     1       7.277  18.403  20.496  1.00  0.00     0.168 C 
HETATM   23  O3  UNL     1       7.205  19.754  20.752  1.00  0.00    -0.391 OA
HETATM   24  C10 UNL     1       7.655  20.146  21.990  1.00  0.00     0.168 C 
HETATM   25  C11 UNL     1       9.090  19.801  22.289  1.00  0.00     0.036 C 
ENDBRANCH  19  20
ENDBRANCH  17  19
ENDBRANCH  16  17
ENDBRANCH  14  16
ENDBRANCH   1  14
TORSDOF 6
ENDMDL
MODEL 4
REMARK VINA RESULT: -7.083627637      1.713      3.472
REMARK  6 active torsions:
REMARK  status: ('A' for Active; 'I' for Inactive)
REMARK    1  A    between atoms: C3_3  and  O1_4 
REMARK    2  A    between atoms: O1_4  and  C4_5 
REMARK    3  A    between atoms: C4_5  and  C5_7 
REMARK    4  A    between atoms: C5_7  and  N1_8 
REMARK    5  A    between atoms: N1_8  and  C6_10 
REMARK    6  A    between atoms: C6_10  and  C7_11 
ROOT
HETATM    1  O1  UNL     1      10.002  17.800  16.558  1.00  0.00    -0.310 OA
ENDROOT
BRANCH   1   2
HETATM    2  C3  UNL     1       8.702  17.396  16.986  1.00  0.00     0.144 C 
HETATM    3  C2  UNL     1       8.451  15.938  16.736  1.00  0.00     0.020 C 
HETATM    4  C1  UNL     1       8.006  15.223  17.993  1.00  0.00     0.013 C 
HETATM    5  C18 UNL     1       7.587  15.655  15.549  1.00  0.00    -0.038 C 
HETATM    6  C16 UNL     1       6.526  16.675  15.299  1.00  0.00    -0.005 C 
HETATM    7  C19 UNL     1       6.862  14.326  15.767  1.00  0.00     0.015 C 
HETATM    8  C20 UNL     1       8.455  15.424  14.305  1.00  0.00     0.015 C 
HETATM    9  C15 UNL     1       6.921  17.691  14.243  1.00  0.00     0.006 C 
HETATM   10  C17 UNL     1       6.325  17.607  16.498  1.00  0.00     0.017 C 
HETATM   11  C14 UNL     1       7.845  18.623  14.958  1.00  0.00     0.012 C 
HETATM   12  C12 UNL     1       7.680  18.323  16.437  1.00  0.00    -0.017 C 
HETATM   13  C13 UNL     1       7.654  19.604  17.218  1.00  0.00     0.018 C 
ENDBRANCH   1   2
BRANCH   1  14
HETATM   14  C4  UNL     1      11.136  17.595  17.310  1.00  0.00     0.298 C 
HETATM   15  O2  UNL     1      11.965  16.744  16.931  1.00  0.00    -0.259 OA
BRANCH  14  16
HETATM   16  C5  UNL     1      11.412  18.366  18.583  1.00  0.00     0.170 C 
BRANCH  16  17
HETATM   17  N1  UNL     1      10.614  19.508  18.725  1.00  0.00    -0.373 N 
ATOM     18  H1  UNL     1      10.283  19.956  17.870  1.00  0.00     0.164 HD
BRANCH  17  19
HETATM   19  C6  UNL     1      10.238  20.078  19.925  1.00  0.00     0.065 C 
BRANCH  19  20
HETATM   20  C7  UNL     1       9.984  19.283  21.144  1.00  0.00     0.028 C 
HETATM   21  C8  UNL     1       9.122  18.069  21.063  1.00  0.00     0.036 C 
HETATM   22  C9  UNL     1       7.702  18.389  20.620  1.00  0.00     0.168 C 
HETATM   23  O3  UNL     1       7.347  19.681  20.935  1.00  0.00    -0.391 OA
HETATM   24  C10 UNL     1       7.840  20.157  22.125  1.00  0.00     0.168 C 
HETATM   25  C11 UNL     1       9.340  20.160  22.243  1.00  0.00     0.036 C 
ENDBRANCH  19  20
ENDBRANCH  17  19
ENDBRANCH  16  17
ENDBRANCH  14  16
ENDBRANCH   1  14
TORSDOF 6
ENDMDL
MODEL 5
REMARK VINA RESULT: -7.064570503      1.338      1.624
REMARK  6 active torsions:
REMARK  status: ('A' for Active; 'I' for Inactive)
REMARK    1  A    between atoms: C3_3  and  O1_4 
REMARK    2  A    between atoms: O1_4  and  C4_5 
REMARK    3  A    between atoms: C4_5  and  C5_7 
REMARK    4  A    between atoms: C5_7  and  N1_8 
REMARK    5  A    between atoms: N1_8  and  C6_10 
REMARK    6  A    between atoms: C6_10  and  C7_11 
ROOT
HETATM    1  O1  UNL     1       6.747  17.190  17.687  1.00  0.00    -0.310 OA
ENDROOT
BRANCH   1   2
HETATM    2  C3  UNL     1       8.000  17.147  17.005  1.00  0.00     0.144 C 
HETATM    3  C2  UNL     1       8.110  18.214  15.955  1.00  0.00     0.020 C 
HETATM    4  C1  UNL     1       9.360  19.049  16.135  1.00  0.00     0.013 C 
HETATM    5  C18 UNL     1       7.914  17.726  14.556  1.00  0.00    -0.038 C 
HETATM    6  C16 UNL     1       8.417  16.343  14.306  1.00  0.00    -0.005 C 
HETATM    7  C19 UNL     1       8.679  18.641  13.597  1.00  0.00     0.015 C 
HETATM    8  C20 UNL     1       6.443  17.876  14.144  1.00  0.00     0.015 C 
HETATM    9  C15 UNL     1       7.323  15.294  14.380  1.00  0.00     0.006 C 
HETATM   10  C17 UNL     1       9.331  15.847  15.431  1.00  0.00     0.017 C 
HETATM   11  C14 UNL     1       7.099  15.099  15.844  1.00  0.00     0.012 C 
HETATM   12  C12 UNL     1       8.272  15.764  16.539  1.00  0.00    -0.017 C 
HETATM   13  C13 UNL     1       8.744  14.906  17.677  1.00  0.00     0.018 C 
ENDBRANCH   1   2
BRANCH   1  14
HETATM   14  C4  UNL     1       5.980  18.329  17.774  1.00  0.00     0.298 C 
HETATM   15  O2  UNL     1       4.961  18.426  17.062  1.00  0.00    -0.259 OA
BRANCH  14  16
HETATM   16  C5  UNL     1       6.331  19.471  18.703  1.00  0.00     0.170 C 
BRANCH  16  17
HETATM   17  N1  UNL     1       6.535  19.066  20.028  1.00  0.00    -0.373 N 
ATOM     18  H1  UNL     1       6.155  18.160  20.304  1.00  0.00     0.164 HD
BRANCH  17  19
HETATM   19  C6  UNL     1       7.210  19.789  20.992  1.00  0.00     0.065 C 
BRANCH  19  20
HETATM   20  C7  UNL     1       8.322  19.224  21.784  1.00  0.00     0.028 C 
HETATM   21  C8  UNL     1       9.695  19.782  21.623  1.00  0.00     0.036 C 
HETATM   22  C9  UNL     1      10.230  19.619  20.207  1.00  0.00     0.168 C 
HETATM   23  O3  UNL     1       9.650  18.551  19.561  1.00  0.00    -0.391 OA
HETATM   24  C10 UNL     1       9.387  17.456  20.347  1.00  0.00     0.168 C 
HETATM   25  C11 UNL     1       8.469  17.709  21.513  1.00  0.00     0.036 C 
ENDBRANCH  19  20
ENDBRANCH  17  19
ENDBRANCH  16  17
ENDBRANCH  14  16
ENDBRANCH   1  14
TORSDOF 6
ENDMDL
