MODEL 1
REMARK VINA RESULT: -4.523115536      0.000      0.000
REMARK  7 active torsions:
REMARK  status: ('A' for Active; 'I' for Inactive)
REMARK    1  A    between atoms: C2_2  and  O1_3 
REMARK    2  A    between atoms: O1_3  and  C3_4 
REMARK       I    between atoms: C3_4  and  N1_6 
REMARK    3  A    between atoms: N1_6  and  C4_7 
REMARK    4  A    between atoms: N1_6  and  C13_22 
REMARK    5  A    between atoms: C5_10  and  N3_11 
REMARK       I    between atoms: N3_11  and  C6_13 
REMARK    6  A    between atoms: C8_17  and  C9_18 
REMARK    7  A    between atoms: C13_22  and  C15_24 
ROOT
HETATM    1  C4  UNL     1       8.155  17.718  16.930  1.00  0.00     0.128 A 
HETATM    2  N2  UNL     1       7.501  18.140  18.008  1.00  0.00    -0.321 N 
ATOM      3  H2  UNL     1       7.674  17.716  18.920  1.00  0.00     0.169 HD
HETATM    4  C5  UNL     1       6.627  19.116  17.877  1.00  0.00     0.153 A 
HETATM    5  S1  UNL     1       6.677  19.497  16.222  1.00  0.00    -0.054 SA
HETATM    6  C8  UNL     1       7.869  18.337  15.754  1.00  0.00     0.035 A 
ENDROOT
BRANCH   1   7
HETATM    7  N1  UNL     1       9.118  16.609  16.985  1.00  0.00    -0.274 N 
HETATM    8  C3  UNL     1      10.490  16.836  17.230  1.00  0.00     0.368 C 
HETATM    9  O2  UNL     1      11.273  15.854  17.226  1.00  0.00    -0.238 OA
BRANCH   8  10
HETATM   10  O1  UNL     1      11.045  18.077  17.480  1.00  0.00    -0.304 OA
BRANCH  10  11
HETATM   11  C2  UNL     1      11.015  18.582  18.789  1.00  0.00     0.176 C 
HETATM   12  C1  UNL     1      10.484  20.010  18.833  1.00  0.00     0.034 C 
ENDBRANCH  10  11
ENDBRANCH   8  10
BRANCH   7  13
HETATM   13  C13 UNL     1       8.643  15.255  16.809  1.00  0.00     0.092 C 
HETATM   14  C14 UNL     1       8.371  14.616  18.160  1.00  0.00     0.033 C 
BRANCH  13  15
HETATM   15  C15 UNL     1       7.477  15.113  15.879  1.00  0.00     0.021 C 
HETATM   16  C16 UNL     1       7.988  14.585  14.554  1.00  0.00     0.007 C 
ENDBRANCH  13  15
ENDBRANCH   7  13
ENDBRANCH   1   7
BRANCH   6  17
HETATM   17  C9  UNL     1       8.431  18.147  14.364  1.00  0.00     0.030 C 
HETATM   18  C10 UNL     1       7.345  17.954  13.340  1.00  0.00     0.010 C 
HETATM   19  C11 UNL     1       7.512  19.334  12.809  1.00  0.00     0.001 C 
HETATM   20  C12 UNL     1       8.708  19.498  13.709  1.00  0.00     0.010 C 
ENDBRANCH   6  17
BRANCH   4  21
HETATM   21  N3  UNL     1       5.897  19.658  18.834  1.00  0.00    -0.307 N 
HETATM   22  C6  UNL     1       6.398  19.770  20.144  1.00  0.00     0.219 C 
HETATM   23  C7  UNL     1       5.586  20.453  21.162  1.00  0.00     0.117 C 
HETATM   24  O3  UNL     1       7.509  19.297  20.433  1.00  0.00    -0.274 OA
ATOM     25  H3  UNL     1       4.959  19.998  18.622  1.00  0.00     0.171 HD
ENDBRANCH   4  21
TORSDOF 7
ENDMDL
MODEL 2
REMARK VINA RESULT: -4.373191287      2.257      3.824
REMARK  7 active torsions:
REMARK  status: ('A' for Active; 'I' for Inactive)
REMARK    1  A    between atoms: C2_2  and  O1_3 
REMARK    2  A    between atoms: O1_3  and  C3_4 
REMARK       I    between atoms: C3_4  and  N1_6 
REMARK    3  A    between atoms: N1_6  and  C4_7 
REMARK    4  A    between atoms: N1_6  and  C13_22 
REMARK    5  A    between atoms: C5_10  and  N3_11 
REMARK       I    between atoms: N3_11  and  C6_13 
REMARK    6  A    between atoms: C8_17  and  C9_18 
REMARK    7  A    between atoms: C13_22  and  C15_24 
ROOT
HETATM    1  C4  UNL     1       7.349  17.733  16.097  1.00  0.00     0.128 A 
HETATM    2  N2  UNL     1       6.458  18.437  16.789  1.00  0.00    -0.321 N 
ATOM      3  H2  UNL     1       5.473  18.431  16.525  1.00  0.00     0.169 HD
HETATM    4  C5  UNL     1       6.872  19.142  17.822  1.00  0.00     0.153 A 
HETATM    5  S1  UNL     1       8.545  18.852  17.877  1.00  0.00    -0.054 SA
HETATM    6  C8  UNL     1       8.641  17.793  16.515  1.00  0.00     0.035 A 
ENDROOT
BRANCH   1   7
HETATM    7  N1  UNL     1       6.976  16.951  14.910  1.00  0.00    -0.274 N 
HETATM    8  C3  UNL     1       6.734  17.572  13.665  1.00  0.00     0.368 C 
HETATM    9  O2  UNL     1       6.381  16.857  12.695  1.00  0.00    -0.238 OA
BRANCH   8  10
HETATM   10  O1  UNL     1       6.861  18.928  13.429  1.00  0.00    -0.304 OA
BRANCH  10  11
HETATM   11  C2  UNL     1       7.921  19.380  12.627  1.00  0.00     0.176 C 
HETATM   12  C1  UNL     1       9.180  19.640  13.446  1.00  0.00     0.034 C 
ENDBRANCH  10  11
ENDBRANCH   8  10
BRANCH   7  13
HETATM   13  C13 UNL     1       6.881  15.513  15.017  1.00  0.00     0.092 C 
HETATM   14  C14 UNL     1       8.027  14.855  14.266  1.00  0.00     0.033 C 
BRANCH  13  15
HETATM   15  C15 UNL     1       6.757  14.992  16.415  1.00  0.00     0.021 C 
HETATM   16  C16 UNL     1       7.423  13.633  16.479  1.00  0.00     0.007 C 
ENDBRANCH  13  15
ENDBRANCH   7  13
ENDBRANCH   1   7
BRANCH   6  17
HETATM   17  C9  UNL     1       9.888  17.111  16.003  1.00  0.00     0.030 C 
HETATM   18  C10 UNL     1      11.140  17.740  16.554  1.00  0.00     0.010 C 
HETATM   19  C11 UNL     1      11.368  16.614  17.498  1.00  0.00     0.001 C 
HETATM   20  C12 UNL     1      10.217  15.886  16.853  1.00  0.00     0.010 C 
ENDBRANCH   6  17
BRANCH   4  21
HETATM   21  N3  UNL     1       6.130  19.891  18.616  1.00  0.00    -0.307 N 
HETATM   22  C6  UNL     1       6.192  19.738  20.013  1.00  0.00     0.219 C 
HETATM   23  C7  UNL     1       5.412  20.646  20.867  1.00  0.00     0.117 C 
HETATM   24  O3  UNL     1       6.895  18.846  20.515  1.00  0.00    -0.274 OA
ATOM     25  H3  UNL     1       5.504  20.588  18.213  1.00  0.00     0.171 HD
ENDBRANCH   4  21
TORSDOF 7
ENDMDL
MODEL 3
REMARK VINA RESULT: -4.211993350      2.115      5.455
REMARK  7 active torsions:
REMARK  status: ('A' for Active; 'I' for Inactive)
REMARK    1  A    between atoms: C2_2  and  O1_3 
REMARK    2  A    between atoms: O1_3  and  C3_4 
REMARK       I    between atoms: C3_4  and  N1_6 
REMARK    3  A    between atoms: N1_6  and  C4_7 
REMARK    4  A    between atoms: N1_6  and  C13_22 
REMARK    5  A    between atoms: C5_10  and  N3_11 
REMARK       I    between atoms: N3_11  and  C6_13 
REMARK    6  A    between atoms: C8_17  and  C9_18 
REMARK    7  A    between atoms: C13_22  and  C15_24 
ROOT
HETATM    1  C4  UNL     1       8.439  17.609  16.623  1.00  0.00     0.128 A 
HETATM    2  N2  UNL     1       8.899  17.852  15.399  1.00  0.00    -0.321 N 
ATOM      3  H2  UNL     1       9.796  17.474  15.096  1.00  0.00     0.169 HD
HETATM    4  C5  UNL     1       8.173  18.592  14.587  1.00  0.00     0.153 A 
HETATM    5  S1  UNL     1       6.798  18.986  15.502  1.00  0.00    -0.054 SA
HETATM    6  C8  UNL     1       7.234  18.148  16.948  1.00  0.00     0.035 A 
ENDROOT
BRANCH   1   7
HETATM    7  N1  UNL     1       9.203  16.825  17.604  1.00  0.00    -0.274 N 
HETATM    8  C3  UNL     1       8.784  15.538  18.007  1.00  0.00     0.368 C 
HETATM    9  O2  UNL     1       9.456  14.931  18.877  1.00  0.00    -0.238 OA
BRANCH   8  10
HETATM   10  O1  UNL     1       7.673  14.885  17.507  1.00  0.00    -0.304 OA
BRANCH  10  11
HETATM   11  C2  UNL     1       7.813  14.096  16.354  1.00  0.00     0.176 C 
HETATM   12  C1  UNL     1       7.159  14.746  15.140  1.00  0.00     0.034 C 
ENDBRANCH  10  11
ENDBRANCH   8  10
BRANCH   7  13
HETATM   13  C13 UNL     1      10.426  17.375  18.145  1.00  0.00     0.092 C 
HETATM   14  C14 UNL     1      11.615  16.936  17.308  1.00  0.00     0.033 C 
BRANCH  13  15
HETATM   15  C15 UNL     1      10.408  18.858  18.358  1.00  0.00     0.021 C 
HETATM   16  C16 UNL     1      10.383  19.125  19.848  1.00  0.00     0.007 C 
ENDBRANCH  13  15
ENDBRANCH   7  13
ENDBRANCH   1   7
BRANCH   6  17
HETATM   17  C9  UNL     1       6.405  18.053  18.208  1.00  0.00     0.030 C 
HETATM   18  C10 UNL     1       7.215  18.361  19.439  1.00  0.00     0.010 C 
HETATM   19  C11 UNL     1       6.598  19.707  19.586  1.00  0.00     0.001 C 
HETATM   20  C12 UNL     1       5.660  19.361  18.460  1.00  0.00     0.010 C 
ENDBRANCH   6  17
BRANCH   4  21
HETATM   21  N3  UNL     1       8.473  18.929  13.346  1.00  0.00    -0.307 N 
HETATM   22  C6  UNL     1       8.291  18.018  12.289  1.00  0.00     0.219 C 
HETATM   23  C7  UNL     1       8.558  18.459  10.912  1.00  0.00     0.117 C 
HETATM   24  O3  UNL     1       7.911  16.859  12.521  1.00  0.00    -0.274 OA
ATOM     25  H3  UNL     1       8.841  19.860  13.151  1.00  0.00     0.171 HD
ENDBRANCH   4  21
TORSDOF 7
ENDMDL
MODEL 4
REMARK VINA RESULT: -4.206681756      2.468      4.703
REMARK  7 active torsions:
REMARK  status: ('A' for Active; 'I' for Inactive)
REMARK    1  A    between atoms: C2_2  and  O1_3 
REMARK    2  A    between atoms: O1_3  and  C3_4 
REMARK       I    between atoms: C3_4  and  N1_6 
REMARK    3  A    between atoms: N1_6  and  C4_7 
REMARK    4  A    between atoms: N1_6  and  C13_22 
REMARK    5  A    between atoms: C5_10  and  N3_11 
REMARK       I    between atoms: N3_11  and  C6_13 
REMARK    6  A    between atoms: C8_17  and  C9_18 
REMARK    7  A    between atoms: C13_22  and  C15_24 
ROOT
HETATM    1  C4  UNL     1       8.695  18.752  17.712  1.00  0.00     0.128 A 
HETATM    2  N2  UNL     1       8.949  19.748  18.555  1.00  0.00    -0.321 N 
ATOM      3  H2  UNL     1       8.301  20.531  18.645  1.00  0.00     0.169 HD
HETATM    4  C5  UNL     1      10.053  19.705  19.271  1.00  0.00     0.153 A 
HETATM    5  S1  UNL     1      10.798  18.254  18.797  1.00  0.00    -0.054 SA
HETATM    6  C8  UNL     1       9.607  17.746  17.653  1.00  0.00     0.035 A 
ENDROOT
BRANCH   1   7
HETATM    7  N1  UNL     1       7.505  18.742  16.849  1.00  0.00    -0.274 N 
HETATM    8  C3  UNL     1       7.610  18.877  15.447  1.00  0.00     0.368 C 
HETATM    9  O2  UNL     1       6.556  18.900  14.765  1.00  0.00    -0.238 OA
BRANCH   8  10
HETATM   10  O1  UNL     1       8.803  18.985  14.759  1.00  0.00    -0.304 OA
BRANCH  10  11
HETATM   11  C2  UNL     1       8.785  19.475  13.444  1.00  0.00     0.176 C 
HETATM   12  C1  UNL     1       8.337  18.410  12.450  1.00  0.00     0.034 C 
ENDBRANCH  10  11
ENDBRANCH   8  10
BRANCH   7  13
HETATM   13  C13 UNL     1       6.202  18.562  17.450  1.00  0.00     0.092 C 
HETATM   14  C14 UNL     1       5.460  17.428  16.763  1.00  0.00     0.033 C 
BRANCH  13  15
HETATM   15  C15 UNL     1       6.212  18.403  18.939  1.00  0.00     0.021 C 
HETATM   16  C16 UNL     1       5.844  19.733  19.563  1.00  0.00     0.007 C 
ENDBRANCH  13  15
ENDBRANCH   7  13
ENDBRANCH   1   7
BRANCH   6  17
HETATM   17  C9  UNL     1       9.629  16.464  16.853  1.00  0.00     0.030 C 
HETATM   18  C10 UNL     1      10.084  15.292  17.682  1.00  0.00     0.010 C 
HETATM   19  C11 UNL     1       8.702  14.753  17.795  1.00  0.00     0.001 C 
HETATM   20  C12 UNL     1       8.246  15.820  16.834  1.00  0.00     0.010 C 
ENDBRANCH   6  17
BRANCH   4  21
HETATM   21  N3  UNL     1      10.459  20.601  20.152  1.00  0.00    -0.307 N 
HETATM   22  C6  UNL     1      10.015  20.549  21.486  1.00  0.00     0.219 C 
HETATM   23  C7  UNL     1      10.554  21.514  22.456  1.00  0.00     0.117 C 
HETATM   24  O3  UNL     1       9.179  19.700  21.836  1.00  0.00    -0.274 OA
ATOM     25  H3  UNL     1      11.101  21.338  19.863  1.00  0.00     0.171 HD
ENDBRANCH   4  21
TORSDOF 7
ENDMDL
MODEL 5
REMARK VINA RESULT: -4.046812742      2.283      5.686
REMARK  7 active torsions:
REMARK  status: ('A' for Active; 'I' for Inactive)
REMARK    1  A    between atoms: C2_2  and  O1_3 
REMARK    2  A    between atoms: O1_3  and  C3_4 
REMARK       I    between atoms: C3_4  and  N1_6 
REMARK    3  A    between atoms: N1_6  and  C4_7 
REMARK    4  A    between atoms: N1_6  and  C13_22 
REMARK    5  A    between atoms: C5_10  and  N3_11 
REMARK       I    between atoms: N3_11  and  C6_13 
REMARK    6  A    between atoms: C8_17  and  C9_18 
REMARK    7  A    between atoms: C13_22  and  C15_24 
ROOT
HETATM    1  C4  UNL     1       8.456  18.528  18.619  1.00  0.00     0.128 A 
HETATM    2  N2  UNL     1       8.983  18.607  17.401  1.00  0.00    -0.321 N 
ATOM      3  H2  UNL     1       9.925  18.258  17.219  1.00  0.00     0.169 HD
HETATM    4  C5  UNL     1       8.267  19.143  16.435  1.00  0.00     0.153 A 
HETATM    5  S1  UNL     1       6.805  19.567  17.190  1.00  0.00    -0.054 SA
HETATM    6  C8  UNL     1       7.196  19.012  18.779  1.00  0.00     0.035 A 
ENDROOT
BRANCH   1   7
HETATM    7  N1  UNL     1       9.203  17.978  19.760  1.00  0.00    -0.274 N 
HETATM    8  C3  UNL     1       9.093  16.619  20.127  1.00  0.00     0.368 C 
HETATM    9  O2  UNL     1       9.725  16.215  21.134  1.00  0.00    -0.238 OA
BRANCH   8  10
HETATM   10  O1  UNL     1       8.332  15.685  19.449  1.00  0.00    -0.304 OA
BRANCH  10  11
HETATM   11  C2  UNL     1       8.898  15.021  18.349  1.00  0.00     0.176 C 
HETATM   12  C1  UNL     1       8.070  15.216  17.084  1.00  0.00     0.034 C 
ENDBRANCH  10  11
ENDBRANCH   8  10
BRANCH   7  13
HETATM   13  C13 UNL     1      10.089  18.845  20.504  1.00  0.00     0.092 C 
HETATM   14  C14 UNL     1      10.683  19.900  19.586  1.00  0.00     0.033 C 
BRANCH  13  15
HETATM   15  C15 UNL     1       9.489  19.450  21.736  1.00  0.00     0.021 C 
HETATM   16  C16 UNL     1      10.200  20.757  22.020  1.00  0.00     0.007 C 
ENDBRANCH  13  15
ENDBRANCH   7  13
ENDBRANCH   1   7
BRANCH   6  17
HETATM   17  C9  UNL     1       6.288  19.055  19.986  1.00  0.00     0.030 C 
HETATM   18  C10 UNL     1       6.741  20.078  20.993  1.00  0.00     0.010 C 
HETATM   19  C11 UNL     1       5.656  21.024  20.616  1.00  0.00     0.001 C 
HETATM   20  C12 UNL     1       5.085  19.956  19.720  1.00  0.00     0.010 C 
ENDBRANCH   6  17
BRANCH   4  21
HETATM   21  N3  UNL     1       8.630  19.297  15.175  1.00  0.00    -0.307 N 
HETATM   22  C6  UNL     1       7.966  18.605  14.146  1.00  0.00     0.219 C 
HETATM   23  C7  UNL     1       8.345  18.867  12.750  1.00  0.00     0.117 C 
HETATM   24  O3  UNL     1       7.075  17.783  14.417  1.00  0.00    -0.274 OA
ATOM     25  H3  UNL     1       9.399  19.926  14.945  1.00  0.00     0.171 HD
ENDBRANCH   4  21
TORSDOF 7
ENDMDL
