MODEL 1
REMARK VINA RESULT: -6.711764532      0.000      0.000
REMARK  12 active torsions:
REMARK  status: ('A' for Active; 'I' for Inactive)
REMARK    1  A    between atoms: C2_2  and  C4_4 
REMARK    2  A    between atoms: C4_4  and  N1_5 
REMARK    3  A    between atoms: C4_4  and  C10_14 
REMARK       I    between atoms: N1_5  and  C5_7 
REMARK    4  A    between atoms: C5_7  and  O2_9 
REMARK    5  A    between atoms: O2_9  and  C6_10 
REMARK       I    between atoms: C10_14  and  N2_16 
REMARK    6  A    between atoms: N2_16  and  C11_18 
REMARK    7  A    between atoms: C11_18  and  C12_19 
REMARK    8  A    between atoms: C11_18  and  C22_35 
REMARK    9  A    between atoms: C12_19  and  O4_20 
REMARK   10  A    between atoms: C12_19  and  N3_22 
REMARK   11  A    between atoms: C15_25  and  C16_26 
REMARK       I    between atoms: C16_26  and  N4_28 
REMARK   12  A    between atoms: N4_28  and  C17_30 
ROOT
HETATM    1  C11 UNL     1      16.333  14.583   3.361  1.00  0.00     0.162 C 
ENDROOT
BRANCH   1   2
HETATM    2  N2  UNL     1      15.959  15.415   4.496  1.00  0.00    -0.347 N 
HETATM    3  C10 UNL     1      16.677  16.199   5.372  1.00  0.00     0.241 C 
HETATM    4  O3  UNL     1      17.909  16.331   5.358  1.00  0.00    -0.271 OA
ATOM      5  H2  UNL     1      14.956  15.418   4.682  1.00  0.00     0.163 HD
BRANCH   3   6
HETATM    6  C4  UNL     1      15.953  16.967   6.449  1.00  0.00     0.182 C 
BRANCH   6   7
HETATM    7  C2  UNL     1      16.436  16.699   7.821  1.00  0.00     0.009 C 
HETATM    8  C1  UNL     1      17.173  17.875   8.424  1.00  0.00     0.012 C 
HETATM    9  C3  UNL     1      15.382  16.279   8.783  1.00  0.00     0.012 C 
ENDBRANCH   6   7
BRANCH   6  10
HETATM   10  N1  UNL     1      14.530  16.563   6.363  1.00  0.00    -0.323 N 
HETATM   11  C5  UNL     1      13.537  17.443   5.913  1.00  0.00     0.362 C 
HETATM   12  O1  UNL     1      13.868  18.602   5.554  1.00  0.00    -0.238 OA
ATOM     13  H1  UNL     1      14.266  15.617   6.639  1.00  0.00     0.165 HD
BRANCH  11  14
HETATM   14  O2  UNL     1      12.204  17.103   5.842  1.00  0.00    -0.294 OA
BRANCH  14  15
HETATM   15  C6  UNL     1      11.349  17.017   6.942  1.00  0.00     0.061 C 
HETATM   16  C7  UNL     1       9.916  16.911   6.412  1.00  0.00     0.046 C 
HETATM   17  C8  UNL     1      11.360  18.310   7.761  1.00  0.00     0.046 C 
HETATM   18  C9  UNL     1      11.643  15.831   7.787  1.00  0.00     0.046 C 
ENDBRANCH  14  15
ENDBRANCH  11  14
ENDBRANCH   6  10
ENDBRANCH   3   6
ENDBRANCH   1   2
BRANCH   1  19
HETATM   19  C12 UNL     1      16.487  13.201   3.750  1.00  0.00     0.138 C 
BRANCH  19  20
HETATM   20  O4  UNL     1      16.281  12.948   5.011  1.00  0.00    -0.348 OA
ATOM     21  H4  UNL     1      16.360  13.694   5.594  1.00  0.00     0.219 HD
ENDBRANCH  19  20
BRANCH  19  22
HETATM   22  N3  UNL     1      16.824  12.055   3.010  1.00  0.00    -0.350 N 
HETATM   23  C13 UNL     1      17.180  10.686   3.428  1.00  0.00     0.128 C 
HETATM   24  C14 UNL     1      17.953  10.530   2.158  1.00  0.00     0.055 C 
HETATM   25  C15 UNL     1      17.006  11.648   1.663  1.00  0.00     0.179 C 
BRANCH  25  26
HETATM   26  C16 UNL     1      15.875  10.963   0.977  1.00  0.00     0.241 C 
HETATM   27  O5  UNL     1      15.628   9.763   1.059  1.00  0.00    -0.271 OA
HETATM   28  N4  UNL     1      15.028  11.773   0.175  1.00  0.00    -0.355 N 
ATOM     29  H4  UNL     1      15.244  12.768   0.117  1.00  0.00     0.162 HD
BRANCH  28  30
HETATM   30  C17 UNL     1      13.882  11.292  -0.568  1.00  0.00     0.084 C 
HETATM   31  C18 UNL     1      12.665  12.018   0.016  1.00  0.00     0.025 C 
HETATM   32  C19 UNL     1      12.131  12.872  -1.086  1.00  0.00     0.002 C 
HETATM   33  C20 UNL     1      12.612  12.254  -2.356  1.00  0.00     0.002 C 
HETATM   34  C21 UNL     1      13.939  11.647  -2.015  1.00  0.00     0.025 C 
ENDBRANCH  28  30
ENDBRANCH  25  26
ENDBRANCH  19  22
ENDBRANCH   1  19
BRANCH   1  35
HETATM   35  C22 UNL     1      15.459  14.986   2.239  1.00  0.00     0.008 C 
HETATM   36  C23 UNL     1      16.104  15.090   0.883  1.00  0.00     0.012 C 
HETATM   37  C24 UNL     1      14.346  15.933   2.510  1.00  0.00     0.012 C 
ENDBRANCH   1  35
TORSDOF 12
ENDMDL
MODEL 2
REMARK VINA RESULT: -6.504870907      1.287      1.589
REMARK  12 active torsions:
REMARK  status: ('A' for Active; 'I' for Inactive)
REMARK    1  A    between atoms: C2_2  and  C4_4 
REMARK    2  A    between atoms: C4_4  and  N1_5 
REMARK    3  A    between atoms: C4_4  and  C10_14 
REMARK       I    between atoms: N1_5  and  C5_7 
REMARK    4  A    between atoms: C5_7  and  O2_9 
REMARK    5  A    between atoms: O2_9  and  C6_10 
REMARK       I    between atoms: C10_14  and  N2_16 
REMARK    6  A    between atoms: N2_16  and  C11_18 
REMARK    7  A    between atoms: C11_18  and  C12_19 
REMARK    8  A    between atoms: C11_18  and  C22_35 
REMARK    9  A    between atoms: C12_19  and  O4_20 
REMARK   10  A    between atoms: C12_19  and  N3_22 
REMARK   11  A    between atoms: C15_25  and  C16_26 
REMARK       I    between atoms: C16_26  and  N4_28 
REMARK   12  A    between atoms: N4_28  and  C17_30 
ROOT
HETATM    1  C11 UNL     1      16.782  15.748   3.269  1.00  0.00     0.162 C 
ENDROOT
BRANCH   1   2
HETATM    2  N2  UNL     1      16.171  16.329   4.456  1.00  0.00    -0.347 N 
HETATM    3  C10 UNL     1      16.175  15.981   5.788  1.00  0.00     0.241 C 
HETATM    4  O3  UNL     1      16.747  14.988   6.260  1.00  0.00    -0.271 OA
ATOM      5  H2  UNL     1      15.626  17.168   4.260  1.00  0.00     0.163 HD
BRANCH   3   6
HETATM    6  C4  UNL     1      15.436  16.839   6.784  1.00  0.00     0.182 C 
BRANCH   6   7
HETATM    7  C2  UNL     1      15.821  16.610   8.193  1.00  0.00     0.009 C 
HETATM    8  C1  UNL     1      16.791  17.651   8.713  1.00  0.00     0.012 C 
HETATM    9  C3  UNL     1      14.683  16.531   9.148  1.00  0.00     0.012 C 
ENDBRANCH   6   7
BRANCH   6  10
HETATM   10  N1  UNL     1      13.999  16.512   6.630  1.00  0.00    -0.323 N 
HETATM   11  C5  UNL     1      13.146  17.285   5.831  1.00  0.00     0.362 C 
HETATM   12  O1  UNL     1      13.620  18.273   5.214  1.00  0.00    -0.238 OA
ATOM     13  H1  UNL     1      13.621  15.701   7.118  1.00  0.00     0.165 HD
BRANCH  11  14
HETATM   14  O2  UNL     1      11.802  17.018   5.685  1.00  0.00    -0.294 OA
BRANCH  14  15
HETATM   15  C6  UNL     1      10.780  17.733   6.311  1.00  0.00     0.061 C 
HETATM   16  C7  UNL     1       9.629  16.760   6.582  1.00  0.00     0.046 C 
HETATM   17  C8  UNL     1      10.180  18.786   5.375  1.00  0.00     0.046 C 
HETATM   18  C9  UNL     1      11.222  18.332   7.596  1.00  0.00     0.046 C 
ENDBRANCH  14  15
ENDBRANCH  11  14
ENDBRANCH   6  10
ENDBRANCH   3   6
ENDBRANCH   1   2
BRANCH   1  19
HETATM   19  C12 UNL     1      16.024  14.617   2.787  1.00  0.00     0.138 C 
BRANCH  19  20
HETATM   20  O4  UNL     1      14.895  14.906   2.208  1.00  0.00    -0.348 OA
ATOM     21  H4  UNL     1      14.244  14.215   2.215  1.00  0.00     0.219 HD
ENDBRANCH  19  20
BRANCH  19  22
HETATM   22  N3  UNL     1      16.281  13.236   2.827  1.00  0.00    -0.350 N 
HETATM   23  C13 UNL     1      16.109  12.235   3.897  1.00  0.00     0.128 C 
HETATM   24  C14 UNL     1      17.194  11.420   3.271  1.00  0.00     0.055 C 
HETATM   25  C15 UNL     1      16.792  12.203   1.999  1.00  0.00     0.179 C 
BRANCH  25  26
HETATM   26  C16 UNL     1      15.821  11.341   1.269  1.00  0.00     0.241 C 
HETATM   27  O5  UNL     1      15.818  10.113   1.291  1.00  0.00    -0.271 OA
HETATM   28  N4  UNL     1      14.828  12.004   0.500  1.00  0.00    -0.355 N 
ATOM     29  H4  UNL     1      14.840  13.024   0.493  1.00  0.00     0.162 HD
BRANCH  28  30
HETATM   30  C17 UNL     1      13.800  11.342  -0.275  1.00  0.00     0.084 C 
HETATM   31  C18 UNL     1      12.479  12.014   0.112  1.00  0.00     0.025 C 
HETATM   32  C19 UNL     1      11.986  12.689  -1.125  1.00  0.00     0.002 C 
HETATM   33  C20 UNL     1      12.634  11.980  -2.267  1.00  0.00     0.002 C 
HETATM   34  C21 UNL     1      13.967  11.538  -1.744  1.00  0.00     0.025 C 
ENDBRANCH  28  30
ENDBRANCH  25  26
ENDBRANCH  19  22
ENDBRANCH   1  19
BRANCH   1  35
HETATM   35  C22 UNL     1      17.146  16.878   2.387  1.00  0.00     0.008 C 
HETATM   36  C23 UNL     1      16.323  18.130   2.519  1.00  0.00     0.012 C 
HETATM   37  C24 UNL     1      17.671  16.578   1.029  1.00  0.00     0.012 C 
ENDBRANCH   1  35
TORSDOF 12
ENDMDL
MODEL 3
REMARK VINA RESULT: -6.453562732      1.669      2.627
REMARK  12 active torsions:
REMARK  status: ('A' for Active; 'I' for Inactive)
REMARK    1  A    between atoms: C2_2  and  C4_4 
REMARK    2  A    between atoms: C4_4  and  N1_5 
REMARK    3  A    between atoms: C4_4  and  C10_14 
REMARK       I    between atoms: N1_5  and  C5_7 
REMARK    4  A    between atoms: C5_7  and  O2_9 
REMARK    5  A    between atoms: O2_9  and  C6_10 
REMARK       I    between atoms: C10_14  and  N2_16 
REMARK    6  A    between atoms: N2_16  and  C11_18 
REMARK    7  A    between atoms: C11_18  and  C12_19 
REMARK    8  A    between atoms: C11_18  and  C22_35 
REMARK    9  A    between atoms: C12_19  and  O4_20 
REMARK   10  A    between atoms: C12_19  and  N3_22 
REMARK   11  A    between atoms: C15_25  and  C16_26 
REMARK       I    between atoms: C16_26  and  N4_28 
REMARK   12  A    between atoms: N4_28  and  C17_30 
ROOT
HETATM    1  C11 UNL     1      16.461  14.836   3.521  1.00  0.00     0.162 C 
ENDROOT
BRANCH   1   2
HETATM    2  N2  UNL     1      15.321  15.387   4.240  1.00  0.00    -0.347 N 
HETATM    3  C10 UNL     1      15.193  16.068   5.431  1.00  0.00     0.241 C 
HETATM    4  O3  UNL     1      16.130  16.342   6.194  1.00  0.00    -0.271 OA
ATOM      5  H2  UNL     1      14.432  15.238   3.763  1.00  0.00     0.163 HD
BRANCH   3   6
HETATM    6  C4  UNL     1      13.831  16.528   5.882  1.00  0.00     0.182 C 
BRANCH   6   7
HETATM    7  C2  UNL     1      13.120  17.384   4.908  1.00  0.00     0.009 C 
HETATM    8  C1  UNL     1      11.614  17.265   5.011  1.00  0.00     0.012 C 
HETATM    9  C3  UNL     1      13.469  18.829   4.975  1.00  0.00     0.012 C 
ENDBRANCH   6   7
BRANCH   6  10
HETATM   10  N1  UNL     1      14.045  17.307   7.125  1.00  0.00    -0.323 N 
HETATM   11  C5  UNL     1      13.339  17.029   8.303  1.00  0.00     0.362 C 
HETATM   12  O1  UNL     1      12.516  16.079   8.309  1.00  0.00    -0.238 OA
ATOM     13  H1  UNL     1      14.725  18.066   7.122  1.00  0.00     0.165 HD
BRANCH  11  14
HETATM   14  O2  UNL     1      13.502  17.747   9.467  1.00  0.00    -0.294 OA
BRANCH  14  15
HETATM   15  C6  UNL     1      13.131  19.083   9.631  1.00  0.00     0.061 C 
HETATM   16  C7  UNL     1      12.724  19.278  11.095  1.00  0.00     0.046 C 
HETATM   17  C8  UNL     1      11.866  19.413   8.834  1.00  0.00     0.046 C 
HETATM   18  C9  UNL     1      14.240  20.016   9.307  1.00  0.00     0.046 C 
ENDBRANCH  14  15
ENDBRANCH  11  14
ENDBRANCH   6  10
ENDBRANCH   3   6
ENDBRANCH   1   2
BRANCH   1  19
HETATM   19  C12 UNL     1      16.861  13.560   4.069  1.00  0.00     0.138 C 
BRANCH  19  20
HETATM   20  O4  UNL     1      16.997  13.525   5.363  1.00  0.00    -0.348 OA
ATOM     21  H4  UNL     1      16.382  12.967   5.823  1.00  0.00     0.219 HD
ENDBRANCH  19  20
BRANCH  19  22
HETATM   22  N3  UNL     1      17.137  12.326   3.455  1.00  0.00    -0.350 N 
HETATM   23  C13 UNL     1      17.370  10.982   4.015  1.00  0.00     0.128 C 
HETATM   24  C14 UNL     1      18.177  10.647   2.802  1.00  0.00     0.055 C 
HETATM   25  C15 UNL     1      17.339  11.779   2.161  1.00  0.00     0.179 C 
BRANCH  25  26
HETATM   26  C16 UNL     1      16.186  11.116   1.491  1.00  0.00     0.241 C 
HETATM   27  O5  UNL     1      16.002   9.902   1.450  1.00  0.00    -0.271 OA
HETATM   28  N4  UNL     1      15.237  11.964   0.861  1.00  0.00    -0.355 N 
ATOM     29  H4  UNL     1      15.401  12.970   0.905  1.00  0.00     0.162 HD
BRANCH  28  30
HETATM   30  C17 UNL     1      14.054  11.509   0.161  1.00  0.00     0.084 C 
HETATM   31  C18 UNL     1      13.060  12.672   0.210  1.00  0.00     0.025 C 
HETATM   32  C19 UNL     1      12.869  13.107  -1.206  1.00  0.00     0.002 C 
HETATM   33  C20 UNL     1      13.237  11.933  -2.049  1.00  0.00     0.002 C 
HETATM   34  C21 UNL     1      14.309  11.222  -1.280  1.00  0.00     0.025 C 
ENDBRANCH  28  30
ENDBRANCH  25  26
ENDBRANCH  19  22
ENDBRANCH   1  19
BRANCH   1  35
HETATM   35  C22 UNL     1      16.175  15.013   2.082  1.00  0.00     0.008 C 
HETATM   36  C23 UNL     1      17.344  15.351   1.197  1.00  0.00     0.012 C 
HETATM   37  C24 UNL     1      14.863  15.588   1.684  1.00  0.00     0.012 C 
ENDBRANCH   1  35
TORSDOF 12
ENDMDL
MODEL 4
REMARK VINA RESULT: -6.391773744      3.331      6.554
REMARK  12 active torsions:
REMARK  status: ('A' for Active; 'I' for Inactive)
REMARK    1  A    between atoms: C2_2  and  C4_4 
REMARK    2  A    between atoms: C4_4  and  N1_5 
REMARK    3  A    between atoms: C4_4  and  C10_14 
REMARK       I    between atoms: N1_5  and  C5_7 
REMARK    4  A    between atoms: C5_7  and  O2_9 
REMARK    5  A    between atoms: O2_9  and  C6_10 
REMARK       I    between atoms: C10_14  and  N2_16 
REMARK    6  A    between atoms: N2_16  and  C11_18 
REMARK    7  A    between atoms: C11_18  and  C12_19 
REMARK    8  A    between atoms: C11_18  and  C22_35 
REMARK    9  A    between atoms: C12_19  and  O4_20 
REMARK   10  A    between atoms: C12_19  and  N3_22 
REMARK   11  A    between atoms: C15_25  and  C16_26 
REMARK       I    between atoms: C16_26  and  N4_28 
REMARK   12  A    between atoms: N4_28  and  C17_30 
ROOT
HETATM    1  C11 UNL     1      16.272  10.586  -1.988  1.00  0.00     0.162 C 
ENDROOT
BRANCH   1   2
HETATM    2  N2  UNL     1      16.647  11.059  -0.662  1.00  0.00    -0.347 N 
HETATM    3  C10 UNL     1      16.307  10.666   0.613  1.00  0.00     0.241 C 
HETATM    4  O3  UNL     1      15.518   9.750   0.886  1.00  0.00    -0.271 OA
ATOM      5  H2  UNL     1      17.295  11.846  -0.683  1.00  0.00     0.163 HD
BRANCH   3   6
HETATM    6  C4  UNL     1      16.912  11.377   1.797  1.00  0.00     0.182 C 
BRANCH   6   7
HETATM    7  C2  UNL     1      17.107  10.524   2.989  1.00  0.00     0.009 C 
HETATM    8  C1  UNL     1      18.502   9.943   3.074  1.00  0.00     0.012 C 
HETATM    9  C3  UNL     1      16.810  11.187   4.288  1.00  0.00     0.012 C 
ENDBRANCH   6   7
BRANCH   6  10
HETATM   10  N1  UNL     1      15.975  12.471   2.148  1.00  0.00    -0.323 N 
HETATM   11  C5  UNL     1      16.119  13.764   1.629  1.00  0.00     0.362 C 
HETATM   12  O1  UNL     1      17.060  13.996   0.828  1.00  0.00    -0.238 OA
ATOM     13  H1  UNL     1      15.203  12.275   2.786  1.00  0.00     0.165 HD
BRANCH  11  14
HETATM   14  O2  UNL     1      15.277  14.805   1.953  1.00  0.00    -0.294 OA
BRANCH  14  15
HETATM   15  C6  UNL     1      15.481  15.688   3.014  1.00  0.00     0.061 C 
HETATM   16  C7  UNL     1      14.189  16.485   3.214  1.00  0.00     0.046 C 
HETATM   17  C8  UNL     1      16.533  16.745   2.666  1.00  0.00     0.046 C 
HETATM   18  C9  UNL     1      15.815  14.979   4.276  1.00  0.00     0.046 C 
ENDBRANCH  14  15
ENDBRANCH  11  14
ENDBRANCH   6  10
ENDBRANCH   3   6
ENDBRANCH   1   2
BRANCH   1  19
HETATM   19  C12 UNL     1      14.969  11.078  -2.373  1.00  0.00     0.138 C 
BRANCH  19  20
HETATM   20  O4  UNL     1      14.649  10.894  -3.621  1.00  0.00    -0.348 OA
ATOM     21  H4  UNL     1      13.730  10.720  -3.785  1.00  0.00     0.219 HD
ENDBRANCH  19  20
BRANCH  19  22
HETATM   22  N3  UNL     1      13.965  11.732  -1.640  1.00  0.00    -0.350 N 
HETATM   23  C13 UNL     1      13.780  13.149  -1.274  1.00  0.00     0.128 C 
HETATM   24  C14 UNL     1      12.989  12.710  -0.085  1.00  0.00     0.055 C 
HETATM   25  C15 UNL     1      12.769  11.436  -0.935  1.00  0.00     0.179 C 
BRANCH  25  26
HETATM   26  C16 UNL     1      11.471  11.624  -1.640  1.00  0.00     0.241 C 
HETATM   27  O5  UNL     1      10.384  11.762  -1.085  1.00  0.00    -0.271 OA
HETATM   28  N4  UNL     1      11.511  11.648  -3.059  1.00  0.00    -0.355 N 
ATOM     29  H4  UNL     1      12.420  11.535  -3.508  1.00  0.00     0.162 HD
BRANCH  28  30
HETATM   30  C17 UNL     1      10.359  11.821  -3.919  1.00  0.00     0.084 C 
HETATM   31  C18 UNL     1      10.849  12.621  -5.129  1.00  0.00     0.025 C 
HETATM   32  C19 UNL     1      10.706  11.712  -6.305  1.00  0.00     0.002 C 
HETATM   33  C20 UNL     1       9.672  10.706  -5.923  1.00  0.00     0.002 C 
HETATM   34  C21 UNL     1       9.829  10.530  -4.443  1.00  0.00     0.025 C 
ENDBRANCH  28  30
ENDBRANCH  25  26
ENDBRANCH  19  22
ENDBRANCH   1  19
BRANCH   1  35
HETATM   35  C22 UNL     1      17.460  10.763  -2.849  1.00  0.00     0.008 C 
HETATM   36  C23 UNL     1      17.766  12.165  -3.299  1.00  0.00     0.012 C 
HETATM   37  C24 UNL     1      17.816   9.676  -3.798  1.00  0.00     0.012 C 
ENDBRANCH   1  35
TORSDOF 12
ENDMDL
MODEL 5
REMARK VINA RESULT: -6.389517943      3.525      9.368
REMARK  12 active torsions:
REMARK  status: ('A' for Active; 'I' for Inactive)
REMARK    1  A    between atoms: C2_2  and  C4_4 
REMARK    2  A    between atoms: C4_4  and  N1_5 
REMARK    3  A    between atoms: C4_4  and  C10_14 
REMARK       I    between atoms: N1_5  and  C5_7 
REMARK    4  A    between atoms: C5_7  and  O2_9 
REMARK    5  A    between atoms: O2_9  and  C6_10 
REMARK       I    between atoms: C10_14  and  N2_16 
REMARK    6  A    between atoms: N2_16  and  C11_18 
REMARK    7  A    between atoms: C11_18  and  C12_19 
REMARK    8  A    between atoms: C11_18  and  C22_35 
REMARK    9  A    between atoms: C12_19  and  O4_20 
REMARK   10  A    between atoms: C12_19  and  N3_22 
REMARK   11  A    between atoms: C15_25  and  C16_26 
REMARK       I    between atoms: C16_26  and  N4_28 
REMARK   12  A    between atoms: N4_28  and  C17_30 
ROOT
HETATM    1  C11 UNL     1      15.355  11.155  -2.108  1.00  0.00     0.162 C 
ENDROOT
BRANCH   1   2
HETATM    2  N2  UNL     1      13.938  11.434  -2.297  1.00  0.00    -0.347 N 
HETATM    3  C10 UNL     1      13.105  12.436  -1.853  1.00  0.00     0.241 C 
HETATM    4  O3  UNL     1      13.448  13.370  -1.116  1.00  0.00    -0.271 OA
ATOM      5  H2  UNL     1      13.465  10.742  -2.877  1.00  0.00     0.163 HD
BRANCH   3   6
HETATM    6  C4  UNL     1      11.654  12.434  -2.266  1.00  0.00     0.182 C 
BRANCH   6   7
HETATM    7  C2  UNL     1      10.730  11.885  -1.250  1.00  0.00     0.009 C 
HETATM    8  C1  UNL     1       9.822  10.808  -1.804  1.00  0.00     0.012 C 
HETATM    9  C3  UNL     1      11.390  11.343  -0.032  1.00  0.00     0.012 C 
ENDBRANCH   6   7
BRANCH   6  10
HETATM   10  N1  UNL     1      11.569  11.593  -3.483  1.00  0.00    -0.323 N 
HETATM   11  C5  UNL     1      11.528  12.152  -4.767  1.00  0.00     0.362 C 
HETATM   12  O1  UNL     1      11.584  13.402  -4.889  1.00  0.00    -0.238 OA
ATOM     13  H1  UNL     1      11.540  10.578  -3.383  1.00  0.00     0.165 HD
BRANCH  11  14
HETATM   14  O2  UNL     1      11.428  11.397  -5.916  1.00  0.00    -0.294 OA
BRANCH  14  15
HETATM   15  C6  UNL     1      10.225  11.036  -6.524  1.00  0.00     0.061 C 
HETATM   16  C7  UNL     1      10.443   9.695  -7.231  1.00  0.00     0.046 C 
HETATM   17  C8  UNL     1       9.855  12.007  -7.648  1.00  0.00     0.046 C 
HETATM   18  C9  UNL     1       9.122  10.892  -5.540  1.00  0.00     0.046 C 
ENDBRANCH  14  15
ENDBRANCH  11  14
ENDBRANCH   6  10
ENDBRANCH   3   6
ENDBRANCH   1   2
BRANCH   1  19
HETATM   19  C12 UNL     1      15.589  10.420  -0.886  1.00  0.00     0.138 C 
BRANCH  19  20
HETATM   20  O4  UNL     1      15.273   9.157  -0.925  1.00  0.00    -0.348 OA
ATOM     21  H4  UNL     1      14.407   8.963  -1.265  1.00  0.00     0.219 HD
ENDBRANCH  19  20
BRANCH  19  22
HETATM   22  N3  UNL     1      16.101  10.818   0.360  1.00  0.00    -0.350 N 
HETATM   23  C13 UNL     1      17.403  10.575   1.010  1.00  0.00     0.128 C 
HETATM   24  C14 UNL     1      16.738  10.737   2.338  1.00  0.00     0.055 C 
HETATM   25  C15 UNL     1      15.705  11.542   1.514  1.00  0.00     0.179 C 
BRANCH  25  26
HETATM   26  C16 UNL     1      16.110  12.971   1.621  1.00  0.00     0.241 C 
HETATM   27  O5  UNL     1      16.820  13.563   0.811  1.00  0.00    -0.271 OA
HETATM   28  N4  UNL     1      15.630  13.690   2.748  1.00  0.00    -0.355 N 
ATOM     29  H4  UNL     1      15.040  13.188   3.411  1.00  0.00     0.162 HD
BRANCH  28  30
HETATM   30  C17 UNL     1      15.913  15.082   3.026  1.00  0.00     0.084 C 
HETATM   31  C18 UNL     1      14.818  15.887   2.320  1.00  0.00     0.025 C 
HETATM   32  C19 UNL     1      14.043  16.560   3.404  1.00  0.00     0.002 C 
HETATM   33  C20 UNL     1      14.958  16.634   4.580  1.00  0.00     0.002 C 
HETATM   34  C21 UNL     1      15.822  15.413   4.477  1.00  0.00     0.025 C 
ENDBRANCH  28  30
ENDBRANCH  25  26
ENDBRANCH  19  22
ENDBRANCH   1  19
BRANCH   1  35
HETATM   35  C22 UNL     1      15.869  10.687  -3.412  1.00  0.00     0.008 C 
HETATM   36  C23 UNL     1      17.327  10.318  -3.472  1.00  0.00     0.012 C 
HETATM   37  C24 UNL     1      15.287  11.264  -4.653  1.00  0.00     0.012 C 
ENDBRANCH   1  35
TORSDOF 12
ENDMDL
