MODEL 1
REMARK VINA RESULT: -5.294297690      0.000      0.000
REMARK  1 active torsions:
REMARK  status: ('A' for Active; 'I' for Inactive)
REMARK    1  A    between atoms: O1_1  and  C1_3 
ROOT
HETATM    1  C1  UNL     1      57.986  -7.307  58.366  1.00  0.00     0.356 C 
HETATM    2  C2  UNL     1      57.663  -8.761  58.732  1.00  0.00     0.064 C 
HETATM    3  C3  UNL     1      57.034  -9.360  57.486  1.00  0.00     0.007 C 
HETATM    4  C4  UNL     1      57.896  -9.226  56.281  1.00  0.00     0.036 C 
HETATM    5  C5  UNL     1      58.589  -7.930  56.124  1.00  0.00     0.226 C 
HETATM    6  C6  UNL     1      57.795  -6.890  55.401  1.00  0.00     0.036 C 
HETATM    7  C7  UNL     1      58.707  -5.761  55.026  1.00  0.00     0.004 C 
HETATM    8  C8  UNL     1      59.811  -5.499  55.963  1.00  0.00     0.030 C 
HETATM    9  C9  UNL     1      59.794  -6.192  57.262  1.00  0.00     0.276 C 
HETATM   10  N1  UNL     1      59.029  -7.370  57.372  1.00  0.00     0.121 N 
ENDROOT
BRANCH   1  11
HETATM   11  O1  UNL     1      58.392  -6.575  59.452  1.00  0.00    -0.368 OA
ATOM     12  H1  UNL     1      59.253  -6.193  59.327  1.00  0.00     0.212 HD
ENDBRANCH   1  11
TORSDOF 1
ENDMDL
MODEL 2
REMARK VINA RESULT: -4.953880625      1.317      3.355
REMARK  1 active torsions:
REMARK  status: ('A' for Active; 'I' for Inactive)
REMARK    1  A    between atoms: O1_1  and  C1_3 
ROOT
HETATM    1  C1  UNL     1      60.110  -6.563  56.554  1.00  0.00     0.356 C 
HETATM    2  C2  UNL     1      60.068  -5.846  55.199  1.00  0.00     0.064 C 
HETATM    3  C3  UNL     1      59.232  -6.737  54.297  1.00  0.00     0.007 C 
HETATM    4  C4  UNL     1      57.885  -7.028  54.858  1.00  0.00     0.036 C 
HETATM    5  C5  UNL     1      57.838  -7.311  56.308  1.00  0.00     0.226 C 
HETATM    6  C6  UNL     1      58.054  -8.747  56.664  1.00  0.00     0.036 C 
HETATM    7  C7  UNL     1      57.665  -8.953  58.096  1.00  0.00     0.004 C 
HETATM    8  C8  UNL     1      57.893  -7.805  58.988  1.00  0.00     0.030 C 
HETATM    9  C9  UNL     1      58.674  -6.670  58.466  1.00  0.00     0.276 C 
HETATM   10  N1  UNL     1      58.762  -6.517  57.068  1.00  0.00     0.121 N 
ENDROOT
BRANCH   1  11
HETATM   11  O1  UNL     1      60.985  -5.973  57.428  1.00  0.00    -0.368 OA
ATOM     12  H1  UNL     1      60.688  -6.029  58.329  1.00  0.00     0.212 HD
ENDBRANCH   1  11
TORSDOF 1
ENDMDL
MODEL 3
REMARK VINA RESULT: -4.883554396      1.651      2.326
REMARK  1 active torsions:
REMARK  status: ('A' for Active; 'I' for Inactive)
REMARK    1  A    between atoms: O1_1  and  C1_3 
ROOT
HETATM    1  C1  UNL     1      59.439  -5.298  57.577  1.00  0.00     0.356 C 
HETATM    2  C2  UNL     1      59.332  -5.776  59.031  1.00  0.00     0.064 C 
HETATM    3  C3  UNL     1      58.129  -6.702  59.064  1.00  0.00     0.007 C 
HETATM    4  C4  UNL     1      58.226  -7.812  58.078  1.00  0.00     0.036 C 
HETATM    5  C5  UNL     1      58.754  -7.448  56.746  1.00  0.00     0.226 C 
HETATM    6  C6  UNL     1      57.716  -6.973  55.780  1.00  0.00     0.036 C 
HETATM    7  C7  UNL     1      58.312  -6.951  54.405  1.00  0.00     0.004 C 
HETATM    8  C8  UNL     1      59.749  -6.641  54.340  1.00  0.00     0.030 C 
HETATM    9  C9  UNL     1      60.409  -6.166  55.569  1.00  0.00     0.276 C 
HETATM   10  N1  UNL     1      59.797  -6.462  56.803  1.00  0.00     0.121 N 
ENDROOT
BRANCH   1  11
HETATM   11  O1  UNL     1      60.371  -4.305  57.424  1.00  0.00    -0.368 OA
ATOM     12  H1  UNL     1      60.600  -4.163  56.512  1.00  0.00     0.212 HD
ENDBRANCH   1  11
TORSDOF 1
ENDMDL
MODEL 4
REMARK VINA RESULT: -4.880667297      1.785      2.633
REMARK  1 active torsions:
REMARK  status: ('A' for Active; 'I' for Inactive)
REMARK    1  A    between atoms: O1_1  and  C1_3 
ROOT
HETATM    1  C1  UNL     1      57.856  -9.019  56.362  1.00  0.00     0.356 C 
HETATM    2  C2  UNL     1      57.132  -9.403  57.658  1.00  0.00     0.064 C 
HETATM    3  C3  UNL     1      57.942  -8.770  58.776  1.00  0.00     0.007 C 
HETATM    4  C4  UNL     1      58.118  -7.303  58.605  1.00  0.00     0.036 C 
HETATM    5  C5  UNL     1      58.402  -6.844  57.229  1.00  0.00     0.226 C 
HETATM    6  C6  UNL     1      59.854  -6.837  56.869  1.00  0.00     0.036 C 
HETATM    7  C7  UNL     1      60.032  -6.060  55.600  1.00  0.00     0.004 C 
HETATM    8  C8  UNL     1      58.912  -6.134  54.647  1.00  0.00     0.030 C 
HETATM    9  C9  UNL     1      57.847  -7.117  54.908  1.00  0.00     0.276 C 
HETATM   10  N1  UNL     1      57.695  -7.591  56.227  1.00  0.00     0.121 N 
ENDROOT
BRANCH   1  11
HETATM   11  O1  UNL     1      57.349  -9.672  55.269  1.00  0.00    -0.368 OA
ATOM     12  H1  UNL     1      58.013  -9.845  54.612  1.00  0.00     0.212 HD
ENDBRANCH   1  11
TORSDOF 1
ENDMDL
MODEL 5
REMARK VINA RESULT: -4.856603420      1.819      3.214
REMARK  1 active torsions:
REMARK  status: ('A' for Active; 'I' for Inactive)
REMARK    1  A    between atoms: O1_1  and  C1_3 
ROOT
HETATM    1  C1  UNL     1      57.544  -6.927  55.982  1.00  0.00     0.356 C 
HETATM    2  C2  UNL     1      57.950  -7.630  54.680  1.00  0.00     0.064 C 
HETATM    3  C3  UNL     1      59.186  -6.894  54.193  1.00  0.00     0.007 C 
HETATM    4  C4  UNL     1      60.271  -6.848  55.209  1.00  0.00     0.036 C 
HETATM    5  C5  UNL     1      59.843  -6.589  56.600  1.00  0.00     0.226 C 
HETATM    6  C6  UNL     1      59.750  -5.140  56.956  1.00  0.00     0.036 C 
HETATM    7  C7  UNL     1      59.630  -5.016  58.445  1.00  0.00     0.004 C 
HETATM    8  C8  UNL     1      58.915  -6.112  59.118  1.00  0.00     0.030 C 
HETATM    9  C9  UNL     1      58.200  -7.088  58.278  1.00  0.00     0.276 C 
HETATM   10  N1  UNL     1      58.593  -7.213  56.931  1.00  0.00     0.121 N 
ENDROOT
BRANCH   1  11
HETATM   11  O1  UNL     1      56.331  -7.360  56.450  1.00  0.00    -0.368 OA
ATOM     12  H1  UNL     1      56.273  -7.314  57.398  1.00  0.00     0.212 HD
ENDBRANCH   1  11
TORSDOF 1
ENDMDL
