MODEL 1
REMARK VINA RESULT: -5.816272516      0.000      0.000
REMARK  4 active torsions:
REMARK  status: ('A' for Active; 'I' for Inactive)
REMARK    1  A    between atoms: O1_1  and  N1_3 
REMARK    2  A    between atoms: C1_5  and  O2_6 
REMARK    3  A    between atoms: C1_5  and  C2_8 
REMARK    4  A    between atoms: C3_9  and  C4_10 
ROOT
HETATM    1  C2  UNL     1      55.297  -8.131  55.681  1.00  0.00    -0.021 C 
HETATM    2  C3  UNL     1      56.466  -7.896  55.781  1.00  0.00    -0.093 C 
ENDROOT
BRANCH   1   3
HETATM    3  C1  UNL     1      53.902  -8.435  55.553  1.00  0.00     0.217 C 
HETATM    4  N1  UNL     1      53.417  -9.165  54.612  1.00  0.00    -0.240 N 
ATOM      5  H1  UNL     1      54.051  -9.554  53.913  1.00  0.00     0.197 HD
BRANCH   4   6
HETATM    6  O1  UNL     1      52.082  -9.435  54.518  1.00  0.00    -0.287 OA
ATOM      7  H1  UNL     1      51.750 -10.323  54.466  1.00  0.00     0.244 HD
ENDBRANCH   4   6
BRANCH   3   8
HETATM    8  O2  UNL     1      53.027  -7.918  56.490  1.00  0.00    -0.338 OA
ATOM      9  H2  UNL     1      53.241  -7.082  56.887  1.00  0.00     0.220 HD
ENDBRANCH   3   8
ENDBRANCH   1   3
BRANCH   2  10
HETATM   10  C4  UNL     1      57.884  -7.623  55.890  1.00  0.00     0.065 C 
HETATM   11  C5  UNL     1      58.190  -7.340  57.343  1.00  0.00     0.017 C 
HETATM   12  C6  UNL     1      59.276  -6.325  57.517  1.00  0.00     0.001 C 
HETATM   13  C7  UNL     1      60.325  -6.355  56.455  1.00  0.00     0.000 C 
HETATM   14  C8  UNL     1      59.787  -6.364  55.057  1.00  0.00     0.001 C 
HETATM   15  C9  UNL     1      58.279  -6.356  55.121  1.00  0.00     0.017 C 
ENDBRANCH   2  10
TORSDOF 4
ENDMDL
MODEL 2
REMARK VINA RESULT: -5.781017606      4.723      6.225
REMARK  4 active torsions:
REMARK  status: ('A' for Active; 'I' for Inactive)
REMARK    1  A    between atoms: O1_1  and  N1_3 
REMARK    2  A    between atoms: C1_5  and  O2_6 
REMARK    3  A    between atoms: C1_5  and  C2_8 
REMARK    4  A    between atoms: C3_9  and  C4_10 
ROOT
HETATM    1  C2  UNL     1      59.089  -6.318  57.703  1.00  0.00    -0.021 C 
HETATM    2  C3  UNL     1      58.514  -7.185  57.110  1.00  0.00    -0.093 C 
ENDROOT
BRANCH   1   3
HETATM    3  C1  UNL     1      59.779  -5.268  58.392  1.00  0.00     0.217 C 
HETATM    4  N1  UNL     1      60.400  -4.314  57.794  1.00  0.00    -0.240 N 
ATOM      5  H1  UNL     1      60.408  -4.294  56.774  1.00  0.00     0.197 HD
BRANCH   4   6
HETATM    6  O1  UNL     1      61.049  -3.328  58.481  1.00  0.00    -0.287 OA
ATOM      7  H1  UNL     1      61.265  -2.494  58.082  1.00  0.00     0.244 HD
ENDBRANCH   4   6
BRANCH   3   8
HETATM    8  O2  UNL     1      59.779  -5.277  59.775  1.00  0.00    -0.338 OA
ATOM      9  H2  UNL     1      60.105  -4.507  60.226  1.00  0.00     0.220 HD
ENDBRANCH   3   8
ENDBRANCH   1   3
BRANCH   2  10
HETATM   10  C4  UNL     1      57.825  -8.227  56.379  1.00  0.00     0.065 C 
HETATM   11  C5  UNL     1      56.647  -7.595  55.673  1.00  0.00     0.017 C 
HETATM   12  C6  UNL     1      55.469  -8.513  55.581  1.00  0.00     0.001 C 
HETATM   13  C7  UNL     1      55.821  -9.957  55.444  1.00  0.00     0.000 C 
HETATM   14  C8  UNL     1      56.832 -10.443  56.437  1.00  0.00     0.001 C 
HETATM   15  C9  UNL     1      57.235  -9.286  57.319  1.00  0.00     0.017 C 
ENDBRANCH   2  10
TORSDOF 4
ENDMDL
MODEL 3
REMARK VINA RESULT: -5.706156755      4.857      6.080
REMARK  4 active torsions:
REMARK  status: ('A' for Active; 'I' for Inactive)
REMARK    1  A    between atoms: O1_1  and  N1_3 
REMARK    2  A    between atoms: C1_5  and  O2_6 
REMARK    3  A    between atoms: C1_5  and  C2_8 
REMARK    4  A    between atoms: C3_9  and  C4_10 
ROOT
HETATM    1  C2  UNL     1      59.631  -5.757  57.075  1.00  0.00    -0.021 C 
HETATM    2  C3  UNL     1      59.429  -6.214  55.987  1.00  0.00    -0.093 C 
ENDROOT
BRANCH   1   3
HETATM    3  C1  UNL     1      59.864  -5.231  58.386  1.00  0.00     0.217 C 
HETATM    4  N1  UNL     1      60.844  -4.449  58.675  1.00  0.00    -0.240 N 
ATOM      5  H1  UNL     1      61.497  -4.183  57.937  1.00  0.00     0.197 HD
BRANCH   4   6
HETATM    6  O1  UNL     1      61.039  -3.964  59.937  1.00  0.00    -0.287 OA
ATOM      7  H1  UNL     1      61.053  -4.532  60.698  1.00  0.00     0.244 HD
ENDBRANCH   4   6
BRANCH   3   8
HETATM    8  O2  UNL     1      58.992  -5.578  59.400  1.00  0.00    -0.338 OA
ATOM      9  H2  UNL     1      58.720  -6.487  59.463  1.00  0.00     0.220 HD
ENDBRANCH   3   8
ENDBRANCH   1   3
BRANCH   2  10
HETATM   10  C4  UNL     1      59.171  -6.777  54.677  1.00  0.00     0.065 C 
HETATM   11  C5  UNL     1      58.754  -8.218  54.867  1.00  0.00     0.017 C 
HETATM   12  C6  UNL     1      59.218  -9.104  53.756  1.00  0.00     0.001 C 
HETATM   13  C7  UNL     1      59.271  -8.441  52.419  1.00  0.00     0.000 C 
HETATM   14  C8  UNL     1      59.977  -7.121  52.412  1.00  0.00     0.001 C 
HETATM   15  C9  UNL     1      60.440  -6.815  53.816  1.00  0.00     0.017 C 
ENDBRANCH   2  10
TORSDOF 4
ENDMDL
MODEL 4
REMARK VINA RESULT: -5.679904767      4.892      6.215
REMARK  4 active torsions:
REMARK  status: ('A' for Active; 'I' for Inactive)
REMARK    1  A    between atoms: O1_1  and  N1_3 
REMARK    2  A    between atoms: C1_5  and  O2_6 
REMARK    3  A    between atoms: C1_5  and  C2_8 
REMARK    4  A    between atoms: C3_9  and  C4_10 
ROOT
HETATM    1  C2  UNL     1      59.990  -6.116  57.277  1.00  0.00    -0.021 C 
HETATM    2  C3  UNL     1      60.007  -6.733  56.252  1.00  0.00    -0.093 C 
ENDROOT
BRANCH   1   3
HETATM    3  C1  UNL     1      59.995  -5.381  58.507  1.00  0.00     0.217 C 
HETATM    4  N1  UNL     1      60.945  -4.587  58.857  1.00  0.00    -0.240 N 
ATOM      5  H1  UNL     1      61.743  -4.467  58.232  1.00  0.00     0.197 HD
BRANCH   4   6
HETATM    6  O1  UNL     1      60.919  -3.901  60.037  1.00  0.00    -0.287 OA
ATOM      7  H1  UNL     1      61.657  -3.900  60.636  1.00  0.00     0.244 HD
ENDBRANCH   4   6
BRANCH   3   8
HETATM    8  O2  UNL     1      58.923  -5.529  59.367  1.00  0.00    -0.338 OA
ATOM      9  H2  UNL     1      58.892  -4.977  60.140  1.00  0.00     0.220 HD
ENDBRANCH   3   8
ENDBRANCH   1   3
BRANCH   2  10
HETATM   10  C4  UNL     1      60.040  -7.488  55.016  1.00  0.00     0.065 C 
HETATM   11  C5  UNL     1      60.046  -6.500  53.871  1.00  0.00     0.017 C 
HETATM   12  C6  UNL     1      59.306  -7.002  52.672  1.00  0.00     0.001 C 
HETATM   13  C7  UNL     1      59.383  -8.480  52.473  1.00  0.00     0.000 C 
HETATM   14  C8  UNL     1      59.073  -9.285  53.698  1.00  0.00     0.001 C 
HETATM   15  C9  UNL     1      58.775  -8.337  54.834  1.00  0.00     0.017 C 
ENDBRANCH   2  10
TORSDOF 4
ENDMDL
MODEL 5
REMARK VINA RESULT: -5.456512134      0.878      1.072
REMARK  4 active torsions:
REMARK  status: ('A' for Active; 'I' for Inactive)
REMARK    1  A    between atoms: O1_1  and  N1_3 
REMARK    2  A    between atoms: C1_5  and  O2_6 
REMARK    3  A    between atoms: C1_5  and  C2_8 
REMARK    4  A    between atoms: C3_9  and  C4_10 
ROOT
HETATM    1  C2  UNL     1      55.254  -8.370  55.584  1.00  0.00    -0.021 C 
HETATM    2  C3  UNL     1      56.411  -8.087  55.705  1.00  0.00    -0.093 C 
ENDROOT
BRANCH   1   3
HETATM    3  C1  UNL     1      53.874  -8.732  55.446  1.00  0.00     0.217 C 
HETATM    4  N1  UNL     1      53.065  -8.843  56.440  1.00  0.00    -0.240 N 
ATOM      5  H1  UNL     1      53.414  -8.664  57.382  1.00  0.00     0.197 HD
BRANCH   4   6
HETATM    6  O1  UNL     1      51.755  -9.190  56.274  1.00  0.00    -0.287 OA
ATOM      7  H1  UNL     1      51.498 -10.013  55.875  1.00  0.00     0.244 HD
ENDBRANCH   4   6
BRANCH   3   8
HETATM    8  O2  UNL     1      53.382  -8.977  54.178  1.00  0.00    -0.338 OA
ATOM      9  H2  UNL     1      54.006  -9.112  53.475  1.00  0.00     0.220 HD
ENDBRANCH   3   8
ENDBRANCH   1   3
BRANCH   2  10
HETATM   10  C4  UNL     1      57.814  -7.761  55.847  1.00  0.00     0.065 C 
HETATM   11  C5  UNL     1      58.086  -7.519  57.315  1.00  0.00     0.017 C 
HETATM   12  C6  UNL     1      59.125  -6.469  57.544  1.00  0.00     0.001 C 
HETATM   13  C7  UNL     1      60.191  -6.417  56.500  1.00  0.00     0.000 C 
HETATM   14  C8  UNL     1      59.676  -6.395  55.093  1.00  0.00     0.001 C 
HETATM   15  C9  UNL     1      58.168  -6.451  55.132  1.00  0.00     0.017 C 
ENDBRANCH   2  10
TORSDOF 4
ENDMDL
