MODEL 1
REMARK VINA RESULT: -10.641395681      0.000      0.000
REMARK  7 active torsions:
REMARK  status: ('A' for Active; 'I' for Inactive)
REMARK    1  A    between atoms: C6_7  and  C7_8 
REMARK       I    between atoms: C7_8  and  N1_10 
REMARK    2  A    between atoms: N1_10  and  C8_11 
REMARK    3  A    between atoms: C13_20  and  N3_21 
REMARK       I    between atoms: N3_21  and  C14_23 
REMARK    4  A    between atoms: C14_23  and  C15_25 
REMARK    5  A    between atoms: C19_30  and  N4_31 
REMARK       I    between atoms: N4_31  and  C20_33 
REMARK    6  A    between atoms: C20_33  and  C21_35 
REMARK    7  A    between atoms: C27_43  and  O4_44 
ROOT
HETATM    1  N3  UNL     1       0.575  30.443  37.783  1.00  0.00    -0.321 N 
ATOM      2  H3  UNL     1      -0.058  30.452  36.982  1.00  0.00     0.169 HD
HETATM    3  C14 UNL     1       0.703  31.604  38.579  1.00  0.00     0.262 C 
HETATM    4  O2  UNL     1       1.527  31.467  39.557  1.00  0.00    -0.267 OA
ENDROOT
BRANCH   3   5
HETATM    5  C15 UNL     1       0.049  32.872  38.436  1.00  0.00     0.106 A 
HETATM    6  C16 UNL     1      -1.325  32.897  38.297  1.00  0.00     0.135 A 
HETATM    7  F3  UNL     1      -2.007  31.731  38.298  1.00  0.00    -0.205 F 
HETATM    8  C17 UNL     1      -2.050  34.036  38.154  1.00  0.00     0.046 A 
HETATM    9  C18 UNL     1      -1.377  35.272  38.149  1.00  0.00     0.035 A 
HETATM   10  C19 UNL     1      -0.019  35.317  38.284  1.00  0.00     0.069 A 
HETATM   11  C27 UNL     1       0.673  34.110  38.425  1.00  0.00     0.111 A 
BRANCH  10  12
HETATM   12  N4  UNL     1       0.680  36.541  38.297  1.00  0.00    -0.320 N 
HETATM   13  C20 UNL     1       0.225  37.825  38.048  1.00  0.00     0.256 C 
HETATM   14  O3  UNL     1      -0.952  38.092  37.754  1.00  0.00    -0.267 OA
ATOM     15  H4  UNL     1       1.672  36.470  38.526  1.00  0.00     0.169 HD
BRANCH  13  16
HETATM   16  C21 UNL     1       1.162  38.977  38.129  1.00  0.00     0.036 A 
HETATM   17  C22 UNL     1       1.671  39.446  39.308  1.00  0.00     0.059 A 
HETATM   18  C23 UNL     1       2.526  40.532  39.351  1.00  0.00     0.118 A 
HETATM   19  F4  UNL     1       2.991  40.943  40.549  1.00  0.00    -0.206 F 
HETATM   20  C24 UNL     1       2.886  41.168  38.191  1.00  0.00     0.066 A 
HETATM   21  C25 UNL     1       2.391  40.717  36.996  1.00  0.00     0.037 A 
HETATM   22 CL2  UNL     1       2.816  41.496  35.476  1.00  0.00    -0.084 Cl
HETATM   23  C26 UNL     1       1.552  39.648  36.983  1.00  0.00     0.041 A 
ENDBRANCH  13  16
ENDBRANCH  10  12
BRANCH  11  24
HETATM   24  O4  UNL     1       2.022  34.141  38.559  1.00  0.00    -0.357 OA
ATOM     25  H4  UNL     1       2.412  34.918  38.942  1.00  0.00     0.217 HD
ENDBRANCH  11  24
ENDBRANCH   3   5
BRANCH   1  26
HETATM   26  C13 UNL     1       1.324  29.245  38.081  1.00  0.00     0.058 A 
HETATM   27  C2  UNL     1       0.732  28.304  38.937  1.00  0.00    -0.033 A 
HETATM   28  C1  UNL     1      -0.609  28.563  39.491  1.00  0.00     0.050 C 
HETATM   29  C3  UNL     1       1.471  27.178  39.198  1.00  0.00     0.033 A 
HETATM   30  C4  UNL     1       2.731  26.970  38.655  1.00  0.00     0.035 A 
HETATM   31 CL1  UNL     1       3.657  25.526  39.002  1.00  0.00    -0.084 Cl
HETATM   32  C5  UNL     1       3.269  27.936  37.814  1.00  0.00     0.044 A 
HETATM   33  C6  UNL     1       2.553  29.086  37.527  1.00  0.00     0.075 A 
BRANCH  33  34
HETATM   34  C7  UNL     1       3.154  30.132  36.654  1.00  0.00     0.329 C 
HETATM   35  O1  UNL     1       3.886  31.029  37.213  1.00  0.00    -0.251 OA
HETATM   36  N1  UNL     1       2.917  30.102  35.353  1.00  0.00    -0.363 NA
BRANCH  36  37
HETATM   37  C8  UNL     1       2.906  29.867  34.185  1.00  0.00     0.155 A 
HETATM   38  C9  UNL     1       3.993  30.119  33.328  1.00  0.00     0.109 A 
HETATM   39  C10 UNL     1       3.976  29.845  31.990  1.00  0.00     0.191 A 
HETATM   40  F1  UNL     1       5.052  30.103  31.177  1.00  0.00    -0.186 F 
HETATM   41  N2  UNL     1       2.880  29.311  31.453  1.00  0.00    -0.340 N 
HETATM   42  C11 UNL     1       1.814  29.048  32.211  1.00  0.00     0.136 A 
ATOM     43  H2  UNL     1       2.856  29.101  30.456  1.00  0.00     0.167 HD
HETATM   44  C12 UNL     1       1.787  29.306  33.554  1.00  0.00     0.172 A 
HETATM   45  F2  UNL     1       0.674  29.021  34.294  1.00  0.00    -0.201 F 
ENDBRANCH  36  37
ENDBRANCH  33  34
ENDBRANCH   1  26
TORSDOF 7
ENDMDL
MODEL 2
REMARK VINA RESULT: -10.550696287      2.556      4.457
REMARK  7 active torsions:
REMARK  status: ('A' for Active; 'I' for Inactive)
REMARK    1  A    between atoms: C6_7  and  C7_8 
REMARK       I    between atoms: C7_8  and  N1_10 
REMARK    2  A    between atoms: N1_10  and  C8_11 
REMARK    3  A    between atoms: C13_20  and  N3_21 
REMARK       I    between atoms: N3_21  and  C14_23 
REMARK    4  A    between atoms: C14_23  and  C15_25 
REMARK    5  A    between atoms: C19_30  and  N4_31 
REMARK       I    between atoms: N4_31  and  C20_33 
REMARK    6  A    between atoms: C20_33  and  C21_35 
REMARK    7  A    between atoms: C27_43  and  O4_44 
ROOT
HETATM    1  N3  UNL     1       1.478  30.472  36.309  1.00  0.00    -0.321 N 
ATOM      2  H3  UNL     1       0.599  30.026  36.575  1.00  0.00     0.169 HD
HETATM    3  C14 UNL     1       1.708  31.820  36.668  1.00  0.00     0.262 C 
HETATM    4  O2  UNL     1       2.849  32.266  36.279  1.00  0.00    -0.267 OA
ENDROOT
BRANCH   3   5
HETATM    5  C15 UNL     1       0.855  32.720  37.387  1.00  0.00     0.106 A 
HETATM    6  C16 UNL     1      -0.156  32.194  38.167  1.00  0.00     0.135 A 
HETATM    7  F3  UNL     1      -0.309  30.853  38.228  1.00  0.00    -0.205 F 
HETATM    8  C17 UNL     1      -1.023  32.947  38.891  1.00  0.00     0.046 A 
HETATM    9  C18 UNL     1      -0.897  34.348  38.856  1.00  0.00     0.035 A 
HETATM   10  C19 UNL     1       0.083  34.932  38.104  1.00  0.00     0.069 A 
HETATM   11  C27 UNL     1       0.944  34.104  37.380  1.00  0.00     0.111 A 
BRANCH  10  12
HETATM   12  N4  UNL     1       0.243  36.332  38.062  1.00  0.00    -0.320 N 
HETATM   13  C20 UNL     1       1.368  37.104  38.299  1.00  0.00     0.256 C 
HETATM   14  O3  UNL     1       2.474  36.630  38.606  1.00  0.00    -0.267 OA
ATOM     15  H4  UNL     1      -0.599  36.856  37.821  1.00  0.00     0.169 HD
BRANCH  13  16
HETATM   16  C21 UNL     1       1.293  38.585  38.188  1.00  0.00     0.036 A 
HETATM   17  C22 UNL     1       0.399  39.344  38.891  1.00  0.00     0.059 A 
HETATM   18  C23 UNL     1       0.342  40.719  38.752  1.00  0.00     0.118 A 
HETATM   19  F4  UNL     1      -0.565  41.406  39.476  1.00  0.00    -0.206 F 
HETATM   20  C24 UNL     1       1.197  41.356  37.891  1.00  0.00     0.066 A 
HETATM   21  C25 UNL     1       2.103  40.620  37.174  1.00  0.00     0.037 A 
HETATM   22 CL2  UNL     1       3.223  41.384  36.051  1.00  0.00    -0.084 Cl
HETATM   23  C26 UNL     1       2.137  39.270  37.331  1.00  0.00     0.041 A 
ENDBRANCH  13  16
ENDBRANCH  10  12
BRANCH  11  24
HETATM   24  O4  UNL     1       1.920  34.671  36.629  1.00  0.00    -0.357 OA
ATOM     25  H4  UNL     1       1.659  35.286  35.953  1.00  0.00     0.217 HD
ENDBRANCH  11  24
ENDBRANCH   3   5
BRANCH   1  26
HETATM   26  C13 UNL     1       2.462  29.715  35.574  1.00  0.00     0.058 A 
HETATM   27  C2  UNL     1       2.413  29.770  34.172  1.00  0.00    -0.033 A 
HETATM   28  C1  UNL     1       1.379  30.586  33.511  1.00  0.00     0.050 C 
HETATM   29  C3  UNL     1       3.364  29.040  33.507  1.00  0.00     0.033 A 
HETATM   30  C4  UNL     1       4.323  28.284  34.167  1.00  0.00     0.035 A 
HETATM   31 CL1  UNL     1       5.526  27.358  33.296  1.00  0.00    -0.084 Cl
HETATM   32  C5  UNL     1       4.324  28.265  35.556  1.00  0.00     0.044 A 
HETATM   33  C6  UNL     1       3.380  28.990  36.263  1.00  0.00     0.075 A 
BRANCH  33  34
HETATM   34  C7  UNL     1       3.367  28.932  37.752  1.00  0.00     0.329 C 
HETATM   35  O1  UNL     1       3.697  29.994  38.395  1.00  0.00    -0.251 OA
HETATM   36  N1  UNL     1       3.022  27.804  38.350  1.00  0.00    -0.363 NA
BRANCH  36  37
HETATM   37  C8  UNL     1       2.442  26.877  38.824  1.00  0.00     0.155 A 
HETATM   38  C9  UNL     1       3.057  25.653  39.145  1.00  0.00     0.109 A 
HETATM   39  C10 UNL     1       2.388  24.595  39.691  1.00  0.00     0.191 A 
HETATM   40  F1  UNL     1       3.014  23.411  39.992  1.00  0.00    -0.186 F 
HETATM   41  N2  UNL     1       1.084  24.712  39.939  1.00  0.00    -0.340 N 
HETATM   42  C11 UNL     1       0.441  25.846  39.657  1.00  0.00     0.136 A 
ATOM     43  H2  UNL     1       0.574  23.929  40.347  1.00  0.00     0.167 HD
HETATM   44  C12 UNL     1       1.070  26.931  39.110  1.00  0.00     0.172 A 
HETATM   45  F2  UNL     1       0.374  28.074  38.838  1.00  0.00    -0.201 F 
ENDBRANCH  36  37
ENDBRANCH  33  34
ENDBRANCH   1  26
TORSDOF 7
ENDMDL
MODEL 3
REMARK VINA RESULT: -10.541898524      1.124      1.157
REMARK  7 active torsions:
REMARK  status: ('A' for Active; 'I' for Inactive)
REMARK    1  A    between atoms: C6_7  and  C7_8 
REMARK       I    between atoms: C7_8  and  N1_10 
REMARK    2  A    between atoms: N1_10  and  C8_11 
REMARK    3  A    between atoms: C13_20  and  N3_21 
REMARK       I    between atoms: N3_21  and  C14_23 
REMARK    4  A    between atoms: C14_23  and  C15_25 
REMARK    5  A    between atoms: C19_30  and  N4_31 
REMARK       I    between atoms: N4_31  and  C20_33 
REMARK    6  A    between atoms: C20_33  and  C21_35 
REMARK    7  A    between atoms: C27_43  and  O4_44 
ROOT
HETATM    1  N3  UNL     1       0.779  29.671  37.966  1.00  0.00    -0.321 N 
ATOM      2  H3  UNL     1       0.114  29.704  37.193  1.00  0.00     0.169 HD
HETATM    3  C14 UNL     1       0.976  30.822  38.762  1.00  0.00     0.262 C 
HETATM    4  O2  UNL     1       1.835  30.653  39.703  1.00  0.00    -0.267 OA
ENDROOT
BRANCH   3   5
HETATM    5  C15 UNL     1       0.356  32.110  38.654  1.00  0.00     0.106 A 
HETATM    6  C16 UNL     1      -1.023  32.180  38.613  1.00  0.00     0.135 A 
HETATM    7  F3  UNL     1      -1.742  31.038  38.675  1.00  0.00    -0.205 F 
HETATM    8  C17 UNL     1      -1.718  33.342  38.512  1.00  0.00     0.046 A 
HETATM    9  C18 UNL     1      -1.007  34.554  38.445  1.00  0.00     0.035 A 
HETATM   10  C19 UNL     1       0.358  34.554  38.482  1.00  0.00     0.069 A 
HETATM   11  C27 UNL     1       1.018  33.327  38.585  1.00  0.00     0.111 A 
BRANCH  10  12
HETATM   12  N4  UNL     1       1.096  35.754  38.433  1.00  0.00    -0.320 N 
HETATM   13  C20 UNL     1       0.655  37.066  38.369  1.00  0.00     0.256 C 
HETATM   14  O3  UNL     1      -0.545  37.386  38.342  1.00  0.00    -0.267 OA
ATOM     15  H4  UNL     1       2.110  35.639  38.446  1.00  0.00     0.169 HD
BRANCH  13  16
HETATM   16  C21 UNL     1       1.637  38.182  38.331  1.00  0.00     0.036 A 
HETATM   17  C22 UNL     1       2.981  38.003  38.508  1.00  0.00     0.059 A 
HETATM   18  C23 UNL     1       3.866  39.064  38.485  1.00  0.00     0.118 A 
HETATM   19  F4  UNL     1       5.180  38.816  38.667  1.00  0.00    -0.206 F 
HETATM   20  C24 UNL     1       3.404  40.339  38.281  1.00  0.00     0.066 A 
HETATM   21  C25 UNL     1       2.062  40.546  38.101  1.00  0.00     0.037 A 
HETATM   22 CL2  UNL     1       1.411  42.161  37.838  1.00  0.00    -0.084 Cl
HETATM   23  C26 UNL     1       1.214  39.484  38.128  1.00  0.00     0.041 A 
ENDBRANCH  13  16
ENDBRANCH  10  12
BRANCH  11  24
HETATM   24  O4  UNL     1       2.373  33.313  38.621  1.00  0.00    -0.357 OA
ATOM     25  H4  UNL     1       2.801  33.705  39.373  1.00  0.00     0.217 HD
ENDBRANCH  11  24
ENDBRANCH   3   5
BRANCH   1  26
HETATM   26  C13 UNL     1       1.502  28.449  38.226  1.00  0.00     0.058 A 
HETATM   27  C2  UNL     1       0.867  27.469  39.005  1.00  0.00    -0.033 A 
HETATM   28  C1  UNL     1      -0.491  27.715  39.521  1.00  0.00     0.050 C 
HETATM   29  C3  UNL     1       1.583  26.322  39.231  1.00  0.00     0.033 A 
HETATM   30  C4  UNL     1       2.861  26.127  38.727  1.00  0.00     0.035 A 
HETATM   31 CL1  UNL     1       3.757  24.654  39.029  1.00  0.00    -0.084 Cl
HETATM   32  C5  UNL     1       3.442  27.131  37.961  1.00  0.00     0.044 A 
HETATM   33  C6  UNL     1       2.750  28.304  37.712  1.00  0.00     0.075 A 
BRANCH  33  34
HETATM   34  C7  UNL     1       3.397  29.389  36.922  1.00  0.00     0.329 C 
HETATM   35  O1  UNL     1       4.291  30.104  37.507  1.00  0.00    -0.251 OA
HETATM   36  N1  UNL     1       3.033  29.576  35.664  1.00  0.00    -0.363 NA
BRANCH  36  37
HETATM   37  C8  UNL     1       2.878  29.516  34.484  1.00  0.00     0.155 A 
HETATM   38  C9  UNL     1       3.906  29.737  33.550  1.00  0.00     0.109 A 
HETATM   39  C10 UNL     1       3.724  29.664  32.198  1.00  0.00     0.191 A 
HETATM   40  F1  UNL     1       4.747  29.886  31.310  1.00  0.00    -0.186 F 
HETATM   41  N2  UNL     1       2.514  29.370  31.724  1.00  0.00    -0.340 N 
HETATM   42  C11 UNL     1       1.495  29.151  32.556  1.00  0.00     0.136 A 
ATOM     43  H2  UNL     1       2.366  29.313  30.717  1.00  0.00     0.167 HD
HETATM   44  C12 UNL     1       1.632  29.213  33.916  1.00  0.00     0.172 A 
HETATM   45  F2  UNL     1       0.563  28.981  34.733  1.00  0.00    -0.201 F 
ENDBRANCH  36  37
ENDBRANCH  33  34
ENDBRANCH   1  26
TORSDOF 7
ENDMDL
MODEL 4
REMARK VINA RESULT: -10.523213194      0.784      1.256
REMARK  7 active torsions:
REMARK  status: ('A' for Active; 'I' for Inactive)
REMARK    1  A    between atoms: C6_7  and  C7_8 
REMARK       I    between atoms: C7_8  and  N1_10 
REMARK    2  A    between atoms: N1_10  and  C8_11 
REMARK    3  A    between atoms: C13_20  and  N3_21 
REMARK       I    between atoms: N3_21  and  C14_23 
REMARK    4  A    between atoms: C14_23  and  C15_25 
REMARK    5  A    between atoms: C19_30  and  N4_31 
REMARK       I    between atoms: N4_31  and  C20_33 
REMARK    6  A    between atoms: C20_33  and  C21_35 
REMARK    7  A    between atoms: C27_43  and  O4_44 
ROOT
HETATM    1  N3  UNL     1       0.651  30.598  37.755  1.00  0.00    -0.321 N 
ATOM      2  H3  UNL     1       0.075  30.634  36.914  1.00  0.00     0.169 HD
HETATM    3  C14 UNL     1       0.721  31.730  38.599  1.00  0.00     0.262 C 
HETATM    4  O2  UNL     1       1.476  31.559  39.625  1.00  0.00    -0.267 OA
ENDROOT
BRANCH   3   5
HETATM    5  C15 UNL     1       0.075  33.002  38.456  1.00  0.00     0.106 A 
HETATM    6  C16 UNL     1      -1.298  33.033  38.301  1.00  0.00     0.135 A 
HETATM    7  F3  UNL     1      -1.985  31.871  38.287  1.00  0.00    -0.205 F 
HETATM    8  C17 UNL     1      -2.016  34.177  38.158  1.00  0.00     0.046 A 
HETATM    9  C18 UNL     1      -1.338  35.409  38.167  1.00  0.00     0.035 A 
HETATM   10  C19 UNL     1       0.019  35.447  38.318  1.00  0.00     0.069 A 
HETATM   11  C27 UNL     1       0.703  34.237  38.460  1.00  0.00     0.111 A 
BRANCH  10  12
HETATM   12  N4  UNL     1       0.723  36.668  38.347  1.00  0.00    -0.320 N 
HETATM   13  C20 UNL     1       0.327  37.931  37.937  1.00  0.00     0.256 C 
HETATM   14  O3  UNL     1      -0.788  38.176  37.448  1.00  0.00    -0.267 OA
ATOM     15  H4  UNL     1       1.668  36.614  38.729  1.00  0.00     0.169 HD
BRANCH  13  16
HETATM   16  C21 UNL     1       1.255  39.085  38.074  1.00  0.00     0.036 A 
HETATM   17  C22 UNL     1       1.789  39.478  39.270  1.00  0.00     0.059 A 
HETATM   18  C23 UNL     1       2.635  40.567  39.367  1.00  0.00     0.118 A 
HETATM   19  F4  UNL     1       3.125  40.901  40.578  1.00  0.00    -0.206 F 
HETATM   20  C24 UNL     1       2.961  41.284  38.245  1.00  0.00     0.066 A 
HETATM   21  C25 UNL     1       2.440  40.911  37.034  1.00  0.00     0.037 A 
HETATM   22 CL2  UNL     1       2.821  41.796  35.560  1.00  0.00    -0.084 Cl
HETATM   23  C26 UNL     1       1.611  39.836  36.968  1.00  0.00     0.041 A 
ENDBRANCH  13  16
ENDBRANCH  10  12
BRANCH  11  24
HETATM   24  O4  UNL     1       2.051  34.261  38.609  1.00  0.00    -0.357 OA
ATOM     25  H4  UNL     1       2.435  35.006  39.057  1.00  0.00     0.217 HD
ENDBRANCH  11  24
ENDBRANCH   3   5
BRANCH   1  26
HETATM   26  C13 UNL     1       1.382  29.391  38.062  1.00  0.00     0.058 A 
HETATM   27  C2  UNL     1       0.758  28.445  38.890  1.00  0.00    -0.033 A 
HETATM   28  C1  UNL     1      -0.596  28.709  39.408  1.00  0.00     0.050 C 
HETATM   29  C3  UNL     1       1.480  27.311  39.160  1.00  0.00     0.033 A 
HETATM   30  C4  UNL     1       2.754  27.098  38.651  1.00  0.00     0.035 A 
HETATM   31 CL1  UNL     1       3.658  25.643  39.009  1.00  0.00    -0.084 Cl
HETATM   32  C5  UNL     1       3.323  28.069  37.836  1.00  0.00     0.044 A 
HETATM   33  C6  UNL     1       2.625  29.228  37.542  1.00  0.00     0.075 A 
BRANCH  33  34
HETATM   34  C7  UNL     1       3.260  30.279  36.698  1.00  0.00     0.329 C 
HETATM   35  O1  UNL     1       3.871  31.238  37.297  1.00  0.00    -0.251 OA
HETATM   36  N1  UNL     1       3.173  30.189  35.382  1.00  0.00    -0.363 NA
BRANCH  36  37
HETATM   37  C8  UNL     1       3.308  29.913  34.230  1.00  0.00     0.155 A 
HETATM   38  C9  UNL     1       2.233  29.725  33.342  1.00  0.00     0.109 A 
HETATM   39  C10 UNL     1       2.394  29.412  32.022  1.00  0.00     0.191 A 
HETATM   40  F1  UNL     1       1.326  29.232  31.178  1.00  0.00    -0.186 F 
HETATM   41  N2  UNL     1       3.626  29.274  31.535  1.00  0.00    -0.340 N 
HETATM   42  C11 UNL     1       4.689  29.439  32.325  1.00  0.00     0.136 A 
ATOM     43  H2  UNL     1       3.758  29.041  30.551  1.00  0.00     0.167 HD
HETATM   44  C12 UNL     1       4.575  29.752  33.652  1.00  0.00     0.172 A 
HETATM   45  F2  UNL     1       5.689  29.912  34.426  1.00  0.00    -0.201 F 
ENDBRANCH  36  37
ENDBRANCH  33  34
ENDBRANCH   1  26
TORSDOF 7
ENDMDL
MODEL 5
REMARK VINA RESULT: -10.508833865      2.931      4.791
REMARK  7 active torsions:
REMARK  status: ('A' for Active; 'I' for Inactive)
REMARK    1  A    between atoms: C6_7  and  C7_8 
REMARK       I    between atoms: C7_8  and  N1_10 
REMARK    2  A    between atoms: N1_10  and  C8_11 
REMARK    3  A    between atoms: C13_20  and  N3_21 
REMARK       I    between atoms: N3_21  and  C14_23 
REMARK    4  A    between atoms: C14_23  and  C15_25 
REMARK    5  A    between atoms: C19_30  and  N4_31 
REMARK       I    between atoms: N4_31  and  C20_33 
REMARK    6  A    between atoms: C20_33  and  C21_35 
REMARK    7  A    between atoms: C27_43  and  O4_44 
ROOT
HETATM    1  N3  UNL     1       3.468  30.926  37.108  1.00  0.00    -0.321 N 
ATOM      2  H3  UNL     1       3.825  30.757  38.049  1.00  0.00     0.169 HD
HETATM    3  C14 UNL     1       2.481  31.919  36.908  1.00  0.00     0.262 C 
HETATM    4  O2  UNL     1       2.116  32.039  35.682  1.00  0.00    -0.267 OA
ENDROOT
BRANCH   3   5
HETATM    5  C15 UNL     1       1.860  32.779  37.872  1.00  0.00     0.106 A 
HETATM    6  C16 UNL     1       1.332  32.218  39.018  1.00  0.00     0.135 A 
HETATM    7  F3  UNL     1       1.417  30.881  39.194  1.00  0.00    -0.205 F 
HETATM    8  C17 UNL     1       0.722  32.932  39.998  1.00  0.00     0.046 A 
HETATM    9  C18 UNL     1       0.614  34.327  39.854  1.00  0.00     0.035 A 
HETATM   10  C19 UNL     1       1.116  34.945  38.744  1.00  0.00     0.069 A 
HETATM   11  C27 UNL     1       1.732  34.156  37.769  1.00  0.00     0.111 A 
BRANCH  10  12
HETATM   12  N4  UNL     1       1.036  36.343  38.580  1.00  0.00    -0.320 N 
HETATM   13  C20 UNL     1       2.048  37.283  38.474  1.00  0.00     0.256 C 
HETATM   14  O3  UNL     1       3.256  37.000  38.516  1.00  0.00    -0.267 OA
ATOM     15  H4  UNL     1       0.089  36.719  38.531  1.00  0.00     0.169 HD
BRANCH  13  16
HETATM   16  C21 UNL     1       1.714  38.721  38.299  1.00  0.00     0.036 A 
HETATM   17  C22 UNL     1       0.651  39.323  38.914  1.00  0.00     0.059 A 
HETATM   18  C23 UNL     1       0.356  40.659  38.716  1.00  0.00     0.118 A 
HETATM   19  F4  UNL     1      -0.708  41.189  39.354  1.00  0.00    -0.206 F 
HETATM   20  C24 UNL     1       1.138  41.418  37.883  1.00  0.00     0.066 A 
HETATM   21  C25 UNL     1       2.208  40.840  37.255  1.00  0.00     0.037 A 
HETATM   22 CL2  UNL     1       3.245  41.764  36.173  1.00  0.00    -0.084 Cl
HETATM   23  C26 UNL     1       2.476  39.524  37.469  1.00  0.00     0.041 A 
ENDBRANCH  13  16
ENDBRANCH  10  12
BRANCH  11  24
HETATM   24  O4  UNL     1       2.234  34.757  36.662  1.00  0.00    -0.357 OA
ATOM     25  H4  UNL     1       1.747  35.484  36.292  1.00  0.00     0.217 HD
ENDBRANCH  11  24
ENDBRANCH   3   5
BRANCH   1  26
HETATM   26  C13 UNL     1       3.979  30.147  36.005  1.00  0.00     0.058 A 
HETATM   27  C2  UNL     1       5.236  30.498  35.488  1.00  0.00    -0.033 A 
HETATM   28  C1  UNL     1       5.978  31.627  36.077  1.00  0.00     0.050 C 
HETATM   29  C3  UNL     1       5.691  29.737  34.442  1.00  0.00     0.033 A 
HETATM   30  C4  UNL     1       4.962  28.680  33.915  1.00  0.00     0.035 A 
HETATM   31 CL1  UNL     1       5.562  27.723  32.579  1.00  0.00    -0.084 Cl
HETATM   32  C5  UNL     1       3.723  28.377  34.466  1.00  0.00     0.044 A 
HETATM   33  C6  UNL     1       3.230  29.123  35.523  1.00  0.00     0.075 A 
BRANCH  33  34
HETATM   34  C7  UNL     1       1.884  28.814  36.082  1.00  0.00     0.329 C 
HETATM   35  O1  UNL     1       0.860  29.050  35.341  1.00  0.00    -0.251 OA
HETATM   36  N1  UNL     1       1.791  28.315  37.303  1.00  0.00    -0.363 NA
BRANCH  36  37
HETATM   37  C8  UNL     1       1.783  27.619  38.270  1.00  0.00     0.155 A 
HETATM   38  C9  UNL     1       0.784  26.665  38.535  1.00  0.00     0.109 A 
HETATM   39  C10 UNL     1       0.780  25.867  39.644  1.00  0.00     0.191 A 
HETATM   40  F1  UNL     1      -0.209  24.945  39.878  1.00  0.00    -0.186 F 
HETATM   41  N2  UNL     1       1.768  25.987  40.531  1.00  0.00    -0.340 N 
HETATM   42  C11 UNL     1       2.746  26.874  40.339  1.00  0.00     0.136 A 
ATOM     43  H2  UNL     1       1.776  25.397  41.362  1.00  0.00     0.167 HD
HETATM   44  C12 UNL     1       2.789  27.693  39.243  1.00  0.00     0.172 A 
HETATM   45  F2  UNL     1       3.809  28.587  39.085  1.00  0.00    -0.201 F 
ENDBRANCH  36  37
ENDBRANCH  33  34
ENDBRANCH   1  26
TORSDOF 7
ENDMDL
