MODEL 1
REMARK VINA RESULT: -6.541975784      0.000      0.000
REMARK  13 active torsions:
REMARK  status: ('A' for Active; 'I' for Inactive)
REMARK    1  A    between atoms: C4_4  and  O1_5 
REMARK    2  A    between atoms: C5_7  and  O2_8 
REMARK    3  A    between atoms: C6_10  and  O3_11 
REMARK    4  A    between atoms: C7_13  and  C8_14 
REMARK    5  A    between atoms: C8_14  and  S1_15 
REMARK    6  A    between atoms: S1_15  and  C9_16 
REMARK    7  A    between atoms: C9_16  and  C10_17 
REMARK    8  A    between atoms: C10_17  and  C11_18 
REMARK    9  A    between atoms: C11_18  and  S2_19 
REMARK   10  A    between atoms: S2_19  and  C12_20 
REMARK   11  A    between atoms: C15_24  and  O5_25 
REMARK   12  A    between atoms: C16_27  and  O6_28 
REMARK   13  A    between atoms: C17_30  and  O7_31 
ROOT
HETATM    1  C1  UNL     1      -0.673 -35.596 -17.043  1.00  0.00     0.012 C 
HETATM    2  C2  UNL     1      -1.185 -35.581 -15.952  1.00  0.00    -0.107 C 
HETATM    3  C3  UNL     1      -1.837 -35.566 -14.618  1.00  0.00     0.127 C 
HETATM    4  C4  UNL     1      -3.219 -35.000 -14.693  1.00  0.00     0.168 C 
HETATM    5  C5  UNL     1      -3.261 -33.772 -13.831  1.00  0.00     0.185 C 
HETATM    6  C6  UNL     1      -2.005 -33.784 -13.051  1.00  0.00     0.119 C 
HETATM    7  C7  UNL     1      -2.086 -34.406 -11.674  1.00  0.00     0.058 C 
HETATM    8  C18 UNL     1      -0.712 -34.977 -11.534  1.00  0.00     0.176 C 
HETATM    9  O8  UNL     1      -0.291 -35.364 -12.796  1.00  0.00    -0.381 OA
HETATM   10  C19 UNL     1      -1.015 -34.661 -13.738  1.00  0.00     0.177 C 
ENDROOT
BRANCH   4  11
HETATM   11  O1  UNL     1      -3.453 -34.616 -16.032  1.00  0.00    -0.392 OA
ATOM     12  H1  UNL     1      -3.590 -35.408 -16.539  1.00  0.00     0.210 HD
ENDBRANCH   4  11
BRANCH   5  13
HETATM   13  O2  UNL     1      -3.223 -32.622 -14.659  1.00  0.00    -0.390 OA
ATOM     14  H2  UNL     1      -2.321 -32.436 -14.891  1.00  0.00     0.210 HD
ENDBRANCH   5  13
BRANCH   6  15
HETATM   15  O3  UNL     1      -1.452 -32.509 -12.917  1.00  0.00    -0.384 OA
ATOM     16  H3  UNL     1      -1.032 -32.213 -13.715  1.00  0.00     0.210 HD
ENDBRANCH   6  15
BRANCH   7  17
HETATM   17  C8  UNL     1      -3.143 -35.421 -11.528  1.00  0.00     0.083 C 
BRANCH  17  18
HETATM   18  S1  UNL     1      -2.533 -37.021 -11.086  1.00  0.00    -0.169 SA
BRANCH  18  19
HETATM   19  C9  UNL     1      -2.920 -38.423 -12.063  1.00  0.00     0.074 C 
BRANCH  19  20
HETATM   20  C10 UNL     1      -4.249 -38.355 -12.759  1.00  0.00     0.020 C 
BRANCH  20  21
HETATM   21  C11 UNL     1      -4.019 -38.669 -14.254  1.00  0.00     0.077 C 
BRANCH  21  22
HETATM   22  S2  UNL     1      -4.662 -40.332 -14.591  1.00  0.00    -0.135 SA
BRANCH  22  23
HETATM   23  C12 UNL     1      -5.671 -40.211 -16.118  1.00  0.00     0.214 C 
HETATM   24  O4  UNL     1      -6.558 -41.243 -16.209  1.00  0.00    -0.365 OA
HETATM   25  C13 UNL     1      -7.871 -40.909 -16.405  1.00  0.00     0.150 C 
HETATM   26  C14 UNL     1      -8.736 -42.140 -16.281  1.00  0.00     0.042 C 
HETATM   27  C15 UNL     1      -8.249 -39.907 -15.309  1.00  0.00     0.178 C 
HETATM   28  C16 UNL     1      -7.566 -38.609 -15.682  1.00  0.00     0.181 C 
HETATM   29  C17 UNL     1      -6.199 -38.837 -16.273  1.00  0.00     0.188 C 
BRANCH  27  30
HETATM   30  O5  UNL     1      -7.785 -40.302 -14.074  1.00  0.00    -0.390 OA
ATOM     31  H5  UNL     1      -6.932 -40.717 -14.134  1.00  0.00     0.210 HD
ENDBRANCH  27  30
BRANCH  28  32
HETATM   32  O6  UNL     1      -8.351 -38.025 -16.685  1.00  0.00    -0.390 OA
ATOM     33  H6  UNL     1      -7.888 -37.245 -16.966  1.00  0.00     0.210 HD
ENDBRANCH  28  32
BRANCH  29  34
HETATM   34  O7  UNL     1      -6.116 -38.409 -17.605  1.00  0.00    -0.389 OA
ATOM     35  H7  UNL     1      -6.957 -38.476 -18.041  1.00  0.00     0.210 HD
ENDBRANCH  29  34
ENDBRANCH  22  23
ENDBRANCH  21  22
ENDBRANCH  20  21
ENDBRANCH  19  20
ENDBRANCH  18  19
ENDBRANCH  17  18
ENDBRANCH   7  17
TORSDOF 13
ENDMDL
MODEL 2
REMARK VINA RESULT: -6.536705252      1.336      1.818
REMARK  13 active torsions:
REMARK  status: ('A' for Active; 'I' for Inactive)
REMARK    1  A    between atoms: C4_4  and  O1_5 
REMARK    2  A    between atoms: C5_7  and  O2_8 
REMARK    3  A    between atoms: C6_10  and  O3_11 
REMARK    4  A    between atoms: C7_13  and  C8_14 
REMARK    5  A    between atoms: C8_14  and  S1_15 
REMARK    6  A    between atoms: S1_15  and  C9_16 
REMARK    7  A    between atoms: C9_16  and  C10_17 
REMARK    8  A    between atoms: C10_17  and  C11_18 
REMARK    9  A    between atoms: C11_18  and  S2_19 
REMARK   10  A    between atoms: S2_19  and  C12_20 
REMARK   11  A    between atoms: C15_24  and  O5_25 
REMARK   12  A    between atoms: C16_27  and  O6_28 
REMARK   13  A    between atoms: C17_30  and  O7_31 
ROOT
HETATM    1  C1  UNL     1      -0.668 -35.832 -16.756  1.00  0.00     0.012 C 
HETATM    2  C2  UNL     1      -1.146 -35.663 -15.662  1.00  0.00    -0.107 C 
HETATM    3  C3  UNL     1      -1.756 -35.459 -14.324  1.00  0.00     0.127 C 
HETATM    4  C4  UNL     1      -3.144 -34.914 -14.436  1.00  0.00     0.168 C 
HETATM    5  C5  UNL     1      -3.169 -33.575 -13.757  1.00  0.00     0.185 C 
HETATM    6  C6  UNL     1      -1.889 -33.472 -13.023  1.00  0.00     0.119 C 
HETATM    7  C7  UNL     1      -1.923 -33.890 -11.570  1.00  0.00     0.058 C 
HETATM    8  C18 UNL     1      -0.541 -34.431 -11.393  1.00  0.00     0.176 C 
HETATM    9  O8  UNL     1      -0.156 -34.993 -12.600  1.00  0.00    -0.381 OA
HETATM   10  C19 UNL     1      -0.914 -34.435 -13.609  1.00  0.00     0.177 C 
ENDROOT
BRANCH   4  11
HETATM   11  O1  UNL     1      -3.423 -34.726 -15.807  1.00  0.00    -0.392 OA
ATOM     12  H1  UNL     1      -4.350 -34.538 -15.890  1.00  0.00     0.210 HD
ENDBRANCH   4  11
BRANCH   5  13
HETATM   13  O2  UNL     1      -3.165 -32.555 -14.741  1.00  0.00    -0.390 OA
ATOM     14  H2  UNL     1      -2.699 -31.799 -14.404  1.00  0.00     0.210 HD
ENDBRANCH   5  13
BRANCH   6  15
HETATM   15  O3  UNL     1      -1.343 -32.188 -13.090  1.00  0.00    -0.384 OA
ATOM     16  H3  UNL     1      -0.648 -32.059 -12.456  1.00  0.00     0.210 HD
ENDBRANCH   6  15
BRANCH   7  17
HETATM   17  C8  UNL     1      -2.967 -34.877 -11.247  1.00  0.00     0.083 C 
BRANCH  17  18
HETATM   18  S1  UNL     1      -2.474 -36.056 -10.023  1.00  0.00    -0.169 SA
BRANCH  18  19
HETATM   19  C9  UNL     1      -2.728 -37.770 -10.286  1.00  0.00     0.074 C 
BRANCH  19  20
HETATM   20  C10 UNL     1      -3.610 -38.102 -11.455  1.00  0.00     0.020 C 
BRANCH  20  21
HETATM   21  C11 UNL     1      -5.027 -38.390 -10.913  1.00  0.00     0.077 C 
BRANCH  21  22
HETATM   22  S2  UNL     1      -5.947 -39.301 -12.185  1.00  0.00    -0.135 SA
BRANCH  22  23
HETATM   23  C12 UNL     1      -4.956 -39.207 -13.727  1.00  0.00     0.214 C 
HETATM   24  O4  UNL     1      -4.600 -40.448 -14.165  1.00  0.00    -0.365 OA
HETATM   25  C13 UNL     1      -4.911 -40.754 -15.462  1.00  0.00     0.150 C 
HETATM   26  C14 UNL     1      -4.636 -42.215 -15.723  1.00  0.00     0.042 C 
HETATM   27  C15 UNL     1      -6.407 -40.475 -15.645  1.00  0.00     0.178 C 
HETATM   28  C16 UNL     1      -6.546 -38.968 -15.666  1.00  0.00     0.181 C 
HETATM   29  C17 UNL     1      -5.609 -38.298 -14.696  1.00  0.00     0.188 C 
BRANCH  27  30
HETATM   30  O5  UNL     1      -7.150 -40.964 -14.595  1.00  0.00    -0.390 OA
ATOM     31  H5  UNL     1      -7.651 -40.280 -14.168  1.00  0.00     0.210 HD
ENDBRANCH  27  30
BRANCH  28  32
HETATM   32  O6  UNL     1      -6.166 -38.555 -16.950  1.00  0.00    -0.390 OA
ATOM     33  H6  UNL     1      -6.491 -39.216 -17.550  1.00  0.00     0.210 HD
ENDBRANCH  28  32
BRANCH  29  34
HETATM   34  O7  UNL     1      -4.667 -37.483 -15.340  1.00  0.00    -0.389 OA
ATOM     35  H7  UNL     1      -4.245 -37.944 -16.055  1.00  0.00     0.210 HD
ENDBRANCH  29  34
ENDBRANCH  22  23
ENDBRANCH  21  22
ENDBRANCH  20  21
ENDBRANCH  19  20
ENDBRANCH  18  19
ENDBRANCH  17  18
ENDBRANCH   7  17
TORSDOF 13
ENDMDL
MODEL 3
REMARK VINA RESULT: -6.536311748      1.249      2.094
REMARK  13 active torsions:
REMARK  status: ('A' for Active; 'I' for Inactive)
REMARK    1  A    between atoms: C4_4  and  O1_5 
REMARK    2  A    between atoms: C5_7  and  O2_8 
REMARK    3  A    between atoms: C6_10  and  O3_11 
REMARK    4  A    between atoms: C7_13  and  C8_14 
REMARK    5  A    between atoms: C8_14  and  S1_15 
REMARK    6  A    between atoms: S1_15  and  C9_16 
REMARK    7  A    between atoms: C9_16  and  C10_17 
REMARK    8  A    between atoms: C10_17  and  C11_18 
REMARK    9  A    between atoms: C11_18  and  S2_19 
REMARK   10  A    between atoms: S2_19  and  C12_20 
REMARK   11  A    between atoms: C15_24  and  O5_25 
REMARK   12  A    between atoms: C16_27  and  O6_28 
REMARK   13  A    between atoms: C17_30  and  O7_31 
ROOT
HETATM    1  C1  UNL     1      -0.590 -35.621 -17.020  1.00  0.00     0.012 C 
HETATM    2  C2  UNL     1      -1.085 -35.558 -15.923  1.00  0.00    -0.107 C 
HETATM    3  C3  UNL     1      -1.716 -35.485 -14.581  1.00  0.00     0.127 C 
HETATM    4  C4  UNL     1      -3.116 -34.968 -14.665  1.00  0.00     0.168 C 
HETATM    5  C5  UNL     1      -3.184 -33.693 -13.875  1.00  0.00     0.185 C 
HETATM    6  C6  UNL     1      -1.916 -33.621 -13.118  1.00  0.00     0.119 C 
HETATM    7  C7  UNL     1      -1.956 -34.162 -11.705  1.00  0.00     0.058 C 
HETATM    8  C18 UNL     1      -0.562 -34.682 -11.556  1.00  0.00     0.176 C 
HETATM    9  O8  UNL     1      -0.148 -35.128 -12.801  1.00  0.00    -0.381 OA
HETATM   10  C19 UNL     1      -0.909 -34.505 -13.770  1.00  0.00     0.177 C 
ENDROOT
BRANCH   4  11
HETATM   11  O1  UNL     1      -3.384 -34.671 -16.019  1.00  0.00    -0.392 OA
ATOM     12  H1  UNL     1      -3.936 -35.363 -16.363  1.00  0.00     0.210 HD
ENDBRANCH   4  11
BRANCH   5  13
HETATM   13  O2  UNL     1      -3.196 -32.593 -14.768  1.00  0.00    -0.390 OA
ATOM     14  H2  UNL     1      -3.941 -32.038 -14.569  1.00  0.00     0.210 HD
ENDBRANCH   5  13
BRANCH   6  15
HETATM   15  O3  UNL     1      -1.403 -32.323 -13.068  1.00  0.00    -0.384 OA
ATOM     16  H3  UNL     1      -0.823 -32.136 -13.796  1.00  0.00     0.210 HD
ENDBRANCH   6  15
BRANCH   7  17
HETATM   17  C8  UNL     1      -2.977 -35.199 -11.482  1.00  0.00     0.083 C 
BRANCH  17  18
HETATM   18  S1  UNL     1      -2.604 -36.283 -10.135  1.00  0.00    -0.169 SA
BRANCH  18  19
HETATM   19  C9  UNL     1      -1.976 -37.891 -10.433  1.00  0.00     0.074 C 
BRANCH  19  20
HETATM   20  C10 UNL     1      -1.876 -38.266 -11.884  1.00  0.00     0.020 C 
BRANCH  20  21
HETATM   21  C11 UNL     1      -3.191 -38.973 -12.283  1.00  0.00     0.077 C 
BRANCH  21  22
HETATM   22  S2  UNL     1      -3.424 -38.773 -14.071  1.00  0.00    -0.135 SA
BRANCH  22  23
HETATM   23  C12 UNL     1      -5.192 -38.358 -14.333  1.00  0.00     0.214 C 
HETATM   24  O4  UNL     1      -5.490 -38.272 -15.661  1.00  0.00    -0.365 OA
HETATM   25  C13 UNL     1      -6.543 -39.027 -16.104  1.00  0.00     0.150 C 
HETATM   26  C14 UNL     1      -6.610 -38.976 -17.612  1.00  0.00     0.042 C 
HETATM   27  C15 UNL     1      -6.284 -40.469 -15.653  1.00  0.00     0.178 C 
HETATM   28  C16 UNL     1      -6.530 -40.486 -14.160  1.00  0.00     0.181 C 
HETATM   29  C17 UNL     1      -6.049 -39.224 -13.493  1.00  0.00     0.188 C 
BRANCH  27  30
HETATM   30  O5  UNL     1      -4.981 -40.850 -15.882  1.00  0.00    -0.390 OA
ATOM     31  H5  UNL     1      -4.375 -40.129 -15.755  1.00  0.00     0.210 HD
ENDBRANCH  27  30
BRANCH  28  32
HETATM   32  O6  UNL     1      -7.921 -40.530 -13.991  1.00  0.00    -0.390 OA
ATOM     33  H6  UNL     1      -8.090 -40.244 -13.101  1.00  0.00     0.210 HD
ENDBRANCH  28  32
BRANCH  29  34
HETATM   34  O7  UNL     1      -7.096 -38.494 -12.913  1.00  0.00    -0.389 OA
ATOM     35  H7  UNL     1      -7.425 -38.925 -12.134  1.00  0.00     0.210 HD
ENDBRANCH  29  34
ENDBRANCH  22  23
ENDBRANCH  21  22
ENDBRANCH  20  21
ENDBRANCH  19  20
ENDBRANCH  18  19
ENDBRANCH  17  18
ENDBRANCH   7  17
TORSDOF 13
ENDMDL
MODEL 4
REMARK VINA RESULT: -6.511290737      4.279      7.472
REMARK  13 active torsions:
REMARK  status: ('A' for Active; 'I' for Inactive)
REMARK    1  A    between atoms: C4_4  and  O1_5 
REMARK    2  A    between atoms: C5_7  and  O2_8 
REMARK    3  A    between atoms: C6_10  and  O3_11 
REMARK    4  A    between atoms: C7_13  and  C8_14 
REMARK    5  A    between atoms: C8_14  and  S1_15 
REMARK    6  A    between atoms: S1_15  and  C9_16 
REMARK    7  A    between atoms: C9_16  and  C10_17 
REMARK    8  A    between atoms: C10_17  and  C11_18 
REMARK    9  A    between atoms: C11_18  and  S2_19 
REMARK   10  A    between atoms: S2_19  and  C12_20 
REMARK   11  A    between atoms: C15_24  and  O5_25 
REMARK   12  A    between atoms: C16_27  and  O6_28 
REMARK   13  A    between atoms: C17_30  and  O7_31 
ROOT
HETATM    1  C1  UNL     1      -0.564 -35.611 -17.056  1.00  0.00     0.012 C 
HETATM    2  C2  UNL     1      -1.087 -35.546 -15.972  1.00  0.00    -0.107 C 
HETATM    3  C3  UNL     1      -1.753 -35.470 -14.648  1.00  0.00     0.127 C 
HETATM    4  C4  UNL     1      -3.132 -34.905 -14.762  1.00  0.00     0.168 C 
HETATM    5  C5  UNL     1      -3.180 -33.639 -13.956  1.00  0.00     0.185 C 
HETATM    6  C6  UNL     1      -1.931 -33.620 -13.163  1.00  0.00     0.119 C 
HETATM    7  C7  UNL     1      -2.029 -34.179 -11.760  1.00  0.00     0.058 C 
HETATM    8  C18 UNL     1      -0.658 -34.748 -11.581  1.00  0.00     0.176 C 
HETATM    9  O8  UNL     1      -0.225 -35.191 -12.820  1.00  0.00    -0.381 OA
HETATM   10  C19 UNL     1      -0.937 -34.529 -13.800  1.00  0.00     0.177 C 
ENDROOT
BRANCH   4  11
HETATM   11  O1  UNL     1      -3.352 -34.581 -16.119  1.00  0.00    -0.392 OA
ATOM     12  H1  UNL     1      -2.847 -33.800 -16.314  1.00  0.00     0.210 HD
ENDBRANCH   4  11
BRANCH   5  13
HETATM   13  O2  UNL     1      -3.130 -32.528 -14.833  1.00  0.00    -0.390 OA
ATOM     14  H2  UNL     1      -3.196 -31.727 -14.326  1.00  0.00     0.210 HD
ENDBRANCH   5  13
BRANCH   6  15
HETATM   15  O3  UNL     1      -1.377 -32.341 -13.080  1.00  0.00    -0.384 OA
ATOM     16  H3  UNL     1      -2.041 -31.663 -13.050  1.00  0.00     0.210 HD
ENDBRANCH   6  15
BRANCH   7  17
HETATM   17  C8  UNL     1      -3.090 -35.185 -11.581  1.00  0.00     0.083 C 
BRANCH  17  18
HETATM   18  S1  UNL     1      -2.780 -36.314 -10.255  1.00  0.00    -0.169 SA
BRANCH  18  19
HETATM   19  C9  UNL     1      -3.442 -37.936 -10.294  1.00  0.00     0.074 C 
BRANCH  19  20
HETATM   20  C10 UNL     1      -2.427 -39.032 -10.141  1.00  0.00     0.020 C 
BRANCH  20  21
HETATM   21  C11 UNL     1      -2.531 -39.577  -8.698  1.00  0.00     0.077 C 
BRANCH  21  22
HETATM   22  S2  UNL     1      -1.085 -39.000  -7.767  1.00  0.00    -0.135 SA
BRANCH  22  23
HETATM   23  C12 UNL     1       0.144 -38.419  -9.000  1.00  0.00     0.214 C 
HETATM   24  O4  UNL     1       0.360 -37.077  -8.892  1.00  0.00    -0.365 OA
HETATM   25  C13 UNL     1       1.661 -36.673  -8.755  1.00  0.00     0.150 C 
HETATM   26  C14 UNL     1       1.708 -35.196  -8.446  1.00  0.00     0.042 C 
HETATM   27  C15 UNL     1       2.255 -37.460  -7.581  1.00  0.00     0.178 C 
HETATM   28  C16 UNL     1       2.447 -38.874  -8.086  1.00  0.00     0.181 C 
HETATM   29  C17 UNL     1       1.328 -39.307  -8.997  1.00  0.00     0.188 C 
BRANCH  27  30
HETATM   30  O5  UNL     1       1.398 -37.496  -6.505  1.00  0.00    -0.390 OA
ATOM     31  H5  UNL     1       1.261 -38.383  -6.193  1.00  0.00     0.210 HD
ENDBRANCH  27  30
BRANCH  28  32
HETATM   32  O6  UNL     1       3.617 -38.861  -8.857  1.00  0.00    -0.390 OA
ATOM     33  H6  UNL     1       3.385 -38.461  -9.687  1.00  0.00     0.210 HD
ENDBRANCH  28  32
BRANCH  29  34
HETATM   34  O7  UNL     1       1.772 -39.567 -10.301  1.00  0.00    -0.389 OA
ATOM     35  H7  UNL     1       2.712 -39.456 -10.372  1.00  0.00     0.210 HD
ENDBRANCH  29  34
ENDBRANCH  22  23
ENDBRANCH  21  22
ENDBRANCH  20  21
ENDBRANCH  19  20
ENDBRANCH  18  19
ENDBRANCH  17  18
ENDBRANCH   7  17
TORSDOF 13
ENDMDL
MODEL 5
REMARK VINA RESULT: -6.497219257      1.083      1.559
REMARK  13 active torsions:
REMARK  status: ('A' for Active; 'I' for Inactive)
REMARK    1  A    between atoms: C4_4  and  O1_5 
REMARK    2  A    between atoms: C5_7  and  O2_8 
REMARK    3  A    between atoms: C6_10  and  O3_11 
REMARK    4  A    between atoms: C7_13  and  C8_14 
REMARK    5  A    between atoms: C8_14  and  S1_15 
REMARK    6  A    between atoms: S1_15  and  C9_16 
REMARK    7  A    between atoms: C9_16  and  C10_17 
REMARK    8  A    between atoms: C10_17  and  C11_18 
REMARK    9  A    between atoms: C11_18  and  S2_19 
REMARK   10  A    between atoms: S2_19  and  C12_20 
REMARK   11  A    between atoms: C15_24  and  O5_25 
REMARK   12  A    between atoms: C16_27  and  O6_28 
REMARK   13  A    between atoms: C17_30  and  O7_31 
ROOT
HETATM    1  C1  UNL     1      -0.632 -35.603 -17.081  1.00  0.00     0.012 C 
HETATM    2  C2  UNL     1      -1.144 -35.542 -15.991  1.00  0.00    -0.107 C 
HETATM    3  C3  UNL     1      -1.795 -35.471 -14.658  1.00  0.00     0.127 C 
HETATM    4  C4  UNL     1      -3.169 -34.890 -14.753  1.00  0.00     0.168 C 
HETATM    5  C5  UNL     1      -3.195 -33.632 -13.935  1.00  0.00     0.185 C 
HETATM    6  C6  UNL     1      -1.938 -33.633 -13.156  1.00  0.00     0.119 C 
HETATM    7  C7  UNL     1      -2.028 -34.204 -11.757  1.00  0.00     0.058 C 
HETATM    8  C18 UNL     1      -0.661 -34.788 -11.597  1.00  0.00     0.176 C 
HETATM    9  O8  UNL     1      -0.245 -35.225 -12.845  1.00  0.00    -0.381 OA
HETATM   10  C19 UNL     1      -0.960 -34.547 -13.811  1.00  0.00     0.177 C 
ENDROOT
BRANCH   4  11
HETATM   11  O1  UNL     1      -3.399 -34.551 -16.105  1.00  0.00    -0.392 OA
ATOM     12  H1  UNL     1      -4.338 -34.569 -16.251  1.00  0.00     0.210 HD
ENDBRANCH   4  11
BRANCH   5  13
HETATM   13  O2  UNL     1      -3.142 -32.513 -14.803  1.00  0.00    -0.390 OA
ATOM     14  H2  UNL     1      -3.749 -32.648 -15.522  1.00  0.00     0.210 HD
ENDBRANCH   5  13
BRANCH   6  15
HETATM   15  O3  UNL     1      -1.370 -32.361 -13.067  1.00  0.00    -0.384 OA
ATOM     16  H3  UNL     1      -0.666 -32.237 -13.692  1.00  0.00     0.210 HD
ENDBRANCH   6  15
BRANCH   7  17
HETATM   17  C8  UNL     1      -3.097 -35.200 -11.576  1.00  0.00     0.083 C 
BRANCH  17  18
HETATM   18  S1  UNL     1      -2.560 -36.678 -10.766  1.00  0.00    -0.169 SA
BRANCH  18  19
HETATM   19  C9  UNL     1      -2.731 -38.235 -11.551  1.00  0.00     0.074 C 
BRANCH  19  20
HETATM   20  C10 UNL     1      -3.535 -38.213 -12.819  1.00  0.00     0.020 C 
BRANCH  20  21
HETATM   21  C11 UNL     1      -4.464 -39.448 -12.813  1.00  0.00     0.077 C 
BRANCH  21  22
HETATM   22  S2  UNL     1      -6.179 -38.868 -12.696  1.00  0.00    -0.135 SA
BRANCH  22  23
HETATM   23  C12 UNL     1      -6.622 -38.184 -14.340  1.00  0.00     0.214 C 
HETATM   24  O4  UNL     1      -6.021 -38.882 -15.346  1.00  0.00    -0.365 OA
HETATM   25  C13 UNL     1      -6.838 -39.358 -16.336  1.00  0.00     0.150 C 
HETATM   26  C14 UNL     1      -6.055 -40.268 -17.251  1.00  0.00     0.042 C 
HETATM   27  C15 UNL     1      -7.954 -40.157 -15.654  1.00  0.00     0.178 C 
HETATM   28  C16 UNL     1      -8.859 -39.131 -15.006  1.00  0.00     0.181 C 
HETATM   29  C17 UNL     1      -8.084 -37.976 -14.428  1.00  0.00     0.188 C 
BRANCH  27  30
HETATM   30  O5  UNL     1      -7.462 -40.984 -14.670  1.00  0.00    -0.390 OA
ATOM     31  H5  UNL     1      -6.910 -40.513 -14.057  1.00  0.00     0.210 HD
ENDBRANCH  27  30
BRANCH  28  32
HETATM   32  O6  UNL     1      -9.661 -38.611 -16.030  1.00  0.00    -0.390 OA
ATOM     33  H6  UNL     1     -10.557 -38.653 -15.715  1.00  0.00     0.210 HD
ENDBRANCH  28  32
BRANCH  29  34
HETATM   34  O7  UNL     1      -8.387 -36.762 -15.059  1.00  0.00    -0.389 OA
ATOM     35  H7  UNL     1      -9.171 -36.836 -15.590  1.00  0.00     0.210 HD
ENDBRANCH  29  34
ENDBRANCH  22  23
ENDBRANCH  21  22
ENDBRANCH  20  21
ENDBRANCH  19  20
ENDBRANCH  18  19
ENDBRANCH  17  18
ENDBRANCH   7  17
TORSDOF 13
ENDMDL
