MODEL 1
REMARK VINA RESULT: -6.643447062      0.000      0.000
REMARK  10 active torsions:
REMARK  status: ('A' for Active; 'I' for Inactive)
REMARK    1  A    between atoms: C2_3  and  C3_4 
REMARK       I    between atoms: C3_4  and  N2_6 
REMARK    2  A    between atoms: N2_6  and  C4_8 
REMARK    3  A    between atoms: C4_8  and  C5_9 
REMARK    4  A    between atoms: C6_11  and  O3_12 
REMARK    5  A    between atoms: O3_12  and  C7_13 
REMARK    6  A    between atoms: C12_18  and  N3_19 
REMARK       I    between atoms: N3_19  and  C13_21 
REMARK    7  A    between atoms: C13_21  and  C14_23 
REMARK    8  A    between atoms: C17_30  and  O5_31 
REMARK    9  A    between atoms: C18_33  and  O6_34 
REMARK   10  A    between atoms: C19_36  and  O7_37 
ROOT
HETATM    1  N1  UNL     1      -2.154 -35.295 -18.711  1.00  0.00    -0.197 NA
HETATM    2  C1  UNL     1      -2.435 -34.499 -17.915  1.00  0.00     0.068 C 
HETATM    3  C2  UNL     1      -2.813 -33.498 -16.914  1.00  0.00     0.226 C 
ENDROOT
BRANCH   3   4
HETATM    4  C3  UNL     1      -3.167 -34.211 -15.632  1.00  0.00     0.230 C 
HETATM    5  O1  UNL     1      -3.669 -33.592 -14.675  1.00  0.00    -0.273 OA
HETATM    6  N2  UNL     1      -2.914 -35.598 -15.539  1.00  0.00    -0.358 N 
ATOM      7  H2  UNL     1      -2.500 -36.071 -16.343  1.00  0.00     0.162 HD
BRANCH   6   8
HETATM    8  C4  UNL     1      -3.206 -36.367 -14.384  1.00  0.00     0.157 C 
BRANCH   8   9
HETATM    9  C5  UNL     1      -2.056 -36.830 -13.558  1.00  0.00     0.173 C 
HETATM   10  O2  UNL     1      -2.477 -37.906 -12.828  1.00  0.00    -0.349 OA
HETATM   11  C6  UNL     1      -2.776 -37.743 -11.519  1.00  0.00     0.292 C 
HETATM   12  C17 UNL     1      -3.176 -36.358 -11.084  1.00  0.00     0.204 C 
HETATM   13  C18 UNL     1      -2.240 -35.307 -11.571  1.00  0.00     0.183 C 
HETATM   14  C19 UNL     1      -1.405 -35.768 -12.719  1.00  0.00     0.180 C 
BRANCH  11  15
HETATM   15  O3  UNL     1      -3.723 -38.694 -11.163  1.00  0.00    -0.351 OA
BRANCH  15  16
HETATM   16  C7  UNL     1      -5.009 -38.405 -11.482  1.00  0.00     0.147 C 
HETATM   17  C8  UNL     1      -5.565 -39.217 -12.633  1.00  0.00     0.034 C 
HETATM   18  C9  UNL     1      -6.911 -38.596 -12.968  1.00  0.00     0.003 C 
HETATM   19  C10 UNL     1      -7.878 -38.794 -11.829  1.00  0.00     0.002 C 
HETATM   20  C11 UNL     1      -7.318 -38.305 -10.515  1.00  0.00     0.028 C 
HETATM   21  C12 UNL     1      -5.886 -38.733 -10.293  1.00  0.00     0.113 C 
BRANCH  21  22
HETATM   22  N3  UNL     1      -5.444 -38.153  -9.059  1.00  0.00    -0.351 N 
HETATM   23  C13 UNL     1      -5.191 -38.897  -7.883  1.00  0.00     0.259 C 
HETATM   24  O4  UNL     1      -5.361 -40.134  -7.905  1.00  0.00    -0.270 OA
ATOM     25  H3  UNL     1      -5.303 -37.144  -9.027  1.00  0.00     0.163 HD
BRANCH  23  26
HETATM   26  C14 UNL     1      -4.745 -38.230  -6.673  1.00  0.00     0.338 C 
HETATM   27  N4  UNL     1      -3.420 -37.706  -6.715  1.00  0.00    -0.053 N 
HETATM   28  C15 UNL     1      -2.466 -38.733  -6.434  1.00  0.00     0.244 C 
ATOM     29  H42 UNL     1      -3.225 -37.239  -7.600  1.00  0.00     0.279 HD
ATOM     30  H41 UNL     1      -3.309 -36.906  -6.092  1.00  0.00     0.279 HD
HETATM   31  C16 UNL     1      -2.803 -39.304  -5.047  1.00  0.00     0.104 C 
HETATM   32  S1  UNL     1      -4.632 -39.389  -5.248  1.00  0.00    -0.125 SA
ENDBRANCH  23  26
ENDBRANCH  21  22
ENDBRANCH  15  16
ENDBRANCH  11  15
BRANCH  12  33
HETATM   33  O5  UNL     1      -3.153 -36.380  -9.667  1.00  0.00    -0.388 OA
ATOM     34  H5  UNL     1      -3.289 -37.288  -9.422  1.00  0.00     0.210 HD
ENDBRANCH  12  33
BRANCH  13  35
HETATM   35  O6  UNL     1      -2.903 -34.098 -11.861  1.00  0.00    -0.390 OA
ATOM     36  H6  UNL     1      -3.070 -33.585 -11.080  1.00  0.00     0.210 HD
ENDBRANCH  13  35
BRANCH  14  37
HETATM   37  O7  UNL     1      -0.971 -34.679 -13.423  1.00  0.00    -0.390 OA
ATOM     38  H7  UNL     1      -1.667 -34.141 -13.781  1.00  0.00     0.210 HD
ENDBRANCH  14  37
ENDBRANCH   8   9
ENDBRANCH   6   8
ENDBRANCH   3   4
TORSDOF 10
ENDMDL
MODEL 2
REMARK VINA RESULT: -6.441422259      2.432      4.393
REMARK  10 active torsions:
REMARK  status: ('A' for Active; 'I' for Inactive)
REMARK    1  A    between atoms: C2_3  and  C3_4 
REMARK       I    between atoms: C3_4  and  N2_6 
REMARK    2  A    between atoms: N2_6  and  C4_8 
REMARK    3  A    between atoms: C4_8  and  C5_9 
REMARK    4  A    between atoms: C6_11  and  O3_12 
REMARK    5  A    between atoms: O3_12  and  C7_13 
REMARK    6  A    between atoms: C12_18  and  N3_19 
REMARK       I    between atoms: N3_19  and  C13_21 
REMARK    7  A    between atoms: C13_21  and  C14_23 
REMARK    8  A    between atoms: C17_30  and  O5_31 
REMARK    9  A    between atoms: C18_33  and  O6_34 
REMARK   10  A    between atoms: C19_36  and  O7_37 
ROOT
HETATM    1  N1  UNL     1      -2.383 -34.110 -18.516  1.00  0.00    -0.197 NA
HETATM    2  C1  UNL     1      -1.511 -34.754 -18.102  1.00  0.00     0.068 C 
HETATM    3  C2  UNL     1      -0.399 -35.547 -17.570  1.00  0.00     0.226 C 
ENDROOT
BRANCH   3   4
HETATM    4  C3  UNL     1      -0.636 -35.780 -16.099  1.00  0.00     0.230 C 
HETATM    5  O1  UNL     1      -0.163 -36.779 -15.526  1.00  0.00    -0.273 OA
HETATM    6  N2  UNL     1      -1.411 -34.839 -15.382  1.00  0.00    -0.358 N 
ATOM      7  H2  UNL     1      -1.783 -34.033 -15.886  1.00  0.00     0.162 HD
BRANCH   6   8
HETATM    8  C4  UNL     1      -1.696 -34.957 -13.998  1.00  0.00     0.157 C 
BRANCH   8   9
HETATM    9  C5  UNL     1      -3.127 -35.079 -13.600  1.00  0.00     0.173 C 
HETATM   10  O2  UNL     1      -3.177 -35.072 -12.234  1.00  0.00    -0.349 OA
HETATM   11  C6  UNL     1      -3.357 -36.238 -11.573  1.00  0.00     0.292 C 
HETATM   12  C17 UNL     1      -2.931 -37.494 -12.286  1.00  0.00     0.204 C 
HETATM   13  C18 UNL     1      -3.446 -37.567 -13.683  1.00  0.00     0.183 C 
HETATM   14  C19 UNL     1      -3.863 -36.235 -14.212  1.00  0.00     0.180 C 
BRANCH  11  15
HETATM   15  O3  UNL     1      -2.770 -36.129 -10.320  1.00  0.00    -0.351 OA
BRANCH  15  16
HETATM   16  C7  UNL     1      -1.423 -35.970 -10.303  1.00  0.00     0.147 C 
HETATM   17  C8  UNL     1      -0.961 -34.574  -9.943  1.00  0.00     0.034 C 
HETATM   18  C9  UNL     1       0.537 -34.553 -10.196  1.00  0.00     0.003 C 
HETATM   19  C10 UNL     1       1.244 -35.474  -9.234  1.00  0.00     0.002 C 
HETATM   20  C11 UNL     1       0.666 -36.868  -9.252  1.00  0.00     0.028 C 
HETATM   21  C12 UNL     1      -0.844 -36.877  -9.238  1.00  0.00     0.113 C 
BRANCH  21  22
HETATM   22  N3  UNL     1      -1.274 -38.241  -9.331  1.00  0.00    -0.351 N 
HETATM   23  C13 UNL     1      -1.974 -38.920  -8.306  1.00  0.00     0.259 C 
HETATM   24  O4  UNL     1      -2.240 -38.307  -7.252  1.00  0.00    -0.270 OA
ATOM     25  H3  UNL     1      -1.062 -38.754 -10.187  1.00  0.00     0.163 HD
BRANCH  23  26
HETATM   26  C14 UNL     1      -2.373 -40.305  -8.482  1.00  0.00     0.338 C 
HETATM   27  N4  UNL     1      -3.492 -40.517  -9.339  1.00  0.00    -0.053 N 
HETATM   28  C15 UNL     1      -4.714 -40.313  -8.626  1.00  0.00     0.244 C 
ATOM     29  H42 UNL     1      -3.442 -39.940 -10.178  1.00  0.00     0.279 HD
ATOM     30  H41 UNL     1      -3.461 -41.435  -9.783  1.00  0.00     0.279 HD
HETATM   31  C16 UNL     1      -4.720 -41.291  -7.438  1.00  0.00     0.104 C 
HETATM   32  S1  UNL     1      -2.971 -41.055  -6.912  1.00  0.00    -0.125 SA
ENDBRANCH  23  26
ENDBRANCH  21  22
ENDBRANCH  15  16
ENDBRANCH  11  15
BRANCH  12  33
HETATM   33  O5  UNL     1      -3.475 -38.565 -11.535  1.00  0.00    -0.388 OA
ATOM     34  H5  UNL     1      -3.228 -39.357 -11.999  1.00  0.00     0.210 HD
ENDBRANCH  12  33
BRANCH  13  35
HETATM   35  O6  UNL     1      -2.541 -38.211 -14.549  1.00  0.00    -0.390 OA
ATOM     36  H6  UNL     1      -2.821 -39.092 -14.769  1.00  0.00     0.210 HD
ENDBRANCH  13  35
BRANCH  14  37
HETATM   37  O7  UNL     1      -3.831 -36.266 -15.578  1.00  0.00    -0.390 OA
ATOM     38  H7  UNL     1      -2.968 -36.134 -15.953  1.00  0.00     0.210 HD
ENDBRANCH  14  37
ENDBRANCH   8   9
ENDBRANCH   6   8
ENDBRANCH   3   4
TORSDOF 10
ENDMDL
MODEL 3
REMARK VINA RESULT: -6.214749320      3.482      6.335
REMARK  10 active torsions:
REMARK  status: ('A' for Active; 'I' for Inactive)
REMARK    1  A    between atoms: C2_3  and  C3_4 
REMARK       I    between atoms: C3_4  and  N2_6 
REMARK    2  A    between atoms: N2_6  and  C4_8 
REMARK    3  A    between atoms: C4_8  and  C5_9 
REMARK    4  A    between atoms: C6_11  and  O3_12 
REMARK    5  A    between atoms: O3_12  and  C7_13 
REMARK    6  A    between atoms: C12_18  and  N3_19 
REMARK       I    between atoms: N3_19  and  C13_21 
REMARK    7  A    between atoms: C13_21  and  C14_23 
REMARK    8  A    between atoms: C17_30  and  O5_31 
REMARK    9  A    between atoms: C18_33  and  O6_34 
REMARK   10  A    between atoms: C19_36  and  O7_37 
ROOT
HETATM    1  N1  UNL     1      -1.639 -30.340  -9.552  1.00  0.00    -0.197 NA
HETATM    2  C1  UNL     1      -1.487 -31.468  -9.778  1.00  0.00     0.068 C 
HETATM    3  C2  UNL     1      -1.318 -32.898 -10.055  1.00  0.00     0.226 C 
ENDROOT
BRANCH   3   4
HETATM    4  C3  UNL     1      -2.032 -33.225 -11.343  1.00  0.00     0.230 C 
HETATM    5  O1  UNL     1      -3.182 -33.702 -11.331  1.00  0.00    -0.273 OA
HETATM    6  N2  UNL     1      -1.365 -32.981 -12.566  1.00  0.00    -0.358 N 
ATOM      7  H2  UNL     1      -0.423 -32.591 -12.535  1.00  0.00     0.162 HD
BRANCH   6   8
HETATM    8  C4  UNL     1      -1.941 -33.250 -13.833  1.00  0.00     0.157 C 
BRANCH   8   9
HETATM    9  C5  UNL     1      -2.507 -34.611 -14.055  1.00  0.00     0.173 C 
HETATM   10  O2  UNL     1      -1.467 -35.497 -14.047  1.00  0.00    -0.349 OA
HETATM   11  C6  UNL     1      -1.005 -35.985 -15.221  1.00  0.00     0.292 C 
HETATM   12  C17 UNL     1      -1.243 -35.142 -16.446  1.00  0.00     0.204 C 
HETATM   13  C18 UNL     1      -2.653 -34.676 -16.560  1.00  0.00     0.183 C 
HETATM   14  C19 UNL     1      -3.388 -34.746 -15.263  1.00  0.00     0.180 C 
BRANCH  11  15
HETATM   15  O3  UNL     1       0.337 -36.308 -15.065  1.00  0.00    -0.351 OA
BRANCH  15  16
HETATM   16  C7  UNL     1       0.681 -37.587 -15.354  1.00  0.00     0.147 C 
HETATM   17  C8  UNL     1       2.124 -37.766 -15.779  1.00  0.00     0.034 C 
HETATM   18  C9  UNL     1       2.239 -39.202 -16.262  1.00  0.00     0.003 C 
HETATM   19  C10 UNL     1       2.033 -40.160 -15.116  1.00  0.00     0.002 C 
HETATM   20  C11 UNL     1       0.745 -39.892 -14.376  1.00  0.00     0.028 C 
HETATM   21  C12 UNL     1       0.519 -38.424 -14.104  1.00  0.00     0.113 C 
BRANCH  21  22
HETATM   22  N3  UNL     1      -0.759 -38.289 -13.468  1.00  0.00    -0.351 N 
HETATM   23  C13 UNL     1      -0.948 -38.302 -12.066  1.00  0.00     0.259 C 
HETATM   24  O4  UNL     1       0.047 -38.439 -11.326  1.00  0.00    -0.270 OA
ATOM     25  H3  UNL     1      -1.580 -38.178 -14.062  1.00  0.00     0.163 HD
BRANCH  23  26
HETATM   26  C14 UNL     1      -2.279 -38.159 -11.503  1.00  0.00     0.338 C 
HETATM   27  N4  UNL     1      -2.634 -36.841 -11.094  1.00  0.00    -0.053 N 
HETATM   28  C15 UNL     1      -2.114 -36.564  -9.792  1.00  0.00     0.244 C 
ATOM     29  H42 UNL     1      -2.342 -36.140 -11.775  1.00  0.00     0.279 HD
ATOM     30  H41 UNL     1      -3.641 -36.688 -11.140  1.00  0.00     0.279 HD
HETATM   31  C16 UNL     1      -2.686 -37.625  -8.836  1.00  0.00     0.104 C 
HETATM   32  S1  UNL     1      -2.465 -39.091  -9.928  1.00  0.00    -0.125 SA
ENDBRANCH  23  26
ENDBRANCH  21  22
ENDBRANCH  15  16
ENDBRANCH  11  15
BRANCH  12  33
HETATM   33  O5  UNL     1      -0.940 -35.976 -17.550  1.00  0.00    -0.388 OA
ATOM     34  H5  UNL     1      -1.250 -36.842 -17.312  1.00  0.00     0.210 HD
ENDBRANCH  12  33
BRANCH  13  35
HETATM   35  O6  UNL     1      -2.744 -33.396 -17.141  1.00  0.00    -0.390 OA
ATOM     36  H6  UNL     1      -3.245 -33.403 -17.948  1.00  0.00     0.210 HD
ENDBRANCH  13  35
BRANCH  14  37
HETATM   37  O7  UNL     1      -4.440 -33.873 -15.295  1.00  0.00    -0.390 OA
ATOM     38  H7  UNL     1      -5.226 -34.221 -15.699  1.00  0.00     0.210 HD
ENDBRANCH  14  37
ENDBRANCH   8   9
ENDBRANCH   6   8
ENDBRANCH   3   4
TORSDOF 10
ENDMDL
MODEL 4
REMARK VINA RESULT: -6.211735254      3.461      5.237
REMARK  10 active torsions:
REMARK  status: ('A' for Active; 'I' for Inactive)
REMARK    1  A    between atoms: C2_3  and  C3_4 
REMARK       I    between atoms: C3_4  and  N2_6 
REMARK    2  A    between atoms: N2_6  and  C4_8 
REMARK    3  A    between atoms: C4_8  and  C5_9 
REMARK    4  A    between atoms: C6_11  and  O3_12 
REMARK    5  A    between atoms: O3_12  and  C7_13 
REMARK    6  A    between atoms: C12_18  and  N3_19 
REMARK       I    between atoms: N3_19  and  C13_21 
REMARK    7  A    between atoms: C13_21  and  C14_23 
REMARK    8  A    between atoms: C17_30  and  O5_31 
REMARK    9  A    between atoms: C18_33  and  O6_34 
REMARK   10  A    between atoms: C19_36  and  O7_37 
ROOT
HETATM    1  N1  UNL     1      -2.134 -35.134 -18.904  1.00  0.00    -0.197 NA
HETATM    2  C1  UNL     1      -2.414 -34.511 -17.967  1.00  0.00     0.068 C 
HETATM    3  C2  UNL     1      -2.791 -33.733 -16.783  1.00  0.00     0.226 C 
ENDROOT
BRANCH   3   4
HETATM    4  C3  UNL     1      -2.706 -34.629 -15.573  1.00  0.00     0.230 C 
HETATM    5  O1  UNL     1      -3.737 -35.022 -14.996  1.00  0.00    -0.273 OA
HETATM    6  N2  UNL     1      -1.428 -35.012 -15.104  1.00  0.00    -0.358 N 
ATOM      7  H2  UNL     1      -0.606 -34.669 -15.602  1.00  0.00     0.162 HD
BRANCH   6   8
HETATM    8  C4  UNL     1      -1.231 -35.850 -13.978  1.00  0.00     0.157 C 
BRANCH   8   9
HETATM    9  C5  UNL     1      -0.521 -35.268 -12.804  1.00  0.00     0.173 C 
HETATM   10  O2  UNL     1      -0.365 -36.263 -11.880  1.00  0.00    -0.349 OA
HETATM   11  C6  UNL     1      -1.182 -36.300 -10.803  1.00  0.00     0.292 C 
HETATM   12  C17 UNL     1      -2.526 -35.637 -10.950  1.00  0.00     0.204 C 
HETATM   13  C18 UNL     1      -2.434 -34.266 -11.525  1.00  0.00     0.183 C 
HETATM   14  C19 UNL     1      -1.143 -34.026 -12.234  1.00  0.00     0.180 C 
BRANCH  11  15
HETATM   15  O3  UNL     1      -1.296 -37.618 -10.382  1.00  0.00    -0.351 OA
BRANCH  15  16
HETATM   16  C7  UNL     1      -0.193 -38.392 -10.535  1.00  0.00     0.147 C 
HETATM   17  C8  UNL     1       0.360 -38.955  -9.242  1.00  0.00     0.034 C 
HETATM   18  C9  UNL     1       1.692 -39.590  -9.602  1.00  0.00     0.003 C 
HETATM   19  C10 UNL     1       1.480 -40.780 -10.504  1.00  0.00     0.002 C 
HETATM   20  C11 UNL     1       0.649 -40.433 -11.717  1.00  0.00     0.028 C 
HETATM   21  C12 UNL     1      -0.559 -39.594 -11.378  1.00  0.00     0.113 C 
BRANCH  21  22
HETATM   22  N3  UNL     1      -1.223 -39.269 -12.606  1.00  0.00    -0.351 N 
HETATM   23  C13 UNL     1      -2.518 -39.724 -12.948  1.00  0.00     0.259 C 
HETATM   24  O4  UNL     1      -3.132 -40.454 -12.142  1.00  0.00    -0.270 OA
ATOM     25  H3  UNL     1      -0.733 -38.675 -13.274  1.00  0.00     0.163 HD
BRANCH  23  26
HETATM   26  C14 UNL     1      -3.119 -39.349 -14.216  1.00  0.00     0.338 C 
HETATM   27  N4  UNL     1      -3.718 -38.056 -14.251  1.00  0.00    -0.053 N 
HETATM   28  C15 UNL     1      -5.037 -38.101 -13.703  1.00  0.00     0.244 C 
ATOM     29  H42 UNL     1      -3.139 -37.356 -13.788  1.00  0.00     0.279 HD
ATOM     30  H41 UNL     1      -3.712 -37.661 -15.191  1.00  0.00     0.279 HD
HETATM   31  C16 UNL     1      -5.842 -39.119 -14.529  1.00  0.00     0.104 C 
HETATM   32  S1  UNL     1      -4.548 -40.424 -14.648  1.00  0.00    -0.125 SA
ENDBRANCH  23  26
ENDBRANCH  21  22
ENDBRANCH  15  16
ENDBRANCH  11  15
BRANCH  12  33
HETATM   33  O5  UNL     1      -3.058 -35.555  -9.639  1.00  0.00    -0.388 OA
ATOM     34  H5  UNL     1      -3.924 -35.176  -9.736  1.00  0.00     0.210 HD
ENDBRANCH  12  33
BRANCH  13  35
HETATM   35  O6  UNL     1      -3.541 -33.956 -12.340  1.00  0.00    -0.390 OA
ATOM     36  H6  UNL     1      -3.923 -33.115 -12.120  1.00  0.00     0.210 HD
ENDBRANCH  13  35
BRANCH  14  37
HETATM   37  O7  UNL     1      -1.308 -33.012 -13.136  1.00  0.00    -0.390 OA
ATOM     38  H7  UNL     1      -1.056 -32.155 -12.813  1.00  0.00     0.210 HD
ENDBRANCH  14  37
ENDBRANCH   8   9
ENDBRANCH   6   8
ENDBRANCH   3   4
TORSDOF 10
ENDMDL
MODEL 5
REMARK VINA RESULT: -6.207674063      3.448      6.114
REMARK  10 active torsions:
REMARK  status: ('A' for Active; 'I' for Inactive)
REMARK    1  A    between atoms: C2_3  and  C3_4 
REMARK       I    between atoms: C3_4  and  N2_6 
REMARK    2  A    between atoms: N2_6  and  C4_8 
REMARK    3  A    between atoms: C4_8  and  C5_9 
REMARK    4  A    between atoms: C6_11  and  O3_12 
REMARK    5  A    between atoms: O3_12  and  C7_13 
REMARK    6  A    between atoms: C12_18  and  N3_19 
REMARK       I    between atoms: N3_19  and  C13_21 
REMARK    7  A    between atoms: C13_21  and  C14_23 
REMARK    8  A    between atoms: C17_30  and  O5_31 
REMARK    9  A    between atoms: C18_33  and  O6_34 
REMARK   10  A    between atoms: C19_36  and  O7_37 
ROOT
HETATM    1  N1  UNL     1       2.505 -39.779 -14.358  1.00  0.00    -0.197 NA
HETATM    2  C1  UNL     1       2.564 -39.097 -15.294  1.00  0.00     0.068 C 
HETATM    3  C2  UNL     1       2.626 -38.251 -16.490  1.00  0.00     0.226 C 
ENDROOT
BRANCH   3   4
HETATM    4  C3  UNL     1       1.345 -37.461 -16.586  1.00  0.00     0.230 C 
HETATM    5  O1  UNL     1       1.056 -36.836 -17.623  1.00  0.00    -0.273 OA
HETATM    6  N2  UNL     1       0.478 -37.442 -15.469  1.00  0.00    -0.358 N 
ATOM      7  H2  UNL     1       0.750 -37.964 -14.635  1.00  0.00     0.162 HD
BRANCH   6   8
HETATM    8  C4  UNL     1      -0.750 -36.733 -15.448  1.00  0.00     0.157 C 
BRANCH   8   9
HETATM    9  C5  UNL     1      -0.683 -35.245 -15.423  1.00  0.00     0.173 C 
HETATM   10  O2  UNL     1      -0.994 -34.839 -14.155  1.00  0.00    -0.349 OA
HETATM   11  C6  UNL     1      -2.226 -34.343 -13.902  1.00  0.00     0.292 C 
HETATM   12  C17 UNL     1      -3.333 -34.775 -14.827  1.00  0.00     0.204 C 
HETATM   13  C18 UNL     1      -2.969 -34.640 -16.266  1.00  0.00     0.183 C 
HETATM   14  C19 UNL     1      -1.494 -34.551 -16.479  1.00  0.00     0.180 C 
BRANCH  11  15
HETATM   15  O3  UNL     1      -2.535 -34.591 -12.571  1.00  0.00    -0.351 OA
BRANCH  15  16
HETATM   16  C7  UNL     1      -1.499 -34.948 -11.773  1.00  0.00     0.147 C 
HETATM   17  C8  UNL     1      -1.337 -34.089 -10.536  1.00  0.00     0.034 C 
HETATM   18  C9  UNL     1      -0.015 -34.505  -9.912  1.00  0.00     0.003 C 
HETATM   19  C10 UNL     1      -0.095 -35.925  -9.412  1.00  0.00     0.002 C 
HETATM   20  C11 UNL     1      -0.564 -36.880 -10.483  1.00  0.00     0.028 C 
HETATM   21  C12 UNL     1      -1.743 -36.352 -11.264  1.00  0.00     0.113 C 
BRANCH  21  22
HETATM   22  N3  UNL     1      -2.049 -37.304 -12.291  1.00  0.00    -0.351 N 
HETATM   23  C13 UNL     1      -3.235 -38.073 -12.326  1.00  0.00     0.259 C 
HETATM   24  O4  UNL     1      -4.076 -37.926 -11.415  1.00  0.00    -0.270 OA
ATOM     25  H3  UNL     1      -1.370 -37.436 -13.040  1.00  0.00     0.163 HD
BRANCH  23  26
HETATM   26  C14 UNL     1      -3.467 -39.018 -13.404  1.00  0.00     0.338 C 
HETATM   27  N4  UNL     1      -3.897 -38.448 -14.638  1.00  0.00    -0.053 N 
HETATM   28  C15 UNL     1      -5.306 -38.213 -14.616  1.00  0.00     0.244 C 
ATOM     29  H42 UNL     1      -3.374 -37.603 -14.868  1.00  0.00     0.279 HD
ATOM     30  H41 UNL     1      -3.620 -39.019 -15.436  1.00  0.00     0.279 HD
HETATM   31  C16 UNL     1      -5.992 -39.564 -14.350  1.00  0.00     0.104 C 
HETATM   32  S1  UNL     1      -4.856 -40.165 -13.031  1.00  0.00    -0.125 SA
ENDBRANCH  23  26
ENDBRANCH  21  22
ENDBRANCH  15  16
ENDBRANCH  11  15
BRANCH  12  33
HETATM   33  O5  UNL     1      -4.426 -33.920 -14.543  1.00  0.00    -0.388 OA
ATOM     34  H5  UNL     1      -4.607 -33.456 -15.352  1.00  0.00     0.210 HD
ENDBRANCH  12  33
BRANCH  13  35
HETATM   35  O6  UNL     1      -3.550 -35.649 -17.058  1.00  0.00    -0.390 OA
ATOM     36  H6  UNL     1      -3.867 -35.314 -17.888  1.00  0.00     0.210 HD
ENDBRANCH  13  35
BRANCH  14  37
HETATM   37  O7  UNL     1      -1.202 -34.936 -17.758  1.00  0.00    -0.390 OA
ATOM     38  H7  UNL     1      -1.911 -35.386 -18.203  1.00  0.00     0.210 HD
ENDBRANCH  14  37
ENDBRANCH   8   9
ENDBRANCH   6   8
ENDBRANCH   3   4
TORSDOF 10
ENDMDL
