MODEL 1
REMARK VINA RESULT: -8.432055475      0.000      0.000
REMARK  9 active torsions:
REMARK  status: ('A' for Active; 'I' for Inactive)
REMARK    1  A    between atoms: O1_2  and  C2_3 
REMARK    2  A    between atoms: C5_6  and  C6_7 
REMARK    3  A    between atoms: C6_7  and  C7_8 
REMARK    4  A    between atoms: C9_12  and  C10_13 
REMARK    5  A    between atoms: C13_16  and  N2_17 
REMARK       I    between atoms: N2_17  and  C14_19 
REMARK    6  A    between atoms: C14_19  and  C15_21 
REMARK    7  A    between atoms: N3_25  and  N4_26 
REMARK    8  A    between atoms: N5_33  and  C22_34 
REMARK    9  A    between atoms: C27_39  and  O4_40 
ROOT
HETATM    1  C7  UNL     1      13.009  54.183  87.703  1.00  0.00     0.116 A 
HETATM    2  N1  UNL     1      13.935  54.966  88.376  1.00  0.00    -0.337 N 
ATOM      3  H1  UNL     1      14.630  55.569  87.937  1.00  0.00     0.167 HD
HETATM    4  C8  UNL     1      13.770  54.805  89.694  1.00  0.00     0.103 A 
HETATM    5  C9  UNL     1      14.465  55.385  90.658  1.00  0.00     0.046 C 
HETATM    6  C21 UNL     1      12.744  53.924  89.846  1.00  0.00     0.281 A 
HETATM    7  O3  UNL     1      12.292  53.520  90.945  1.00  0.00    -0.265 OA
HETATM    8  N5  UNL     1      12.280  53.546  88.601  1.00  0.00    -0.260 N 
ENDROOT
BRANCH   5   9
HETATM    9  C10 UNL     1      14.166  55.108  92.058  1.00  0.00    -0.034 A 
HETATM   10  C11 UNL     1      14.465  53.916  92.667  1.00  0.00     0.013 A 
HETATM   11  C12 UNL     1      14.156  53.724  93.983  1.00  0.00     0.030 A 
HETATM   12  C13 UNL     1      13.535  54.699  94.776  1.00  0.00     0.035 A 
HETATM   13  C19 UNL     1      13.244  55.884  94.148  1.00  0.00     0.030 A 
HETATM   14  C20 UNL     1      13.555  56.094  92.794  1.00  0.00     0.013 A 
BRANCH  12  15
HETATM   15  N2  UNL     1      13.254  54.411  96.118  1.00  0.00    -0.322 N 
HETATM   16  C14 UNL     1      12.182  54.818  96.915  1.00  0.00     0.274 C 
HETATM   17  O2  UNL     1      11.267  55.546  96.506  1.00  0.00    -0.266 OA
ATOM     18  H2  UNL     1      13.936  53.812  96.583  1.00  0.00     0.169 HD
BRANCH  16  19
HETATM   19  C15 UNL     1      12.092  54.383  98.324  1.00  0.00     0.123 A 
HETATM   20  C16 UNL     1      12.389  53.109  98.780  1.00  0.00     0.039 A 
HETATM   21  C17 UNL     1      12.193  53.067 100.141  1.00  0.00     0.022 A 
HETATM   22  C18 UNL     1      11.776  54.328 100.501  1.00  0.00     0.116 A 
HETATM   23  N3  UNL     1      11.724  55.088  99.404  1.00  0.00    -0.269 N 
BRANCH  23  24
HETATM   24  N4  UNL     1      11.346  56.418  99.377  1.00  0.00    -0.338 N 
ATOM     25  H42 UNL     1      10.453  56.779  99.714  1.00  0.00     0.177 HD
ATOM     26  H41 UNL     1      11.926  57.176  99.016  1.00  0.00     0.177 HD
ENDBRANCH  23  24
ENDBRANCH  16  19
ENDBRANCH  12  15
ENDBRANCH   5   9
BRANCH   1  27
HETATM   27  C6  UNL     1      12.972  54.168  86.421  1.00  0.00     0.060 C 
BRANCH  27  28
HETATM   28  C5  UNL     1      13.790  53.486  85.460  1.00  0.00    -0.033 A 
HETATM   29  C4  UNL     1      15.021  54.015  85.064  1.00  0.00     0.014 A 
HETATM   30  C3  UNL     1      15.815  53.426  84.108  1.00  0.00     0.037 A 
HETATM   31  C2  UNL     1      15.378  52.258  83.511  1.00  0.00     0.068 A 
HETATM   32  C30 UNL     1      14.160  51.734  83.903  1.00  0.00     0.037 A 
HETATM   33  C29 UNL     1      13.363  52.311  84.852  1.00  0.00     0.014 A 
BRANCH  31  34
HETATM   34  O1  UNL     1      16.136  51.605  82.530  1.00  0.00    -0.356 OA
HETATM   35  C1  UNL     1      16.115  52.163  81.208  1.00  0.00     0.210 C 
ENDBRANCH  31  34
ENDBRANCH  27  28
ENDBRANCH   1  27
BRANCH   8  36
HETATM   36  C22 UNL     1      11.217  52.634  88.501  1.00  0.00     0.077 A 
HETATM   37  C23 UNL     1      11.334  51.279  88.253  1.00  0.00     0.033 A 
HETATM   38  C24 UNL     1      10.249  50.449  88.117  1.00  0.00     0.002 A 
HETATM   39  C25 UNL     1       8.964  50.928  88.220  1.00  0.00     0.003 A 
HETATM   40  C26 UNL     1       8.823  52.280  88.468  1.00  0.00     0.039 A 
HETATM   41  C27 UNL     1       9.919  53.111  88.604  1.00  0.00     0.095 A 
BRANCH  41  42
HETATM   42  O4  UNL     1       9.762  54.474  88.853  1.00  0.00    -0.354 OA
HETATM   43  C28 UNL     1       9.063  54.843  90.026  1.00  0.00     0.210 C 
ENDBRANCH  41  42
ENDBRANCH   8  36
TORSDOF 9
ENDMDL
MODEL 2
REMARK VINA RESULT: -8.406941579      0.759      1.408
REMARK  9 active torsions:
REMARK  status: ('A' for Active; 'I' for Inactive)
REMARK    1  A    between atoms: O1_2  and  C2_3 
REMARK    2  A    between atoms: C5_6  and  C6_7 
REMARK    3  A    between atoms: C6_7  and  C7_8 
REMARK    4  A    between atoms: C9_12  and  C10_13 
REMARK    5  A    between atoms: C13_16  and  N2_17 
REMARK       I    between atoms: N2_17  and  C14_19 
REMARK    6  A    between atoms: C14_19  and  C15_21 
REMARK    7  A    between atoms: N3_25  and  N4_26 
REMARK    8  A    between atoms: N5_33  and  C22_34 
REMARK    9  A    between atoms: C27_39  and  O4_40 
ROOT
HETATM    1  C7  UNL     1      12.908  54.290  87.830  1.00  0.00     0.116 A 
HETATM    2  N1  UNL     1      13.963  54.877  88.512  1.00  0.00    -0.337 N 
ATOM      3  H1  UNL     1      14.773  55.321  88.079  1.00  0.00     0.167 HD
HETATM    4  C8  UNL     1      13.750  54.768  89.828  1.00  0.00     0.103 A 
HETATM    5  C9  UNL     1      14.534  55.206  90.799  1.00  0.00     0.046 C 
HETATM    6  C21 UNL     1      12.565  54.115  89.971  1.00  0.00     0.281 A 
HETATM    7  O3  UNL     1      12.024  53.824  91.066  1.00  0.00    -0.265 OA
HETATM    8  N5  UNL     1      12.052  53.824  88.721  1.00  0.00    -0.260 N 
ENDROOT
BRANCH   5   9
HETATM    9  C10 UNL     1      14.164  55.012  92.196  1.00  0.00    -0.034 A 
HETATM   10  C11 UNL     1      14.349  53.828  92.862  1.00  0.00     0.013 A 
HETATM   11  C12 UNL     1      13.980  53.716  94.172  1.00  0.00     0.030 A 
HETATM   12  C13 UNL     1      13.407  54.768  94.901  1.00  0.00     0.035 A 
HETATM   13  C19 UNL     1      13.232  55.943  94.216  1.00  0.00     0.030 A 
HETATM   14  C20 UNL     1      13.606  56.072  92.868  1.00  0.00     0.013 A 
BRANCH  12  15
HETATM   15  N2  UNL     1      13.057  54.559  96.242  1.00  0.00    -0.322 N 
HETATM   16  C14 UNL     1      12.048  55.149  97.006  1.00  0.00     0.274 C 
HETATM   17  O2  UNL     1      11.270  56.004  96.561  1.00  0.00    -0.266 OA
ATOM     18  H2  UNL     1      13.626  53.870  96.734  1.00  0.00     0.169 HD
BRANCH  16  19
HETATM   19  C15 UNL     1      11.862  54.766  98.420  1.00  0.00     0.123 A 
HETATM   20  C16 UNL     1      12.160  53.522  98.949  1.00  0.00     0.039 A 
HETATM   21  C17 UNL     1      11.860  53.527 100.292  1.00  0.00     0.022 A 
HETATM   22  C18 UNL     1      11.379  54.786 100.566  1.00  0.00     0.116 A 
HETATM   23  N3  UNL     1      11.390  55.501  99.438  1.00  0.00    -0.269 N 
BRANCH  23  24
HETATM   24  N4  UNL     1      10.976  56.816  99.328  1.00  0.00    -0.338 N 
ATOM     25  H42 UNL     1      10.688  57.268  98.460  1.00  0.00     0.177 HD
ATOM     26  H41 UNL     1      10.916  57.469 100.109  1.00  0.00     0.177 HD
ENDBRANCH  23  24
ENDBRANCH  16  19
ENDBRANCH  12  15
ENDBRANCH   5   9
BRANCH   1  27
HETATM   27  C6  UNL     1      12.887  54.267  86.548  1.00  0.00     0.060 C 
BRANCH  27  28
HETATM   28  C5  UNL     1      13.754  53.628  85.600  1.00  0.00    -0.033 A 
HETATM   29  C4  UNL     1      14.991  54.187  85.271  1.00  0.00     0.014 A 
HETATM   30  C3  UNL     1      15.832  53.641  84.330  1.00  0.00     0.037 A 
HETATM   31  C2  UNL     1      15.438  52.486  83.680  1.00  0.00     0.068 A 
HETATM   32  C30 UNL     1      14.214  51.932  84.005  1.00  0.00     0.037 A 
HETATM   33  C29 UNL     1      13.370  52.467  84.938  1.00  0.00     0.014 A 
BRANCH  31  34
HETATM   34  O1  UNL     1      16.246  51.877  82.710  1.00  0.00    -0.356 OA
HETATM   35  C1  UNL     1      16.234  52.450  81.394  1.00  0.00     0.210 C 
ENDBRANCH  31  34
ENDBRANCH  27  28
ENDBRANCH   1  27
BRANCH   8  36
HETATM   36  C22 UNL     1      10.828  53.145  88.611  1.00  0.00     0.077 A 
HETATM   37  C23 UNL     1       9.576  53.730  88.606  1.00  0.00     0.033 A 
HETATM   38  C24 UNL     1       8.413  53.003  88.546  1.00  0.00     0.002 A 
HETATM   39  C25 UNL     1       8.430  51.629  88.489  1.00  0.00     0.003 A 
HETATM   40  C26 UNL     1       9.671  51.023  88.494  1.00  0.00     0.039 A 
HETATM   41  C27 UNL     1      10.838  51.759  88.553  1.00  0.00     0.095 A 
BRANCH  41  42
HETATM   42  O4  UNL     1      12.085  51.134  88.557  1.00  0.00    -0.354 OA
HETATM   43  C28 UNL     1      12.414  50.351  89.688  1.00  0.00     0.210 C 
ENDBRANCH  41  42
ENDBRANCH   8  36
TORSDOF 9
ENDMDL
MODEL 3
REMARK VINA RESULT: -8.229642507      1.372      1.459
REMARK  9 active torsions:
REMARK  status: ('A' for Active; 'I' for Inactive)
REMARK    1  A    between atoms: O1_2  and  C2_3 
REMARK    2  A    between atoms: C5_6  and  C6_7 
REMARK    3  A    between atoms: C6_7  and  C7_8 
REMARK    4  A    between atoms: C9_12  and  C10_13 
REMARK    5  A    between atoms: C13_16  and  N2_17 
REMARK       I    between atoms: N2_17  and  C14_19 
REMARK    6  A    between atoms: C14_19  and  C15_21 
REMARK    7  A    between atoms: N3_25  and  N4_26 
REMARK    8  A    between atoms: N5_33  and  C22_34 
REMARK    9  A    between atoms: C27_39  and  O4_40 
ROOT
HETATM    1  C7  UNL     1      13.206  54.382  87.906  1.00  0.00     0.116 A 
HETATM    2  N1  UNL     1      14.009  55.149  88.737  1.00  0.00    -0.337 N 
ATOM      3  H1  UNL     1      14.681  55.851  88.427  1.00  0.00     0.167 HD
HETATM    4  C8  UNL     1      13.761  54.822  90.010  1.00  0.00     0.103 A 
HETATM    5  C9  UNL     1      14.331  55.335  91.087  1.00  0.00     0.046 C 
HETATM    6  C21 UNL     1      12.807  53.852  89.977  1.00  0.00     0.281 A 
HETATM    7  O3  UNL     1      12.310  53.288  90.983  1.00  0.00    -0.265 OA
HETATM    8  N5  UNL     1      12.470  53.589  88.662  1.00  0.00    -0.260 N 
ENDROOT
BRANCH   5   9
HETATM    9  C10 UNL     1      13.953  54.873  92.418  1.00  0.00    -0.034 A 
HETATM   10  C11 UNL     1      14.327  53.654  92.921  1.00  0.00     0.013 A 
HETATM   11  C12 UNL     1      13.938  53.285  94.178  1.00  0.00     0.030 A 
HETATM   12  C13 UNL     1      13.158  54.099  95.010  1.00  0.00     0.035 A 
HETATM   13  C19 UNL     1      12.794  55.315  94.487  1.00  0.00     0.030 A 
HETATM   14  C20 UNL     1      13.187  55.706  93.196  1.00  0.00     0.013 A 
BRANCH  12  15
HETATM   15  N2  UNL     1      12.804  53.634  96.284  1.00  0.00    -0.322 N 
HETATM   16  C14 UNL     1      13.603  53.090  97.292  1.00  0.00     0.274 C 
HETATM   17  O2  UNL     1      14.826  52.936  97.181  1.00  0.00    -0.266 OA
ATOM     18  H2  UNL     1      11.812  53.704  96.508  1.00  0.00     0.169 HD
BRANCH  16  19
HETATM   19  C15 UNL     1      13.002  52.665  98.572  1.00  0.00     0.123 A 
HETATM   20  C16 UNL     1      11.655  52.411  98.769  1.00  0.00     0.039 A 
HETATM   21  C17 UNL     1      11.460  52.038 100.079  1.00  0.00     0.022 A 
HETATM   22  C18 UNL     1      12.703  52.069 100.669  1.00  0.00     0.116 A 
HETATM   23  N3  UNL     1      13.599  52.444  99.753  1.00  0.00    -0.269 N 
BRANCH  23  24
HETATM   24  N4  UNL     1      14.956  52.587  99.982  1.00  0.00    -0.338 N 
ATOM     25  H42 UNL     1      15.583  53.178  99.435  1.00  0.00     0.177 HD
ATOM     26  H41 UNL     1      15.468  52.113 100.726  1.00  0.00     0.177 HD
ENDBRANCH  23  24
ENDBRANCH  16  19
ENDBRANCH  12  15
ENDBRANCH   5   9
BRANCH   1  27
HETATM   27  C6  UNL     1      13.266  54.515  86.631  1.00  0.00     0.060 C 
BRANCH  27  28
HETATM   28  C5  UNL     1      13.914  53.721  85.627  1.00  0.00    -0.033 A 
HETATM   29  C4  UNL     1      15.154  54.099  85.106  1.00  0.00     0.014 A 
HETATM   30  C3  UNL     1      15.789  53.401  84.106  1.00  0.00     0.037 A 
HETATM   31  C2  UNL     1      15.175  52.273  83.593  1.00  0.00     0.068 A 
HETATM   32  C30 UNL     1      13.949  51.898  84.108  1.00  0.00     0.037 A 
HETATM   33  C29 UNL     1      13.308  52.585  85.102  1.00  0.00     0.014 A 
BRANCH  31  34
HETATM   34  O1  UNL     1      15.766  51.515  82.573  1.00  0.00    -0.356 OA
HETATM   35  C1  UNL     1      16.091  52.198  81.354  1.00  0.00     0.210 C 
ENDBRANCH  31  34
ENDBRANCH  27  28
ENDBRANCH   1  27
BRANCH   8  36
HETATM   36  C22 UNL     1      11.500  52.616  88.374  1.00  0.00     0.077 A 
HETATM   37  C23 UNL     1      11.745  51.282  88.112  1.00  0.00     0.033 A 
HETATM   38  C24 UNL     1      10.753  50.390  87.786  1.00  0.00     0.002 A 
HETATM   39  C25 UNL     1       9.439  50.784  87.698  1.00  0.00     0.003 A 
HETATM   40  C26 UNL     1       9.170  52.114  87.956  1.00  0.00     0.039 A 
HETATM   41  C27 UNL     1      10.172  53.006  88.284  1.00  0.00     0.095 A 
BRANCH  41  42
HETATM   42  O4  UNL     1       9.886  54.347  88.541  1.00  0.00    -0.354 OA
HETATM   43  C28 UNL     1       9.132  54.639  89.701  1.00  0.00     0.210 C 
ENDBRANCH  41  42
ENDBRANCH   8  36
TORSDOF 9
ENDMDL
MODEL 4
REMARK VINA RESULT: -8.113778861      1.375      1.903
REMARK  9 active torsions:
REMARK  status: ('A' for Active; 'I' for Inactive)
REMARK    1  A    between atoms: O1_2  and  C2_3 
REMARK    2  A    between atoms: C5_6  and  C6_7 
REMARK    3  A    between atoms: C6_7  and  C7_8 
REMARK    4  A    between atoms: C9_12  and  C10_13 
REMARK    5  A    between atoms: C13_16  and  N2_17 
REMARK       I    between atoms: N2_17  and  C14_19 
REMARK    6  A    between atoms: C14_19  and  C15_21 
REMARK    7  A    between atoms: N3_25  and  N4_26 
REMARK    8  A    between atoms: N5_33  and  C22_34 
REMARK    9  A    between atoms: C27_39  and  O4_40 
ROOT
HETATM    1  C7  UNL     1      13.213  54.514  87.848  1.00  0.00     0.116 A 
HETATM    2  N1  UNL     1      14.206  55.068  88.642  1.00  0.00    -0.337 N 
ATOM      3  H1  UNL     1      15.030  55.563  88.300  1.00  0.00     0.167 HD
HETATM    4  C8  UNL     1      13.912  54.849  89.928  1.00  0.00     0.103 A 
HETATM    5  C9  UNL     1      14.620  55.225  90.980  1.00  0.00     0.046 C 
HETATM    6  C21 UNL     1      12.739  54.160  89.941  1.00  0.00     0.281 A 
HETATM    7  O3  UNL     1      12.137  53.771  90.972  1.00  0.00    -0.265 OA
HETATM    8  N5  UNL     1      12.315  53.959  88.641  1.00  0.00    -0.260 N 
ENDROOT
BRANCH   5   9
HETATM    9  C10 UNL     1      14.167  54.912  92.331  1.00  0.00    -0.034 A 
HETATM   10  C11 UNL     1      14.307  53.671  92.898  1.00  0.00     0.013 A 
HETATM   11  C12 UNL     1      13.860  53.447  94.169  1.00  0.00     0.030 A 
HETATM   12  C13 UNL     1      13.250  54.435  94.954  1.00  0.00     0.035 A 
HETATM   13  C19 UNL     1      13.120  55.669  94.367  1.00  0.00     0.030 A 
HETATM   14  C20 UNL     1      13.575  55.913  93.061  1.00  0.00     0.013 A 
BRANCH  12  15
HETATM   15  N2  UNL     1      12.820  54.111  96.247  1.00  0.00    -0.322 N 
HETATM   16  C14 UNL     1      13.480  53.416  97.262  1.00  0.00     0.274 C 
HETATM   17  O2  UNL     1      14.624  52.957  97.140  1.00  0.00    -0.266 OA
ATOM     18  H2  UNL     1      11.881  54.433  96.484  1.00  0.00     0.169 HD
BRANCH  16  19
HETATM   19  C15 UNL     1      12.821  53.191  98.564  1.00  0.00     0.123 A 
HETATM   20  C16 UNL     1      11.458  53.297  98.791  1.00  0.00     0.039 A 
HETATM   21  C17 UNL     1      11.205  53.020 100.115  1.00  0.00     0.022 A 
HETATM   22  C18 UNL     1      12.428  52.746 100.683  1.00  0.00     0.116 A 
HETATM   23  N3  UNL     1      13.369  52.855  99.742  1.00  0.00    -0.269 N 
BRANCH  23  24
HETATM   24  N4  UNL     1      14.721  52.650  99.945  1.00  0.00    -0.338 N 
ATOM     25  H42 UNL     1      15.465  53.234  99.561  1.00  0.00     0.177 HD
ATOM     26  H41 UNL     1      15.112  51.891 100.502  1.00  0.00     0.177 HD
ENDBRANCH  23  24
ENDBRANCH  16  19
ENDBRANCH  12  15
ENDBRANCH   5   9
BRANCH   1  27
HETATM   27  C6  UNL     1      13.275  54.594  86.569  1.00  0.00     0.060 C 
BRANCH  27  28
HETATM   28  C5  UNL     1      13.928  53.761  85.601  1.00  0.00    -0.033 A 
HETATM   29  C4  UNL     1      15.183  54.104  85.092  1.00  0.00     0.014 A 
HETATM   30  C3  UNL     1      15.825  53.367  84.125  1.00  0.00     0.037 A 
HETATM   31  C2  UNL     1      15.201  52.235  83.632  1.00  0.00     0.068 A 
HETATM   32  C30 UNL     1      13.959  51.895  84.135  1.00  0.00     0.037 A 
HETATM   33  C29 UNL     1      13.313  52.621  85.097  1.00  0.00     0.014 A 
BRANCH  31  34
HETATM   34  O1  UNL     1      15.798  51.438  82.646  1.00  0.00    -0.356 OA
HETATM   35  C1  UNL     1      15.730  51.911  81.293  1.00  0.00     0.210 C 
ENDBRANCH  31  34
ENDBRANCH  27  28
ENDBRANCH   1  27
BRANCH   8  36
HETATM   36  C22 UNL     1      11.120  53.264  88.398  1.00  0.00     0.077 A 
HETATM   37  C23 UNL     1       9.881  53.837  88.176  1.00  0.00     0.033 A 
HETATM   38  C24 UNL     1       8.739  53.097  87.994  1.00  0.00     0.002 A 
HETATM   39  C25 UNL     1       8.764  51.723  88.025  1.00  0.00     0.003 A 
HETATM   40  C26 UNL     1       9.991  51.129  88.245  1.00  0.00     0.039 A 
HETATM   41  C27 UNL     1      11.138  51.878  88.427  1.00  0.00     0.095 A 
BRANCH  41  42
HETATM   42  O4  UNL     1      12.371  51.265  88.650  1.00  0.00    -0.354 OA
HETATM   43  C28 UNL     1      12.395  50.158  89.530  1.00  0.00     0.210 C 
ENDBRANCH  41  42
ENDBRANCH   8  36
TORSDOF 9
ENDMDL
MODEL 5
REMARK VINA RESULT: -8.025944045      0.979      1.076
REMARK  9 active torsions:
REMARK  status: ('A' for Active; 'I' for Inactive)
REMARK    1  A    between atoms: O1_2  and  C2_3 
REMARK    2  A    between atoms: C5_6  and  C6_7 
REMARK    3  A    between atoms: C6_7  and  C7_8 
REMARK    4  A    between atoms: C9_12  and  C10_13 
REMARK    5  A    between atoms: C13_16  and  N2_17 
REMARK       I    between atoms: N2_17  and  C14_19 
REMARK    6  A    between atoms: C14_19  and  C15_21 
REMARK    7  A    between atoms: N3_25  and  N4_26 
REMARK    8  A    between atoms: N5_33  and  C22_34 
REMARK    9  A    between atoms: C27_39  and  O4_40 
ROOT
HETATM    1  C7  UNL     1      12.590  53.500  87.488  1.00  0.00     0.116 A 
HETATM    2  N1  UNL     1      13.253  54.536  88.128  1.00  0.00    -0.337 N 
ATOM      3  H1  UNL     1      13.770  55.283  87.665  1.00  0.00     0.167 HD
HETATM    4  C8  UNL     1      13.107  54.399  89.451  1.00  0.00     0.103 A 
HETATM    5  C9  UNL     1      13.597  55.191  90.390  1.00  0.00     0.046 C 
HETATM    6  C21 UNL     1      12.355  53.281  89.639  1.00  0.00     0.281 A 
HETATM    7  O3  UNL     1      12.003  52.822  90.754  1.00  0.00    -0.265 OA
HETATM    8  N5  UNL     1      12.039  52.732  88.411  1.00  0.00    -0.260 N 
ENDROOT
BRANCH   5   9
HETATM    9  C10 UNL     1      13.351  54.910  91.800  1.00  0.00    -0.034 A 
HETATM   10  C11 UNL     1      14.306  54.394  92.639  1.00  0.00     0.013 A 
HETATM   11  C12 UNL     1      14.007  54.156  93.950  1.00  0.00     0.030 A 
HETATM   12  C13 UNL     1      12.748  54.414  94.509  1.00  0.00     0.035 A 
HETATM   13  C19 UNL     1      11.808  54.930  93.653  1.00  0.00     0.030 A 
HETATM   14  C20 UNL     1      12.102  55.179  92.302  1.00  0.00     0.013 A 
BRANCH  12  15
HETATM   15  N2  UNL     1      12.533  54.134  95.865  1.00  0.00    -0.322 N 
HETATM   16  C14 UNL     1      12.339  55.005  96.939  1.00  0.00     0.274 C 
HETATM   17  O2  UNL     1      12.333  56.238  96.823  1.00  0.00    -0.266 OA
ATOM     18  H2  UNL     1      12.515  53.143  96.104  1.00  0.00     0.169 HD
BRANCH  16  19
HETATM   19  C15 UNL     1      12.127  54.476  98.301  1.00  0.00     0.123 A 
HETATM   20  C16 UNL     1      12.394  53.175  98.696  1.00  0.00     0.039 A 
HETATM   21  C17 UNL     1      12.076  53.041 100.028  1.00  0.00     0.022 A 
HETATM   22  C18 UNL     1      11.617  54.273 100.432  1.00  0.00     0.116 A 
HETATM   23  N3  UNL     1      11.657  55.105  99.389  1.00  0.00    -0.269 N 
BRANCH  23  24
HETATM   24  N4  UNL     1      11.270  56.433  99.417  1.00  0.00    -0.338 N 
ATOM     25  H42 UNL     1      11.908  57.227  99.464  1.00  0.00     0.177 HD
ATOM     26  H41 UNL     1      10.301  56.752  99.393  1.00  0.00     0.177 HD
ENDBRANCH  23  24
ENDBRANCH  16  19
ENDBRANCH  12  15
ENDBRANCH   5   9
BRANCH   1  27
HETATM   27  C6  UNL     1      12.587  53.414  86.208  1.00  0.00     0.060 C 
BRANCH  27  28
HETATM   28  C5  UNL     1      13.632  53.084  85.281  1.00  0.00    -0.033 A 
HETATM   29  C4  UNL     1      14.789  53.864  85.200  1.00  0.00     0.014 A 
HETATM   30  C3  UNL     1      15.793  53.619  84.293  1.00  0.00     0.037 A 
HETATM   31  C2  UNL     1      15.653  52.555  83.421  1.00  0.00     0.068 A 
HETATM   32  C30 UNL     1      14.509  51.783  83.501  1.00  0.00     0.037 A 
HETATM   33  C29 UNL     1      13.505  52.018  84.399  1.00  0.00     0.014 A 
BRANCH  31  34
HETATM   34  O1  UNL     1      16.637  52.249  82.471  1.00  0.00    -0.356 OA
HETATM   35  C1  UNL     1      16.343  52.561  81.101  1.00  0.00     0.210 C 
ENDBRANCH  31  34
ENDBRANCH  27  28
ENDBRANCH   1  27
BRANCH   8  36
HETATM   36  C22 UNL     1      11.266  51.563  88.349  1.00  0.00     0.077 A 
HETATM   37  C23 UNL     1      11.753  50.270  88.334  1.00  0.00     0.033 A 
HETATM   38  C24 UNL     1      10.943  49.167  88.222  1.00  0.00     0.002 A 
HETATM   39  C25 UNL     1       9.578  49.291  88.113  1.00  0.00     0.003 A 
HETATM   40  C26 UNL     1       9.068  50.575  88.124  1.00  0.00     0.039 A 
HETATM   41  C27 UNL     1       9.888  51.681  88.239  1.00  0.00     0.095 A 
BRANCH  41  42
HETATM   42  O4  UNL     1       9.359  52.971  88.249  1.00  0.00    -0.354 OA
HETATM   43  C28 UNL     1       8.794  53.450  87.044  1.00  0.00     0.210 C 
ENDBRANCH  41  42
ENDBRANCH   8  36
TORSDOF 9
ENDMDL
