MODEL 1
REMARK VINA RESULT: -7.374043339      0.000      0.000
REMARK  10 active torsions:
REMARK  status: ('A' for Active; 'I' for Inactive)
REMARK    1  A    between atoms: C2_2  and  C3_3 
REMARK    2  A    between atoms: C2_2  and  N7_32 
REMARK    3  A    between atoms: C3_3  and  N1_4 
REMARK    4  A    between atoms: N1_4  and  C4_6 
REMARK    5  A    between atoms: C4_6  and  O1_7 
REMARK    6  A    between atoms: C4_6  and  C5_9 
REMARK    7  A    between atoms: C6_10  and  C7_11 
REMARK    8  A    between atoms: C8_17  and  N3_18 
REMARK    9  A    between atoms: N3_18  and  N4_20 
REMARK       I    between atoms: N4_20  and  C9_22 
REMARK   10  A    between atoms: C9_22  and  C10_24 
ROOT
HETATM    1  C5  UNL     1      26.251   8.005  13.439  1.00  0.00     0.088 A 
HETATM    2  C6  UNL     1      25.533   7.975  12.274  1.00  0.00     0.150 A 
HETATM    3  N2  UNL     1      24.800   6.855  11.949  1.00  0.00    -0.184 N 
ATOM      4  H2  UNL     1      24.276   6.868  11.074  1.00  0.00     0.184 HD
HETATM    5  C8  UNL     1      24.727   5.766  12.688  1.00  0.00     0.698 A 
HETATM    6  N5  UNL     1      25.426   5.773  13.834  1.00  0.00    -0.176 N 
ATOM      7  H5  UNL     1      25.398   4.949  14.436  1.00  0.00     0.185 HD
HETATM    8  C14 UNL     1      26.149   6.817  14.208  1.00  0.00     0.148 A 
HETATM    9  N6  UNL     1      26.846   6.749  15.439  1.00  0.00    -0.081 NA
ENDROOT
BRANCH   1  10
HETATM   10  C4  UNL     1      27.093   9.040  13.923  1.00  0.00     0.151 C 
BRANCH  10  11
HETATM   11  N1  UNL     1      28.423   9.345  13.818  1.00  0.00    -0.368 N 
ATOM     12  H1  UNL     1      28.803  10.222  14.173  1.00  0.00     0.161 HD
BRANCH  11  13
HETATM   13  C3  UNL     1      29.285   8.325  13.159  1.00  0.00     0.146 C 
BRANCH  13  14
HETATM   14  C2  UNL     1      29.567   8.775  11.764  1.00  0.00     0.092 C 
HETATM   15  C1  UNL     1      30.613   9.863  11.747  1.00  0.00     0.033 C 
BRANCH  14  16
HETATM   16  N7  UNL     1      29.863   7.677  10.918  1.00  0.00    -0.407 N 
HETATM   17  C15 UNL     1      29.239   6.444  11.294  1.00  0.00     0.117 C 
HETATM   18  C16 UNL     1      28.052   6.037  10.499  1.00  0.00     0.019 C 
HETATM   19  C17 UNL     1      28.125   6.416   9.038  1.00  0.00     0.003 C 
HETATM   20  C18 UNL     1      29.576   6.710   8.733  1.00  0.00     0.019 C 
HETATM   21  C19 UNL     1      29.929   7.957   9.525  1.00  0.00     0.117 C 
ENDBRANCH  14  16
ENDBRANCH  13  14
ENDBRANCH  11  13
ENDBRANCH  10  11
BRANCH  10  22
HETATM   22  O1  UNL     1      26.442   9.939  14.647  1.00  0.00    -0.346 OA
ATOM     23  H1  UNL     1      25.552   9.663  14.830  1.00  0.00     0.219 HD
ENDBRANCH  10  22
ENDBRANCH   1  10
BRANCH   2  24
HETATM   24  C7  UNL     1      25.536   9.079  11.291  1.00  0.00     0.434 C 
HETATM   25  F1  UNL     1      26.690   9.092  10.552  1.00  0.00    -0.165 F 
HETATM   26  F2  UNL     1      25.076  10.271  11.753  1.00  0.00    -0.165 F 
HETATM   27  F3  UNL     1      24.549   8.695  10.310  1.00  0.00    -0.165 F 
ENDBRANCH   2  24
BRANCH   5  28
HETATM   28  N3  UNL     1      24.035   4.749  12.330  1.00  0.00    -0.129 N 
ATOM     29  H3  UNL     1      23.141   4.542  12.778  1.00  0.00     0.205 HD
BRANCH  28  30
HETATM   30  N4  UNL     1      24.532   3.928  11.309  1.00  0.00    -0.255 N 
HETATM   31  C9  UNL     1      23.719   3.421  10.283  1.00  0.00     0.244 C 
HETATM   32  O2  UNL     1      22.503   3.703  10.247  1.00  0.00    -0.271 OA
ATOM     33  H4  UNL     1      25.524   3.689  11.312  1.00  0.00     0.190 HD
BRANCH  31  34
HETATM   34  C10 UNL     1      24.341   2.549   9.266  1.00  0.00     0.032 C 
HETATM   35  C11 UNL     1      24.419   1.149   9.851  1.00  0.00     0.025 C 
HETATM   36  C12 UNL     1      25.761   3.069   9.037  1.00  0.00     0.025 C 
HETATM   37  C13 UNL     1      23.571   2.543   7.986  1.00  0.00     0.025 C 
ENDBRANCH  31  34
ENDBRANCH  28  30
ENDBRANCH   5  28
TORSDOF 10
ENDMDL
MODEL 2
REMARK VINA RESULT: -6.878540309      2.907      4.696
REMARK  10 active torsions:
REMARK  status: ('A' for Active; 'I' for Inactive)
REMARK    1  A    between atoms: C2_2  and  C3_3 
REMARK    2  A    between atoms: C2_2  and  N7_32 
REMARK    3  A    between atoms: C3_3  and  N1_4 
REMARK    4  A    between atoms: N1_4  and  C4_6 
REMARK    5  A    between atoms: C4_6  and  O1_7 
REMARK    6  A    between atoms: C4_6  and  C5_9 
REMARK    7  A    between atoms: C6_10  and  C7_11 
REMARK    8  A    between atoms: C8_17  and  N3_18 
REMARK    9  A    between atoms: N3_18  and  N4_20 
REMARK       I    between atoms: N4_20  and  C9_22 
REMARK   10  A    between atoms: C9_22  and  C10_24 
ROOT
HETATM    1  C5  UNL     1      25.075   7.781  14.451  1.00  0.00     0.088 A 
HETATM    2  C6  UNL     1      25.267   7.505  13.124  1.00  0.00     0.150 A 
HETATM    3  N2  UNL     1      24.713   6.370  12.573  1.00  0.00    -0.184 N 
ATOM      4  H2  UNL     1      24.875   6.197  11.581  1.00  0.00     0.184 HD
HETATM    5  C8  UNL     1      23.988   5.491  13.237  1.00  0.00     0.698 A 
HETATM    6  N5  UNL     1      23.789   5.742  14.540  1.00  0.00    -0.176 N 
ATOM      7  H5  UNL     1      23.235   5.087  15.091  1.00  0.00     0.185 HD
HETATM    8  C14 UNL     1      24.292   6.814  15.132  1.00  0.00     0.148 A 
HETATM    9  N6  UNL     1      24.024   7.013  16.509  1.00  0.00    -0.081 NA
ENDROOT
BRANCH   1  10
HETATM   10  C4  UNL     1      25.595   8.867  15.204  1.00  0.00     0.151 C 
BRANCH  10  11
HETATM   11  N1  UNL     1      25.154  10.117  15.544  1.00  0.00    -0.368 N 
ATOM     12  H1  UNL     1      25.608  10.667  16.272  1.00  0.00     0.161 HD
BRANCH  11  13
HETATM   13  C3  UNL     1      23.974  10.629  14.793  1.00  0.00     0.146 C 
BRANCH  13  14
HETATM   14  C2  UNL     1      23.584  11.950  15.369  1.00  0.00     0.092 C 
HETATM   15  C1  UNL     1      24.414  12.276  16.587  1.00  0.00     0.033 C 
BRANCH  14  16
HETATM   16  N7  UNL     1      23.585  12.965  14.380  1.00  0.00    -0.407 N 
HETATM   17  C15 UNL     1      24.852  13.603  14.178  1.00  0.00     0.117 C 
HETATM   18  C16 UNL     1      25.614  13.187  12.973  1.00  0.00     0.019 C 
HETATM   19  C17 UNL     1      24.751  12.854  11.778  1.00  0.00     0.003 C 
HETATM   20  C18 UNL     1      23.392  13.464  12.034  1.00  0.00     0.019 C 
HETATM   21  C19 UNL     1      22.808  12.711  13.217  1.00  0.00     0.117 C 
ENDBRANCH  14  16
ENDBRANCH  13  14
ENDBRANCH  11  13
ENDBRANCH  10  11
BRANCH  10  22
HETATM   22  O1  UNL     1      26.793   8.617  15.710  1.00  0.00    -0.346 OA
ATOM     23  H1  UNL     1      27.291   8.027  15.157  1.00  0.00     0.219 HD
ENDBRANCH  10  22
ENDBRANCH   1  10
BRANCH   2  24
HETATM   24  C7  UNL     1      26.096   8.343  12.233  1.00  0.00     0.434 C 
HETATM   25  F1  UNL     1      27.432   8.198  12.504  1.00  0.00    -0.165 F 
HETATM   26  F2  UNL     1      25.633   9.603  12.021  1.00  0.00    -0.165 F 
HETATM   27  F3  UNL     1      25.979   7.720  10.936  1.00  0.00    -0.165 F 
ENDBRANCH   2  24
BRANCH   5  28
HETATM   28  N3  UNL     1      23.504   4.448  12.672  1.00  0.00    -0.129 N 
ATOM     29  H3  UNL     1      22.670   3.992  13.044  1.00  0.00     0.205 HD
BRANCH  28  30
HETATM   30  N4  UNL     1      24.147   3.947  11.532  1.00  0.00    -0.255 N 
HETATM   31  C9  UNL     1      23.570   2.966  10.709  1.00  0.00     0.244 C 
HETATM   32  O2  UNL     1      22.438   2.510  10.972  1.00  0.00    -0.271 OA
ATOM     33  H4  UNL     1      25.069   4.309  11.290  1.00  0.00     0.190 HD
BRANCH  31  34
HETATM   34  C10 UNL     1      24.342   2.494   9.541  1.00  0.00     0.032 C 
HETATM   35  C11 UNL     1      24.696   1.037   9.786  1.00  0.00     0.025 C 
HETATM   36  C12 UNL     1      25.632   3.314   9.493  1.00  0.00     0.025 C 
HETATM   37  C13 UNL     1      23.577   2.643   8.266  1.00  0.00     0.025 C 
ENDBRANCH  31  34
ENDBRANCH  28  30
ENDBRANCH   5  28
TORSDOF 10
ENDMDL
MODEL 3
REMARK VINA RESULT: -6.833972478      3.676      8.307
REMARK  10 active torsions:
REMARK  status: ('A' for Active; 'I' for Inactive)
REMARK    1  A    between atoms: C2_2  and  C3_3 
REMARK    2  A    between atoms: C2_2  and  N7_32 
REMARK    3  A    between atoms: C3_3  and  N1_4 
REMARK    4  A    between atoms: N1_4  and  C4_6 
REMARK    5  A    between atoms: C4_6  and  O1_7 
REMARK    6  A    between atoms: C4_6  and  C5_9 
REMARK    7  A    between atoms: C6_10  and  C7_11 
REMARK    8  A    between atoms: C8_17  and  N3_18 
REMARK    9  A    between atoms: N3_18  and  N4_20 
REMARK       I    between atoms: N4_20  and  C9_22 
REMARK   10  A    between atoms: C9_22  and  C10_24 
ROOT
HETATM    1  C5  UNL     1      28.948   6.946  10.939  1.00  0.00     0.088 A 
HETATM    2  C6  UNL     1      29.493   7.363   9.754  1.00  0.00     0.150 A 
HETATM    3  N2  UNL     1      30.584   8.205   9.761  1.00  0.00    -0.184 N 
ATOM      4  H2  UNL     1      30.965   8.494   8.860  1.00  0.00     0.184 HD
HETATM    5  C8  UNL     1      31.171   8.663  10.849  1.00  0.00     0.698 A 
HETATM    6  N5  UNL     1      30.651   8.268  12.021  1.00  0.00    -0.176 N 
ATOM      7  H5  UNL     1      31.074   8.600  12.888  1.00  0.00     0.185 HD
HETATM    8  C14 UNL     1      29.604   7.459  12.087  1.00  0.00     0.148 A 
HETATM    9  N6  UNL     1      29.125   7.078  13.364  1.00  0.00    -0.081 NA
ENDROOT
BRANCH   1  10
HETATM   10  C4  UNL     1      27.810   6.121  11.136  1.00  0.00     0.151 C 
BRANCH  10  11
HETATM   11  N1  UNL     1      26.460   6.328  11.228  1.00  0.00    -0.368 N 
ATOM     12  H1  UNL     1      25.997   7.088  10.730  1.00  0.00     0.161 HD
BRANCH  11  13
HETATM   13  C3  UNL     1      25.703   5.383  12.095  1.00  0.00     0.146 C 
BRANCH  13  14
HETATM   14  C2  UNL     1      25.529   6.009  13.438  1.00  0.00     0.092 C 
HETATM   15  C1  UNL     1      24.801   7.327  13.332  1.00  0.00     0.033 C 
BRANCH  14  16
HETATM   16  N7  UNL     1      24.948   5.102  14.359  1.00  0.00    -0.407 N 
HETATM   17  C15 UNL     1      25.004   5.519  15.729  1.00  0.00     0.117 C 
HETATM   18  C16 UNL     1      23.746   6.060  16.304  1.00  0.00     0.019 C 
HETATM   19  C17 UNL     1      22.491   5.403  15.779  1.00  0.00     0.003 C 
HETATM   20  C18 UNL     1      22.911   4.094  15.150  1.00  0.00     0.019 C 
HETATM   21  C19 UNL     1      23.751   4.459  13.939  1.00  0.00     0.117 C 
ENDBRANCH  14  16
ENDBRANCH  13  14
ENDBRANCH  11  13
ENDBRANCH  10  11
BRANCH  10  22
HETATM   22  O1  UNL     1      28.115   4.838  11.255  1.00  0.00    -0.346 OA
ATOM     23  H1  UNL     1      28.879   4.710  11.805  1.00  0.00     0.219 HD
ENDBRANCH  10  22
ENDBRANCH   1  10
BRANCH   2  24
HETATM   24  C7  UNL     1      28.939   6.999   8.434  1.00  0.00     0.434 C 
HETATM   25  F1  UNL     1      27.846   7.763   8.118  1.00  0.00    -0.165 F 
HETATM   26  F2  UNL     1      28.865   5.666   8.180  1.00  0.00    -0.165 F 
HETATM   27  F3  UNL     1      29.922   7.467   7.485  1.00  0.00    -0.165 F 
ENDBRANCH   2  24
BRANCH   5  28
HETATM   28  N3  UNL     1      32.180   9.452  10.793  1.00  0.00    -0.129 N 
ATOM     29  H3  UNL     1      32.171  10.267  10.180  1.00  0.00     0.205 HD
BRANCH  28  30
HETATM   30  N4  UNL     1      33.294   9.168  11.594  1.00  0.00    -0.255 N 
HETATM   31  C9  UNL     1      34.612   9.294  11.128  1.00  0.00     0.244 C 
HETATM   32  O2  UNL     1      34.832   9.683   9.961  1.00  0.00    -0.271 OA
ATOM     33  H4  UNL     1      33.141   8.857  12.554  1.00  0.00     0.190 HD
BRANCH  31  34
HETATM   34  C10 UNL     1      35.714   8.952  12.050  1.00  0.00     0.032 C 
HETATM   35  C11 UNL     1      35.096   8.322  13.287  1.00  0.00     0.025 C 
HETATM   36  C12 UNL     1      36.391  10.264  12.449  1.00  0.00     0.025 C 
HETATM   37  C13 UNL     1      36.701   8.022  11.423  1.00  0.00     0.025 C 
ENDBRANCH  31  34
ENDBRANCH  28  30
ENDBRANCH   5  28
TORSDOF 10
ENDMDL
MODEL 4
REMARK VINA RESULT: -6.815918758      2.622      4.568
REMARK  10 active torsions:
REMARK  status: ('A' for Active; 'I' for Inactive)
REMARK    1  A    between atoms: C2_2  and  C3_3 
REMARK    2  A    between atoms: C2_2  and  N7_32 
REMARK    3  A    between atoms: C3_3  and  N1_4 
REMARK    4  A    between atoms: N1_4  and  C4_6 
REMARK    5  A    between atoms: C4_6  and  O1_7 
REMARK    6  A    between atoms: C4_6  and  C5_9 
REMARK    7  A    between atoms: C6_10  and  C7_11 
REMARK    8  A    between atoms: C8_17  and  N3_18 
REMARK    9  A    between atoms: N3_18  and  N4_20 
REMARK       I    between atoms: N4_20  and  C9_22 
REMARK   10  A    between atoms: C9_22  and  C10_24 
ROOT
HETATM    1  C5  UNL     1      25.663   6.700  14.328  1.00  0.00     0.088 A 
HETATM    2  C6  UNL     1      25.622   6.540  12.969  1.00  0.00     0.150 A 
HETATM    3  N2  UNL     1      24.765   5.615  12.414  1.00  0.00    -0.184 N 
ATOM      4  H2  UNL     1      24.759   5.525  11.398  1.00  0.00     0.184 HD
HETATM    5  C8  UNL     1      23.951   4.839  13.101  1.00  0.00     0.698 A 
HETATM    6  N5  UNL     1      23.978   4.978  14.436  1.00  0.00    -0.176 N 
ATOM      7  H5  UNL     1      23.365   4.395  15.006  1.00  0.00     0.185 HD
HETATM    8  C14 UNL     1      24.776   5.848  15.034  1.00  0.00     0.148 A 
HETATM    9  N6  UNL     1      24.732   5.943  16.447  1.00  0.00    -0.081 NA
ENDROOT
BRANCH   1  10
HETATM   10  C4  UNL     1      26.500   7.562  15.083  1.00  0.00     0.151 C 
BRANCH  10  11
HETATM   11  N1  UNL     1      26.576   8.913  15.291  1.00  0.00    -0.368 N 
ATOM     12  H1  UNL     1      27.465   9.412  15.259  1.00  0.00     0.161 HD
BRANCH  11  13
HETATM   13  C3  UNL     1      25.291   9.613  15.565  1.00  0.00     0.146 C 
BRANCH  13  14
HETATM   14  C2  UNL     1      24.769  10.163  14.280  1.00  0.00     0.092 C 
HETATM   15  C1  UNL     1      23.467   9.502  13.896  1.00  0.00     0.033 C 
BRANCH  14  16
HETATM   16  N7  UNL     1      24.709  11.579  14.311  1.00  0.00    -0.407 N 
HETATM   17  C15 UNL     1      25.142  12.224  13.107  1.00  0.00     0.117 C 
HETATM   18  C16 UNL     1      24.072  12.742  12.217  1.00  0.00     0.019 C 
HETATM   19  C17 UNL     1      22.860  13.270  12.947  1.00  0.00     0.003 C 
HETATM   20  C18 UNL     1      23.280  13.514  14.378  1.00  0.00     0.019 C 
HETATM   21  C19 UNL     1      23.583  12.147  14.967  1.00  0.00     0.117 C 
ENDBRANCH  14  16
ENDBRANCH  13  14
ENDBRANCH  11  13
ENDBRANCH  10  11
BRANCH  10  22
HETATM   22  O1  UNL     1      27.434   6.911  15.762  1.00  0.00    -0.346 OA
ATOM     23  H1  UNL     1      28.307   7.172  15.494  1.00  0.00     0.219 HD
ENDBRANCH  10  22
ENDBRANCH   1  10
BRANCH   2  24
HETATM   24  C7  UNL     1      26.498   7.281  12.038  1.00  0.00     0.434 C 
HETATM   25  F1  UNL     1      27.811   6.916  12.184  1.00  0.00    -0.165 F 
HETATM   26  F2  UNL     1      26.228   8.608  11.915  1.00  0.00    -0.165 F 
HETATM   27  F3  UNL     1      26.177   6.750  10.735  1.00  0.00    -0.165 F 
ENDBRANCH   2  24
BRANCH   5  28
HETATM   28  N3  UNL     1      23.181   3.989  12.529  1.00  0.00    -0.129 N 
ATOM     29  H3  UNL     1      22.202   3.904  12.804  1.00  0.00     0.205 HD
BRANCH  28  30
HETATM   30  N4  UNL     1      23.715   3.180  11.518  1.00  0.00    -0.255 N 
HETATM   31  C9  UNL     1      23.618   3.509  10.156  1.00  0.00     0.244 C 
HETATM   32  O2  UNL     1      23.049   4.563   9.803  1.00  0.00    -0.271 OA
ATOM     33  H4  UNL     1      24.192   2.317  11.780  1.00  0.00     0.190 HD
BRANCH  31  34
HETATM   34  C10 UNL     1      24.199   2.575   9.170  1.00  0.00     0.032 C 
HETATM   35  C11 UNL     1      24.228   1.197   9.807  1.00  0.00     0.025 C 
HETATM   36  C12 UNL     1      25.636   3.031   8.912  1.00  0.00     0.025 C 
HETATM   37  C13 UNL     1      23.420   2.550   7.895  1.00  0.00     0.025 C 
ENDBRANCH  31  34
ENDBRANCH  28  30
ENDBRANCH   5  28
TORSDOF 10
ENDMDL
MODEL 5
REMARK VINA RESULT: -6.814023824      4.148      8.007
REMARK  10 active torsions:
REMARK  status: ('A' for Active; 'I' for Inactive)
REMARK    1  A    between atoms: C2_2  and  C3_3 
REMARK    2  A    between atoms: C2_2  and  N7_32 
REMARK    3  A    between atoms: C3_3  and  N1_4 
REMARK    4  A    between atoms: N1_4  and  C4_6 
REMARK    5  A    between atoms: C4_6  and  O1_7 
REMARK    6  A    between atoms: C4_6  and  C5_9 
REMARK    7  A    between atoms: C6_10  and  C7_11 
REMARK    8  A    between atoms: C8_17  and  N3_18 
REMARK    9  A    between atoms: N3_18  and  N4_20 
REMARK       I    between atoms: N4_20  and  C9_22 
REMARK   10  A    between atoms: C9_22  and  C10_24 
ROOT
HETATM    1  C5  UNL     1      27.884   7.899  10.389  1.00  0.00     0.088 A 
HETATM    2  C6  UNL     1      28.812   8.019   9.390  1.00  0.00     0.150 A 
HETATM    3  N2  UNL     1      29.173   9.268   8.936  1.00  0.00    -0.184 N 
ATOM      4  H2  UNL     1      29.869   9.320   8.192  1.00  0.00     0.184 HD
HETATM    5  C8  UNL     1      28.683  10.403   9.394  1.00  0.00     0.698 A 
HETATM    6  N5  UNL     1      27.769  10.308  10.373  1.00  0.00    -0.176 N 
ATOM      7  H5  UNL     1      27.363  11.162  10.756  1.00  0.00     0.185 HD
HETATM    8  C14 UNL     1      27.379   9.139  10.856  1.00  0.00     0.148 A 
HETATM    9  N6  UNL     1      26.420   9.126  11.899  1.00  0.00    -0.081 NA
ENDROOT
BRANCH   1  10
HETATM   10  C4  UNL     1      27.356   6.709  10.956  1.00  0.00     0.151 C 
BRANCH  10  11
HETATM   11  N1  UNL     1      26.316   5.868  10.664  1.00  0.00    -0.368 N 
ATOM     12  H1  UNL     1      25.774   5.961   9.806  1.00  0.00     0.161 HD
BRANCH  11  13
HETATM   13  C3  UNL     1      26.022   4.808  11.669  1.00  0.00     0.146 C 
BRANCH  13  14
HETATM   14  C2  UNL     1      24.668   5.064  12.243  1.00  0.00     0.092 C 
HETATM   15  C1  UNL     1      23.685   4.006  11.806  1.00  0.00     0.033 C 
BRANCH  14  16
HETATM   16  N7  UNL     1      24.730   5.250  13.647  1.00  0.00    -0.407 N 
HETATM   17  C15 UNL     1      25.181   6.544  14.062  1.00  0.00     0.117 C 
HETATM   18  C16 UNL     1      24.134   7.487  14.532  1.00  0.00     0.019 C 
HETATM   19  C17 UNL     1      22.992   6.827  15.269  1.00  0.00     0.003 C 
HETATM   20  C18 UNL     1      23.472   5.457  15.688  1.00  0.00     0.019 C 
HETATM   21  C19 UNL     1      23.675   4.671  14.404  1.00  0.00     0.117 C 
ENDBRANCH  14  16
ENDBRANCH  13  14
ENDBRANCH  11  13
ENDBRANCH  10  11
BRANCH  10  22
HETATM   22  O1  UNL     1      28.029   6.302  12.022  1.00  0.00    -0.346 OA
ATOM     23  H1  UNL     1      28.857   6.760  12.108  1.00  0.00     0.219 HD
ENDBRANCH  10  22
ENDBRANCH   1  10
BRANCH   2  24
HETATM   24  C7  UNL     1      29.431   6.859   8.714  1.00  0.00     0.434 C 
HETATM   25  F1  UNL     1      28.488   6.064   8.115  1.00  0.00    -0.165 F 
HETATM   26  F2  UNL     1      30.422   6.240   9.409  1.00  0.00    -0.165 F 
HETATM   27  F3  UNL     1      30.119   7.424   7.578  1.00  0.00    -0.165 F 
ENDBRANCH   2  24
BRANCH   5  28
HETATM   28  N3  UNL     1      29.051  11.538   8.927  1.00  0.00    -0.129 N 
ATOM     29  H3  UNL     1      30.033  11.815   8.942  1.00  0.00     0.205 HD
BRANCH  28  30
HETATM   30  N4  UNL     1      28.074  12.389   8.394  1.00  0.00    -0.255 N 
HETATM   31  C9  UNL     1      28.349  13.714   8.020  1.00  0.00     0.244 C 
HETATM   32  O2  UNL     1      29.502  14.177   8.145  1.00  0.00    -0.271 OA
ATOM     33  H4  UNL     1      27.126  12.033   8.274  1.00  0.00     0.190 HD
BRANCH  31  34
HETATM   34  C10 UNL     1      27.241  14.532   7.485  1.00  0.00     0.032 C 
HETATM   35  C11 UNL     1      26.414  13.642   6.574  1.00  0.00     0.025 C 
HETATM   36  C12 UNL     1      27.868  15.648   6.648  1.00  0.00     0.025 C 
HETATM   37  C13 UNL     1      26.392  15.106   8.573  1.00  0.00     0.025 C 
ENDBRANCH  31  34
ENDBRANCH  28  30
ENDBRANCH   5  28
TORSDOF 10
ENDMDL
