MODEL 1
REMARK VINA RESULT: -7.871566487      0.000      0.000
REMARK  12 active torsions:
REMARK  status: ('A' for Active; 'I' for Inactive)
REMARK    1  A    between atoms: C2_2  and  O2_4 
REMARK    2  A    between atoms: O2_4  and  C3_5 
REMARK    3  A    between atoms: C6_8  and  C7_9 
REMARK    4  A    between atoms: C7_9  and  O3_11 
REMARK    5  A    between atoms: N1_16  and  C11_17 
REMARK    6  A    between atoms: C11_17  and  C14_25 
REMARK    7  A    between atoms: N2_18  and  C12_20 
REMARK    8  A    between atoms: C12_20  and  C13_21 
REMARK    9  A    between atoms: C14_25  and  O4_26 
REMARK   10  A    between atoms: C14_25  and  N3_28 
REMARK   11  A    between atoms: N3_28  and  C15_30 
REMARK   12  A    between atoms: C15_30  and  C16_31 
ROOT
HETATM    1  C11 UNL     1      24.757   7.653  13.466  1.00  0.00     0.126 C 
HETATM    2  N2  UNL     1      24.029   6.825  14.045  1.00  0.00    -0.368 N 
ATOM      3  H2  UNL     1      24.051   5.918  13.579  1.00  0.00     0.161 HD
ENDROOT
BRANCH   1   4
HETATM    4  N1  UNL     1      25.508   7.274  12.279  1.00  0.00    -0.349 N 
HETATM    5  C10 UNL     1      25.073   7.752  10.968  1.00  0.00     0.199 C 
HETATM    6  S1  UNL     1      26.705   7.948  10.134  1.00  0.00    -0.141 SA
HETATM    7  C9  UNL     1      27.745   7.358  11.522  1.00  0.00     0.083 C 
HETATM    8  C6  UNL     1      28.747   6.327  11.100  1.00  0.00     0.034 C 
HETATM    9  C20 UNL     1      26.672   6.464  12.193  1.00  0.00     0.132 C 
HETATM   10  C5  UNL     1      27.879   5.285  10.446  1.00  0.00     0.046 C 
HETATM   11  C4  UNL     1      26.572   5.376  11.198  1.00  0.00    -0.033 C 
HETATM   12  C3  UNL     1      25.556   4.577  10.936  1.00  0.00     0.150 C 
BRANCH   8  13
HETATM   13  C7  UNL     1      29.858   6.855  10.265  1.00  0.00     0.119 C 
HETATM   14  C8  UNL     1      29.963   6.268   8.886  1.00  0.00     0.040 C 
BRANCH  13  15
HETATM   15  O3  UNL     1      31.086   6.682  10.899  1.00  0.00    -0.396 OA
ATOM     16  H3  UNL     1      31.803   6.920  10.324  1.00  0.00     0.210 HD
ENDBRANCH  13  15
ENDBRANCH   8  13
BRANCH  12  17
HETATM   17  O2  UNL     1      25.586   3.586   9.960  1.00  0.00    -0.291 OA
BRANCH  17  18
HETATM   18  C2  UNL     1      24.461   2.793   9.696  1.00  0.00     0.259 C 
HETATM   19  C1  UNL     1      24.511   1.331   9.540  1.00  0.00     0.126 C 
HETATM   20  O1  UNL     1      23.358   3.384   9.591  1.00  0.00    -0.265 OA
ENDBRANCH  17  18
ENDBRANCH  12  17
ENDBRANCH   1   4
BRANCH   1  21
HETATM   21  C14 UNL     1      24.877   9.067  13.993  1.00  0.00     0.285 C 
BRANCH  21  22
HETATM   22  O4  UNL     1      26.147   9.566  13.650  1.00  0.00    -0.370 OA
ATOM     23  H4  UNL     1      26.685   9.586  14.432  1.00  0.00     0.212 HD
ENDBRANCH  21  22
BRANCH  21  24
HETATM   24  N3  UNL     1      23.941   9.923  13.362  1.00  0.00    -0.370 N 
ATOM     25  H3  UNL     1      23.489   9.610  12.503  1.00  0.00     0.161 HD
BRANCH  24  26
HETATM   26  C15 UNL     1      23.613  11.180  13.873  1.00  0.00     0.067 C 
BRANCH  26  27
HETATM   27  C16 UNL     1      23.913  12.420  13.125  1.00  0.00    -0.019 C 
HETATM   28  C17 UNL     1      24.801  12.323  11.929  1.00  0.00     0.020 C 
HETATM   29  C18 UNL     1      24.451  13.439  14.154  1.00  0.00     0.020 C 
HETATM   30  C19 UNL     1      22.615  13.095  12.633  1.00  0.00     0.020 C 
ENDBRANCH  26  27
ENDBRANCH  24  26
ENDBRANCH  21  24
ENDBRANCH   1  21
BRANCH   2  31
HETATM   31  C12 UNL     1      23.187   6.809  15.167  1.00  0.00     0.238 C 
BRANCH  31  32
HETATM   32  C13 UNL     1      23.174   5.355  15.706  1.00  0.00     0.403 C 
HETATM   33  F1  UNL     1      21.890   4.919  15.926  1.00  0.00    -0.169 F 
HETATM   34  F2  UNL     1      23.734   4.492  14.787  1.00  0.00    -0.169 F 
HETATM   35  F3  UNL     1      23.853   5.315  16.907  1.00  0.00    -0.169 F 
ENDBRANCH  31  32
ENDBRANCH   2  31
TORSDOF 12
ENDMDL
MODEL 2
REMARK VINA RESULT: -7.720787858      1.091      1.359
REMARK  12 active torsions:
REMARK  status: ('A' for Active; 'I' for Inactive)
REMARK    1  A    between atoms: C2_2  and  O2_4 
REMARK    2  A    between atoms: O2_4  and  C3_5 
REMARK    3  A    between atoms: C6_8  and  C7_9 
REMARK    4  A    between atoms: C7_9  and  O3_11 
REMARK    5  A    between atoms: N1_16  and  C11_17 
REMARK    6  A    between atoms: C11_17  and  C14_25 
REMARK    7  A    between atoms: N2_18  and  C12_20 
REMARK    8  A    between atoms: C12_20  and  C13_21 
REMARK    9  A    between atoms: C14_25  and  O4_26 
REMARK   10  A    between atoms: C14_25  and  N3_28 
REMARK   11  A    between atoms: N3_28  and  C15_30 
REMARK   12  A    between atoms: C15_30  and  C16_31 
ROOT
HETATM    1  C11 UNL     1      24.976   7.103  13.865  1.00  0.00     0.126 C 
HETATM    2  N2  UNL     1      23.870   6.589  14.114  1.00  0.00    -0.368 N 
ATOM      3  H2  UNL     1      23.511   6.067  13.315  1.00  0.00     0.161 HD
ENDROOT
BRANCH   1   4
HETATM    4  N1  UNL     1      25.597   6.922  12.562  1.00  0.00    -0.349 N 
HETATM    5  C10 UNL     1      25.024   7.585  11.392  1.00  0.00     0.199 C 
HETATM    6  S1  UNL     1      26.558   7.935  10.432  1.00  0.00    -0.141 SA
HETATM    7  C9  UNL     1      27.741   7.161  11.597  1.00  0.00     0.083 C 
HETATM    8  C6  UNL     1      28.695   6.224  10.920  1.00  0.00     0.034 C 
HETATM    9  C20 UNL     1      26.748   6.156  12.232  1.00  0.00     0.132 C 
HETATM   10  C5  UNL     1      27.765   5.277  10.209  1.00  0.00     0.046 C 
HETATM   11  C4  UNL     1      26.545   5.229  11.099  1.00  0.00    -0.033 C 
HETATM   12  C3  UNL     1      25.509   4.460  10.826  1.00  0.00     0.150 C 
BRANCH   8  13
HETATM   13  C7  UNL     1      29.710   6.894  10.063  1.00  0.00     0.119 C 
HETATM   14  C8  UNL     1      29.782   6.401   8.646  1.00  0.00     0.040 C 
BRANCH  13  15
HETATM   15  O3  UNL     1      30.982   6.787  10.620  1.00  0.00    -0.396 OA
ATOM     16  H3  UNL     1      31.162   7.516  11.201  1.00  0.00     0.210 HD
ENDBRANCH  13  15
ENDBRANCH   8  13
BRANCH  12  17
HETATM   17  O2  UNL     1      25.437   3.629   9.712  1.00  0.00    -0.291 OA
BRANCH  17  18
HETATM   18  C2  UNL     1      24.387   2.715   9.555  1.00  0.00     0.259 C 
HETATM   19  C1  UNL     1      24.561   1.255   9.604  1.00  0.00     0.126 C 
HETATM   20  O1  UNL     1      23.241   3.191   9.364  1.00  0.00    -0.265 OA
ENDBRANCH  17  18
ENDBRANCH  12  17
ENDBRANCH   1   4
BRANCH   1  21
HETATM   21  C14 UNL     1      25.695   7.920  14.916  1.00  0.00     0.285 C 
BRANCH  21  22
HETATM   22  O4  UNL     1      26.736   7.141  15.454  1.00  0.00    -0.370 OA
ATOM     23  H4  UNL     1      27.559   7.590  15.301  1.00  0.00     0.212 HD
ENDBRANCH  21  22
BRANCH  21  24
HETATM   24  N3  UNL     1      26.319   9.054  14.338  1.00  0.00    -0.370 N 
ATOM     25  H3  UNL     1      27.064   8.910  13.657  1.00  0.00     0.161 HD
BRANCH  24  26
HETATM   26  C15 UNL     1      25.951  10.359  14.667  1.00  0.00     0.067 C 
BRANCH  26  27
HETATM   27  C16 UNL     1      25.030  11.139  13.814  1.00  0.00    -0.019 C 
HETATM   28  C17 UNL     1      25.249  11.119  12.337  1.00  0.00     0.020 C 
HETATM   29  C18 UNL     1      25.023  12.580  14.370  1.00  0.00     0.020 C 
HETATM   30  C19 UNL     1      23.567  10.691  14.029  1.00  0.00     0.020 C 
ENDBRANCH  26  27
ENDBRANCH  24  26
ENDBRANCH  21  24
ENDBRANCH   1  21
BRANCH   2  31
HETATM   31  C12 UNL     1      22.986   6.536  15.203  1.00  0.00     0.238 C 
BRANCH  31  32
HETATM   32  C13 UNL     1      23.166   5.148  15.871  1.00  0.00     0.403 C 
HETATM   33  F1  UNL     1      23.619   4.219  14.967  1.00  0.00    -0.169 F 
HETATM   34  F2  UNL     1      24.107   5.214  16.878  1.00  0.00    -0.169 F 
HETATM   35  F3  UNL     1      21.946   4.720  16.354  1.00  0.00    -0.169 F 
ENDBRANCH  31  32
ENDBRANCH   2  31
TORSDOF 12
ENDMDL
MODEL 3
REMARK VINA RESULT: -7.572740570      2.425      2.967
REMARK  12 active torsions:
REMARK  status: ('A' for Active; 'I' for Inactive)
REMARK    1  A    between atoms: C2_2  and  O2_4 
REMARK    2  A    between atoms: O2_4  and  C3_5 
REMARK    3  A    between atoms: C6_8  and  C7_9 
REMARK    4  A    between atoms: C7_9  and  O3_11 
REMARK    5  A    between atoms: N1_16  and  C11_17 
REMARK    6  A    between atoms: C11_17  and  C14_25 
REMARK    7  A    between atoms: N2_18  and  C12_20 
REMARK    8  A    between atoms: C12_20  and  C13_21 
REMARK    9  A    between atoms: C14_25  and  O4_26 
REMARK   10  A    between atoms: C14_25  and  N3_28 
REMARK   11  A    between atoms: N3_28  and  C15_30 
REMARK   12  A    between atoms: C15_30  and  C16_31 
ROOT
HETATM    1  C11 UNL     1      24.912   6.945  13.871  1.00  0.00     0.126 C 
HETATM    2  N2  UNL     1      23.777   6.549  14.195  1.00  0.00    -0.368 N 
ATOM      3  H2  UNL     1      23.305   6.089  13.416  1.00  0.00     0.161 HD
ENDROOT
BRANCH   1   4
HETATM    4  N1  UNL     1      25.414   6.729  12.523  1.00  0.00    -0.349 N 
HETATM    5  C10 UNL     1      24.963   7.599  11.438  1.00  0.00     0.199 C 
HETATM    6  S1  UNL     1      26.491   7.656  10.410  1.00  0.00    -0.141 SA
HETATM    7  C9  UNL     1      27.507   6.536  11.444  1.00  0.00     0.083 C 
HETATM    8  C6  UNL     1      28.180   5.459  10.647  1.00  0.00     0.034 C 
HETATM    9  C20 UNL     1      26.333   5.744  12.071  1.00  0.00     0.132 C 
HETATM   10  C5  UNL     1      27.020   4.816   9.934  1.00  0.00     0.046 C 
HETATM   11  C4  UNL     1      25.865   4.984  10.893  1.00  0.00    -0.033 C 
HETATM   12  C3  UNL     1      24.664   4.503  10.635  1.00  0.00     0.150 C 
BRANCH   8  13
HETATM   13  C7  UNL     1      29.285   5.939   9.776  1.00  0.00     0.119 C 
HETATM   14  C8  UNL     1      30.082   7.089  10.322  1.00  0.00     0.040 C 
BRANCH  13  15
HETATM   15  O3  UNL     1      28.807   6.307   8.520  1.00  0.00    -0.396 OA
ATOM     16  H3  UNL     1      28.634   7.240   8.481  1.00  0.00     0.210 HD
ENDBRANCH  13  15
ENDBRANCH   8  13
BRANCH  12  17
HETATM   17  O2  UNL     1      24.347   3.804   9.474  1.00  0.00    -0.291 OA
BRANCH  17  18
HETATM   18  C2  UNL     1      23.856   2.493   9.528  1.00  0.00     0.259 C 
HETATM   19  C1  UNL     1      24.717   1.302   9.604  1.00  0.00     0.126 C 
HETATM   20  O1  UNL     1      22.609   2.349   9.509  1.00  0.00    -0.265 OA
ENDBRANCH  17  18
ENDBRANCH  12  17
ENDBRANCH   1   4
BRANCH   1  21
HETATM   21  C14 UNL     1      25.791   7.654  14.879  1.00  0.00     0.285 C 
BRANCH  21  22
HETATM   22  O4  UNL     1      26.656   6.709  15.461  1.00  0.00    -0.370 OA
ATOM     23  H4  UNL     1      26.184   5.891  15.564  1.00  0.00     0.212 HD
ENDBRANCH  21  22
BRANCH  21  24
HETATM   24  N3  UNL     1      26.628   8.604  14.242  1.00  0.00    -0.370 N 
ATOM     25  H3  UNL     1      26.399   8.903  13.294  1.00  0.00     0.161 HD
BRANCH  24  26
HETATM   26  C15 UNL     1      27.755   9.144  14.862  1.00  0.00     0.067 C 
BRANCH  26  27
HETATM   27  C16 UNL     1      29.087   9.095  14.222  1.00  0.00    -0.019 C 
HETATM   28  C17 UNL     1      29.762   7.769  14.101  1.00  0.00     0.020 C 
HETATM   29  C18 UNL     1      29.973  10.121  14.964  1.00  0.00     0.020 C 
HETATM   30  C19 UNL     1      29.033   9.673  12.791  1.00  0.00     0.020 C 
ENDBRANCH  26  27
ENDBRANCH  24  26
ENDBRANCH  21  24
ENDBRANCH   1  21
BRANCH   2  31
HETATM   31  C12 UNL     1      22.975   6.568  15.346  1.00  0.00     0.238 C 
BRANCH  31  32
HETATM   32  C13 UNL     1      23.109   5.177  16.018  1.00  0.00     0.403 C 
HETATM   33  F1  UNL     1      23.647   4.257  15.152  1.00  0.00    -0.169 F 
HETATM   34  F2  UNL     1      23.957   5.243  17.104  1.00  0.00    -0.169 F 
HETATM   35  F3  UNL     1      21.855   4.735  16.390  1.00  0.00    -0.169 F 
ENDBRANCH  31  32
ENDBRANCH   2  31
TORSDOF 12
ENDMDL
MODEL 4
REMARK VINA RESULT: -7.512049217      2.782      4.562
REMARK  12 active torsions:
REMARK  status: ('A' for Active; 'I' for Inactive)
REMARK    1  A    between atoms: C2_2  and  O2_4 
REMARK    2  A    between atoms: O2_4  and  C3_5 
REMARK    3  A    between atoms: C6_8  and  C7_9 
REMARK    4  A    between atoms: C7_9  and  O3_11 
REMARK    5  A    between atoms: N1_16  and  C11_17 
REMARK    6  A    between atoms: C11_17  and  C14_25 
REMARK    7  A    between atoms: N2_18  and  C12_20 
REMARK    8  A    between atoms: C12_20  and  C13_21 
REMARK    9  A    between atoms: C14_25  and  O4_26 
REMARK   10  A    between atoms: C14_25  and  N3_28 
REMARK   11  A    between atoms: N3_28  and  C15_30 
REMARK   12  A    between atoms: C15_30  and  C16_31 
ROOT
HETATM    1  C11 UNL     1      25.603   8.481  13.551  1.00  0.00     0.126 C 
HETATM    2  N2  UNL     1      26.385   9.174  14.227  1.00  0.00    -0.368 N 
ATOM      3  H2  UNL     1      27.301   9.244  13.784  1.00  0.00     0.161 HD
ENDROOT
BRANCH   1   4
HETATM    4  N1  UNL     1      26.037   7.890  12.294  1.00  0.00    -0.349 N 
HETATM    5  C10 UNL     1      25.525   8.422  11.033  1.00  0.00     0.199 C 
HETATM    6  S1  UNL     1      26.999   8.177   9.954  1.00  0.00    -0.141 SA
HETATM    7  C9  UNL     1      28.075   7.387  11.209  1.00  0.00     0.083 C 
HETATM    8  C6  UNL     1      28.715   6.125  10.715  1.00  0.00     0.034 C 
HETATM    9  C20 UNL     1      26.940   6.812  12.093  1.00  0.00     0.132 C 
HETATM   10  C5  UNL     1      27.526   5.315  10.271  1.00  0.00     0.046 C 
HETATM   11  C4  UNL     1      26.419   5.754  11.201  1.00  0.00    -0.033 C 
HETATM   12  C3  UNL     1      25.212   5.228  11.150  1.00  0.00     0.150 C 
BRANCH   8  13
HETATM   13  C7  UNL     1      29.771   6.333   9.688  1.00  0.00     0.119 C 
HETATM   14  C8  UNL     1      30.476   7.658   9.748  1.00  0.00     0.040 C 
BRANCH  13  15
HETATM   15  O3  UNL     1      29.255   6.180   8.403  1.00  0.00    -0.396 OA
ATOM     16  H3  UNL     1      29.140   5.261   8.190  1.00  0.00     0.210 HD
ENDBRANCH  13  15
ENDBRANCH   8  13
BRANCH  12  17
HETATM   17  O2  UNL     1      24.841   4.232  10.252  1.00  0.00    -0.291 OA
BRANCH  17  18
HETATM   18  C2  UNL     1      23.519   3.773  10.180  1.00  0.00     0.259 C 
HETATM   19  C1  UNL     1      23.154   2.358  10.008  1.00  0.00     0.126 C 
HETATM   20  O1  UNL     1      22.611   4.635  10.271  1.00  0.00    -0.265 OA
ENDBRANCH  17  18
ENDBRANCH  12  17
ENDBRANCH   1   4
BRANCH   1  21
HETATM   21  C14 UNL     1      24.184   8.248  14.022  1.00  0.00     0.285 C 
BRANCH  21  22
HETATM   22  O4  UNL     1      23.302   8.840  13.099  1.00  0.00    -0.370 OA
ATOM     23  H4  UNL     1      22.915   9.608  13.502  1.00  0.00     0.212 HD
ENDBRANCH  21  22
BRANCH  21  24
HETATM   24  N3  UNL     1      23.871   6.866  14.024  1.00  0.00    -0.370 N 
ATOM     25  H3  UNL     1      24.089   6.312  13.195  1.00  0.00     0.161 HD
BRANCH  24  26
HETATM   26  C15 UNL     1      23.276   6.234  15.117  1.00  0.00     0.067 C 
BRANCH  26  27
HETATM   27  C16 UNL     1      23.273   4.762  15.250  1.00  0.00    -0.019 C 
HETATM   28  C17 UNL     1      22.081   4.112  15.870  1.00  0.00     0.020 C 
HETATM   29  C18 UNL     1      24.578   4.380  15.985  1.00  0.00     0.020 C 
HETATM   30  C19 UNL     1      23.455   4.083  13.875  1.00  0.00     0.020 C 
ENDBRANCH  26  27
ENDBRANCH  24  26
ENDBRANCH  21  24
ENDBRANCH   1  21
BRANCH   2  31
HETATM   31  C12 UNL     1      26.342   9.882  15.438  1.00  0.00     0.238 C 
BRANCH  31  32
HETATM   32  C13 UNL     1      25.930  11.339  15.100  1.00  0.00     0.403 C 
HETATM   33  F1  UNL     1      24.572  11.443  14.929  1.00  0.00    -0.169 F 
HETATM   34  F2  UNL     1      26.267  12.189  16.132  1.00  0.00    -0.169 F 
HETATM   35  F3  UNL     1      26.542  11.717  13.922  1.00  0.00    -0.169 F 
ENDBRANCH  31  32
ENDBRANCH   2  31
TORSDOF 12
ENDMDL
MODEL 5
REMARK VINA RESULT: -7.474807325      2.643      4.471
REMARK  12 active torsions:
REMARK  status: ('A' for Active; 'I' for Inactive)
REMARK    1  A    between atoms: C2_2  and  O2_4 
REMARK    2  A    between atoms: O2_4  and  C3_5 
REMARK    3  A    between atoms: C6_8  and  C7_9 
REMARK    4  A    between atoms: C7_9  and  O3_11 
REMARK    5  A    between atoms: N1_16  and  C11_17 
REMARK    6  A    between atoms: C11_17  and  C14_25 
REMARK    7  A    between atoms: N2_18  and  C12_20 
REMARK    8  A    between atoms: C12_20  and  C13_21 
REMARK    9  A    between atoms: C14_25  and  O4_26 
REMARK   10  A    between atoms: C14_25  and  N3_28 
REMARK   11  A    between atoms: N3_28  and  C15_30 
REMARK   12  A    between atoms: C15_30  and  C16_31 
ROOT
HETATM    1  C11 UNL     1      24.935   8.564  13.584  1.00  0.00     0.126 C 
HETATM    2  N2  UNL     1      24.232   9.590  13.547  1.00  0.00    -0.368 N 
ATOM      3  H2  UNL     1      24.143   9.948  12.596  1.00  0.00     0.161 HD
ENDROOT
BRANCH   1   4
HETATM    4  N1  UNL     1      25.512   8.019  12.365  1.00  0.00    -0.349 N 
HETATM    5  C10 UNL     1      25.037   8.496  11.068  1.00  0.00     0.199 C 
HETATM    6  S1  UNL     1      26.599   8.400  10.094  1.00  0.00    -0.141 SA
HETATM    7  C9  UNL     1      27.660   7.723  11.426  1.00  0.00     0.083 C 
HETATM    8  C6  UNL     1      28.456   6.532  10.986  1.00  0.00     0.034 C 
HETATM    9  C20 UNL     1      26.530   7.037  12.234  1.00  0.00     0.132 C 
HETATM   10  C5  UNL     1      27.388   5.606  10.468  1.00  0.00     0.046 C 
HETATM   11  C4  UNL     1      26.181   5.932  11.317  1.00  0.00    -0.033 C 
HETATM   12  C3  UNL     1      25.039   5.286  11.187  1.00  0.00     0.150 C 
BRANCH   8  13
HETATM   13  C7  UNL     1      29.554   6.844  10.033  1.00  0.00     0.119 C 
HETATM   14  C8  UNL     1      29.432   6.208   8.678  1.00  0.00     0.040 C 
BRANCH  13  15
HETATM   15  O3  UNL     1      30.792   6.489  10.564  1.00  0.00    -0.396 OA
ATOM     16  H3  UNL     1      31.296   7.259  10.797  1.00  0.00     0.210 HD
ENDBRANCH  13  15
ENDBRANCH   8  13
BRANCH  12  17
HETATM   17  O2  UNL     1      24.833   4.257  10.272  1.00  0.00    -0.291 OA
BRANCH  17  18
HETATM   18  C2  UNL     1      23.569   3.676  10.105  1.00  0.00     0.259 C 
HETATM   19  C1  UNL     1      23.360   2.257   9.778  1.00  0.00     0.126 C 
HETATM   20  O1  UNL     1      22.573   4.428  10.247  1.00  0.00    -0.265 OA
ENDBRANCH  17  18
ENDBRANCH  12  17
ENDBRANCH   1   4
BRANCH   1  21
HETATM   21  C14 UNL     1      25.195   7.862  14.900  1.00  0.00     0.285 C 
BRANCH  21  22
HETATM   22  O4  UNL     1      25.788   8.780  15.786  1.00  0.00    -0.370 OA
ATOM     23  H4  UNL     1      26.207   8.295  16.487  1.00  0.00     0.212 HD
ENDBRANCH  21  22
BRANCH  21  24
HETATM   24  N3  UNL     1      23.981   7.462  15.510  1.00  0.00    -0.370 N 
ATOM     25  H3  UNL     1      23.679   7.938  16.361  1.00  0.00     0.161 HD
BRANCH  24  26
HETATM   26  C15 UNL     1      23.182   6.443  14.991  1.00  0.00     0.067 C 
BRANCH  26  27
HETATM   27  C16 UNL     1      23.333   5.041  15.437  1.00  0.00    -0.019 C 
HETATM   28  C17 UNL     1      24.367   4.738  16.470  1.00  0.00     0.020 C 
HETATM   29  C18 UNL     1      23.530   4.190  14.163  1.00  0.00     0.020 C 
HETATM   30  C19 UNL     1      22.002   4.496  16.001  1.00  0.00     0.020 C 
ENDBRANCH  26  27
ENDBRANCH  24  26
ENDBRANCH  21  24
ENDBRANCH   1  21
BRANCH   2  31
HETATM   31  C12 UNL     1      23.530  10.386  14.465  1.00  0.00     0.238 C 
BRANCH  31  32
HETATM   32  C13 UNL     1      23.736  11.863  14.041  1.00  0.00     0.403 C 
HETATM   33  F1  UNL     1      23.539  12.715  15.100  1.00  0.00    -0.169 F 
HETATM   34  F2  UNL     1      25.030  12.065  13.604  1.00  0.00    -0.169 F 
HETATM   35  F3  UNL     1      22.822  12.181  13.057  1.00  0.00    -0.169 F 
ENDBRANCH  31  32
ENDBRANCH   2  31
TORSDOF 12
ENDMDL
