MODEL 1
REMARK VINA RESULT: -5.403147884      0.000      0.000
REMARK  3 active torsions:
REMARK  status: ('A' for Active; 'I' for Inactive)
REMARK    1  A    between atoms: N1_1  and  C1_4 
REMARK    2  A    between atoms: C2_7  and  C3_8 
REMARK       I    between atoms: C3_8  and  N3_10 
REMARK    3  A    between atoms: N3_10  and  N4_12 
ROOT
HETATM    1  C1  UNL     1       2.763 -14.486  -2.085  1.00  0.00     0.681 A 
HETATM    2  N2  UNL     1       4.023 -14.947  -1.984  1.00  0.00    -0.171 N 
ATOM      3  H2  UNL     1       4.466 -15.359  -2.806  1.00  0.00     0.186 HD
HETATM    4  C2  UNL     1       4.723 -14.881  -0.825  1.00  0.00     0.195 A 
HETATM    5  N5  UNL     1       4.157 -14.349   0.249  1.00  0.00    -0.289 N 
ATOM      6  H5  UNL     1       4.668 -14.291   1.130  1.00  0.00     0.172 HD
HETATM    7  C4  UNL     1       2.896 -13.886   0.158  1.00  0.00     0.340 A 
HETATM    8  O2  UNL     1       2.373 -13.384   1.187  1.00  0.00    -0.246 OA
HETATM    9  N6  UNL     1       2.188 -13.950  -1.005  1.00  0.00    -0.141 N 
ATOM     10  H6  UNL     1       1.234 -13.594  -1.050  1.00  0.00     0.189 HD
ENDROOT
BRANCH   4  11
HETATM   11  C3  UNL     1       6.096 -15.402  -0.780  1.00  0.00     0.304 C 
HETATM   12  O1  UNL     1       6.661 -15.574   0.326  1.00  0.00    -0.263 OA
HETATM   13  N3  UNL     1       6.755 -15.701  -2.001  1.00  0.00    -0.270 N 
ATOM     14  H3  UNL     1       6.283 -15.556  -2.893  1.00  0.00     0.189 HD
BRANCH  13  15
HETATM   15  N4  UNL     1       8.060 -16.196  -1.961  1.00  0.00    -0.342 N 
ATOM     16  H42 UNL     1       8.440 -16.542  -1.080  1.00  0.00     0.176 HD
ATOM     17  H41 UNL     1       8.612 -16.203  -2.819  1.00  0.00     0.176 HD
ENDBRANCH  13  15
ENDBRANCH   4  11
BRANCH   1  18
HETATM   18  N1  UNL     1       2.145 -14.575  -3.215  1.00  0.00    -0.234 N 
ATOM     19  H12 UNL     1       1.654 -15.423  -3.496  1.00  0.00     0.174 HD
ATOM     20  H11 UNL     1       2.145 -13.776  -3.849  1.00  0.00     0.174 HD
ENDBRANCH   1  18
TORSDOF 3
ENDMDL
MODEL 2
REMARK VINA RESULT: -5.211044515      2.292      4.738
REMARK  3 active torsions:
REMARK  status: ('A' for Active; 'I' for Inactive)
REMARK    1  A    between atoms: N1_1  and  C1_4 
REMARK    2  A    between atoms: C2_7  and  C3_8 
REMARK       I    between atoms: C3_8  and  N3_10 
REMARK    3  A    between atoms: N3_10  and  N4_12 
ROOT
HETATM    1  C1  UNL     1       2.556 -14.066  -0.033  1.00  0.00     0.681 A 
HETATM    2  N2  UNL     1       1.856 -14.339  -1.150  1.00  0.00    -0.171 N 
ATOM      3  H2  UNL     1       0.843 -14.221  -1.139  1.00  0.00     0.186 HD
HETATM    4  C2  UNL     1       2.456 -14.766  -2.289  1.00  0.00     0.195 A 
HETATM    5  N5  UNL     1       3.772 -14.924  -2.314  1.00  0.00    -0.289 N 
ATOM      6  H5  UNL     1       4.240 -15.245  -3.161  1.00  0.00     0.172 HD
HETATM    7  C4  UNL     1       4.479 -14.654  -1.201  1.00  0.00     0.340 A 
HETATM    8  O2  UNL     1       5.728 -14.810  -1.240  1.00  0.00    -0.246 OA
HETATM    9  N6  UNL     1       3.882 -14.225  -0.053  1.00  0.00    -0.141 N 
ATOM     10  H6  UNL     1       4.439 -14.028   0.778  1.00  0.00     0.189 HD
ENDROOT
BRANCH   4  11
HETATM   11  C3  UNL     1       1.635 -15.047  -3.475  1.00  0.00     0.304 C 
HETATM   12  O1  UNL     1       2.183 -15.435  -4.534  1.00  0.00    -0.263 OA
HETATM   13  N3  UNL     1       0.228 -14.872  -3.391  1.00  0.00    -0.270 N 
ATOM     14  H3  UNL     1      -0.203 -14.557  -2.523  1.00  0.00     0.189 HD
BRANCH  13  15
HETATM   15  N4  UNL     1      -0.553 -15.139  -4.517  1.00  0.00    -0.342 N 
ATOM     16  H42 UNL     1      -0.100 -15.350  -5.406  1.00  0.00     0.176 HD
ATOM     17  H41 UNL     1      -1.569 -15.117  -4.429  1.00  0.00     0.176 HD
ENDBRANCH  13  15
ENDBRANCH   4  11
BRANCH   1  18
HETATM   18  N1  UNL     1       1.932 -13.662   1.022  1.00  0.00    -0.234 N 
ATOM     19  H12 UNL     1       2.053 -12.719   1.392  1.00  0.00     0.174 HD
ATOM     20  H11 UNL     1       1.300 -14.300   1.505  1.00  0.00     0.174 HD
ENDBRANCH   1  18
TORSDOF 3
ENDMDL
MODEL 3
REMARK VINA RESULT: -5.137611624      2.122      4.426
REMARK  3 active torsions:
REMARK  status: ('A' for Active; 'I' for Inactive)
REMARK    1  A    between atoms: N1_1  and  C1_4 
REMARK    2  A    between atoms: C2_7  and  C3_8 
REMARK       I    between atoms: C3_8  and  N3_10 
REMARK    3  A    between atoms: N3_10  and  N4_12 
ROOT
HETATM    1  C1  UNL     1       4.808 -14.915  -1.370  1.00  0.00     0.681 A 
HETATM    2  N2  UNL     1       3.945 -15.126  -2.380  1.00  0.00    -0.171 N 
ATOM      3  H2  UNL     1       4.277 -15.593  -3.225  1.00  0.00     0.186 HD
HETATM    4  C2  UNL     1       2.648 -14.738  -2.311  1.00  0.00     0.195 A 
HETATM    5  N5  UNL     1       2.206 -14.129  -1.220  1.00  0.00    -0.289 N 
ATOM      6  H5  UNL     1       1.233 -13.830  -1.150  1.00  0.00     0.172 HD
HETATM    7  C4  UNL     1       3.063 -13.913  -0.205  1.00  0.00     0.340 A 
HETATM    8  O2  UNL     1       2.628 -13.334   0.825  1.00  0.00    -0.246 OA
HETATM    9  N6  UNL     1       4.368 -14.302  -0.268  1.00  0.00    -0.141 N 
ATOM     10  H6  UNL     1       4.999 -14.126   0.514  1.00  0.00     0.189 HD
ENDROOT
BRANCH   4  11
HETATM   11  C3  UNL     1       1.755 -14.998  -3.450  1.00  0.00     0.304 C 
HETATM   12  O1  UNL     1       2.236 -15.373  -4.545  1.00  0.00    -0.263 OA
HETATM   13  N3  UNL     1       0.357 -14.816  -3.279  1.00  0.00    -0.270 N 
ATOM     14  H3  UNL     1      -0.019 -14.511  -2.382  1.00  0.00     0.189 HD
BRANCH  13  15
HETATM   15  N4  UNL     1      -0.493 -15.063  -4.358  1.00  0.00    -0.342 N 
ATOM     16  H42 UNL     1      -0.296 -15.842  -4.986  1.00  0.00     0.176 HD
ATOM     17  H41 UNL     1      -1.300 -14.455  -4.500  1.00  0.00     0.176 HD
ENDBRANCH  13  15
ENDBRANCH   4  11
BRANCH   1  18
HETATM   18  N1  UNL     1       6.032 -15.307  -1.490  1.00  0.00    -0.234 N 
ATOM     19  H12 UNL     1       6.759 -14.698  -1.864  1.00  0.00     0.174 HD
ATOM     20  H11 UNL     1       6.285 -16.254  -1.206  1.00  0.00     0.174 HD
ENDBRANCH   1  18
TORSDOF 3
ENDMDL
MODEL 4
REMARK VINA RESULT: -5.118845258      1.502      2.305
REMARK  3 active torsions:
REMARK  status: ('A' for Active; 'I' for Inactive)
REMARK    1  A    between atoms: N1_1  and  C1_4 
REMARK    2  A    between atoms: C2_7  and  C3_8 
REMARK       I    between atoms: C3_8  and  N3_10 
REMARK    3  A    between atoms: N3_10  and  N4_12 
ROOT
HETATM    1  C1  UNL     1       2.526 -14.103   0.144  1.00  0.00     0.681 A 
HETATM    2  N2  UNL     1       3.805 -14.517   0.214  1.00  0.00    -0.171 N 
ATOM      3  H2  UNL     1       4.269 -14.534   1.123  1.00  0.00     0.186 HD
HETATM    4  C2  UNL     1       4.494 -14.913  -0.883  1.00  0.00     0.195 A 
HETATM    5  N5  UNL     1       3.901 -14.894  -2.069  1.00  0.00    -0.289 N 
ATOM      6  H5  UNL     1       4.405 -15.188  -2.905  1.00  0.00     0.172 HD
HETATM    7  C4  UNL     1       2.623 -14.480  -2.149  1.00  0.00     0.340 A 
HETATM    8  O2  UNL     1       2.074 -14.468  -3.282  1.00  0.00    -0.246 OA
HETATM    9  N6  UNL     1       1.925 -14.081  -1.049  1.00  0.00    -0.141 N 
ATOM     10  H6  UNL     1       0.957 -13.770  -1.134  1.00  0.00     0.189 HD
ENDROOT
BRANCH   4  11
HETATM   11  C3  UNL     1       5.889 -15.355  -0.739  1.00  0.00     0.304 C 
HETATM   12  O1  UNL     1       6.396 -15.451   0.403  1.00  0.00    -0.263 OA
HETATM   13  N3  UNL     1       6.632 -15.668  -1.907  1.00  0.00    -0.270 N 
ATOM     14  H3  UNL     1       6.206 -15.586  -2.830  1.00  0.00     0.189 HD
BRANCH  13  15
HETATM   15  N4  UNL     1       7.956 -16.088  -1.773  1.00  0.00    -0.342 N 
ATOM     16  H42 UNL     1       8.336 -16.772  -2.427  1.00  0.00     0.176 HD
ATOM     17  H41 UNL     1       8.523 -15.702  -1.018  1.00  0.00     0.176 HD
ENDBRANCH  13  15
ENDBRANCH   4  11
BRANCH   1  18
HETATM   18  N1  UNL     1       1.918 -13.738   1.222  1.00  0.00    -0.234 N 
ATOM     19  H12 UNL     1       1.463 -14.410   1.839  1.00  0.00     0.174 HD
ATOM     20  H11 UNL     1       1.887 -12.748   1.469  1.00  0.00     0.174 HD
ENDBRANCH   1  18
TORSDOF 3
ENDMDL
MODEL 5
REMARK VINA RESULT: -4.944038954      1.156      1.156
REMARK  3 active torsions:
REMARK  status: ('A' for Active; 'I' for Inactive)
REMARK    1  A    between atoms: N1_1  and  C1_4 
REMARK    2  A    between atoms: C2_7  and  C3_8 
REMARK       I    between atoms: C3_8  and  N3_10 
REMARK    3  A    between atoms: N3_10  and  N4_12 
ROOT
HETATM    1  C1  UNL     1       2.806 -14.497  -2.129  1.00  0.00     0.681 A 
HETATM    2  N2  UNL     1       4.040 -15.031  -2.052  1.00  0.00    -0.171 N 
ATOM      3  H2  UNL     1       4.438 -15.475  -2.880  1.00  0.00     0.186 HD
HETATM    4  C2  UNL     1       4.769 -14.997  -0.909  1.00  0.00     0.195 A 
HETATM    5  N5  UNL     1       4.260 -14.424   0.172  1.00  0.00    -0.289 N 
ATOM      6  H5  UNL     1       4.794 -14.389   1.040  1.00  0.00     0.172 HD
HETATM    7  C4  UNL     1       3.027 -13.888   0.105  1.00  0.00     0.340 A 
HETATM    8  O2  UNL     1       2.558 -13.348   1.140  1.00  0.00    -0.246 OA
HETATM    9  N6  UNL     1       2.289 -13.919  -1.041  1.00  0.00    -0.141 N 
ATOM     10  H6  UNL     1       1.357 -13.508  -1.068  1.00  0.00     0.189 HD
ENDROOT
BRANCH   4  11
HETATM   11  C3  UNL     1       6.109 -15.598  -0.891  1.00  0.00     0.304 C 
HETATM   12  O1  UNL     1       6.892 -15.403  -1.851  1.00  0.00    -0.263 OA
HETATM   13  N3  UNL     1       6.489 -16.390   0.224  1.00  0.00    -0.270 N 
ATOM     14  H3  UNL     1       5.842 -16.539   0.998  1.00  0.00     0.189 HD
BRANCH  13  15
HETATM   15  N4  UNL     1       7.763 -16.962   0.245  1.00  0.00    -0.342 N 
ATOM     16  H42 UNL     1       8.360 -16.890  -0.579  1.00  0.00     0.176 HD
ATOM     17  H41 UNL     1       8.074 -17.444   1.088  1.00  0.00     0.176 HD
ENDBRANCH  13  15
ENDBRANCH   4  11
BRANCH   1  18
HETATM   18  N1  UNL     1       2.158 -14.558  -3.243  1.00  0.00    -0.234 N 
ATOM     19  H12 UNL     1       1.440 -15.262  -3.411  1.00  0.00     0.174 HD
ATOM     20  H11 UNL     1       2.368 -13.886  -3.981  1.00  0.00     0.174 HD
ENDBRANCH   1  18
TORSDOF 3
ENDMDL
