MODEL 1
REMARK VINA RESULT: -6.639633729      0.000      0.000
REMARK  9 active torsions:
REMARK  status: ('A' for Active; 'I' for Inactive)
REMARK    1  A    between atoms: C2_2  and  N1_4 
REMARK    2  A    between atoms: C2_2  and  C4_8 
REMARK    3  A    between atoms: C6_10  and  C7_11 
REMARK    4  A    between atoms: C15_19  and  C16_20 
REMARK    5  A    between atoms: C16_20  and  C17_21 
REMARK    6  A    between atoms: C17_21  and  C18_22 
REMARK    7  A    between atoms: C18_22  and  C19_23 
REMARK    8  A    between atoms: C19_23  and  C20_24 
REMARK    9  A    between atoms: C25_29  and  O1_30 
ROOT
HETATM    1  C16 UNL     1      14.991  20.856   8.888  1.00  0.00    -0.052 C 
ENDROOT
BRANCH   1   2
HETATM    2  C15 UNL     1      15.221  21.918   7.948  1.00  0.00     0.027 A 
HETATM    3  C4  UNL     1      16.489  22.398   7.725  1.00  0.00    -0.004 A 
HETATM    4  C5  UNL     1      16.651  23.416   6.812  1.00  0.00     0.023 A 
HETATM    5  C6  UNL     1      15.618  23.988   6.105  1.00  0.00    -0.025 A 
HETATM    6  C13 UNL     1      14.332  23.501   6.333  1.00  0.00     0.014 A 
HETATM    7  C14 UNL     1      14.178  22.483   7.246  1.00  0.00     0.022 A 
BRANCH   3   8
HETATM    8  C2  UNL     1      17.679  21.834   8.450  1.00  0.00     0.145 C 
HETATM    9  C1  UNL     1      18.885  22.732   8.302  1.00  0.00     0.051 C 
HETATM   10  C3  UNL     1      18.032  20.503   7.837  1.00  0.00     0.051 C 
BRANCH   8  11
HETATM   11  N1  UNL     1      17.363  21.601   9.846  1.00  0.00    -0.067 N 
ATOM     12  H13 UNL     1      18.116  21.104  10.322  1.00  0.00     0.275 HD
ATOM     13  H12 UNL     1      17.382  22.467  10.384  1.00  0.00     0.275 HD
ATOM     14  H11 UNL     1      16.471  21.116   9.949  1.00  0.00     0.275 HD
ENDBRANCH   8  11
ENDBRANCH   3   8
BRANCH   5  15
HETATM   15  C7  UNL     1      15.798  25.067   5.141  1.00  0.00    -0.026 A 
HETATM   16  C8  UNL     1      16.725  24.958   4.128  1.00  0.00     0.012 A 
HETATM   17  C9  UNL     1      16.900  25.989   3.204  1.00  0.00     0.001 A 
HETATM   18  C10 UNL     1      16.162  27.137   3.269  1.00  0.00     0.000 A 
HETATM   19  C11 UNL     1      15.232  27.248   4.285  1.00  0.00     0.001 A 
HETATM   20  C12 UNL     1      15.063  26.233   5.191  1.00  0.00     0.012 A 
ENDBRANCH   5  15
ENDBRANCH   1   2
BRANCH   1  21
HETATM   21  C17 UNL     1      14.794  19.948   9.662  1.00  0.00    -0.009 C 
BRANCH  21  22
HETATM   22  C18 UNL     1      14.538  18.885  10.574  1.00  0.00    -0.009 C 
BRANCH  22  23
HETATM   23  C19 UNL     1      14.303  17.990  11.358  1.00  0.00    -0.053 C 
BRANCH  23  24
HETATM   24  C20 UNL     1      14.001  16.941  12.278  1.00  0.00     0.019 A 
HETATM   25  C21 UNL     1      14.863  16.556  13.282  1.00  0.00     0.021 A 
HETATM   26  C22 UNL     1      14.547  15.539  14.157  1.00  0.00     0.014 A 
HETATM   27  C23 UNL     1      13.328  14.883  14.026  1.00  0.00    -0.022 A 
HETATM   28  C24 UNL     1      12.997  13.865  14.892  1.00  0.00     0.049 A 
HETATM   29  C32 UNL     1      12.430  15.231  13.037  1.00  0.00    -0.013 A 
HETATM   30  C25 UNL     1      11.806  13.192  14.799  1.00  0.00     0.077 A 
HETATM   31  C26 UNL     1      10.906  13.535  13.815  1.00  0.00     0.008 A 
HETATM   32  C27 UNL     1       9.695  12.869  13.700  1.00  0.00     0.015 A 
HETATM   33  C31 UNL     1      11.221  14.563  12.926  1.00  0.00    -0.012 A 
HETATM   34  C28 UNL     1       8.842  13.258  12.698  1.00  0.00     0.001 A 
HETATM   35  C29 UNL     1       9.141  14.266  11.820  1.00  0.00     0.001 A 
HETATM   36  C30 UNL     1      10.354  14.937  11.931  1.00  0.00     0.013 A 
HETATM   37  C33 UNL     1      12.788  16.262  12.176  1.00  0.00     0.034 A 
BRANCH  30  38
HETATM   38  O1  UNL     1      11.498  12.162  15.694  1.00  0.00    -0.360 OA
ATOM     39  H1  UNL     1      11.611  11.252  15.442  1.00  0.00     0.217 HD
ENDBRANCH  30  38
ENDBRANCH  23  24
ENDBRANCH  22  23
ENDBRANCH  21  22
ENDBRANCH   1  21
TORSDOF 9
ENDMDL
MODEL 2
REMARK VINA RESULT: -6.205217066      4.065      6.170
REMARK  9 active torsions:
REMARK  status: ('A' for Active; 'I' for Inactive)
REMARK    1  A    between atoms: C2_2  and  N1_4 
REMARK    2  A    between atoms: C2_2  and  C4_8 
REMARK    3  A    between atoms: C6_10  and  C7_11 
REMARK    4  A    between atoms: C15_19  and  C16_20 
REMARK    5  A    between atoms: C16_20  and  C17_21 
REMARK    6  A    between atoms: C17_21  and  C18_22 
REMARK    7  A    between atoms: C18_22  and  C19_23 
REMARK    8  A    between atoms: C19_23  and  C20_24 
REMARK    9  A    between atoms: C25_29  and  O1_30 
ROOT
HETATM    1  C16 UNL     1      16.112  21.308   9.562  1.00  0.00    -0.052 C 
ENDROOT
BRANCH   1   2
HETATM    2  C15 UNL     1      15.896  22.209   8.463  1.00  0.00     0.027 A 
HETATM    3  C4  UNL     1      14.705  22.879   8.326  1.00  0.00    -0.004 A 
HETATM    4  C5  UNL     1      14.554  23.730   7.254  1.00  0.00     0.023 A 
HETATM    5  C6  UNL     1      15.526  23.953   6.305  1.00  0.00    -0.025 A 
HETATM    6  C13 UNL     1      16.734  23.271   6.445  1.00  0.00     0.014 A 
HETATM    7  C14 UNL     1      16.878  22.423   7.519  1.00  0.00     0.022 A 
BRANCH   3   8
HETATM    8  C2  UNL     1      13.586  22.700   9.313  1.00  0.00     0.145 C 
HETATM    9  C1  UNL     1      13.146  21.257   9.384  1.00  0.00     0.051 C 
HETATM   10  C3  UNL     1      12.401  23.509   8.852  1.00  0.00     0.051 C 
BRANCH   8  11
HETATM   11  N1  UNL     1      13.972  23.198  10.619  1.00  0.00    -0.067 N 
ATOM     12  H13 UNL     1      13.448  22.741  11.365  1.00  0.00     0.275 HD
ATOM     13  H12 UNL     1      14.910  22.890  10.875  1.00  0.00     0.275 HD
ATOM     14  H11 UNL     1      13.886  24.213  10.670  1.00  0.00     0.275 HD
ENDBRANCH   8  11
ENDBRANCH   3   8
BRANCH   5  15
HETATM   15  C7  UNL     1      15.359  24.855   5.171  1.00  0.00    -0.026 A 
HETATM   16  C8  UNL     1      16.240  24.826   4.113  1.00  0.00     0.012 A 
HETATM   17  C9  UNL     1      16.082  25.689   3.027  1.00  0.00     0.001 A 
HETATM   18  C10 UNL     1      15.055  26.588   2.974  1.00  0.00     0.000 A 
HETATM   19  C11 UNL     1      14.170  26.617   4.036  1.00  0.00     0.001 A 
HETATM   20  C12 UNL     1      14.328  25.769   5.100  1.00  0.00     0.012 A 
ENDBRANCH   5  15
ENDBRANCH   1   2
BRANCH   1  21
HETATM   21  C17 UNL     1      16.303  20.566  10.498  1.00  0.00    -0.009 C 
BRANCH  21  22
HETATM   22  C18 UNL     1      16.532  19.712  11.614  1.00  0.00    -0.009 C 
BRANCH  22  23
HETATM   23  C19 UNL     1      16.736  19.001  12.574  1.00  0.00    -0.053 C 
BRANCH  23  24
HETATM   24  C20 UNL     1      16.982  18.185  13.719  1.00  0.00     0.019 A 
HETATM   25  C21 UNL     1      16.537  16.884  13.820  1.00  0.00     0.021 A 
HETATM   26  C22 UNL     1      16.788  16.118  14.938  1.00  0.00     0.014 A 
HETATM   27  C23 UNL     1      17.508  16.668  15.993  1.00  0.00    -0.022 A 
HETATM   28  C24 UNL     1      17.767  15.915  17.116  1.00  0.00     0.049 A 
HETATM   29  C32 UNL     1      17.976  17.966  15.940  1.00  0.00    -0.013 A 
HETATM   30  C25 UNL     1      18.474  16.418  18.179  1.00  0.00     0.077 A 
HETATM   31  C26 UNL     1      18.943  17.712  18.133  1.00  0.00     0.008 A 
HETATM   32  C27 UNL     1      19.659  18.243  19.195  1.00  0.00     0.015 A 
HETATM   33  C31 UNL     1      18.691  18.492  17.004  1.00  0.00    -0.012 A 
HETATM   34  C28 UNL     1      20.098  19.539  19.087  1.00  0.00     0.001 A 
HETATM   35  C29 UNL     1      19.857  20.314  17.984  1.00  0.00     0.001 A 
HETATM   36  C30 UNL     1      19.139  19.786  16.916  1.00  0.00     0.013 A 
HETATM   37  C33 UNL     1      17.701  18.704  14.795  1.00  0.00     0.034 A 
BRANCH  30  38
HETATM   38  O1  UNL     1      18.721  15.628  19.307  1.00  0.00    -0.360 OA
ATOM     39  H1  UNL     1      18.921  16.031  20.144  1.00  0.00     0.217 HD
ENDBRANCH  30  38
ENDBRANCH  23  24
ENDBRANCH  22  23
ENDBRANCH  21  22
ENDBRANCH   1  21
TORSDOF 9
ENDMDL
MODEL 3
REMARK VINA RESULT: -5.577672297      3.685      5.568
REMARK  9 active torsions:
REMARK  status: ('A' for Active; 'I' for Inactive)
REMARK    1  A    between atoms: C2_2  and  N1_4 
REMARK    2  A    between atoms: C2_2  and  C4_8 
REMARK    3  A    between atoms: C6_10  and  C7_11 
REMARK    4  A    between atoms: C15_19  and  C16_20 
REMARK    5  A    between atoms: C16_20  and  C17_21 
REMARK    6  A    between atoms: C17_21  and  C18_22 
REMARK    7  A    between atoms: C18_22  and  C19_23 
REMARK    8  A    between atoms: C19_23  and  C20_24 
REMARK    9  A    between atoms: C25_29  and  O1_30 
ROOT
HETATM    1  C16 UNL     1      15.978  21.392   9.298  1.00  0.00    -0.052 C 
ENDROOT
BRANCH   1   2
HETATM    2  C15 UNL     1      15.801  22.339   8.231  1.00  0.00     0.027 A 
HETATM    3  C4  UNL     1      16.885  22.940   7.637  1.00  0.00    -0.004 A 
HETATM    4  C5  UNL     1      16.657  23.837   6.619  1.00  0.00     0.023 A 
HETATM    5  C6  UNL     1      15.406  24.173   6.154  1.00  0.00    -0.025 A 
HETATM    6  C13 UNL     1      14.308  23.563   6.757  1.00  0.00     0.014 A 
HETATM    7  C14 UNL     1      14.543  22.666   7.775  1.00  0.00     0.022 A 
BRANCH   3   8
HETATM    8  C2  UNL     1      18.290  22.634   8.078  1.00  0.00     0.145 C 
HETATM    9  C1  UNL     1      19.301  23.349   7.214  1.00  0.00     0.051 C 
HETATM   10  C3  UNL     1      18.532  21.154   7.923  1.00  0.00     0.051 C 
BRANCH   8  11
HETATM   11  N1  UNL     1      18.468  22.960   9.480  1.00  0.00    -0.067 N 
ATOM     12  H13 UNL     1      19.158  22.353   9.921  1.00  0.00     0.275 HD
ATOM     13  H12 UNL     1      18.946  23.853   9.598  1.00  0.00     0.275 HD
ATOM     14  H11 UNL     1      17.580  22.943   9.981  1.00  0.00     0.275 HD
ENDBRANCH   8  11
ENDBRANCH   3   8
BRANCH   5  15
HETATM   15  C7  UNL     1      15.173  25.126   5.075  1.00  0.00    -0.026 A 
HETATM   16  C8  UNL     1      15.546  24.830   3.782  1.00  0.00     0.012 A 
HETATM   17  C9  UNL     1      15.326  25.739   2.748  1.00  0.00     0.001 A 
HETATM   18  C10 UNL     1      14.734  26.950   2.976  1.00  0.00     0.000 A 
HETATM   19  C11 UNL     1      14.360  27.248   4.273  1.00  0.00     0.001 A 
HETATM   20  C12 UNL     1      14.578  26.352   5.286  1.00  0.00     0.012 A 
ENDBRANCH   5  15
ENDBRANCH   1   2
BRANCH   1  21
HETATM   21  C17 UNL     1      16.132  20.612  10.210  1.00  0.00    -0.009 C 
BRANCH  21  22
HETATM   22  C18 UNL     1      16.313  19.712  11.298  1.00  0.00    -0.009 C 
BRANCH  22  23
HETATM   23  C19 UNL     1      16.473  18.963  12.237  1.00  0.00    -0.053 C 
BRANCH  23  24
HETATM   24  C20 UNL     1      16.669  18.100  13.357  1.00  0.00     0.019 A 
HETATM   25  C21 UNL     1      16.130  16.833  13.429  1.00  0.00     0.021 A 
HETATM   26  C22 UNL     1      16.335  16.020  14.523  1.00  0.00     0.014 A 
HETATM   27  C23 UNL     1      17.105  16.486  15.583  1.00  0.00    -0.022 A 
HETATM   28  C24 UNL     1      17.319  15.686  16.682  1.00  0.00     0.049 A 
HETATM   29  C32 UNL     1      17.668  17.746  15.558  1.00  0.00    -0.013 A 
HETATM   30  C25 UNL     1      18.073  16.106  17.749  1.00  0.00     0.077 A 
HETATM   31  C26 UNL     1      18.637  17.361  17.731  1.00  0.00     0.008 A 
HETATM   32  C27 UNL     1      19.403  17.809  18.797  1.00  0.00     0.015 A 
HETATM   33  C31 UNL     1      18.432  18.189  16.626  1.00  0.00    -0.012 A 
HETATM   34  C28 UNL     1      19.936  19.070  18.718  1.00  0.00     0.001 A 
HETATM   35  C29 UNL     1      19.742  19.891  17.639  1.00  0.00     0.001 A 
HETATM   36  C30 UNL     1      18.975  19.448  16.567  1.00  0.00     0.013 A 
HETATM   37  C33 UNL     1      17.437  18.534  14.437  1.00  0.00     0.034 A 
BRANCH  30  38
HETATM   38  O1  UNL     1      18.273  15.269  18.852  1.00  0.00    -0.360 OA
ATOM     39  H1  UNL     1      18.060  15.567  19.729  1.00  0.00     0.217 HD
ENDBRANCH  30  38
ENDBRANCH  23  24
ENDBRANCH  22  23
ENDBRANCH  21  22
ENDBRANCH   1  21
TORSDOF 9
ENDMDL
MODEL 4
REMARK VINA RESULT: -5.515340013      3.718     12.490
REMARK  9 active torsions:
REMARK  status: ('A' for Active; 'I' for Inactive)
REMARK    1  A    between atoms: C2_2  and  N1_4 
REMARK    2  A    between atoms: C2_2  and  C4_8 
REMARK    3  A    between atoms: C6_10  and  C7_11 
REMARK    4  A    between atoms: C15_19  and  C16_20 
REMARK    5  A    between atoms: C16_20  and  C17_21 
REMARK    6  A    between atoms: C17_21  and  C18_22 
REMARK    7  A    between atoms: C18_22  and  C19_23 
REMARK    8  A    between atoms: C19_23  and  C20_24 
REMARK    9  A    between atoms: C25_29  and  O1_30 
ROOT
HETATM    1  C16 UNL     1      14.907  18.392  10.838  1.00  0.00    -0.052 C 
ENDROOT
BRANCH   1   2
HETATM    2  C15 UNL     1      14.222  17.430  11.659  1.00  0.00     0.027 A 
HETATM    3  C4  UNL     1      14.797  16.954  12.812  1.00  0.00    -0.004 A 
HETATM    4  C5  UNL     1      14.095  16.035  13.560  1.00  0.00     0.023 A 
HETATM    5  C6  UNL     1      12.848  15.560  13.224  1.00  0.00    -0.025 A 
HETATM    6  C13 UNL     1      12.266  16.045  12.053  1.00  0.00     0.014 A 
HETATM    7  C14 UNL     1      12.974  16.963  11.310  1.00  0.00     0.022 A 
BRANCH   3   8
HETATM    8  C2  UNL     1      16.156  17.416  13.260  1.00  0.00     0.145 C 
HETATM    9  C1  UNL     1      17.218  17.042  12.253  1.00  0.00     0.051 C 
HETATM   10  C3  UNL     1      16.499  16.722  14.554  1.00  0.00     0.051 C 
BRANCH   8  11
HETATM   11  N1  UNL     1      16.152  18.843  13.518  1.00  0.00    -0.067 N 
ATOM     12  H13 UNL     1      16.171  19.042  14.518  1.00  0.00     0.275 HD
ATOM     13  H12 UNL     1      17.038  19.273  13.255  1.00  0.00     0.275 HD
ATOM     14  H11 UNL     1      15.363  19.301  13.061  1.00  0.00     0.275 HD
ENDBRANCH   8  11
ENDBRANCH   3   8
BRANCH   5  15
HETATM   15  C7  UNL     1      12.111  14.586  14.021  1.00  0.00    -0.026 A 
HETATM   16  C8  UNL     1      12.272  14.531  15.388  1.00  0.00     0.012 A 
HETATM   17  C9  UNL     1      11.570  13.599  16.153  1.00  0.00     0.001 A 
HETATM   18  C10 UNL     1      10.701  12.715  15.579  1.00  0.00     0.000 A 
HETATM   19  C11 UNL     1      10.539  12.770  14.208  1.00  0.00     0.001 A 
HETATM   20  C12 UNL     1      11.231  13.685  13.459  1.00  0.00     0.012 A 
ENDBRANCH   5  15
ENDBRANCH   1   2
BRANCH   1  21
HETATM   21  C17 UNL     1      15.466  19.213  10.148  1.00  0.00    -0.009 C 
BRANCH  21  22
HETATM   22  C18 UNL     1      16.105  20.195   9.339  1.00  0.00    -0.009 C 
BRANCH  22  23
HETATM   23  C19 UNL     1      16.630  21.038   8.644  1.00  0.00    -0.053 C 
BRANCH  23  24
HETATM   24  C20 UNL     1      17.225  22.037   7.817  1.00  0.00     0.019 A 
HETATM   25  C21 UNL     1      18.582  22.274   7.788  1.00  0.00     0.021 A 
HETATM   26  C22 UNL     1      19.131  23.247   6.980  1.00  0.00     0.014 A 
HETATM   27  C23 UNL     1      18.297  24.011   6.172  1.00  0.00    -0.022 A 
HETATM   28  C24 UNL     1      18.829  24.986   5.359  1.00  0.00     0.049 A 
HETATM   29  C32 UNL     1      16.930  23.812   6.164  1.00  0.00    -0.013 A 
HETATM   30  C25 UNL     1      18.042  25.761   4.546  1.00  0.00     0.077 A 
HETATM   31  C26 UNL     1      16.679  25.569   4.533  1.00  0.00     0.008 A 
HETATM   32  C27 UNL     1      15.863  26.340   3.720  1.00  0.00     0.015 A 
HETATM   33  C31 UNL     1      16.119  24.586   5.349  1.00  0.00    -0.012 A 
HETATM   34  C28 UNL     1      14.513  26.099   3.754  1.00  0.00     0.001 A 
HETATM   35  C29 UNL     1      13.951  25.137   4.551  1.00  0.00     0.001 A 
HETATM   36  C30 UNL     1      14.765  24.360   5.369  1.00  0.00     0.013 A 
HETATM   37  C33 UNL     1      16.418  22.822   6.993  1.00  0.00     0.034 A 
BRANCH  30  38
HETATM   38  O1  UNL     1      18.613  26.745   3.731  1.00  0.00    -0.360 OA
ATOM     39  H1  UNL     1      18.191  27.590   3.624  1.00  0.00     0.217 HD
ENDBRANCH  30  38
ENDBRANCH  23  24
ENDBRANCH  22  23
ENDBRANCH  21  22
ENDBRANCH   1  21
TORSDOF 9
ENDMDL
MODEL 5
REMARK VINA RESULT: -4.818299019      1.085      2.159
REMARK  9 active torsions:
REMARK  status: ('A' for Active; 'I' for Inactive)
REMARK    1  A    between atoms: C2_2  and  N1_4 
REMARK    2  A    between atoms: C2_2  and  C4_8 
REMARK    3  A    between atoms: C6_10  and  C7_11 
REMARK    4  A    between atoms: C15_19  and  C16_20 
REMARK    5  A    between atoms: C16_20  and  C17_21 
REMARK    6  A    between atoms: C17_21  and  C18_22 
REMARK    7  A    between atoms: C18_22  and  C19_23 
REMARK    8  A    between atoms: C19_23  and  C20_24 
REMARK    9  A    between atoms: C25_29  and  O1_30 
ROOT
HETATM    1  C16 UNL     1      15.211  20.940   9.033  1.00  0.00    -0.052 C 
ENDROOT
BRANCH   1   2
HETATM    2  C15 UNL     1      15.462  22.013   8.111  1.00  0.00     0.027 A 
HETATM    3  C4  UNL     1      14.708  23.161   8.144  1.00  0.00    -0.004 A 
HETATM    4  C5  UNL     1      14.994  24.157   7.237  1.00  0.00     0.023 A 
HETATM    5  C6  UNL     1      15.993  24.075   6.294  1.00  0.00    -0.025 A 
HETATM    6  C13 UNL     1      16.757  22.910   6.262  1.00  0.00     0.014 A 
HETATM    7  C14 UNL     1      16.466  21.919   7.171  1.00  0.00     0.022 A 
BRANCH   3   8
HETATM    8  C2  UNL     1      13.596  23.339   9.140  1.00  0.00     0.145 C 
HETATM    9  C1  UNL     1      12.555  22.254   8.997  1.00  0.00     0.051 C 
HETATM   10  C3  UNL     1      12.913  24.655   8.869  1.00  0.00     0.051 C 
BRANCH   8  11
HETATM   11  N1  UNL     1      14.122  23.391  10.490  1.00  0.00    -0.067 N 
ATOM     12  H13 UNL     1      13.374  23.443  11.182  1.00  0.00     0.275 HD
ATOM     13  H12 UNL     1      14.529  22.498  10.767  1.00  0.00     0.275 HD
ATOM     14  H11 UNL     1      14.787  24.156  10.600  1.00  0.00     0.275 HD
ENDBRANCH   8  11
ENDBRANCH   3   8
BRANCH   5  15
HETATM   15  C7  UNL     1      16.289  25.135   5.336  1.00  0.00    -0.026 A 
HETATM   16  C8  UNL     1      15.465  26.233   5.226  1.00  0.00     0.012 A 
HETATM   17  C9  UNL     1      15.745  27.248   4.310  1.00  0.00     0.001 A 
HETATM   18  C10 UNL     1      16.840  27.191   3.495  1.00  0.00     0.000 A 
HETATM   19  C11 UNL     1      17.667  26.088   3.605  1.00  0.00     0.001 A 
HETATM   20  C12 UNL     1      17.389  25.094   4.505  1.00  0.00     0.012 A 
ENDBRANCH   5  15
ENDBRANCH   1   2
BRANCH   1  21
HETATM   21  C17 UNL     1      14.999  20.023   9.793  1.00  0.00    -0.009 C 
BRANCH  21  22
HETATM   22  C18 UNL     1      14.728  18.942  10.680  1.00  0.00    -0.009 C 
BRANCH  22  23
HETATM   23  C19 UNL     1      14.478  18.032  11.441  1.00  0.00    -0.053 C 
BRANCH  23  24
HETATM   24  C20 UNL     1      14.162  16.971  12.342  1.00  0.00     0.019 A 
HETATM   25  C21 UNL     1      15.023  16.550  13.332  1.00  0.00     0.021 A 
HETATM   26  C22 UNL     1      14.692  15.522  14.190  1.00  0.00     0.014 A 
HETATM   27  C23 UNL     1      13.460  14.892  14.055  1.00  0.00    -0.022 A 
HETATM   28  C24 UNL     1      13.115  13.865  14.903  1.00  0.00     0.049 A 
HETATM   29  C32 UNL     1      12.563  15.278  13.079  1.00  0.00    -0.013 A 
HETATM   30  C25 UNL     1      11.910  13.217  14.805  1.00  0.00     0.077 A 
HETATM   31  C26 UNL     1      11.010  13.596  13.834  1.00  0.00     0.008 A 
HETATM   32  C27 UNL     1       9.786  12.956  13.714  1.00  0.00     0.015 A 
HETATM   33  C31 UNL     1      11.340  14.635  12.963  1.00  0.00    -0.012 A 
HETATM   34  C28 UNL     1       8.935  13.382  12.726  1.00  0.00     0.001 A 
HETATM   35  C29 UNL     1       9.247  14.401  11.866  1.00  0.00     0.001 A 
HETATM   36  C30 UNL     1      10.474  15.046  11.981  1.00  0.00     0.013 A 
HETATM   37  C33 UNL     1      12.935  16.318  12.236  1.00  0.00     0.034 A 
BRANCH  30  38
HETATM   38  O1  UNL     1      11.588  12.175  15.682  1.00  0.00    -0.360 OA
ATOM     39  H1  UNL     1      11.605  12.312  16.622  1.00  0.00     0.217 HD
ENDBRANCH  30  38
ENDBRANCH  23  24
ENDBRANCH  22  23
ENDBRANCH  21  22
ENDBRANCH   1  21
TORSDOF 9
ENDMDL
