MODEL 1
REMARK VINA RESULT: -10.617623849      0.000      0.000
REMARK  3 active torsions:
REMARK  status: ('A' for Active; 'I' for Inactive)
REMARK       I    between atoms: C2_2  and  N1_4 
REMARK    1  A    between atoms: N1_4  and  C4_6 
REMARK    2  A    between atoms: C12_16  and  C13_17 
REMARK    3  A    between atoms: C13_17  and  C14_18 
ROOT
HETATM    1  C4  UNL     1      16.491  18.483  10.636  1.00  0.00     0.038 A 
HETATM    2  C5  UNL     1      15.118  18.543  10.737  1.00  0.00     0.031 A 
HETATM    3  C6  UNL     1      14.407  19.662  10.378  1.00  0.00     0.017 A 
HETATM    4  C7  UNL     1      14.993  20.784   9.903  1.00  0.00     0.004 A 
HETATM    5  C8  UNL     1      14.574  22.033   9.467  1.00  0.00     0.016 A 
HETATM    6  C9  UNL     1      15.722  22.706   9.111  1.00  0.00     0.056 A 
HETATM    7  N2  UNL     1      16.790  21.924   9.310  1.00  0.00    -0.354 N 
ATOM      8  H2  UNL     1      17.759  22.187   9.124  1.00  0.00     0.166 HD
HETATM    9  C10 UNL     1      16.385  20.743   9.793  1.00  0.00     0.046 A 
HETATM   10  C11 UNL     1      17.093  19.618  10.154  1.00  0.00     0.060 A 
HETATM   11  C12 UNL     1      15.405  24.069   8.622  1.00  0.00     0.004 A 
HETATM   12  C21 UNL     1      13.969  24.125   8.733  1.00  0.00    -0.011 A 
HETATM   13  C22 UNL     1      13.089  25.155   8.444  1.00  0.00     0.014 A 
HETATM   14  C23 UNL     1      11.736  25.014   8.637  1.00  0.00     0.013 A 
HETATM   15  C24 UNL     1      11.246  23.831   9.126  1.00  0.00    -0.025 A 
HETATM   16  C25 UNL     1       9.858  23.740   9.304  1.00  0.00     0.012 A 
HETATM   17  C26 UNL     1       9.279  22.595   9.790  1.00  0.00     0.001 A 
HETATM   18  C27 UNL     1      10.097  21.548  10.092  1.00  0.00     0.001 A 
HETATM   19  C28 UNL     1      11.482  21.659   9.905  1.00  0.00     0.013 A 
HETATM   20  C29 UNL     1      12.089  22.786   9.424  1.00  0.00    -0.014 A 
HETATM   21  C30 UNL     1      13.444  22.918   9.234  1.00  0.00    -0.000 A 
ENDROOT
BRANCH  11  22
HETATM   22  C13 UNL     1      16.305  24.940   8.249  1.00  0.00     0.028 C 
BRANCH  22  23
HETATM   23  C14 UNL     1      17.085  25.112   7.077  1.00  0.00    -0.006 A 
HETATM   24  C15 UNL     1      18.427  25.214   6.858  1.00  0.00     0.102 A 
HETATM   25  N3  UNL     1      18.684  25.380   5.548  1.00  0.00    -0.351 N 
HETATM   26  C16 UNL     1      17.523  25.390   4.881  1.00  0.00     0.116 A 
ATOM     27  H3  UNL     1      19.610  25.481   5.132  1.00  0.00     0.166 HD
HETATM   28  N4  UNL     1      17.248  25.530   3.552  1.00  0.00    -0.352 N 
HETATM   29  C20 UNL     1      16.510  25.226   5.801  1.00  0.00     0.020 A 
HETATM   30  C17 UNL     1      15.964  25.501   3.167  1.00  0.00     0.090 A 
ATOM     31  H4  UNL     1      17.998  25.652   2.871  1.00  0.00     0.166 HD
HETATM   32  C18 UNL     1      14.911  25.340   4.049  1.00  0.00     0.018 A 
HETATM   33  C19 UNL     1      15.187  25.200   5.379  1.00  0.00     0.017 A 
ENDBRANCH  22  23
ENDBRANCH  11  22
BRANCH   1  34
HETATM   34  N1  UNL     1      17.170  17.307  11.020  1.00  0.00    -0.323 N 
HETATM   35  C2  UNL     1      17.473  16.983  12.367  1.00  0.00     0.220 C 
HETATM   36  C1  UNL     1      18.188  15.737  12.745  1.00  0.00     0.117 C 
HETATM   37  O1  UNL     1      17.145  17.748  13.311  1.00  0.00    -0.274 OA
HETATM   38  C3  UNL     1      17.577  16.388   9.983  1.00  0.00     0.159 C 
ENDBRANCH   1  34
TORSDOF 3
ENDMDL
MODEL 2
REMARK VINA RESULT: -10.559936960      3.754     10.099
REMARK  3 active torsions:
REMARK  status: ('A' for Active; 'I' for Inactive)
REMARK       I    between atoms: C2_2  and  N1_4 
REMARK    1  A    between atoms: N1_4  and  C4_6 
REMARK    2  A    between atoms: C12_16  and  C13_17 
REMARK    3  A    between atoms: C13_17  and  C14_18 
ROOT
HETATM    1  C4  UNL     1      13.098  22.902   8.814  1.00  0.00     0.038 A 
HETATM    2  C5  UNL     1      14.438  22.837   8.498  1.00  0.00     0.031 A 
HETATM    3  C6  UNL     1      15.192  21.714   8.739  1.00  0.00     0.017 A 
HETATM    4  C7  UNL     1      14.683  20.594   9.300  1.00  0.00     0.004 A 
HETATM    5  C8  UNL     1      15.159  19.342   9.660  1.00  0.00     0.016 A 
HETATM    6  C9  UNL     1      14.080  18.673  10.193  1.00  0.00     0.056 A 
HETATM    7  N2  UNL     1      12.996  19.459  10.165  1.00  0.00    -0.354 N 
ATOM      8  H2  UNL     1      12.068  19.200  10.501  1.00  0.00     0.166 HD
HETATM    9  C10 UNL     1      13.326  20.640   9.627  1.00  0.00     0.046 A 
HETATM   10  C11 UNL     1      12.575  21.769   9.384  1.00  0.00     0.060 A 
HETATM   11  C12 UNL     1      14.463  17.306  10.619  1.00  0.00     0.004 A 
HETATM   12  C21 UNL     1      15.864  17.246  10.289  1.00  0.00    -0.011 A 
HETATM   13  C22 UNL     1      16.784  16.226  10.469  1.00  0.00     0.014 A 
HETATM   14  C23 UNL     1      18.098  16.374  10.097  1.00  0.00     0.013 A 
HETATM   15  C24 UNL     1      18.508  17.555   9.536  1.00  0.00    -0.025 A 
HETATM   16  C25 UNL     1      19.860  17.653   9.175  1.00  0.00     0.012 A 
HETATM   17  C26 UNL     1      20.361  18.798   8.608  1.00  0.00     0.001 A 
HETATM   18  C27 UNL     1      19.502  19.836   8.407  1.00  0.00     0.001 A 
HETATM   19  C28 UNL     1      18.154  19.717   8.774  1.00  0.00     0.013 A 
HETATM   20  C29 UNL     1      17.625  18.590   9.341  1.00  0.00    -0.014 A 
HETATM   21  C30 UNL     1      16.308  18.451   9.710  1.00  0.00    -0.000 A 
ENDROOT
BRANCH  11  22
HETATM   22  C13 UNL     1      13.645  16.461  11.190  1.00  0.00     0.028 C 
BRANCH  22  23
HETATM   23  C14 UNL     1      13.686  15.707  12.390  1.00  0.00    -0.006 A 
HETATM   24  C15 UNL     1      14.658  15.491  13.322  1.00  0.00     0.102 A 
HETATM   25  N3  UNL     1      14.211  14.676  14.296  1.00  0.00    -0.351 N 
HETATM   26  C16 UNL     1      12.942  14.341  14.027  1.00  0.00     0.116 A 
ATOM     27  H3  UNL     1      14.749  14.365  15.105  1.00  0.00     0.166 HD
HETATM   28  N4  UNL     1      12.058  13.548  14.696  1.00  0.00    -0.352 N 
HETATM   29  C20 UNL     1      12.586  14.965  12.850  1.00  0.00     0.020 A 
HETATM   30  C17 UNL     1      10.832  13.392  14.177  1.00  0.00     0.090 A 
ATOM     31  H4  UNL     1      12.322  13.086  15.567  1.00  0.00     0.166 HD
HETATM   32  C18 UNL     1      10.424  13.994  13.000  1.00  0.00     0.018 A 
HETATM   33  C19 UNL     1      11.310  14.789  12.330  1.00  0.00     0.017 A 
ENDBRANCH  22  23
ENDBRANCH  11  22
BRANCH   1  34
HETATM   34  N1  UNL     1      12.372  24.081   8.544  1.00  0.00    -0.323 N 
HETATM   35  C2  UNL     1      11.055  24.315   9.018  1.00  0.00     0.220 C 
HETATM   36  C1  UNL     1      10.313  25.567   8.722  1.00  0.00     0.117 C 
HETATM   37  O1  UNL     1      10.453  23.460   9.718  1.00  0.00    -0.274 OA
HETATM   38  C3  UNL     1      13.006  25.102   7.743  1.00  0.00     0.159 C 
ENDBRANCH   1  34
TORSDOF 3
ENDMDL
MODEL 3
REMARK VINA RESULT: -10.103325328      3.752      7.092
REMARK  3 active torsions:
REMARK  status: ('A' for Active; 'I' for Inactive)
REMARK       I    between atoms: C2_2  and  N1_4 
REMARK    1  A    between atoms: N1_4  and  C4_6 
REMARK    2  A    between atoms: C12_16  and  C13_17 
REMARK    3  A    between atoms: C13_17  and  C14_18 
ROOT
HETATM    1  C4  UNL     1      18.508  17.471  15.192  1.00  0.00     0.038 A 
HETATM    2  C5  UNL     1      17.558  16.614  15.705  1.00  0.00     0.031 A 
HETATM    3  C6  UNL     1      16.391  16.333  15.036  1.00  0.00     0.017 A 
HETATM    4  C7  UNL     1      16.086  16.870  13.834  1.00  0.00     0.004 A 
HETATM    5  C8  UNL     1      15.034  16.791  12.933  1.00  0.00     0.016 A 
HETATM    6  C9  UNL     1      15.380  17.614  11.885  1.00  0.00     0.056 A 
HETATM    7  N2  UNL     1      16.575  18.171  12.117  1.00  0.00    -0.354 N 
ATOM      8  H2  UNL     1      17.057  18.820  11.494  1.00  0.00     0.166 HD
HETATM    9  C10 UNL     1      17.037  17.741  13.297  1.00  0.00     0.046 A 
HETATM   10  C11 UNL     1      18.205  18.019  13.972  1.00  0.00     0.060 A 
HETATM   11  C12 UNL     1      14.325  17.616  10.843  1.00  0.00     0.004 A 
HETATM   12  C21 UNL     1      13.334  16.721  11.387  1.00  0.00    -0.011 A 
HETATM   13  C22 UNL     1      12.105  16.333  10.881  1.00  0.00     0.014 A 
HETATM   14  C23 UNL     1      11.287  15.471  11.571  1.00  0.00     0.013 A 
HETATM   15  C24 UNL     1      11.695  14.986  12.785  1.00  0.00    -0.025 A 
HETATM   16  C25 UNL     1      10.823  14.110  13.448  1.00  0.00     0.012 A 
HETATM   17  C26 UNL     1      11.147  13.576  14.669  1.00  0.00     0.001 A 
HETATM   18  C27 UNL     1      12.345  13.923  15.217  1.00  0.00     0.001 A 
HETATM   19  C28 UNL     1      13.203  14.799  14.538  1.00  0.00     0.013 A 
HETATM   20  C29 UNL     1      12.909  15.349  13.321  1.00  0.00    -0.014 A 
HETATM   21  C30 UNL     1      13.733  16.210  12.637  1.00  0.00    -0.000 A 
ENDROOT
BRANCH  11  22
HETATM   22  C13 UNL     1      14.374  18.335   9.753  1.00  0.00     0.028 C 
BRANCH  22  23
HETATM   23  C14 UNL     1      14.389  19.728   9.491  1.00  0.00    -0.006 A 
HETATM   24  C15 UNL     1      13.411  20.677   9.434  1.00  0.00     0.102 A 
HETATM   25  N3  UNL     1      13.933  21.881   9.134  1.00  0.00    -0.351 N 
HETATM   26  C16 UNL     1      15.257  21.751   8.989  1.00  0.00     0.116 A 
ATOM     27  H3  UNL     1      13.406  22.749   9.035  1.00  0.00     0.166 HD
HETATM   28  N4  UNL     1      16.225  22.663   8.687  1.00  0.00    -0.352 N 
HETATM   29  C20 UNL     1      15.574  20.427   9.204  1.00  0.00     0.020 A 
HETATM   30  C17 UNL     1      17.493  22.235   8.606  1.00  0.00     0.090 A 
ATOM     31  H4  UNL     1      15.991  23.643   8.528  1.00  0.00     0.166 HD
HETATM   32  C18 UNL     1      17.864  20.918   8.812  1.00  0.00     0.018 A 
HETATM   33  C19 UNL     1      16.894  20.005   9.115  1.00  0.00     0.017 A 
ENDBRANCH  22  23
ENDBRANCH  11  22
BRANCH   1  34
HETATM   34  N1  UNL     1      19.688  17.724  15.923  1.00  0.00    -0.323 N 
HETATM   35  C2  UNL     1      19.875  18.871  16.736  1.00  0.00     0.220 C 
HETATM   36  C1  UNL     1      21.127  19.114  17.497  1.00  0.00     0.117 C 
HETATM   37  O1  UNL     1      18.975  19.744  16.848  1.00  0.00    -0.274 OA
HETATM   38  C3  UNL     1      20.762  16.762  15.836  1.00  0.00     0.159 C 
ENDBRANCH   1  34
TORSDOF 3
ENDMDL
MODEL 4
REMARK VINA RESULT: -10.090325154      3.712      7.071
REMARK  3 active torsions:
REMARK  status: ('A' for Active; 'I' for Inactive)
REMARK       I    between atoms: C2_2  and  N1_4 
REMARK    1  A    between atoms: N1_4  and  C4_6 
REMARK    2  A    between atoms: C12_16  and  C13_17 
REMARK    3  A    between atoms: C13_17  and  C14_18 
ROOT
HETATM    1  C4  UNL     1      18.529  17.521  15.213  1.00  0.00     0.038 A 
HETATM    2  C5  UNL     1      17.568  16.675  15.723  1.00  0.00     0.031 A 
HETATM    3  C6  UNL     1      16.407  16.395  15.045  1.00  0.00     0.017 A 
HETATM    4  C7  UNL     1      16.118  16.922  13.834  1.00  0.00     0.004 A 
HETATM    5  C8  UNL     1      15.075  16.841  12.923  1.00  0.00     0.016 A 
HETATM    6  C9  UNL     1      15.438  17.653  11.870  1.00  0.00     0.056 A 
HETATM    7  N2  UNL     1      16.634  18.204  12.110  1.00  0.00    -0.354 N 
ATOM      8  H2  UNL     1      17.126  18.844  11.486  1.00  0.00     0.166 HD
HETATM    9  C10 UNL     1      17.081  17.782  13.300  1.00  0.00     0.046 A 
HETATM   10  C11 UNL     1      18.243  18.059  13.984  1.00  0.00     0.060 A 
HETATM   11  C12 UNL     1      14.394  17.651  10.817  1.00  0.00     0.004 A 
HETATM   12  C21 UNL     1      13.392  16.768  11.359  1.00  0.00    -0.011 A 
HETATM   13  C22 UNL     1      12.165  16.383  10.843  1.00  0.00     0.014 A 
HETATM   14  C23 UNL     1      11.335  15.533  11.532  1.00  0.00     0.013 A 
HETATM   15  C24 UNL     1      11.727  15.056  12.756  1.00  0.00    -0.025 A 
HETATM   16  C25 UNL     1      10.842  14.192  13.417  1.00  0.00     0.012 A 
HETATM   17  C26 UNL     1      11.149  13.667  14.646  1.00  0.00     0.001 A 
HETATM   18  C27 UNL     1      12.344  14.012  15.204  1.00  0.00     0.001 A 
HETATM   19  C28 UNL     1      13.215  14.876  14.526  1.00  0.00     0.013 A 
HETATM   20  C29 UNL     1      12.937  15.416  13.301  1.00  0.00    -0.014 A 
HETATM   21  C30 UNL     1      13.774  16.266  12.618  1.00  0.00    -0.000 A 
ENDROOT
BRANCH  11  22
HETATM   22  C13 UNL     1      14.459  18.360   9.722  1.00  0.00     0.028 C 
BRANCH  22  23
HETATM   23  C14 UNL     1      14.850  19.692   9.430  1.00  0.00    -0.006 A 
HETATM   24  C15 UNL     1      16.035  20.256   9.061  1.00  0.00     0.102 A 
HETATM   25  N3  UNL     1      15.902  21.586   8.907  1.00  0.00    -0.351 N 
HETATM   26  C16 UNL     1      14.632  21.923   9.168  1.00  0.00     0.116 A 
ATOM     27  H3  UNL     1      16.644  22.230   8.635  1.00  0.00     0.166 HD
HETATM   28  N4  UNL     1      13.999  23.131   9.154  1.00  0.00    -0.352 N 
HETATM   29  C20 UNL     1      13.952  20.770   9.496  1.00  0.00     0.020 A 
HETATM   30  C17 UNL     1      12.696  23.164   9.467  1.00  0.00     0.090 A 
ATOM     31  H4  UNL     1      14.503  23.985   8.911  1.00  0.00     0.166 HD
HETATM   32  C18 UNL     1      11.968  22.037   9.804  1.00  0.00     0.018 A 
HETATM   33  C19 UNL     1      12.602  20.828   9.818  1.00  0.00     0.017 A 
ENDBRANCH  22  23
ENDBRANCH  11  22
BRANCH   1  34
HETATM   34  N1  UNL     1      19.703  17.773  15.954  1.00  0.00    -0.323 N 
HETATM   35  C2  UNL     1      19.881  18.918  16.773  1.00  0.00     0.220 C 
HETATM   36  C1  UNL     1      21.127  19.160  17.545  1.00  0.00     0.117 C 
HETATM   37  O1  UNL     1      18.978  19.788  16.881  1.00  0.00    -0.274 OA
HETATM   38  C3  UNL     1      20.780  16.813  15.871  1.00  0.00     0.159 C 
ENDBRANCH   1  34
TORSDOF 3
ENDMDL
MODEL 5
REMARK VINA RESULT: -10.059590541      3.863      9.755
REMARK  3 active torsions:
REMARK  status: ('A' for Active; 'I' for Inactive)
REMARK       I    between atoms: C2_2  and  N1_4 
REMARK    1  A    between atoms: N1_4  and  C4_6 
REMARK    2  A    between atoms: C12_16  and  C13_17 
REMARK    3  A    between atoms: C13_17  and  C14_18 
ROOT
HETATM    1  C4  UNL     1      12.587  22.782   9.259  1.00  0.00     0.038 A 
HETATM    2  C5  UNL     1      13.924  22.896   8.944  1.00  0.00     0.031 A 
HETATM    3  C6  UNL     1      14.786  21.830   9.025  1.00  0.00     0.017 A 
HETATM    4  C7  UNL     1      14.396  20.596   9.416  1.00  0.00     0.004 A 
HETATM    5  C8  UNL     1      14.996  19.359   9.594  1.00  0.00     0.016 A 
HETATM    6  C9  UNL     1      13.992  18.517  10.020  1.00  0.00     0.056 A 
HETATM    7  N2  UNL     1      12.837  19.188  10.100  1.00  0.00    -0.354 N 
ATOM      8  H2  UNL     1      11.942  18.793  10.390  1.00  0.00     0.166 HD
HETATM    9  C10 UNL     1      13.043  20.461   9.740  1.00  0.00     0.046 A 
HETATM   10  C11 UNL     1      12.183  21.533   9.657  1.00  0.00     0.060 A 
HETATM   11  C12 UNL     1      14.512  17.147  10.247  1.00  0.00     0.004 A 
HETATM   12  C21 UNL     1      15.909  17.274   9.919  1.00  0.00    -0.011 A 
HETATM   13  C22 UNL     1      16.927  16.335   9.956  1.00  0.00     0.014 A 
HETATM   14  C23 UNL     1      18.217  16.664   9.616  1.00  0.00     0.013 A 
HETATM   15  C24 UNL     1      18.504  17.947   9.232  1.00  0.00    -0.025 A 
HETATM   16  C25 UNL     1      19.836  18.230   8.896  1.00  0.00     0.012 A 
HETATM   17  C26 UNL     1      20.216  19.487   8.503  1.00  0.00     0.001 A 
HETATM   18  C27 UNL     1      19.257  20.454   8.448  1.00  0.00     0.001 A 
HETATM   19  C28 UNL     1      17.931  20.151   8.787  1.00  0.00     0.013 A 
HETATM   20  C29 UNL     1      17.520  18.908   9.184  1.00  0.00    -0.014 A 
HETATM   21  C30 UNL     1      16.227  18.588   9.522  1.00  0.00    -0.000 A 
ENDROOT
BRANCH  11  22
HETATM   22  C13 UNL     1      13.786  16.153  10.686  1.00  0.00     0.028 C 
BRANCH  22  23
HETATM   23  C14 UNL     1      13.185  15.846  11.933  1.00  0.00    -0.006 A 
HETATM   24  C15 UNL     1      12.033  15.205  12.279  1.00  0.00     0.102 A 
HETATM   25  N3  UNL     1      11.890  15.171  13.617  1.00  0.00    -0.351 N 
HETATM   26  C16 UNL     1      12.940  15.785  14.176  1.00  0.00     0.116 A 
ATOM     27  H3  UNL     1      11.111  14.747  14.122  1.00  0.00     0.166 HD
HETATM   28  N4  UNL     1      13.261  16.014  15.482  1.00  0.00    -0.352 N 
HETATM   29  C20 UNL     1      13.764  16.216  13.158  1.00  0.00     0.020 A 
HETATM   30  C17 UNL     1      14.400  16.670  15.747  1.00  0.00     0.090 A 
ATOM     31  H4  UNL     1      12.651  15.696  16.236  1.00  0.00     0.166 HD
HETATM   32  C18 UNL     1      15.260  17.123  14.763  1.00  0.00     0.018 A 
HETATM   33  C19 UNL     1      14.939  16.894  13.456  1.00  0.00     0.017 A 
ENDBRANCH  22  23
ENDBRANCH  11  22
BRANCH   1  34
HETATM   34  N1  UNL     1      11.746  23.911   9.158  1.00  0.00    -0.323 N 
HETATM   35  C2  UNL     1      10.330  23.838   9.203  1.00  0.00     0.220 C 
HETATM   36  C1  UNL     1       9.466  25.042   9.096  1.00  0.00     0.117 C 
HETATM   37  O1  UNL     1       9.738  22.735   9.335  1.00  0.00    -0.274 OA
HETATM   38  C3  UNL     1      12.363  25.207   9.001  1.00  0.00     0.159 C 
ENDBRANCH   1  34
TORSDOF 3
ENDMDL
