MODEL 1
REMARK VINA RESULT: -7.402709469      0.000      0.000
REMARK  6 active torsions:
REMARK  status: ('A' for Active; 'I' for Inactive)
REMARK    1  A    between atoms: C2_2  and  C4_4 
REMARK    2  A    between atoms: C19_23  and  C20_24 
REMARK    3  A    between atoms: C20_24  and  C21_25 
REMARK    4  A    between atoms: C21_25  and  C22_26 
REMARK    5  A    between atoms: C22_26  and  C23_28 
REMARK    6  A    between atoms: C23_28  and  O6_31 
ROOT
HETATM    1  C4  UNL     1      35.400  25.227  53.058  1.00  0.00    -0.036 C 
HETATM    2  C5  UNL     1      34.380  26.215  53.402  1.00  0.00     0.164 C 
HETATM    3  O1  UNL     1      34.734  27.083  54.440  1.00  0.00    -0.350 OA
HETATM    4  C6  UNL     1      33.563  27.820  54.601  1.00  0.00     0.270 C 
HETATM    5  O2  UNL     1      32.639  27.028  55.223  1.00  0.00    -0.350 OA
HETATM    6  C7  UNL     1      31.722  27.677  56.002  1.00  0.00     0.057 C 
HETATM    7  C8  UNL     1      31.335  26.727  57.139  1.00  0.00     0.045 C 
HETATM    8  C9  UNL     1      32.212  28.939  56.646  1.00  0.00     0.045 C 
HETATM    9  C10 UNL     1      30.440  28.003  55.273  1.00  0.00     0.037 C 
HETATM   10  C11 UNL     1      30.698  28.626  53.921  1.00  0.00     0.004 C 
HETATM   11  C12 UNL     1      31.606  27.839  53.058  1.00  0.00     0.015 C 
HETATM   12  C13 UNL     1      33.077  28.133  53.200  1.00  0.00     0.017 C 
HETATM   13  C14 UNL     1      33.425  29.550  52.851  1.00  0.00     0.021 C 
HETATM   14  C15 UNL     1      33.827  27.115  52.381  1.00  0.00     0.087 C 
HETATM   15  C16 UNL     1      34.897  27.789  51.560  1.00  0.00     0.275 A 
HETATM   16  O3  UNL     1      35.548  26.786  50.841  1.00  0.00    -0.324 OA
HETATM   17  C17 UNL     1      36.632  26.957  51.736  1.00  0.00     0.174 A 
HETATM   18  C18 UNL     1      37.832  27.355  50.954  1.00  0.00     0.080 C 
HETATM   19  O4  UNL     1      36.001  28.009  52.332  1.00  0.00    -0.324 OA
HETATM   20  C19 UNL     1      36.744  25.731  52.565  1.00  0.00     0.080 C 
ENDROOT
BRANCH  20  21
HETATM   21  C20 UNL     1      37.638  25.918  53.741  1.00  0.00     0.022 C 
BRANCH  21  22
HETATM   22  C21 UNL     1      37.442  25.219  55.000  1.00  0.00     0.082 C 
BRANCH  22  23
HETATM   23  C22 UNL     1      37.805  23.779  55.049  1.00  0.00     0.160 C 
HETATM   24  O5  UNL     1      38.898  23.379  54.688  1.00  0.00    -0.295 OA
BRANCH  23  25
HETATM   25  C23 UNL     1      36.848  22.767  55.541  1.00  0.00     0.111 C 
HETATM   26  C24 UNL     1      35.630  23.381  56.199  1.00  0.00     0.053 C 
HETATM   27  C25 UNL     1      37.514  21.819  56.510  1.00  0.00     0.053 C 
BRANCH  25  28
HETATM   28  O6  UNL     1      36.390  22.024  54.459  1.00  0.00    -0.383 OA
ATOM     29  H6  UNL     1      37.053  21.385  54.227  1.00  0.00     0.211 HD
ENDBRANCH  25  28
ENDBRANCH  23  25
ENDBRANCH  22  23
ENDBRANCH  21  22
ENDBRANCH  20  21
BRANCH   1  30
HETATM   30  C2  UNL     1      34.849  24.057  52.358  1.00  0.00    -0.066 C 
HETATM   31  C1  UNL     1      33.699  23.534  52.850  1.00  0.00     0.019 C 
HETATM   32  C3  UNL     1      35.403  23.372  51.173  1.00  0.00     0.047 C 
ENDBRANCH   1  30
TORSDOF 6
ENDMDL
MODEL 2
REMARK VINA RESULT: -7.113157450      1.285      1.820
REMARK  6 active torsions:
REMARK  status: ('A' for Active; 'I' for Inactive)
REMARK    1  A    between atoms: C2_2  and  C4_4 
REMARK    2  A    between atoms: C19_23  and  C20_24 
REMARK    3  A    between atoms: C20_24  and  C21_25 
REMARK    4  A    between atoms: C21_25  and  C22_26 
REMARK    5  A    between atoms: C22_26  and  C23_28 
REMARK    6  A    between atoms: C23_28  and  O6_31 
ROOT
HETATM    1  C4  UNL     1      35.453  25.327  52.856  1.00  0.00    -0.036 C 
HETATM    2  C5  UNL     1      34.419  26.269  53.278  1.00  0.00     0.164 C 
HETATM    3  O1  UNL     1      34.805  27.142  54.299  1.00  0.00    -0.350 OA
HETATM    4  C6  UNL     1      33.619  27.829  54.546  1.00  0.00     0.270 C 
HETATM    5  O2  UNL     1      32.771  26.994  55.220  1.00  0.00    -0.350 OA
HETATM    6  C7  UNL     1      31.883  27.597  56.065  1.00  0.00     0.057 C 
HETATM    7  C8  UNL     1      31.613  26.623  57.215  1.00  0.00     0.045 C 
HETATM    8  C9  UNL     1      32.363  28.874  56.688  1.00  0.00     0.045 C 
HETATM    9  C10 UNL     1      30.543  27.875  55.427  1.00  0.00     0.037 C 
HETATM   10  C11 UNL     1      30.683  28.519  54.067  1.00  0.00     0.004 C 
HETATM   11  C12 UNL     1      31.563  27.777  53.137  1.00  0.00     0.015 C 
HETATM   12  C13 UNL     1      33.027  28.132  53.184  1.00  0.00     0.017 C 
HETATM   13  C14 UNL     1      33.292  29.565  52.828  1.00  0.00     0.021 C 
HETATM   14  C15 UNL     1      33.762  27.152  52.306  1.00  0.00     0.087 C 
HETATM   15  C16 UNL     1      34.745  27.876  51.422  1.00  0.00     0.275 A 
HETATM   16  O3  UNL     1      35.388  26.908  50.651  1.00  0.00    -0.324 OA
HETATM   17  C17 UNL     1      36.521  27.117  51.473  1.00  0.00     0.174 A 
HETATM   18  C18 UNL     1      37.649  27.571  50.617  1.00  0.00     0.080 C 
HETATM   19  O4  UNL     1      35.888  28.136  52.121  1.00  0.00    -0.324 OA
HETATM   20  C19 UNL     1      36.739  25.890  52.280  1.00  0.00     0.080 C 
ENDROOT
BRANCH  20  21
HETATM   21  C20 UNL     1      37.702  26.106  53.395  1.00  0.00     0.022 C 
BRANCH  21  22
HETATM   22  C21 UNL     1      39.017  25.488  53.431  1.00  0.00     0.082 C 
BRANCH  22  23
HETATM   23  C22 UNL     1      39.088  24.045  53.782  1.00  0.00     0.160 C 
HETATM   24  O5  UNL     1      38.088  23.398  54.043  1.00  0.00    -0.295 OA
BRANCH  23  25
HETATM   25  C23 UNL     1      40.381  23.333  53.829  1.00  0.00     0.111 C 
HETATM   26  C24 UNL     1      40.653  22.698  55.177  1.00  0.00     0.053 C 
HETATM   27  C25 UNL     1      41.521  24.258  53.474  1.00  0.00     0.053 C 
BRANCH  25  28
HETATM   28  O6  UNL     1      40.356  22.303  52.896  1.00  0.00    -0.383 OA
ATOM     29  H6  UNL     1      40.182  22.674  52.039  1.00  0.00     0.211 HD
ENDBRANCH  25  28
ENDBRANCH  23  25
ENDBRANCH  22  23
ENDBRANCH  21  22
ENDBRANCH  20  21
BRANCH   1  30
HETATM   30  C2  UNL     1      34.905  24.140  52.182  1.00  0.00    -0.066 C 
HETATM   31  C1  UNL     1      33.815  23.564  52.746  1.00  0.00     0.019 C 
HETATM   32  C3  UNL     1      35.404  23.490  50.954  1.00  0.00     0.047 C 
ENDBRANCH   1  30
TORSDOF 6
ENDMDL
MODEL 3
REMARK VINA RESULT: -6.791367369      2.755      6.442
REMARK  6 active torsions:
REMARK  status: ('A' for Active; 'I' for Inactive)
REMARK    1  A    between atoms: C2_2  and  C4_4 
REMARK    2  A    between atoms: C19_23  and  C20_24 
REMARK    3  A    between atoms: C20_24  and  C21_25 
REMARK    4  A    between atoms: C21_25  and  C22_26 
REMARK    5  A    between atoms: C22_26  and  C23_28 
REMARK    6  A    between atoms: C23_28  and  O6_31 
ROOT
HETATM    1  C4  UNL     1      32.158  28.284  52.788  1.00  0.00    -0.036 C 
HETATM    2  C5  UNL     1      33.313  28.608  51.953  1.00  0.00     0.164 C 
HETATM    3  O1  UNL     1      34.351  29.262  52.622  1.00  0.00    -0.350 OA
HETATM    4  C6  UNL     1      35.240  29.519  51.580  1.00  0.00     0.270 C 
HETATM    5  O2  UNL     1      34.731  30.537  50.823  1.00  0.00    -0.350 OA
HETATM    6  C7  UNL     1      35.648  31.328  50.190  1.00  0.00     0.057 C 
HETATM    7  C8  UNL     1      35.044  32.731  50.083  1.00  0.00     0.045 C 
HETATM    8  C9  UNL     1      36.959  31.479  50.902  1.00  0.00     0.045 C 
HETATM    9  C10 UNL     1      35.943  30.889  48.776  1.00  0.00     0.037 C 
HETATM   10  C11 UNL     1      36.196  29.403  48.683  1.00  0.00     0.004 C 
HETATM   11  C12 UNL     1      35.127  28.571  49.278  1.00  0.00     0.015 C 
HETATM   12  C13 UNL     1      35.270  28.255  50.744  1.00  0.00     0.017 C 
HETATM   13  C14 UNL     1      36.514  27.476  51.054  1.00  0.00     0.021 C 
HETATM   14  C15 UNL     1      34.006  27.564  51.188  1.00  0.00     0.087 C 
HETATM   15  C16 UNL     1      34.337  26.354  52.023  1.00  0.00     0.275 A 
HETATM   16  O3  UNL     1      33.124  25.777  52.400  1.00  0.00    -0.324 OA
HETATM   17  C17 UNL     1      33.370  26.293  53.695  1.00  0.00     0.174 A 
HETATM   18  C18 UNL     1      33.428  25.157  54.653  1.00  0.00     0.080 C 
HETATM   19  O4  UNL     1      34.600  26.737  53.306  1.00  0.00    -0.324 OA
HETATM   20  C19 UNL     1      32.369  27.354  53.968  1.00  0.00     0.080 C 
ENDROOT
BRANCH  20  21
HETATM   21  C20 UNL     1      32.720  28.175  55.160  1.00  0.00     0.022 C 
BRANCH  21  22
HETATM   22  C21 UNL     1      31.731  28.633  56.120  1.00  0.00     0.082 C 
BRANCH  22  23
HETATM   23  C22 UNL     1      30.886  27.603  56.780  1.00  0.00     0.160 C 
HETATM   24  O5  UNL     1      31.364  26.586  57.252  1.00  0.00    -0.295 OA
BRANCH  23  25
HETATM   25  C23 UNL     1      29.423  27.772  56.891  1.00  0.00     0.111 C 
HETATM   26  C24 UNL     1      28.793  28.292  55.614  1.00  0.00     0.053 C 
HETATM   27  C25 UNL     1      29.070  28.695  58.033  1.00  0.00     0.053 C 
BRANCH  25  28
HETATM   28  O6  UNL     1      28.850  26.532  57.146  1.00  0.00    -0.383 OA
ATOM     29  H6  UNL     1      28.951  26.335  58.070  1.00  0.00     0.211 HD
ENDBRANCH  25  28
ENDBRANCH  23  25
ENDBRANCH  22  23
ENDBRANCH  21  22
ENDBRANCH  20  21
BRANCH   1  30
HETATM   30  C2  UNL     1      30.930  28.073  52.007  1.00  0.00    -0.066 C 
HETATM   31  C1  UNL     1      29.887  28.897  52.270  1.00  0.00     0.019 C 
HETATM   32  C3  UNL     1      30.689  27.058  50.962  1.00  0.00     0.047 C 
ENDBRANCH   1  30
TORSDOF 6
ENDMDL
MODEL 4
REMARK VINA RESULT: -6.707910773      2.003      4.101
REMARK  6 active torsions:
REMARK  status: ('A' for Active; 'I' for Inactive)
REMARK    1  A    between atoms: C2_2  and  C4_4 
REMARK    2  A    between atoms: C19_23  and  C20_24 
REMARK    3  A    between atoms: C20_24  and  C21_25 
REMARK    4  A    between atoms: C21_25  and  C22_26 
REMARK    5  A    between atoms: C22_26  and  C23_28 
REMARK    6  A    between atoms: C23_28  and  O6_31 
ROOT
HETATM    1  C4  UNL     1      34.001  27.407  54.405  1.00  0.00    -0.036 C 
HETATM    2  C5  UNL     1      33.811  28.349  53.304  1.00  0.00     0.164 C 
HETATM    3  O1  UNL     1      34.980  28.679  52.610  1.00  0.00    -0.350 OA
HETATM    4  C6  UNL     1      34.513  29.637  51.713  1.00  0.00     0.270 C 
HETATM    5  O2  UNL     1      34.280  30.794  52.403  1.00  0.00    -0.350 OA
HETATM    6  C7  UNL     1      34.428  31.954  51.695  1.00  0.00     0.057 C 
HETATM    7  C8  UNL     1      34.893  33.033  52.677  1.00  0.00     0.045 C 
HETATM    8  C9  UNL     1      35.448  31.905  50.597  1.00  0.00     0.045 C 
HETATM    9  C10 UNL     1      33.137  32.460  51.097  1.00  0.00     0.037 C 
HETATM   10  C11 UNL     1      32.369  31.365  50.394  1.00  0.00     0.004 C 
HETATM   11  C12 UNL     1      32.126  30.167  51.229  1.00  0.00     0.015 C 
HETATM   12  C13 UNL     1      33.194  29.105  51.191  1.00  0.00     0.017 C 
HETATM   13  C14 UNL     1      33.392  28.526  49.821  1.00  0.00     0.021 C 
HETATM   14  C15 UNL     1      32.847  28.072  52.231  1.00  0.00     0.087 C 
HETATM   15  C16 UNL     1      32.995  26.684  51.661  1.00  0.00     0.275 A 
HETATM   16  O3  UNL     1      32.667  25.790  52.680  1.00  0.00    -0.324 OA
HETATM   17  C17 UNL     1      34.052  25.511  52.774  1.00  0.00     0.174 A 
HETATM   18  C18 UNL     1      34.262  24.064  52.500  1.00  0.00     0.080 C 
HETATM   19  O4  UNL     1      34.307  26.308  51.698  1.00  0.00    -0.324 OA
HETATM   20  C19 UNL     1      34.540  26.027  54.078  1.00  0.00     0.080 C 
ENDROOT
BRANCH  20  21
HETATM   21  C20 UNL     1      36.026  26.070  54.152  1.00  0.00     0.022 C 
BRANCH  21  22
HETATM   22  C21 UNL     1      36.790  25.292  55.113  1.00  0.00     0.082 C 
BRANCH  22  23
HETATM   23  C22 UNL     1      36.883  23.826  54.889  1.00  0.00     0.160 C 
HETATM   24  O5  UNL     1      37.420  23.360  53.899  1.00  0.00    -0.295 OA
BRANCH  23  25
HETATM   25  C23 UNL     1      36.325  22.867  55.865  1.00  0.00     0.111 C 
HETATM   26  C24 UNL     1      36.241  21.456  55.319  1.00  0.00     0.053 C 
HETATM   27  C25 UNL     1      34.957  23.304  56.332  1.00  0.00     0.053 C 
BRANCH  25  28
HETATM   28  O6  UNL     1      37.164  22.820  56.972  1.00  0.00    -0.383 OA
ATOM     29  H6  UNL     1      37.148  23.668  57.401  1.00  0.00     0.211 HD
ENDBRANCH  25  28
ENDBRANCH  23  25
ENDBRANCH  22  23
ENDBRANCH  21  22
ENDBRANCH  20  21
BRANCH   1  30
HETATM   30  C2  UNL     1      32.916  27.462  55.396  1.00  0.00    -0.066 C 
HETATM   31  C1  UNL     1      32.549  28.691  55.836  1.00  0.00     0.019 C 
HETATM   32  C3  UNL     1      32.172  26.330  55.982  1.00  0.00     0.047 C 
ENDBRANCH   1  30
TORSDOF 6
ENDMDL
MODEL 5
REMARK VINA RESULT: -6.598837566      2.745      6.411
REMARK  6 active torsions:
REMARK  status: ('A' for Active; 'I' for Inactive)
REMARK    1  A    between atoms: C2_2  and  C4_4 
REMARK    2  A    between atoms: C19_23  and  C20_24 
REMARK    3  A    between atoms: C20_24  and  C21_25 
REMARK    4  A    between atoms: C21_25  and  C22_26 
REMARK    5  A    between atoms: C22_26  and  C23_28 
REMARK    6  A    between atoms: C23_28  and  O6_31 
ROOT
HETATM    1  C4  UNL     1      32.362  28.284  52.537  1.00  0.00    -0.036 C 
HETATM    2  C5  UNL     1      33.513  28.662  51.721  1.00  0.00     0.164 C 
HETATM    3  O1  UNL     1      34.538  29.306  52.419  1.00  0.00    -0.350 OA
HETATM    4  C6  UNL     1      35.424  29.620  51.392  1.00  0.00     0.270 C 
HETATM    5  O2  UNL     1      34.900  30.660  50.675  1.00  0.00    -0.350 OA
HETATM    6  C7  UNL     1      35.804  31.492  50.078  1.00  0.00     0.057 C 
HETATM    7  C8  UNL     1      35.176  32.888  50.026  1.00  0.00     0.045 C 
HETATM    8  C9  UNL     1      37.111  31.636  50.800  1.00  0.00     0.045 C 
HETATM    9  C10 UNL     1      36.111  31.117  48.648  1.00  0.00     0.037 C 
HETATM   10  C11 UNL     1      36.391  29.640  48.496  1.00  0.00     0.004 C 
HETATM   11  C12 UNL     1      35.334  28.766  49.052  1.00  0.00     0.015 C 
HETATM   12  C13 UNL     1      35.479  28.393  50.504  1.00  0.00     0.017 C 
HETATM   13  C14 UNL     1      36.736  27.623  50.786  1.00  0.00     0.021 C 
HETATM   14  C15 UNL     1      34.226  27.662  50.915  1.00  0.00     0.087 C 
HETATM   15  C16 UNL     1      34.576  26.424  51.701  1.00  0.00     0.275 A 
HETATM   16  O3  UNL     1      33.373  25.812  52.050  1.00  0.00    -0.324 OA
HETATM   17  C17 UNL     1      33.607  26.278  53.366  1.00  0.00     0.174 A 
HETATM   18  C18 UNL     1      33.682  25.105  54.277  1.00  0.00     0.080 C 
HETATM   19  O4  UNL     1      34.829  26.759  53.000  1.00  0.00    -0.324 OA
HETATM   20  C19 UNL     1      32.586  27.310  53.679  1.00  0.00     0.080 C 
ENDROOT
BRANCH  20  21
HETATM   21  C20 UNL     1      32.920  28.087  54.904  1.00  0.00     0.022 C 
BRANCH  21  22
HETATM   22  C21 UNL     1      31.992  29.018  55.524  1.00  0.00     0.082 C 
BRANCH  22  23
HETATM   23  C22 UNL     1      30.657  28.497  55.919  1.00  0.00     0.160 C 
HETATM   24  O5  UNL     1      29.710  28.508  55.152  1.00  0.00    -0.295 OA
BRANCH  23  25
HETATM   25  C23 UNL     1      30.424  27.940  57.267  1.00  0.00     0.111 C 
HETATM   26  C24 UNL     1      29.114  28.400  57.874  1.00  0.00     0.053 C 
HETATM   27  C25 UNL     1      31.557  28.291  58.202  1.00  0.00     0.053 C 
BRANCH  25  28
HETATM   28  O6  UNL     1      30.358  26.555  57.171  1.00  0.00    -0.383 OA
ATOM     29  H6  UNL     1      30.636  26.180  57.998  1.00  0.00     0.211 HD
ENDBRANCH  25  28
ENDBRANCH  23  25
ENDBRANCH  22  23
ENDBRANCH  21  22
ENDBRANCH  20  21
BRANCH   1  30
HETATM   30  C2  UNL     1      31.140  28.083  51.744  1.00  0.00    -0.066 C 
HETATM   31  C1  UNL     1      30.256  29.111  51.709  1.00  0.00     0.019 C 
HETATM   32  C3  UNL     1      30.750  26.884  50.977  1.00  0.00     0.047 C 
ENDBRANCH   1  30
TORSDOF 6
ENDMDL
