MODEL 1
REMARK VINA RESULT: -9.326378528      0.000      0.000
REMARK  6 active torsions:
REMARK  status: ('A' for Active; 'I' for Inactive)
REMARK    1  A    between atoms: C3_3  and  N1_4 
REMARK    2  A    between atoms: N1_4  and  S1_6 
REMARK    3  A    between atoms: S1_6  and  C4_9 
REMARK    4  A    between atoms: C7_12  and  C8_13 
REMARK    5  A    between atoms: C14_19  and  N2_20 
REMARK    6  A    between atoms: N5_28  and  C18_29 
ROOT
HETATM    1  C1  UNL     1      35.727  24.597  53.006  1.00  0.00     0.073 C 
HETATM    2  C2  UNL     1      36.828  25.373  52.392  1.00  0.00     0.062 A 
HETATM    3  C3  UNL     1      36.628  26.425  51.462  1.00  0.00     0.113 A 
HETATM    4  C14 UNL     1      37.845  26.858  51.148  1.00  0.00     0.157 A 
HETATM    5  N4  UNL     1      38.741  26.099  51.856  1.00  0.00    -0.276 N 
ATOM      6  H4  UNL     1      39.753  26.214  51.808  1.00  0.00     0.189 HD
HETATM    7  N5  UNL     1      38.134  25.202  52.607  1.00  0.00    -0.257 N 
ENDROOT
BRANCH   3   8
HETATM    8  N1  UNL     1      35.350  26.815  50.981  1.00  0.00    -0.275 N 
ATOM      9  H1  UNL     1      34.964  26.231  50.238  1.00  0.00     0.179 HD
BRANCH   8  10
HETATM   10  S1  UNL     1      34.384  28.103  51.465  1.00  0.00     0.263 S 
HETATM   11  O1  UNL     1      33.397  28.392  50.292  1.00  0.00    -0.200 OA
HETATM   12  O2  UNL     1      35.241  29.381  51.591  1.00  0.00    -0.200 OA
BRANCH  10  13
HETATM   13  C4  UNL     1      33.394  27.988  52.866  1.00  0.00     0.079 A 
HETATM   14  C5  UNL     1      33.194  26.758  53.507  1.00  0.00     0.026 A 
HETATM   15  C6  UNL     1      32.505  26.630  54.675  1.00  0.00     0.009 A 
HETATM   16  C7  UNL     1      31.947  27.731  55.316  1.00  0.00    -0.051 A 
HETATM   17  C12 UNL     1      32.128  28.947  54.697  1.00  0.00     0.009 A 
HETATM   18  C13 UNL     1      32.826  29.067  53.515  1.00  0.00     0.026 A 
BRANCH  16  19
HETATM   19  C8  UNL     1      31.267  27.555  56.603  1.00  0.00    -0.024 C 
HETATM   20  C9  UNL     1      31.754  28.499  57.683  1.00  0.00     0.019 C 
HETATM   21  C10 UNL     1      29.775  27.740  56.459  1.00  0.00     0.019 C 
HETATM   22  C11 UNL     1      31.534  26.131  57.087  1.00  0.00     0.019 C 
ENDBRANCH  16  19
ENDBRANCH  10  13
ENDBRANCH   8  10
ENDBRANCH   3   8
BRANCH   4  23
HETATM   23  N2  UNL     1      38.343  27.929  50.334  1.00  0.00    -0.300 N 
HETATM   24  C15 UNL     1      39.577  28.424  50.439  1.00  0.00     0.116 A 
HETATM   25  C16 UNL     1      39.768  29.394  49.469  1.00  0.00     0.106 A 
HETATM   26  N3  UNL     1      38.627  29.479  48.776  1.00  0.00    -0.360 N 
HETATM   27  C17 UNL     1      37.767  28.571  49.325  1.00  0.00     0.189 A 
ATOM     28  H3  UNL     1      38.437  30.101  47.990  1.00  0.00     0.166 HD
ENDBRANCH   4  23
BRANCH   7  29
HETATM   29  C18 UNL     1      38.832  24.293  53.456  1.00  0.00     0.056 A 
HETATM   30  C19 UNL     1      38.249  23.705  54.549  1.00  0.00     0.031 A 
HETATM   31  C20 UNL     1      38.920  22.843  55.388  1.00  0.00     0.002 A 
HETATM   32  C21 UNL     1      40.256  22.535  55.132  1.00  0.00     0.000 A 
HETATM   33  C22 UNL     1      40.852  23.109  54.050  1.00  0.00     0.002 A 
HETATM   34  C23 UNL     1      40.175  23.971  53.219  1.00  0.00     0.031 A 
ENDBRANCH   7  29
TORSDOF 6
ENDMDL
MODEL 2
REMARK VINA RESULT: -9.143769839      2.857      6.440
REMARK  6 active torsions:
REMARK  status: ('A' for Active; 'I' for Inactive)
REMARK    1  A    between atoms: C3_3  and  N1_4 
REMARK    2  A    between atoms: N1_4  and  S1_6 
REMARK    3  A    between atoms: S1_6  and  C4_9 
REMARK    4  A    between atoms: C7_12  and  C8_13 
REMARK    5  A    between atoms: C14_19  and  N2_20 
REMARK    6  A    between atoms: N5_28  and  C18_29 
ROOT
HETATM    1  C1  UNL     1      36.256  24.706  51.685  1.00  0.00     0.073 C 
HETATM    2  C2  UNL     1      35.819  24.479  53.081  1.00  0.00     0.062 A 
HETATM    3  C3  UNL     1      34.482  24.647  53.526  1.00  0.00     0.113 A 
HETATM    4  C14 UNL     1      34.500  24.356  54.822  1.00  0.00     0.157 A 
HETATM    5  N4  UNL     1      35.791  24.029  55.147  1.00  0.00    -0.276 N 
ATOM      6  H4  UNL     1      36.096  23.761  56.083  1.00  0.00     0.189 HD
HETATM    7  N5  UNL     1      36.590  24.102  54.102  1.00  0.00    -0.257 N 
ENDROOT
BRANCH   3   8
HETATM    8  N1  UNL     1      33.428  25.100  52.689  1.00  0.00    -0.275 N 
ATOM      9  H1  UNL     1      32.872  24.367  52.248  1.00  0.00     0.179 HD
BRANCH   8  10
HETATM   10  S1  UNL     1      32.969  26.675  52.323  1.00  0.00     0.263 S 
HETATM   11  O1  UNL     1      32.756  27.411  53.681  1.00  0.00    -0.200 OA
HETATM   12  O2  UNL     1      31.580  26.671  51.647  1.00  0.00    -0.200 OA
BRANCH  10  13
HETATM   13  C4  UNL     1      33.998  27.707  51.411  1.00  0.00     0.079 A 
HETATM   14  C5  UNL     1      35.285  28.025  51.867  1.00  0.00     0.026 A 
HETATM   15  C6  UNL     1      36.175  28.752  51.136  1.00  0.00     0.009 A 
HETATM   16  C7  UNL     1      35.859  29.234  49.870  1.00  0.00    -0.051 A 
HETATM   17  C12 UNL     1      34.596  28.936  49.409  1.00  0.00     0.009 A 
HETATM   18  C13 UNL     1      33.702  28.200  50.155  1.00  0.00     0.026 A 
BRANCH  16  19
HETATM   19  C8  UNL     1      36.870  29.959  49.095  1.00  0.00    -0.024 C 
HETATM   20  C9  UNL     1      36.579  30.004  47.609  1.00  0.00     0.019 C 
HETATM   21  C10 UNL     1      37.015  31.379  49.586  1.00  0.00     0.019 C 
HETATM   22  C11 UNL     1      38.207  29.243  49.277  1.00  0.00     0.019 C 
ENDBRANCH  16  19
ENDBRANCH  10  13
ENDBRANCH   8  10
ENDBRANCH   3   8
BRANCH   4  23
HETATM   23  N2  UNL     1      33.490  24.258  55.836  1.00  0.00    -0.300 N 
HETATM   24  C15 UNL     1      33.434  23.268  56.729  1.00  0.00     0.116 A 
HETATM   25  C16 UNL     1      32.390  23.501  57.609  1.00  0.00     0.106 A 
HETATM   26  N3  UNL     1      31.813  24.648  57.232  1.00  0.00    -0.360 N 
HETATM   27  C17 UNL     1      32.505  25.093  56.142  1.00  0.00     0.189 A 
ATOM     28  H3  UNL     1      31.013  25.101  57.672  1.00  0.00     0.166 HD
ENDBRANCH   4  23
BRANCH   7  29
HETATM   29  C18 UNL     1      37.983  23.797  54.160  1.00  0.00     0.056 A 
HETATM   30  C19 UNL     1      38.925  24.503  53.457  1.00  0.00     0.031 A 
HETATM   31  C20 UNL     1      40.269  24.203  53.490  1.00  0.00     0.002 A 
HETATM   32  C21 UNL     1      40.718  23.139  54.270  1.00  0.00     0.000 A 
HETATM   33  C22 UNL     1      39.796  22.426  54.977  1.00  0.00     0.002 A 
HETATM   34  C23 UNL     1      38.456  22.731  54.937  1.00  0.00     0.031 A 
ENDBRANCH   7  29
TORSDOF 6
ENDMDL
MODEL 3
REMARK VINA RESULT: -9.003777860      2.973      6.369
REMARK  6 active torsions:
REMARK  status: ('A' for Active; 'I' for Inactive)
REMARK    1  A    between atoms: C3_3  and  N1_4 
REMARK    2  A    between atoms: N1_4  and  S1_6 
REMARK    3  A    between atoms: S1_6  and  C4_9 
REMARK    4  A    between atoms: C7_12  and  C8_13 
REMARK    5  A    between atoms: C14_19  and  N2_20 
REMARK    6  A    between atoms: N5_28  and  C18_29 
ROOT
HETATM    1  C1  UNL     1      36.247  24.684  51.683  1.00  0.00     0.073 C 
HETATM    2  C2  UNL     1      35.822  24.447  53.081  1.00  0.00     0.062 A 
HETATM    3  C3  UNL     1      34.485  24.592  53.534  1.00  0.00     0.113 A 
HETATM    4  C14 UNL     1      34.515  24.299  54.830  1.00  0.00     0.157 A 
HETATM    5  N4  UNL     1      35.814  23.993  55.146  1.00  0.00    -0.276 N 
ATOM      6  H4  UNL     1      36.129  23.729  56.080  1.00  0.00     0.189 HD
HETATM    7  N5  UNL     1      36.605  24.081  54.097  1.00  0.00    -0.257 N 
ENDROOT
BRANCH   3   8
HETATM    8  N1  UNL     1      33.419  25.029  52.704  1.00  0.00    -0.275 N 
ATOM      9  H1  UNL     1      32.867  24.287  52.272  1.00  0.00     0.179 HD
BRANCH   8  10
HETATM   10  S1  UNL     1      32.939  26.597  52.335  1.00  0.00     0.263 S 
HETATM   11  O1  UNL     1      32.644  27.311  53.689  1.00  0.00    -0.200 OA
HETATM   12  O2  UNL     1      31.583  26.568  51.595  1.00  0.00    -0.200 OA
BRANCH  10  13
HETATM   13  C4  UNL     1      33.984  27.665  51.484  1.00  0.00     0.079 A 
HETATM   14  C5  UNL     1      33.562  28.298  50.306  1.00  0.00     0.026 A 
HETATM   15  C6  UNL     1      34.311  29.229  49.652  1.00  0.00     0.009 A 
HETATM   16  C7  UNL     1      35.563  29.616  50.119  1.00  0.00    -0.051 A 
HETATM   17  C12 UNL     1      35.995  28.999  51.271  1.00  0.00     0.009 A 
HETATM   18  C13 UNL     1      35.232  28.059  51.926  1.00  0.00     0.026 A 
BRANCH  16  19
HETATM   19  C8  UNL     1      36.307  30.666  49.417  1.00  0.00    -0.024 C 
HETATM   20  C9  UNL     1      35.552  31.975  49.304  1.00  0.00     0.019 C 
HETATM   21  C10 UNL     1      37.626  30.944  50.096  1.00  0.00     0.019 C 
HETATM   22  C11 UNL     1      36.587  30.177  47.996  1.00  0.00     0.019 C 
ENDBRANCH  16  19
ENDBRANCH  10  13
ENDBRANCH   8  10
ENDBRANCH   3   8
BRANCH   4  23
HETATM   23  N2  UNL     1      33.513  24.182  55.850  1.00  0.00    -0.300 N 
HETATM   24  C15 UNL     1      33.476  23.188  56.737  1.00  0.00     0.116 A 
HETATM   25  C16 UNL     1      32.434  23.402  57.625  1.00  0.00     0.106 A 
HETATM   26  N3  UNL     1      31.841  24.544  57.258  1.00  0.00    -0.360 N 
HETATM   27  C17 UNL     1      32.520  25.004  56.166  1.00  0.00     0.189 A 
ATOM     28  H3  UNL     1      31.038  24.985  57.706  1.00  0.00     0.166 HD
ENDBRANCH   4  23
BRANCH   7  29
HETATM   29  C18 UNL     1      38.003  23.799  54.146  1.00  0.00     0.056 A 
HETATM   30  C19 UNL     1      38.930  24.525  53.443  1.00  0.00     0.031 A 
HETATM   31  C20 UNL     1      40.279  24.247  53.467  1.00  0.00     0.002 A 
HETATM   32  C21 UNL     1      40.749  23.186  54.239  1.00  0.00     0.000 A 
HETATM   33  C22 UNL     1      39.843  22.454  54.946  1.00  0.00     0.002 A 
HETATM   34  C23 UNL     1      38.498  22.737  54.914  1.00  0.00     0.031 A 
ENDBRANCH   7  29
TORSDOF 6
ENDMDL
MODEL 4
REMARK VINA RESULT: -8.878546131      1.429      1.890
REMARK  6 active torsions:
REMARK  status: ('A' for Active; 'I' for Inactive)
REMARK    1  A    between atoms: C3_3  and  N1_4 
REMARK    2  A    between atoms: N1_4  and  S1_6 
REMARK    3  A    between atoms: S1_6  and  C4_9 
REMARK    4  A    between atoms: C7_12  and  C8_13 
REMARK    5  A    between atoms: C14_19  and  N2_20 
REMARK    6  A    between atoms: N5_28  and  C18_29 
ROOT
HETATM    1  C1  UNL     1      35.854  25.920  54.604  1.00  0.00     0.073 C 
HETATM    2  C2  UNL     1      36.546  26.242  53.336  1.00  0.00     0.062 A 
HETATM    3  C3  UNL     1      36.068  27.193  52.397  1.00  0.00     0.113 A 
HETATM    4  C14 UNL     1      36.954  27.190  51.406  1.00  0.00     0.157 A 
HETATM    5  N4  UNL     1      37.923  26.277  51.732  1.00  0.00    -0.276 N 
ATOM      6  H4  UNL     1      38.732  26.067  51.147  1.00  0.00     0.189 HD
HETATM    7  N5  UNL     1      37.682  25.703  52.893  1.00  0.00    -0.257 N 
ENDROOT
BRANCH   3   8
HETATM    8  N1  UNL     1      34.846  27.901  52.550  1.00  0.00    -0.275 N 
ATOM      9  H1  UNL     1      34.935  28.861  52.881  1.00  0.00     0.179 HD
BRANCH   8  10
HETATM   10  S1  UNL     1      33.275  27.376  52.262  1.00  0.00     0.263 S 
HETATM   11  O1  UNL     1      33.338  25.826  52.104  1.00  0.00    -0.200 OA
HETATM   12  O2  UNL     1      32.793  27.898  50.890  1.00  0.00    -0.200 OA
BRANCH  10  13
HETATM   13  C4  UNL     1      32.024  27.660  53.407  1.00  0.00     0.079 A 
HETATM   14  C5  UNL     1      32.099  27.129  54.702  1.00  0.00     0.026 A 
HETATM   15  C6  UNL     1      31.189  27.408  55.675  1.00  0.00     0.009 A 
HETATM   16  C7  UNL     1      30.108  28.252  55.442  1.00  0.00    -0.051 A 
HETATM   17  C12 UNL     1      30.015  28.778  54.173  1.00  0.00     0.009 A 
HETATM   18  C13 UNL     1      30.940  28.490  53.194  1.00  0.00     0.026 A 
BRANCH  16  19
HETATM   19  C8  UNL     1      29.187  28.573  56.536  1.00  0.00    -0.024 C 
HETATM   20  C9  UNL     1      29.871  29.164  57.753  1.00  0.00     0.019 C 
HETATM   21  C10 UNL     1      28.121  29.541  56.083  1.00  0.00     0.019 C 
HETATM   22  C11 UNL     1      28.509  27.277  56.979  1.00  0.00     0.019 C 
ENDBRANCH  16  19
ENDBRANCH  10  13
ENDBRANCH   8  10
ENDBRANCH   3   8
BRANCH   4  23
HETATM   23  N2  UNL     1      37.106  27.955  50.202  1.00  0.00    -0.300 N 
HETATM   24  C15 UNL     1      36.079  28.397  49.475  1.00  0.00     0.116 A 
HETATM   25  C16 UNL     1      36.557  29.160  48.421  1.00  0.00     0.106 A 
HETATM   26  N3  UNL     1      37.890  29.170  48.523  1.00  0.00    -0.360 N 
HETATM   27  C17 UNL     1      38.204  28.424  49.624  1.00  0.00     0.189 A 
ATOM     28  H3  UNL     1      38.545  29.643  47.901  1.00  0.00     0.166 HD
ENDBRANCH   4  23
BRANCH   7  29
HETATM   29  C18 UNL     1      38.543  24.725  53.474  1.00  0.00     0.056 A 
HETATM   30  C19 UNL     1      38.110  23.819  54.408  1.00  0.00     0.031 A 
HETATM   31  C20 UNL     1      38.938  22.885  54.992  1.00  0.00     0.002 A 
HETATM   32  C21 UNL     1      40.283  22.837  54.629  1.00  0.00     0.000 A 
HETATM   33  C22 UNL     1      40.732  23.728  53.702  1.00  0.00     0.002 A 
HETATM   34  C23 UNL     1      39.899  24.659  53.126  1.00  0.00     0.031 A 
ENDBRANCH   7  29
TORSDOF 6
ENDMDL
MODEL 5
REMARK VINA RESULT: -8.876470271      1.522      2.249
REMARK  6 active torsions:
REMARK  status: ('A' for Active; 'I' for Inactive)
REMARK    1  A    between atoms: C3_3  and  N1_4 
REMARK    2  A    between atoms: N1_4  and  S1_6 
REMARK    3  A    between atoms: S1_6  and  C4_9 
REMARK    4  A    between atoms: C7_12  and  C8_13 
REMARK    5  A    between atoms: C14_19  and  N2_20 
REMARK    6  A    between atoms: N5_28  and  C18_29 
ROOT
HETATM    1  C1  UNL     1      36.023  26.067  54.593  1.00  0.00     0.073 C 
HETATM    2  C2  UNL     1      36.603  26.371  53.266  1.00  0.00     0.062 A 
HETATM    3  C3  UNL     1      36.036  27.295  52.350  1.00  0.00     0.113 A 
HETATM    4  C14 UNL     1      36.837  27.281  51.290  1.00  0.00     0.157 A 
HETATM    5  N4  UNL     1      37.842  26.387  51.552  1.00  0.00    -0.276 N 
ATOM      6  H4  UNL     1      38.603  26.174  50.907  1.00  0.00     0.189 HD
HETATM    7  N5  UNL     1      37.706  25.835  52.741  1.00  0.00    -0.257 N 
ENDROOT
BRANCH   3   8
HETATM    8  N1  UNL     1      34.823  27.992  52.590  1.00  0.00    -0.275 N 
ATOM      9  H1  UNL     1      34.924  28.972  52.856  1.00  0.00     0.179 HD
BRANCH   8  10
HETATM   10  S1  UNL     1      33.242  27.428  52.496  1.00  0.00     0.263 S 
HETATM   11  O1  UNL     1      33.318  25.871  52.460  1.00  0.00    -0.200 OA
HETATM   12  O2  UNL     1      32.623  27.829  51.139  1.00  0.00    -0.200 OA
BRANCH  10  13
HETATM   13  C4  UNL     1      32.098  27.792  53.728  1.00  0.00     0.079 A 
HETATM   14  C5  UNL     1      31.046  28.687  53.491  1.00  0.00     0.026 A 
HETATM   15  C6  UNL     1      30.058  28.930  54.396  1.00  0.00     0.009 A 
HETATM   16  C7  UNL     1      30.030  28.296  55.634  1.00  0.00    -0.051 A 
HETATM   17  C12 UNL     1      31.060  27.418  55.885  1.00  0.00     0.009 A 
HETATM   18  C13 UNL     1      32.056  27.177  54.965  1.00  0.00     0.026 A 
BRANCH  16  19
HETATM   19  C8  UNL     1      28.914  28.542  56.551  1.00  0.00    -0.024 C 
HETATM   20  C9  UNL     1      27.862  29.479  55.993  1.00  0.00     0.019 C 
HETATM   21  C10 UNL     1      28.232  27.250  56.936  1.00  0.00     0.019 C 
HETATM   22  C11 UNL     1      29.476  29.188  57.816  1.00  0.00     0.019 C 
ENDBRANCH  16  19
ENDBRANCH  10  13
ENDBRANCH   8  10
ENDBRANCH   3   8
BRANCH   4  23
HETATM   23  N2  UNL     1      36.879  28.022  50.062  1.00  0.00    -0.300 N 
HETATM   24  C15 UNL     1      35.789  28.402  49.393  1.00  0.00     0.116 A 
HETATM   25  C16 UNL     1      36.165  29.158  48.294  1.00  0.00     0.106 A 
HETATM   26  N3  UNL     1      37.501  29.227  48.309  1.00  0.00    -0.360 N 
HETATM   27  C17 UNL     1      37.916  28.522  49.403  1.00  0.00     0.189 A 
ATOM     28  H3  UNL     1      38.094  29.711  47.635  1.00  0.00     0.166 HD
ENDBRANCH   4  23
BRANCH   7  29
HETATM   29  C18 UNL     1      38.625  24.880  53.269  1.00  0.00     0.056 A 
HETATM   30  C19 UNL     1      38.249  23.898  54.150  1.00  0.00     0.031 A 
HETATM   31  C20 UNL     1      39.132  22.985  54.682  1.00  0.00     0.002 A 
HETATM   32  C21 UNL     1      40.477  23.039  54.320  1.00  0.00     0.000 A 
HETATM   33  C22 UNL     1      40.871  24.006  53.445  1.00  0.00     0.002 A 
HETATM   34  C23 UNL     1      39.982  24.916  52.921  1.00  0.00     0.031 A 
ENDBRANCH   7  29
TORSDOF 6
ENDMDL
