MODEL 1
REMARK VINA RESULT: -6.970357337      0.000      0.000
REMARK  8 active torsions:
REMARK  status: ('A' for Active; 'I' for Inactive)
REMARK    1  A    between atoms: N2_4  and  N3_6 
REMARK    2  A    between atoms: N3_6  and  C3_8 
REMARK    3  A    between atoms: C3_8  and  C8_28 
REMARK       I    between atoms: N4_9  and  C4_11 
REMARK    4  A    between atoms: C4_11  and  C5_13 
REMARK    5  A    between atoms: C5_13  and  N5_14 
REMARK    6  A    between atoms: N5_14  and  C6_16 
REMARK    7  A    between atoms: C7_19  and  N7_20 
REMARK    8  A    between atoms: N7_20  and  N8_22 
ROOT
HETATM    1  C3  UNL     1       5.514  21.200   2.372  1.00  0.00     0.189 C 
HETATM    2  N4  UNL     1       5.632  22.439   2.213  1.00  0.00    -0.306 N 
ATOM      3  H4  UNL     1       6.446  22.755   1.686  1.00  0.00     0.170 HD
HETATM    4  C4  UNL     1       4.770  23.431   2.677  1.00  0.00     0.241 C 
HETATM    5  O1  UNL     1       3.728  23.734   2.024  1.00  0.00    -0.271 OA
ENDROOT
BRANCH   4   6
HETATM    6  C5  UNL     1       5.043  24.156   3.932  1.00  0.00     0.241 C 
BRANCH   6   7
HETATM    7  N5  UNL     1       3.920  24.065   4.831  1.00  0.00    -0.217 N 
ATOM      8  H5  UNL     1       3.050  24.532   4.574  1.00  0.00     0.178 HD
BRANCH   7   9
HETATM    9  C6  UNL     1       3.974  23.338   6.086  1.00  0.00     0.686 A 
HETATM   10  N6  UNL     1       5.086  22.874   6.563  1.00  0.00    -0.167 N 
HETATM   11  C7  UNL     1       5.082  22.219   7.708  1.00  0.00     0.194 A 
ATOM     12  H6  UNL     1       5.960  23.015   6.055  1.00  0.00     0.186 HD
HETATM   13  S1  UNL     1       3.429  22.265   8.123  1.00  0.00     0.040 SA
HETATM   14  N9  UNL     1       2.855  23.126   6.790  1.00  0.00    -0.157 N 
ATOM     15  H9  UNL     1       1.900  23.413   6.576  1.00  0.00     0.193 HD
BRANCH  11  16
HETATM   16  N7  UNL     1       6.129  21.702   8.300  1.00  0.00    -0.285 N 
ATOM     17  H7  UNL     1       6.047  21.209   9.189  1.00  0.00     0.188 HD
BRANCH  16  18
HETATM   18  N8  UNL     1       7.373  21.856   7.657  1.00  0.00    -0.343 N 
ATOM     19  H82 UNL     1       7.788  22.781   7.547  1.00  0.00     0.176 HD
ATOM     20  H81 UNL     1       7.828  21.010   7.314  1.00  0.00     0.176 HD
ENDBRANCH  16  18
ENDBRANCH  11  16
ENDBRANCH   7   9
ENDBRANCH   6   7
ENDBRANCH   4   6
BRANCH   1  21
HETATM   21  N3  UNL     1       6.579  20.407   1.768  1.00  0.00    -0.280 N 
ATOM     22  H3  UNL     1       6.959  20.653   0.854  1.00  0.00     0.188 HD
BRANCH  21  23
HETATM   23  N2  UNL     1       7.062  19.312   2.468  1.00  0.00    -0.290 N 
HETATM   24  C2  UNL     1       7.666  18.372   1.839  1.00  0.00     0.103 C 
HETATM   25  C1  UNL     1       7.840  18.468   0.380  1.00  0.00     0.086 C 
HETATM   26  N1  UNL     1       8.173  17.231   2.544  1.00  0.00    -0.087 NA
ATOM     27  H2  UNL     1       6.937  19.254   3.478  1.00  0.00     0.188 HD
ENDBRANCH  21  23
ENDBRANCH   1  21
BRANCH   1  28
HETATM   28  C8  UNL     1       4.445  20.561   3.077  1.00  0.00     0.300 C 
HETATM   29  N10 UNL     1       4.474  20.274   4.444  1.00  0.00    -0.054 NA
HETATM   30  O2  UNL     1       3.392  20.227   2.431  1.00  0.00    -0.268 OA
ENDBRANCH   1  28
TORSDOF 8
ENDMDL
MODEL 2
REMARK VINA RESULT: -6.816057733      3.853      7.257
REMARK  8 active torsions:
REMARK  status: ('A' for Active; 'I' for Inactive)
REMARK    1  A    between atoms: N2_4  and  N3_6 
REMARK    2  A    between atoms: N3_6  and  C3_8 
REMARK    3  A    between atoms: C3_8  and  C8_28 
REMARK       I    between atoms: N4_9  and  C4_11 
REMARK    4  A    between atoms: C4_11  and  C5_13 
REMARK    5  A    between atoms: C5_13  and  N5_14 
REMARK    6  A    between atoms: N5_14  and  C6_16 
REMARK    7  A    between atoms: C7_19  and  N7_20 
REMARK    8  A    between atoms: N7_20  and  N8_22 
ROOT
HETATM    1  C3  UNL     1       5.346  21.041   2.150  1.00  0.00     0.189 C 
HETATM    2  N4  UNL     1       6.427  20.665   1.632  1.00  0.00    -0.306 N 
ATOM      3  H4  UNL     1       6.989  21.385   1.179  1.00  0.00     0.170 HD
HETATM    4  C4  UNL     1       6.941  19.370   1.610  1.00  0.00     0.241 C 
HETATM    5  O1  UNL     1       7.589  18.919   2.600  1.00  0.00    -0.271 OA
ENDROOT
BRANCH   4   6
HETATM    6  C5  UNL     1       6.751  18.492   0.440  1.00  0.00     0.241 C 
BRANCH   6   7
HETATM    7  N5  UNL     1       5.980  17.326   0.795  1.00  0.00    -0.217 N 
ATOM      8  H5  UNL     1       6.376  16.662   1.461  1.00  0.00     0.178 HD
BRANCH   7   9
HETATM    9  C6  UNL     1       4.663  17.057   0.245  1.00  0.00     0.686 A 
HETATM   10  N6  UNL     1       3.866  18.010  -0.122  1.00  0.00    -0.167 N 
HETATM   11  C7  UNL     1       2.679  17.713  -0.616  1.00  0.00     0.194 A 
ATOM     12  H6  UNL     1       4.155  18.984  -0.031  1.00  0.00     0.186 HD
HETATM   13  S1  UNL     1       2.698  16.009  -0.555  1.00  0.00     0.040 SA
HETATM   14  N9  UNL     1       4.238  15.796   0.104  1.00  0.00    -0.157 N 
ATOM     15  H9  UNL     1       4.720  14.928   0.336  1.00  0.00     0.193 HD
BRANCH  11  16
HETATM   16  N7  UNL     1       1.781  18.574  -1.024  1.00  0.00    -0.285 N 
ATOM     17  H7  UNL     1       1.287  19.178  -0.368  1.00  0.00     0.188 HD
BRANCH  16  18
HETATM   18  N8  UNL     1       1.525  18.629  -2.409  1.00  0.00    -0.343 N 
ATOM     19  H82 UNL     1       1.552  17.780  -2.975  1.00  0.00     0.176 HD
ATOM     20  H81 UNL     1       1.314  19.544  -2.807  1.00  0.00     0.176 HD
ENDBRANCH  16  18
ENDBRANCH  11  16
ENDBRANCH   7   9
ENDBRANCH   6   7
ENDBRANCH   4   6
BRANCH   1  21
HETATM   21  N3  UNL     1       5.073  22.467   2.013  1.00  0.00    -0.280 N 
ATOM     22  H3  UNL     1       4.664  22.841   1.156  1.00  0.00     0.188 HD
BRANCH  21  23
HETATM   23  N2  UNL     1       5.382  23.302   3.076  1.00  0.00    -0.290 N 
HETATM   24  C2  UNL     1       4.671  24.346   3.291  1.00  0.00     0.103 C 
HETATM   25  C1  UNL     1       3.533  24.647   2.407  1.00  0.00     0.086 C 
HETATM   26  N1  UNL     1       4.974  25.222   4.387  1.00  0.00    -0.087 NA
ATOM     27  H2  UNL     1       6.172  23.085   3.684  1.00  0.00     0.188 HD
ENDBRANCH  21  23
ENDBRANCH   1  21
BRANCH   1  28
HETATM   28  C8  UNL     1       4.422  20.187   2.830  1.00  0.00     0.300 C 
HETATM   29  N10 UNL     1       4.557  19.799   4.166  1.00  0.00    -0.054 NA
HETATM   30  O2  UNL     1       3.406  19.742   2.192  1.00  0.00    -0.268 OA
ENDBRANCH   1  28
TORSDOF 8
ENDMDL
MODEL 3
REMARK VINA RESULT: -6.799886305      2.320      3.780
REMARK  8 active torsions:
REMARK  status: ('A' for Active; 'I' for Inactive)
REMARK    1  A    between atoms: N2_4  and  N3_6 
REMARK    2  A    between atoms: N3_6  and  C3_8 
REMARK    3  A    between atoms: C3_8  and  C8_28 
REMARK       I    between atoms: N4_9  and  C4_11 
REMARK    4  A    between atoms: C4_11  and  C5_13 
REMARK    5  A    between atoms: C5_13  and  N5_14 
REMARK    6  A    between atoms: N5_14  and  C6_16 
REMARK    7  A    between atoms: C7_19  and  N7_20 
REMARK    8  A    between atoms: N7_20  and  N8_22 
ROOT
HETATM    1  C3  UNL     1       5.863  19.010   2.707  1.00  0.00     0.189 C 
HETATM    2  N4  UNL     1       5.325  20.081   3.083  1.00  0.00    -0.306 N 
ATOM      3  H4  UNL     1       5.920  20.909   3.096  1.00  0.00     0.170 HD
HETATM    4  C4  UNL     1       4.003  20.260   3.484  1.00  0.00     0.241 C 
HETATM    5  O1  UNL     1       3.089  20.436   2.625  1.00  0.00    -0.271 OA
ENDROOT
BRANCH   4   6
HETATM    6  C5  UNL     1       3.628  20.253   4.910  1.00  0.00     0.241 C 
BRANCH   6   7
HETATM    7  N5  UNL     1       4.052  21.469   5.557  1.00  0.00    -0.217 N 
ATOM      8  H5  UNL     1       4.286  21.439   6.550  1.00  0.00     0.178 HD
BRANCH   7   9
HETATM    9  C6  UNL     1       4.161  22.736   4.856  1.00  0.00     0.686 A 
HETATM   10  N6  UNL     1       3.156  23.262   4.230  1.00  0.00    -0.167 N 
HETATM   11  C7  UNL     1       3.307  24.415   3.607  1.00  0.00     0.194 A 
ATOM     12  H6  UNL     1       2.254  22.787   4.219  1.00  0.00     0.186 HD
HETATM   13  S1  UNL     1       4.945  24.766   3.925  1.00  0.00     0.040 SA
HETATM   14  N9  UNL     1       5.324  23.399   4.840  1.00  0.00    -0.157 N 
ATOM     15  H9  UNL     1       6.212  23.144   5.272  1.00  0.00     0.193 HD
BRANCH  11  16
HETATM   16  N7  UNL     1       2.378  25.054   2.941  1.00  0.00    -0.285 N 
ATOM     17  H7  UNL     1       1.435  24.678   2.851  1.00  0.00     0.188 HD
BRANCH  16  18
HETATM   18  N8  UNL     1       2.738  26.283   2.353  1.00  0.00    -0.343 N 
ATOM     19  H82 UNL     1       3.414  26.897   2.808  1.00  0.00     0.176 HD
ATOM     20  H81 UNL     1       2.295  26.522   1.466  1.00  0.00     0.176 HD
ENDBRANCH  16  18
ENDBRANCH  11  16
ENDBRANCH   7   9
ENDBRANCH   6   7
ENDBRANCH   4   6
BRANCH   1  21
HETATM   21  N3  UNL     1       7.271  19.134   2.348  1.00  0.00    -0.280 N 
ATOM     22  H3  UNL     1       7.716  20.049   2.284  1.00  0.00     0.188 HD
BRANCH  21  23
HETATM   23  N2  UNL     1       7.990  17.975   2.095  1.00  0.00    -0.290 N 
HETATM   24  C2  UNL     1       8.513  17.792   0.940  1.00  0.00     0.103 C 
HETATM   25  C1  UNL     1       8.345  18.813  -0.107  1.00  0.00     0.086 C 
HETATM   26  N1  UNL     1       9.261  16.599   0.658  1.00  0.00    -0.087 NA
ATOM     27  H2  UNL     1       8.102  17.272   2.826  1.00  0.00     0.188 HD
ENDBRANCH  21  23
ENDBRANCH   1  21
BRANCH   1  28
HETATM   28  C8  UNL     1       5.199  17.746   2.618  1.00  0.00     0.300 C 
HETATM   29  N10 UNL     1       5.064  16.858   3.689  1.00  0.00    -0.054 NA
HETATM   30  O2  UNL     1       4.693  17.391   1.497  1.00  0.00    -0.268 OA
ENDBRANCH   1  28
TORSDOF 8
ENDMDL
MODEL 4
REMARK VINA RESULT: -6.757367543      3.944      7.354
REMARK  8 active torsions:
REMARK  status: ('A' for Active; 'I' for Inactive)
REMARK    1  A    between atoms: N2_4  and  N3_6 
REMARK    2  A    between atoms: N3_6  and  C3_8 
REMARK    3  A    between atoms: C3_8  and  C8_28 
REMARK       I    between atoms: N4_9  and  C4_11 
REMARK    4  A    between atoms: C4_11  and  C5_13 
REMARK    5  A    between atoms: C5_13  and  N5_14 
REMARK    6  A    between atoms: N5_14  and  C6_16 
REMARK    7  A    between atoms: C7_19  and  N7_20 
REMARK    8  A    between atoms: N7_20  and  N8_22 
ROOT
HETATM    1  C3  UNL     1       5.592  21.032   2.354  1.00  0.00     0.189 C 
HETATM    2  N4  UNL     1       6.625  20.564   1.814  1.00  0.00    -0.306 N 
ATOM      3  H4  UNL     1       7.288  21.241   1.438  1.00  0.00     0.170 HD
HETATM    4  C4  UNL     1       6.961  19.220   1.673  1.00  0.00     0.241 C 
HETATM    5  O1  UNL     1       7.520  18.594   2.622  1.00  0.00    -0.271 OA
ENDROOT
BRANCH   4   6
HETATM    6  C5  UNL     1       6.683  18.489   0.423  1.00  0.00     0.241 C 
BRANCH   6   7
HETATM    7  N5  UNL     1       5.962  17.270   0.691  1.00  0.00    -0.217 N 
ATOM      8  H5  UNL     1       6.412  16.551   1.259  1.00  0.00     0.178 HD
BRANCH   7   9
HETATM    9  C6  UNL     1       4.622  17.022   0.190  1.00  0.00     0.686 A 
HETATM   10  N6  UNL     1       3.839  17.985  -0.179  1.00  0.00    -0.167 N 
HETATM   11  C7  UNL     1       2.629  17.707  -0.627  1.00  0.00     0.194 A 
ATOM     12  H6  UNL     1       4.155  18.953  -0.123  1.00  0.00     0.186 HD
HETATM   13  S1  UNL     1       2.607  16.005  -0.520  1.00  0.00     0.040 SA
HETATM   14  N9  UNL     1       4.160  15.769   0.096  1.00  0.00    -0.157 N 
ATOM     15  H9  UNL     1       4.627  14.894   0.336  1.00  0.00     0.193 HD
BRANCH  11  16
HETATM   16  N7  UNL     1       1.741  18.580  -1.031  1.00  0.00    -0.285 N 
ATOM     17  H7  UNL     1       1.243  19.176  -0.370  1.00  0.00     0.188 HD
BRANCH  16  18
HETATM   18  N8  UNL     1       1.504  18.663  -2.417  1.00  0.00    -0.343 N 
ATOM     19  H82 UNL     1       2.268  18.542  -3.082  1.00  0.00     0.176 HD
ATOM     20  H81 UNL     1       0.546  18.846  -2.715  1.00  0.00     0.176 HD
ENDBRANCH  16  18
ENDBRANCH  11  16
ENDBRANCH   7   9
ENDBRANCH   6   7
ENDBRANCH   4   6
BRANCH   1  21
HETATM   21  N3  UNL     1       5.515  22.489   2.353  1.00  0.00    -0.280 N 
ATOM     22  H3  UNL     1       6.352  23.057   2.486  1.00  0.00     0.188 HD
BRANCH  21  23
HETATM   23  N2  UNL     1       4.276  23.083   2.165  1.00  0.00    -0.290 N 
HETATM   24  C2  UNL     1       3.965  24.128   2.838  1.00  0.00     0.103 C 
HETATM   25  C1  UNL     1       4.926  24.687   3.802  1.00  0.00     0.086 C 
HETATM   26  N1  UNL     1       2.687  24.757   2.658  1.00  0.00    -0.087 NA
ATOM     27  H2  UNL     1       3.616  22.689   1.495  1.00  0.00     0.188 HD
ENDBRANCH  21  23
ENDBRANCH   1  21
BRANCH   1  28
HETATM   28  C8  UNL     1       4.547  20.251   2.940  1.00  0.00     0.300 C 
HETATM   29  N10 UNL     1       3.388  19.863   2.261  1.00  0.00    -0.054 NA
HETATM   30  O2  UNL     1       4.663  19.877   4.158  1.00  0.00    -0.268 OA
ENDBRANCH   1  28
TORSDOF 8
ENDMDL
MODEL 5
REMARK VINA RESULT: -6.739428059      2.377      3.592
REMARK  8 active torsions:
REMARK  status: ('A' for Active; 'I' for Inactive)
REMARK    1  A    between atoms: N2_4  and  N3_6 
REMARK    2  A    between atoms: N3_6  and  C3_8 
REMARK    3  A    between atoms: C3_8  and  C8_28 
REMARK       I    between atoms: N4_9  and  C4_11 
REMARK    4  A    between atoms: C4_11  and  C5_13 
REMARK    5  A    between atoms: C5_13  and  N5_14 
REMARK    6  A    between atoms: N5_14  and  C6_16 
REMARK    7  A    between atoms: C7_19  and  N7_20 
REMARK    8  A    between atoms: N7_20  and  N8_22 
ROOT
HETATM    1  C3  UNL     1       6.288  20.646   1.691  1.00  0.00     0.189 C 
HETATM    2  N4  UNL     1       6.175  21.875   1.921  1.00  0.00    -0.306 N 
ATOM      3  H4  UNL     1       6.975  22.459   1.677  1.00  0.00     0.170 HD
HETATM    4  C4  UNL     1       5.076  22.528   2.474  1.00  0.00     0.241 C 
HETATM    5  O1  UNL     1       4.096  22.865   1.747  1.00  0.00    -0.271 OA
ENDROOT
BRANCH   4   6
HETATM    6  C5  UNL     1       5.020  22.847   3.913  1.00  0.00     0.241 C 
BRANCH   6   7
HETATM    7  N5  UNL     1       4.365  21.794   4.647  1.00  0.00    -0.217 N 
ATOM      8  H5  UNL     1       4.906  21.268   5.334  1.00  0.00     0.178 HD
BRANCH   7   9
HETATM    9  C6  UNL     1       2.969  21.448   4.449  1.00  0.00     0.686 A 
HETATM   10  N6  UNL     1       2.602  20.528   3.614  1.00  0.00    -0.167 N 
HETATM   11  C7  UNL     1       1.319  20.252   3.470  1.00  0.00     0.194 A 
ATOM     12  H6  UNL     1       3.300  20.021   3.071  1.00  0.00     0.186 HD
HETATM   13  S1  UNL     1       0.608  21.346   4.569  1.00  0.00     0.040 SA
HETATM   14  N9  UNL     1       2.014  22.085   5.138  1.00  0.00    -0.157 N 
ATOM     15  H9  UNL     1       2.111  22.828   5.831  1.00  0.00     0.193 HD
BRANCH  11  16
HETATM   16  N7  UNL     1       0.814  19.351   2.667  1.00  0.00    -0.285 N 
ATOM     17  H7  UNL     1      -0.082  18.904   2.865  1.00  0.00     0.188 HD
BRANCH  16  18
HETATM   18  N8  UNL     1       1.559  19.023   1.517  1.00  0.00    -0.343 N 
ATOM     19  H82 UNL     1       1.406  19.523   0.641  1.00  0.00     0.176 HD
ATOM     20  H81 UNL     1       2.247  18.275   1.605  1.00  0.00     0.176 HD
ENDBRANCH  16  18
ENDBRANCH  11  16
ENDBRANCH   7   9
ENDBRANCH   6   7
ENDBRANCH   4   6
BRANCH   1  21
HETATM   21  N3  UNL     1       7.564  20.254   1.103  1.00  0.00    -0.280 N 
ATOM     22  H3  UNL     1       8.106  20.912   0.544  1.00  0.00     0.188 HD
BRANCH  21  23
HETATM   23  N2  UNL     1       8.022  18.964   1.325  1.00  0.00    -0.290 N 
HETATM   24  C2  UNL     1       8.748  18.387   0.440  1.00  0.00     0.103 C 
HETATM   25  C1  UNL     1       9.088  19.101  -0.802  1.00  0.00     0.086 C 
HETATM   26  N1  UNL     1       9.232  17.053   0.651  1.00  0.00    -0.087 NA
ATOM     27  H2  UNL     1       7.782  18.476   2.188  1.00  0.00     0.188 HD
ENDBRANCH  21  23
ENDBRANCH   1  21
BRANCH   1  28
HETATM   28  C8  UNL     1       5.281  19.665   1.960  1.00  0.00     0.300 C 
HETATM   29  N10 UNL     1       5.211  18.922   3.141  1.00  0.00    -0.054 NA
HETATM   30  O2  UNL     1       4.383  19.443   1.075  1.00  0.00    -0.268 OA
ENDBRANCH   1  28
TORSDOF 8
ENDMDL
