MODEL 1
REMARK VINA RESULT: -6.678478359      0.000      0.000
REMARK  3 active torsions:
REMARK  status: ('A' for Active; 'I' for Inactive)
REMARK    1  A    between atoms: O1_1  and  N1_3 
REMARK    2  A    between atoms: N1_3  and  C7_13 
REMARK    3  A    between atoms: C1_4  and  C2_5 
ROOT
HETATM    1  N1  UNL     1      34.236 -39.994  28.358  1.00  0.00    -0.216 N 
HETATM    2  C1  UNL     1      34.513 -38.985  29.077  1.00  0.00     0.154 C 
ENDROOT
BRANCH   1   3
HETATM    3  O1  UNL     1      33.080 -39.979  27.612  1.00  0.00    -0.281 OA
ATOM      4  H1  UNL     1      32.925 -40.684  26.994  1.00  0.00     0.245 HD
ENDBRANCH   1   3
BRANCH   1   5
HETATM    5  C7  UNL     1      35.065 -41.131  28.292  1.00  0.00     0.146 A 
HETATM    6  C8  UNL     1      36.434 -41.152  28.368  1.00  0.00     0.053 A 
HETATM    7  C9  UNL     1      37.193 -42.311  28.296  1.00  0.00     0.022 A 
HETATM    8  C10 UNL     1      36.533 -43.497  28.142  1.00  0.00     0.107 A 
HETATM    9  N3  UNL     1      35.204 -43.462  28.069  1.00  0.00    -0.310 N 
HETATM   10  N4  UNL     1      34.484 -42.363  28.138  1.00  0.00    -0.284 N 
ATOM     11  H3  UNL     1      34.712 -44.347  27.953  1.00  0.00     0.186 HD
ATOM     12  H4  UNL     1      33.468 -42.429  28.074  1.00  0.00     0.188 HD
ENDBRANCH   1   5
BRANCH   2  13
HETATM   13  C2  UNL     1      33.628 -37.833  29.114  1.00  0.00     0.050 A 
HETATM   14  C3  UNL     1      34.188 -36.627  28.959  1.00  0.00     0.034 A 
HETATM   15  C4  UNL     1      33.403 -35.400  28.978  1.00  0.00     0.046 A 
HETATM   16  C5  UNL     1      32.098 -35.508  29.155  1.00  0.00     0.131 A 
HETATM   17  F1  UNL     1      31.315 -34.392  29.181  1.00  0.00    -0.205 F 
HETATM   18  C6  UNL     1      31.542 -36.838  29.318  1.00  0.00     0.130 A 
HETATM   19  N2  UNL     1      32.214 -37.919  29.304  1.00  0.00    -0.362 N 
ATOM     20  H2  UNL     1      31.755 -38.822  29.425  1.00  0.00     0.165 HD
ENDBRANCH   2  13
TORSDOF 3
ENDMDL
MODEL 2
REMARK VINA RESULT: -6.500295757      1.168      1.520
REMARK  3 active torsions:
REMARK  status: ('A' for Active; 'I' for Inactive)
REMARK    1  A    between atoms: O1_1  and  N1_3 
REMARK    2  A    between atoms: N1_3  and  C7_13 
REMARK    3  A    between atoms: C1_4  and  C2_5 
ROOT
HETATM    1  N1  UNL     1      34.904 -39.838  28.704  1.00  0.00    -0.216 N 
HETATM    2  C1  UNL     1      33.748 -39.454  28.347  1.00  0.00     0.154 C 
ENDROOT
BRANCH   1   3
HETATM    3  O1  UNL     1      35.711 -38.961  29.391  1.00  0.00    -0.281 OA
ATOM      4  H1  UNL     1      36.605 -38.833  29.095  1.00  0.00     0.245 HD
ENDBRANCH   1   3
BRANCH   1   5
HETATM    5  C7  UNL     1      35.397 -41.128  28.425  1.00  0.00     0.146 A 
HETATM    6  C8  UNL     1      36.711 -41.490  28.281  1.00  0.00     0.053 A 
HETATM    7  C9  UNL     1      37.130 -42.783  28.006  1.00  0.00     0.022 A 
HETATM    8  C10 UNL     1      36.174 -43.749  27.872  1.00  0.00     0.107 A 
HETATM    9  N3  UNL     1      34.902 -43.384  28.014  1.00  0.00    -0.310 N 
HETATM   10  N4  UNL     1      34.503 -42.157  28.276  1.00  0.00    -0.284 N 
ATOM     11  H3  UNL     1      34.187 -44.104  27.913  1.00  0.00     0.186 HD
ATOM     12  H4  UNL     1      33.505 -41.967  28.369  1.00  0.00     0.188 HD
ENDBRANCH   1   5
BRANCH   2  13
HETATM   13  C2  UNL     1      33.281 -38.114  28.657  1.00  0.00     0.050 A 
HETATM   14  C3  UNL     1      31.959 -37.906  28.631  1.00  0.00     0.034 A 
HETATM   15  C4  UNL     1      31.374 -36.603  28.924  1.00  0.00     0.046 A 
HETATM   16  C5  UNL     1      32.196 -35.613  29.221  1.00  0.00     0.131 A 
HETATM   17  F1  UNL     1      31.703 -34.374  29.503  1.00  0.00    -0.205 F 
HETATM   18  C6  UNL     1      33.620 -35.892  29.234  1.00  0.00     0.130 A 
HETATM   19  N2  UNL     1      34.147 -37.023  28.981  1.00  0.00    -0.362 N 
ATOM     20  H2  UNL     1      35.159 -37.147  29.009  1.00  0.00     0.165 HD
ENDBRANCH   2  13
TORSDOF 3
ENDMDL
MODEL 3
REMARK VINA RESULT: -6.358524137      3.085      6.550
REMARK  3 active torsions:
REMARK  status: ('A' for Active; 'I' for Inactive)
REMARK    1  A    between atoms: O1_1  and  N1_3 
REMARK    2  A    between atoms: N1_3  and  C7_13 
REMARK    3  A    between atoms: C1_4  and  C2_5 
ROOT
HETATM    1  N1  UNL     1      33.657 -39.345  28.262  1.00  0.00    -0.216 N 
HETATM    2  C1  UNL     1      34.831 -39.668  28.619  1.00  0.00     0.154 C 
ENDROOT
BRANCH   1   3
HETATM    3  O1  UNL     1      32.899 -40.261  27.570  1.00  0.00    -0.281 OA
ATOM      4  H1  UNL     1      32.360 -39.958  26.848  1.00  0.00     0.245 HD
ENDBRANCH   1   3
BRANCH   1   5
HETATM    5  C7  UNL     1      33.096 -38.084  28.545  1.00  0.00     0.146 A 
HETATM    6  C8  UNL     1      33.739 -37.007  29.098  1.00  0.00     0.053 A 
HETATM    7  C9  UNL     1      33.126 -35.789  29.352  1.00  0.00     0.022 A 
HETATM    8  C10 UNL     1      31.805 -35.660  29.030  1.00  0.00     0.107 A 
HETATM    9  N3  UNL     1      31.193 -36.714  28.494  1.00  0.00    -0.310 N 
HETATM   10  N4  UNL     1      31.774 -37.870  28.252  1.00  0.00    -0.284 N 
ATOM     11  H3  UNL     1      30.207 -36.619  28.255  1.00  0.00     0.186 HD
ATOM     12  H4  UNL     1      31.228 -38.624  27.838  1.00  0.00     0.188 HD
ENDBRANCH   1   5
BRANCH   2  13
HETATM   13  C2  UNL     1      35.369 -40.982  28.305  1.00  0.00     0.050 A 
HETATM   14  C3  UNL     1      36.663 -41.048  27.970  1.00  0.00     0.034 A 
HETATM   15  C4  UNL     1      37.312 -42.309  27.635  1.00  0.00     0.046 A 
HETATM   16  C5  UNL     1      36.577 -43.406  27.670  1.00  0.00     0.131 A 
HETATM   17  F1  UNL     1      37.134 -44.614  27.365  1.00  0.00    -0.205 F 
HETATM   18  C6  UNL     1      35.180 -43.279  28.038  1.00  0.00     0.130 A 
HETATM   19  N2  UNL     1      34.599 -42.186  28.334  1.00  0.00    -0.362 N 
ATOM     20  H2  UNL     1      33.610 -42.170  28.584  1.00  0.00     0.165 HD
ENDBRANCH   2  13
TORSDOF 3
ENDMDL
MODEL 4
REMARK VINA RESULT: -6.358310447      5.442      6.662
REMARK  3 active torsions:
REMARK  status: ('A' for Active; 'I' for Inactive)
REMARK    1  A    between atoms: O1_1  and  N1_3 
REMARK    2  A    between atoms: N1_3  and  C7_13 
REMARK    3  A    between atoms: C1_4  and  C2_5 
ROOT
HETATM    1  N1  UNL     1      38.840 -37.394  28.731  1.00  0.00    -0.216 N 
HETATM    2  C1  UNL     1      38.591 -38.625  28.910  1.00  0.00     0.154 C 
ENDROOT
BRANCH   1   3
HETATM    3  O1  UNL     1      37.866 -36.593  28.182  1.00  0.00    -0.281 OA
ATOM      4  H1  UNL     1      37.298 -36.099  28.762  1.00  0.00     0.245 HD
ENDBRANCH   1   3
BRANCH   1   5
HETATM    5  C7  UNL     1      40.078 -36.811  29.072  1.00  0.00     0.146 A 
HETATM    6  C8  UNL     1      41.284 -37.035  28.460  1.00  0.00     0.053 A 
HETATM    7  C9  UNL     1      42.469 -36.427  28.847  1.00  0.00     0.022 A 
HETATM    8  C10 UNL     1      42.426 -35.555  29.897  1.00  0.00     0.107 A 
HETATM    9  N3  UNL     1      41.249 -35.348  30.481  1.00  0.00    -0.310 N 
HETATM   10  N4  UNL     1      40.124 -35.924  30.115  1.00  0.00    -0.284 N 
ATOM     11  H3  UNL     1      41.216 -34.698  31.266  1.00  0.00     0.186 HD
ATOM     12  H4  UNL     1      39.265 -35.705  30.621  1.00  0.00     0.188 HD
ENDBRANCH   1   5
BRANCH   2  13
HETATM   13  C2  UNL     1      37.300 -39.183  28.545  1.00  0.00     0.050 A 
HETATM   14  C3  UNL     1      37.262 -39.986  27.474  1.00  0.00     0.034 A 
HETATM   15  C4  UNL     1      36.025 -40.602  27.012  1.00  0.00     0.046 A 
HETATM   16  C5  UNL     1      34.920 -40.343  27.688  1.00  0.00     0.131 A 
HETATM   17  F1  UNL     1      33.734 -40.893  27.299  1.00  0.00    -0.205 F 
HETATM   18  C6  UNL     1      35.016 -39.466  28.839  1.00  0.00     0.130 A 
HETATM   19  N2  UNL     1      36.088 -38.920  29.256  1.00  0.00    -0.362 N 
ATOM     20  H2  UNL     1      36.082 -38.312  30.075  1.00  0.00     0.165 HD
ENDBRANCH   2  13
TORSDOF 3
ENDMDL
MODEL 5
REMARK VINA RESULT: -6.315737285      4.064      4.911
REMARK  3 active torsions:
REMARK  status: ('A' for Active; 'I' for Inactive)
REMARK    1  A    between atoms: O1_1  and  N1_3 
REMARK    2  A    between atoms: N1_3  and  C7_13 
REMARK    3  A    between atoms: C1_4  and  C2_5 
ROOT
HETATM    1  N1  UNL     1      37.967 -39.117  29.377  1.00  0.00    -0.216 N 
HETATM    2  C1  UNL     1      37.011 -39.908  29.649  1.00  0.00     0.154 C 
ENDROOT
BRANCH   1   3
HETATM    3  O1  UNL     1      37.705 -37.992  28.631  1.00  0.00    -0.281 OA
ATOM      4  H1  UNL     1      38.324 -37.733  27.959  1.00  0.00     0.245 HD
ENDBRANCH   1   3
BRANCH   1   5
HETATM    5  C7  UNL     1      39.288 -39.347  29.809  1.00  0.00     0.146 A 
HETATM    6  C8  UNL     1      39.954 -40.545  29.807  1.00  0.00     0.053 A 
HETATM    7  C9  UNL     1      41.260 -40.702  30.248  1.00  0.00     0.022 A 
HETATM    8  C10 UNL     1      41.916 -39.596  30.708  1.00  0.00     0.107 A 
HETATM    9  N3  UNL     1      41.257 -38.439  30.703  1.00  0.00    -0.310 N 
HETATM   10  N4  UNL     1      40.019 -38.289  30.285  1.00  0.00    -0.284 N 
ATOM     11  H3  UNL     1      41.746 -37.614  31.047  1.00  0.00     0.186 HD
ATOM     12  H4  UNL     1      39.592 -37.363  30.317  1.00  0.00     0.188 HD
ENDBRANCH   1   5
BRANCH   2  13
HETATM   13  C2  UNL     1      35.663 -39.630  29.183  1.00  0.00     0.050 A 
HETATM   14  C3  UNL     1      35.155 -40.453  28.257  1.00  0.00     0.034 A 
HETATM   15  C4  UNL     1      33.814 -40.275  27.714  1.00  0.00     0.046 A 
HETATM   16  C5  UNL     1      33.098 -39.261  28.167  1.00  0.00     0.131 A 
HETATM   17  F1  UNL     1      31.837 -39.047  27.693  1.00  0.00    -0.205 F 
HETATM   18  C6  UNL     1      33.696 -38.400  29.169  1.00  0.00     0.130 A 
HETATM   19  N2  UNL     1      34.865 -38.542  29.653  1.00  0.00    -0.362 N 
ATOM     20  H2  UNL     1      35.222 -37.896  30.358  1.00  0.00     0.165 HD
ENDBRANCH   2  13
TORSDOF 3
ENDMDL
