MODEL 1
REMARK VINA RESULT: -5.799957906      0.000      0.000
REMARK  2 active torsions:
REMARK  status: ('A' for Active; 'I' for Inactive)
REMARK    1  A    between atoms: C5_6  and  C7_9 
REMARK    2  A    between atoms: C7_9  and  C8_10 
ROOT
HETATM    1  N1  UNL     1       6.654  21.200  75.302  1.00  0.00    -0.197 NA
HETATM    2  C1  UNL     1       5.657  21.659  74.983  1.00  0.00     0.064 C 
HETATM    3  C2  UNL     1       4.384  22.258  74.594  1.00  0.00     0.094 C 
HETATM    4  C3  UNL     1       3.828  23.148  75.703  1.00  0.00     0.021 C 
HETATM    5  C4  UNL     1       2.403  23.367  75.176  1.00  0.00     0.026 C 
HETATM    6  C5  UNL     1       2.023  22.037  74.564  1.00  0.00     0.057 C 
HETATM    7  C6  UNL     1       1.043  21.344  75.371  1.00  0.00     0.069 C 
HETATM    8  N2  UNL     1       0.274  20.815  76.017  1.00  0.00    -0.196 NA
HETATM    9  C10 UNL     1       3.294  21.210  74.509  1.00  0.00     0.044 C 
ENDROOT
BRANCH   6  10
HETATM   10  C7  UNL     1       1.552  22.182  73.147  1.00  0.00     0.102 C 
BRANCH  10  11
HETATM   11  C8  UNL     1       0.934  20.981  72.589  1.00  0.00     0.098 A 
HETATM   12  N3  UNL     1      -0.265  20.420  72.798  1.00  0.00    -0.340 N 
HETATM   13  C9  UNL     1      -0.383  19.312  72.047  1.00  0.00     0.198 A 
ATOM     14  H3  UNL     1      -0.979  20.779  73.433  1.00  0.00     0.168 HD
HETATM   15  N4  UNL     1       0.766  19.200  71.367  1.00  0.00    -0.295 N 
HETATM   16  N5  UNL     1       1.549  20.192  71.690  1.00  0.00    -0.288 N 
ATOM     17  H4  UNL     1       0.992  18.458  70.704  1.00  0.00     0.187 HD
ATOM     18  H5  UNL     1       2.486  20.346  71.316  1.00  0.00     0.188 HD
ENDBRANCH  10  11
ENDBRANCH   6  10
TORSDOF 2
ENDMDL
MODEL 2
REMARK VINA RESULT: -5.419441701      1.674      3.241
REMARK  2 active torsions:
REMARK  status: ('A' for Active; 'I' for Inactive)
REMARK    1  A    between atoms: C5_6  and  C7_9 
REMARK    2  A    between atoms: C7_9  and  C8_10 
ROOT
HETATM    1  N1  UNL     1       0.777  25.236  77.657  1.00  0.00    -0.197 NA
HETATM    2  C1  UNL     1       0.738  24.412  76.865  1.00  0.00     0.064 C 
HETATM    3  C2  UNL     1       0.684  23.346  75.871  1.00  0.00     0.094 C 
HETATM    4  C3  UNL     1       0.586  21.974  76.532  1.00  0.00     0.021 C 
HETATM    5  C4  UNL     1       0.865  21.075  75.320  1.00  0.00     0.026 C 
HETATM    6  C5  UNL     1       1.919  21.823  74.536  1.00  0.00     0.057 C 
HETATM    7  C6  UNL     1       3.210  21.178  74.635  1.00  0.00     0.069 C 
HETATM    8  N2  UNL     1       4.216  20.659  74.725  1.00  0.00    -0.196 NA
HETATM    9  C10 UNL     1       2.008  23.209  75.148  1.00  0.00     0.044 C 
ENDROOT
BRANCH   6  10
HETATM   10  C7  UNL     1       1.522  22.020  73.102  1.00  0.00     0.102 C 
BRANCH  10  11
HETATM   11  C8  UNL     1       0.978  20.828  72.456  1.00  0.00     0.098 A 
HETATM   12  N3  UNL     1      -0.256  20.305  72.451  1.00  0.00    -0.340 N 
HETATM   13  C9  UNL     1      -0.271  19.187  71.704  1.00  0.00     0.198 A 
ATOM     14  H3  UNL     1      -1.062  20.696  72.940  1.00  0.00     0.168 HD
HETATM   15  N4  UNL     1       0.978  19.030  71.246  1.00  0.00    -0.295 N 
HETATM   16  N5  UNL     1       1.721  20.005  71.693  1.00  0.00    -0.288 N 
ATOM     17  H4  UNL     1       1.297  18.270  70.645  1.00  0.00     0.187 HD
ATOM     18  H5  UNL     1       2.714  20.125  71.495  1.00  0.00     0.188 HD
ENDBRANCH  10  11
ENDBRANCH   6  10
TORSDOF 2
ENDMDL
MODEL 3
REMARK VINA RESULT: -5.290666869      3.815      6.056
REMARK  2 active torsions:
REMARK  status: ('A' for Active; 'I' for Inactive)
REMARK    1  A    between atoms: C5_6  and  C7_9 
REMARK    2  A    between atoms: C7_9  and  C8_10 
ROOT
HETATM    1  N1  UNL     1      -0.773  20.642  74.437  1.00  0.00    -0.197 NA
HETATM    2  C1  UNL     1      -0.154  21.552  74.746  1.00  0.00     0.064 C 
HETATM    3  C2  UNL     1       0.655  22.702  75.138  1.00  0.00     0.094 C 
HETATM    4  C3  UNL     1       2.102  22.298  75.404  1.00  0.00     0.021 C 
HETATM    5  C4  UNL     1       2.613  23.577  76.082  1.00  0.00     0.026 C 
HETATM    6  C5  UNL     1       1.449  24.042  76.926  1.00  0.00     0.057 C 
HETATM    7  C6  UNL     1       1.701  23.837  78.335  1.00  0.00     0.069 C 
HETATM    8  N2  UNL     1       1.915  23.666  79.437  1.00  0.00    -0.196 NA
HETATM    9  C10 UNL     1       0.253  23.207  76.508  1.00  0.00     0.044 C 
ENDROOT
BRANCH   6  10
HETATM   10  C7  UNL     1       1.084  25.471  76.645  1.00  0.00     0.102 C 
BRANCH  10  11
HETATM   11  C8  UNL     1      -0.263  25.847  77.068  1.00  0.00     0.098 A 
HETATM   12  N3  UNL     1      -0.827  25.909  78.282  1.00  0.00    -0.340 N 
HETATM   13  C9  UNL     1      -2.104  26.314  78.168  1.00  0.00     0.198 A 
ATOM     14  H3  UNL     1      -0.359  25.683  79.160  1.00  0.00     0.168 HD
HETATM   15  N4  UNL     1      -2.317  26.503  76.858  1.00  0.00    -0.295 N 
HETATM   16  N5  UNL     1      -1.222  26.225  76.205  1.00  0.00    -0.288 N 
ATOM     17  H4  UNL     1      -3.194  26.814  76.439  1.00  0.00     0.187 HD
ATOM     18  H5  UNL     1      -1.111  26.285  75.192  1.00  0.00     0.188 HD
ENDBRANCH  10  11
ENDBRANCH   6  10
TORSDOF 2
ENDMDL
MODEL 4
REMARK VINA RESULT: -5.262662112      3.119      4.733
REMARK  2 active torsions:
REMARK  status: ('A' for Active; 'I' for Inactive)
REMARK    1  A    between atoms: C5_6  and  C7_9 
REMARK    2  A    between atoms: C7_9  and  C8_10 
ROOT
HETATM    1  N1  UNL     1      -2.013  25.835  78.242  1.00  0.00    -0.197 NA
HETATM    2  C1  UNL     1      -1.196  25.043  78.133  1.00  0.00     0.064 C 
HETATM    3  C2  UNL     1      -0.140  24.043  78.010  1.00  0.00     0.094 C 
HETATM    4  C3  UNL     1       1.131  24.486  78.729  1.00  0.00     0.021 C 
HETATM    5  C4  UNL     1       2.120  23.449  78.181  1.00  0.00     0.026 C 
HETATM    6  C5  UNL     1       1.704  23.262  76.740  1.00  0.00     0.057 C 
HETATM    7  C6  UNL     1       2.657  23.861  75.831  1.00  0.00     0.069 C 
HETATM    8  N2  UNL     1       3.415  24.338  75.134  1.00  0.00    -0.196 NA
HETATM    9  C10 UNL     1       0.365  23.959  76.585  1.00  0.00     0.044 C 
ENDROOT
BRANCH   6  10
HETATM   10  C7  UNL     1       1.470  21.818  76.403  1.00  0.00     0.102 C 
BRANCH  10  11
HETATM   11  C8  UNL     1       1.283  21.552  74.978  1.00  0.00     0.098 A 
HETATM   12  N3  UNL     1       0.174  21.379  74.245  1.00  0.00    -0.340 N 
HETATM   13  C9  UNL     1       0.510  21.159  72.963  1.00  0.00     0.198 A 
ATOM     14  H3  UNL     1      -0.780  21.410  74.606  1.00  0.00     0.168 HD
HETATM   15  N4  UNL     1       1.849  21.199  72.917  1.00  0.00    -0.295 N 
HETATM   16  N5  UNL     1       2.308  21.432  74.116  1.00  0.00    -0.288 N 
ATOM     17  H4  UNL     1       2.417  21.068  72.080  1.00  0.00     0.187 HD
ATOM     18  H5  UNL     1       3.295  21.513  74.361  1.00  0.00     0.188 HD
ENDBRANCH  10  11
ENDBRANCH   6  10
TORSDOF 2
ENDMDL
MODEL 5
REMARK VINA RESULT: -5.052108660      3.438      5.648
REMARK  2 active torsions:
REMARK  status: ('A' for Active; 'I' for Inactive)
REMARK    1  A    between atoms: C5_6  and  C7_9 
REMARK    2  A    between atoms: C7_9  and  C8_10 
ROOT
HETATM    1  N1  UNL     1      -2.171  25.126  78.967  1.00  0.00    -0.197 NA
HETATM    2  C1  UNL     1      -1.252  24.623  78.512  1.00  0.00     0.064 C 
HETATM    3  C2  UNL     1      -0.066  23.982  77.952  1.00  0.00     0.094 C 
HETATM    4  C3  UNL     1       1.118  24.070  78.910  1.00  0.00     0.021 C 
HETATM    5  C4  UNL     1       2.251  23.631  77.971  1.00  0.00     0.026 C 
HETATM    6  C5  UNL     1       1.891  24.248  76.639  1.00  0.00     0.057 C 
HETATM    7  C6  UNL     1       2.770  25.349  76.311  1.00  0.00     0.069 C 
HETATM    8  N2  UNL     1       3.468  26.212  76.071  1.00  0.00    -0.196 NA
HETATM    9  C10 UNL     1       0.472  24.769  76.775  1.00  0.00     0.044 C 
ENDROOT
BRANCH   6  10
HETATM   10  C7  UNL     1       1.863  23.232  75.535  1.00  0.00     0.102 C 
BRANCH  10  11
HETATM   11  C8  UNL     1       3.170  22.677  75.190  1.00  0.00     0.098 A 
HETATM   12  N3  UNL     1       4.407  23.181  75.305  1.00  0.00    -0.340 N 
HETATM   13  C9  UNL     1       5.303  22.288  74.851  1.00  0.00     0.198 A 
ATOM     14  H3  UNL     1       4.634  24.102  75.679  1.00  0.00     0.168 HD
HETATM   15  N4  UNL     1       4.596  21.220  74.454  1.00  0.00    -0.295 N 
HETATM   16  N5  UNL     1       3.327  21.453  74.656  1.00  0.00    -0.288 N 
ATOM     17  H4  UNL     1       4.985  20.365  74.059  1.00  0.00     0.187 HD
ATOM     18  H5  UNL     1       2.570  20.803  74.441  1.00  0.00     0.188 HD
ENDBRANCH  10  11
ENDBRANCH   6  10
TORSDOF 2
ENDMDL
