MODEL 1
REMARK VINA RESULT: -5.428874827      0.000      0.000
REMARK  5 active torsions:
REMARK  status: ('A' for Active; 'I' for Inactive)
REMARK    1  A    between atoms: C3_3  and  C4_4 
REMARK    2  A    between atoms: C4_4  and  O1_5 
REMARK    3  A    between atoms: C5_7  and  C12_14 
REMARK    4  A    between atoms: C6_8  and  C10_12 
REMARK    5  A    between atoms: C7_9  and  C8_10 
ROOT
HETATM    1  C1  UNL     1     -19.576 -25.990 -11.843  1.00  0.00     0.011 C 
HETATM    2  C2  UNL     1     -19.124 -26.145 -13.270  1.00  0.00    -0.007 C 
HETATM    3  C3  UNL     1     -17.708 -26.655 -13.386  1.00  0.00     0.021 C 
HETATM    4  C5  UNL     1     -17.752 -27.582 -14.552  1.00  0.00     0.037 C 
HETATM    5  C6  UNL     1     -19.041 -27.235 -15.317  1.00  0.00     0.003 C 
HETATM    6  C7  UNL     1     -19.902 -27.143 -14.042  1.00  0.00     0.002 C 
ENDROOT
BRANCH   3   7
HETATM    7  C4  UNL     1     -16.705 -25.542 -13.542  1.00  0.00     0.169 C 
BRANCH   7   8
HETATM    8  O1  UNL     1     -16.213 -25.130 -12.316  1.00  0.00    -0.400 OA
ATOM      9  H1  UNL     1     -16.269 -24.187 -12.218  1.00  0.00     0.209 HD
ENDBRANCH   7   8
ENDBRANCH   3   7
BRANCH   4  10
HETATM   10  C12 UNL     1     -18.240 -28.919 -14.008  1.00  0.00     0.116 A 
HETATM   11  C8  UNL     1     -18.391 -29.722 -15.264  1.00  0.00     0.036 A 
HETATM   12  C9  UNL     1     -17.138 -30.438 -14.886  1.00  0.00     0.006 A 
HETATM   13  C10 UNL     1     -16.112 -29.331 -14.911  1.00  0.00     0.003 A 
HETATM   14  C11 UNL     1     -16.940 -29.608 -13.728  1.00  0.00     0.036 A 
HETATM   15  F1  UNL     1     -19.201 -28.916 -13.100  1.00  0.00    -0.242 F 
ENDBRANCH   4  10
TORSDOF 5
ENDMDL
MODEL 2
REMARK VINA RESULT: -5.279898685      1.735      3.138
REMARK  5 active torsions:
REMARK  status: ('A' for Active; 'I' for Inactive)
REMARK    1  A    between atoms: C3_3  and  C4_4 
REMARK    2  A    between atoms: C4_4  and  O1_5 
REMARK    3  A    between atoms: C5_7  and  C12_14 
REMARK    4  A    between atoms: C6_8  and  C10_12 
REMARK    5  A    between atoms: C7_9  and  C8_10 
ROOT
HETATM    1  C1  UNL     1     -14.035 -26.603 -12.599  1.00  0.00     0.011 C 
HETATM    2  C2  UNL     1     -15.483 -26.270 -12.358  1.00  0.00    -0.007 C 
HETATM    3  C3  UNL     1     -16.176 -25.736 -13.588  1.00  0.00     0.021 C 
HETATM    4  C5  UNL     1     -17.538 -26.337 -13.525  1.00  0.00     0.037 C 
HETATM    5  C6  UNL     1     -17.721 -26.815 -12.074  1.00  0.00     0.003 C 
HETATM    6  C7  UNL     1     -16.316 -27.440 -11.988  1.00  0.00     0.002 C 
ENDROOT
BRANCH   3   7
HETATM    7  C4  UNL     1     -16.186 -24.232 -13.637  1.00  0.00     0.169 C 
BRANCH   7   8
HETATM    8  O1  UNL     1     -15.793 -23.683 -12.428  1.00  0.00    -0.400 OA
ATOM      9  H1  UNL     1     -14.974 -23.209 -12.512  1.00  0.00     0.209 HD
ENDBRANCH   7   8
ENDBRANCH   3   7
BRANCH   4  10
HETATM   10  C12 UNL     1     -17.414 -27.726 -14.140  1.00  0.00     0.116 A 
HETATM   11  C8  UNL     1     -18.544 -28.454 -13.476  1.00  0.00     0.036 A 
HETATM   12  C9  UNL     1     -19.288 -28.349 -14.765  1.00  0.00     0.006 A 
HETATM   13  C10 UNL     1     -19.449 -26.856 -14.926  1.00  0.00     0.003 A 
HETATM   14  C11 UNL     1     -18.245 -27.570 -15.376  1.00  0.00     0.036 A 
HETATM   15  F1  UNL     1     -16.215 -28.279 -14.208  1.00  0.00    -0.242 F 
ENDBRANCH   4  10
TORSDOF 5
ENDMDL
MODEL 3
REMARK VINA RESULT: -5.188415779      1.348      1.674
REMARK  5 active torsions:
REMARK  status: ('A' for Active; 'I' for Inactive)
REMARK    1  A    between atoms: C3_3  and  C4_4 
REMARK    2  A    between atoms: C4_4  and  O1_5 
REMARK    3  A    between atoms: C5_7  and  C12_14 
REMARK    4  A    between atoms: C6_8  and  C10_12 
REMARK    5  A    between atoms: C7_9  and  C8_10 
ROOT
HETATM    1  C1  UNL     1     -21.104 -26.959 -13.968  1.00  0.00     0.011 C 
HETATM    2  C2  UNL     1     -19.627 -26.803 -14.213  1.00  0.00    -0.007 C 
HETATM    3  C3  UNL     1     -18.782 -27.491 -13.168  1.00  0.00     0.021 C 
HETATM    4  C5  UNL     1     -17.640 -28.056 -13.941  1.00  0.00     0.037 C 
HETATM    5  C6  UNL     1     -17.634 -27.311 -15.287  1.00  0.00     0.003 C 
HETATM    6  C7  UNL     1     -19.158 -27.419 -15.478  1.00  0.00     0.002 C 
ENDROOT
BRANCH   3   7
HETATM    7  C4  UNL     1     -18.357 -26.559 -12.065  1.00  0.00     0.169 C 
BRANCH   7   8
HETATM    8  O1  UNL     1     -18.572 -25.235 -12.410  1.00  0.00    -0.400 OA
ATOM      9  H1  UNL     1     -18.291 -24.646 -11.719  1.00  0.00     0.209 HD
ENDBRANCH   7   8
ENDBRANCH   3   7
BRANCH   4  10
HETATM   10  C12 UNL     1     -18.127 -29.390 -14.495  1.00  0.00     0.116 A 
HETATM   11  C8  UNL     1     -16.993 -29.776 -15.397  1.00  0.00     0.036 A 
HETATM   12  C9  UNL     1     -16.586 -30.769 -14.361  1.00  0.00     0.006 A 
HETATM   13  C10 UNL     1     -16.243 -29.888 -13.183  1.00  0.00     0.003 A 
HETATM   14  C11 UNL     1     -17.616 -30.338 -13.453  1.00  0.00     0.036 A 
HETATM   15  F1  UNL     1     -19.375 -29.477 -14.920  1.00  0.00    -0.242 F 
ENDBRANCH   4  10
TORSDOF 5
ENDMDL
MODEL 4
REMARK VINA RESULT: -5.174738244      2.072      3.344
REMARK  5 active torsions:
REMARK  status: ('A' for Active; 'I' for Inactive)
REMARK    1  A    between atoms: C3_3  and  C4_4 
REMARK    2  A    between atoms: C4_4  and  O1_5 
REMARK    3  A    between atoms: C5_7  and  C12_14 
REMARK    4  A    between atoms: C6_8  and  C10_12 
REMARK    5  A    between atoms: C7_9  and  C8_10 
ROOT
HETATM    1  C1  UNL     1     -15.520 -27.905 -11.020  1.00  0.00     0.011 C 
HETATM    2  C2  UNL     1     -15.746 -27.295 -12.377  1.00  0.00    -0.007 C 
HETATM    3  C3  UNL     1     -16.399 -28.248 -13.349  1.00  0.00     0.021 C 
HETATM    4  C5  UNL     1     -17.338 -27.389 -14.123  1.00  0.00     0.037 C 
HETATM    5  C6  UNL     1     -16.877 -25.941 -13.884  1.00  0.00     0.003 C 
HETATM    6  C7  UNL     1     -16.675 -26.139 -12.370  1.00  0.00     0.002 C 
ENDROOT
BRANCH   3   7
HETATM    7  C4  UNL     1     -15.397 -28.969 -14.210  1.00  0.00     0.169 C 
BRANCH   7   8
HETATM    8  O1  UNL     1     -15.826 -29.053 -15.524  1.00  0.00    -0.400 OA
ATOM      9  H1  UNL     1     -15.240 -28.592 -16.112  1.00  0.00     0.209 HD
ENDBRANCH   7   8
ENDBRANCH   3   7
BRANCH   4  10
HETATM   10  C12 UNL     1     -18.609 -27.295 -13.287  1.00  0.00     0.116 A 
HETATM   11  C8  UNL     1     -19.503 -26.492 -14.182  1.00  0.00     0.036 A 
HETATM   12  C9  UNL     1     -20.233 -27.756 -14.488  1.00  0.00     0.006 A 
HETATM   13  C10 UNL     1     -19.170 -28.588 -15.166  1.00  0.00     0.003 A 
HETATM   14  C11 UNL     1     -19.321 -28.546 -13.704  1.00  0.00     0.036 A 
HETATM   15  F1  UNL     1     -18.499 -26.988 -12.006  1.00  0.00    -0.242 F 
ENDBRANCH   4  10
TORSDOF 5
ENDMDL
MODEL 5
REMARK VINA RESULT: -5.005130376      3.201      5.124
REMARK  5 active torsions:
REMARK  status: ('A' for Active; 'I' for Inactive)
REMARK    1  A    between atoms: C3_3  and  C4_4 
REMARK    2  A    between atoms: C4_4  and  O1_5 
REMARK    3  A    between atoms: C5_7  and  C12_14 
REMARK    4  A    between atoms: C6_8  and  C10_12 
REMARK    5  A    between atoms: C7_9  and  C8_10 
ROOT
HETATM    1  C1  UNL     1     -12.177 -24.310 -14.215  1.00  0.00     0.011 C 
HETATM    2  C2  UNL     1     -13.139 -24.208 -13.063  1.00  0.00    -0.007 C 
HETATM    3  C3  UNL     1     -14.582 -24.344 -13.486  1.00  0.00     0.021 C 
HETATM    4  C5  UNL     1     -15.208 -25.133 -12.388  1.00  0.00     0.037 C 
HETATM    5  C6  UNL     1     -14.241 -25.036 -11.196  1.00  0.00     0.003 C 
HETATM    6  C7  UNL     1     -12.985 -25.283 -12.053  1.00  0.00     0.002 C 
ENDROOT
BRANCH   3   7
HETATM    7  C4  UNL     1     -15.243 -23.012 -13.719  1.00  0.00     0.169 C 
BRANCH   7   8
HETATM    8  O1  UNL     1     -16.312 -22.820 -12.861  1.00  0.00    -0.400 OA
ATOM      9  H1  UNL     1     -16.644 -21.932 -12.912  1.00  0.00     0.209 HD
ENDBRANCH   7   8
ENDBRANCH   3   7
BRANCH   4  10
HETATM   10  C12 UNL     1     -14.925 -26.596 -12.708  1.00  0.00     0.116 A 
HETATM   11  C8  UNL     1     -15.437 -27.281 -11.477  1.00  0.00     0.036 A 
HETATM   12  C9  UNL     1     -16.619 -27.711 -12.280  1.00  0.00     0.006 A 
HETATM   13  C10 UNL     1     -17.264 -26.394 -12.638  1.00  0.00     0.003 A 
HETATM   14  C11 UNL     1     -16.177 -26.979 -13.437  1.00  0.00     0.036 A 
HETATM   15  F1  UNL     1     -13.742 -26.915 -13.204  1.00  0.00    -0.242 F 
ENDBRANCH   4  10
TORSDOF 5
ENDMDL
