MODEL 1
REMARK VINA RESULT: -5.760341973      0.000      0.000
REMARK  0 active torsions:
REMARK  status: ('A' for Active; 'I' for Inactive)
ROOT
HETATM    1  O1  UNL     1      -4.063  18.226  -6.167  1.00  0.00    -0.247 OA
HETATM    2  C1  UNL     1      -4.101  17.535  -7.222  1.00  0.00     0.328 A 
HETATM    3  N1  UNL     1      -4.187  18.123  -8.431  1.00  0.00    -0.273 N 
ATOM      4  H1  UNL     1      -4.221  19.141  -8.474  1.00  0.00     0.173 HD
HETATM    5  C2  UNL     1      -4.232  17.433  -9.584  1.00  0.00     0.281 A 
HETATM    6  O2  UNL     1      -4.313  18.029 -10.694  1.00  0.00    -0.265 OA
HETATM    7  C3  UNL     1      -4.187  16.051  -9.548  1.00  0.00     0.160 A 
HETATM    8  N2  UNL     1      -4.211  15.089 -10.491  1.00  0.00    -0.276 N 
ATOM      9  H2  UNL     1      -4.273  15.243 -11.498  1.00  0.00     0.184 HD
HETATM   10  N3  UNL     1      -4.141  13.909  -9.890  1.00  0.00    -0.020 NA
HETATM   11  N4  UNL     1      -4.072  14.096  -8.569  1.00  0.00    -0.267 N 
ATOM     12  H4  UNL     1      -4.010  13.360  -7.865  1.00  0.00     0.186 HD
HETATM   13  C4  UNL     1      -4.099  15.435  -8.319  1.00  0.00     0.156 A 
HETATM   14  N5  UNL     1      -4.058  16.187  -7.202  1.00  0.00    -0.291 N 
ATOM     15  H5  UNL     1      -3.992  15.716  -6.299  1.00  0.00     0.172 HD
ENDROOT
TORSDOF 0
ENDMDL
MODEL 2
REMARK VINA RESULT: -5.723793564      1.711      2.564
REMARK  0 active torsions:
REMARK  status: ('A' for Active; 'I' for Inactive)
ROOT
HETATM    1  O1  UNL     1      -3.991  18.324  -5.992  1.00  0.00    -0.247 OA
HETATM    2  C1  UNL     1      -4.060  17.636  -7.048  1.00  0.00     0.328 A 
HETATM    3  N1  UNL     1      -4.021  16.290  -7.001  1.00  0.00    -0.273 N 
ATOM      4  H1  UNL     1      -3.935  15.839  -6.090  1.00  0.00     0.173 HD
HETATM    5  C2  UNL     1      -4.091  15.512  -8.095  1.00  0.00     0.281 A 
HETATM    6  O2  UNL     1      -4.050  14.255  -8.000  1.00  0.00    -0.265 OA
HETATM    7  C3  UNL     1      -4.209  16.104  -9.339  1.00  0.00     0.160 A 
HETATM    8  N2  UNL     1      -4.299  15.629 -10.597  1.00  0.00    -0.276 N 
ATOM      9  H2  UNL     1      -4.296  14.644 -10.863  1.00  0.00     0.184 HD
HETATM   10  N3  UNL     1      -4.395  16.657 -11.429  1.00  0.00    -0.020 NA
HETATM   11  N4  UNL     1      -4.366  17.792 -10.725  1.00  0.00    -0.267 N 
ATOM     12  H4  UNL     1      -4.422  18.735 -11.111  1.00  0.00     0.186 HD
HETATM   13  C4  UNL     1      -4.250  17.480  -9.404  1.00  0.00     0.156 A 
HETATM   14  N5  UNL     1      -4.175  18.200  -8.268  1.00  0.00    -0.291 N 
ATOM     15  H5  UNL     1      -4.208  19.217  -8.333  1.00  0.00     0.172 HD
ENDROOT
TORSDOF 0
ENDMDL
MODEL 3
REMARK VINA RESULT: -5.705727640      1.761      3.361
REMARK  0 active torsions:
REMARK  status: ('A' for Active; 'I' for Inactive)
ROOT
HETATM    1  O1  UNL     1      -4.068  13.613  -9.945  1.00  0.00    -0.247 OA
HETATM    2  C1  UNL     1      -4.117  14.808  -9.540  1.00  0.00     0.328 A 
HETATM    3  N1  UNL     1      -4.236  15.829 -10.410  1.00  0.00    -0.273 N 
ATOM      4  H1  UNL     1      -4.286  15.614 -11.406  1.00  0.00     0.173 HD
HETATM    5  C2  UNL     1      -4.293  17.117 -10.031  1.00  0.00     0.281 A 
HETATM    6  O2  UNL     1      -4.404  18.040 -10.884  1.00  0.00    -0.265 OA
HETATM    7  C3  UNL     1      -4.227  17.430  -8.685  1.00  0.00     0.160 A 
HETATM    8  N2  UNL     1      -4.255  18.584  -7.991  1.00  0.00    -0.276 N 
ATOM      9  H2  UNL     1      -4.339  19.519  -8.391  1.00  0.00     0.184 HD
HETATM   10  N3  UNL     1      -4.156  18.299  -6.698  1.00  0.00    -0.020 NA
HETATM   11  N4  UNL     1      -4.063  16.975  -6.550  1.00  0.00    -0.267 N 
ATOM     12  H4  UNL     1      -3.976  16.480  -5.662  1.00  0.00     0.186 HD
HETATM   13  C4  UNL     1      -4.105  16.396  -7.783  1.00  0.00     0.156 A 
HETATM   14  N5  UNL     1      -4.054  15.127  -8.231  1.00  0.00    -0.291 N 
ATOM     15  H5  UNL     1      -3.964  14.373  -7.549  1.00  0.00     0.172 HD
ENDROOT
TORSDOF 0
ENDMDL
MODEL 4
REMARK VINA RESULT: -5.610582644      1.830      3.926
REMARK  0 active torsions:
REMARK  status: ('A' for Active; 'I' for Inactive)
ROOT
HETATM    1  O1  UNL     1      -4.511  16.834 -11.988  1.00  0.00    -0.247 OA
HETATM    2  C1  UNL     1      -4.393  16.740 -10.735  1.00  0.00     0.328 A 
HETATM    3  N1  UNL     1      -4.242  15.539 -10.143  1.00  0.00    -0.273 N 
ATOM      4  H1  UNL     1      -4.226  14.706 -10.731  1.00  0.00     0.173 HD
HETATM    5  C2  UNL     1      -4.113  15.385  -8.813  1.00  0.00     0.281 A 
HETATM    6  O2  UNL     1      -3.974  14.238  -8.304  1.00  0.00    -0.265 OA
HETATM    7  C3  UNL     1      -4.133  16.501  -7.998  1.00  0.00     0.160 A 
HETATM    8  N2  UNL     1      -4.031  16.690  -6.667  1.00  0.00    -0.276 N 
ATOM      9  H2  UNL     1      -3.910  15.956  -5.969  1.00  0.00     0.184 HD
HETATM   10  N3  UNL     1      -4.116  17.990  -6.419  1.00  0.00    -0.020 NA
HETATM   11  N4  UNL     1      -4.271  18.645  -7.574  1.00  0.00    -0.267 N 
ATOM     12  H4  UNL     1      -4.363  19.655  -7.678  1.00  0.00     0.186 HD
HETATM   13  C4  UNL     1      -4.286  17.736  -8.589  1.00  0.00     0.156 A 
HETATM   14  N5  UNL     1      -4.410  17.820  -9.927  1.00  0.00    -0.291 N 
ATOM     15  H5  UNL     1      -4.523  18.742 -10.350  1.00  0.00     0.172 HD
ENDROOT
TORSDOF 0
ENDMDL
MODEL 5
REMARK VINA RESULT: -5.504292291      0.837      2.770
REMARK  0 active torsions:
REMARK  status: ('A' for Active; 'I' for Inactive)
ROOT
HETATM    1  O1  UNL     1      -4.704  18.087 -11.199  1.00  0.00    -0.247 OA
HETATM    2  C1  UNL     1      -4.425  17.401 -10.177  1.00  0.00     0.328 A 
HETATM    3  N1  UNL     1      -4.147  17.996  -9.000  1.00  0.00    -0.273 N 
ATOM      4  H1  UNL     1      -4.167  19.015  -8.955  1.00  0.00     0.173 HD
HETATM    5  C2  UNL     1      -3.843  17.312  -7.883  1.00  0.00     0.281 A 
HETATM    6  O2  UNL     1      -3.589  17.915  -6.804  1.00  0.00    -0.265 OA
HETATM    7  C3  UNL     1      -3.811  15.930  -7.924  1.00  0.00     0.160 A 
HETATM    8  N2  UNL     1      -3.550  14.974  -7.011  1.00  0.00    -0.276 N 
ATOM      9  H2  UNL     1      -3.308  15.133  -6.033  1.00  0.00     0.184 HD
HETATM   10  N3  UNL     1      -3.663  13.790  -7.599  1.00  0.00    -0.020 NA
HETATM   11  N4  UNL     1      -3.992  13.970  -8.881  1.00  0.00    -0.267 N 
ATOM     12  H4  UNL     1      -4.142  13.230  -9.568  1.00  0.00     0.186 HD
HETATM   13  C4  UNL     1      -4.093  15.308  -9.119  1.00  0.00     0.156 A 
HETATM   14  N5  UNL     1      -4.390  16.053 -10.201  1.00  0.00    -0.291 N 
ATOM     15  H5  UNL     1      -4.597  15.577 -11.079  1.00  0.00     0.172 HD
ENDROOT
TORSDOF 0
ENDMDL
