MODEL 1
REMARK VINA RESULT: -7.449981667      0.000      0.000
REMARK  5 active torsions:
REMARK  status: ('A' for Active; 'I' for Inactive)
REMARK    1  A    between atoms: C2_2  and  O2_4 
REMARK    2  A    between atoms: O2_4  and  C3_5 
REMARK    3  A    between atoms: C3_5  and  C4_6 
REMARK    4  A    between atoms: C4_6  and  C6_8 
REMARK    5  A    between atoms: C15_17  and  O3_18 
ROOT
HETATM    1  C6  UNL     1       1.865 -26.876 -30.835  1.00  0.00    -0.008 C 
HETATM    2  C7  UNL     1       1.388 -27.874 -29.829  1.00  0.00     0.006 C 
HETATM    3  C8  UNL     1       2.407 -27.768 -28.713  1.00  0.00     0.010 C 
HETATM    4  C9  UNL     1       3.635 -27.264 -29.376  1.00  0.00    -0.036 C 
HETATM    5  C10 UNL     1       3.386 -27.098 -30.815  1.00  0.00     0.015 C 
HETATM    6  C11 UNL     1       4.893 -28.056 -28.987  1.00  0.00     0.015 C 
HETATM    7  C12 UNL     1       4.930 -27.183 -27.801  1.00  0.00    -0.004 C 
HETATM    8  C13 UNL     1       6.178 -26.769 -27.171  1.00  0.00     0.001 C 
HETATM    9  C14 UNL     1       6.727 -27.905 -26.325  1.00  0.00     0.037 C 
HETATM   10  C15 UNL     1       7.705 -27.226 -25.355  1.00  0.00     0.118 C 
HETATM   11  C16 UNL     1       8.803 -26.619 -26.169  1.00  0.00     0.032 C 
HETATM   12  C17 UNL     1       8.217 -25.508 -27.049  1.00  0.00     0.012 C 
HETATM   13  C18 UNL     1       7.211 -26.138 -28.029  1.00  0.00    -0.040 C 
HETATM   14  C19 UNL     1       7.985 -27.055 -28.903  1.00  0.00     0.015 C 
HETATM   15  C20 UNL     1       6.577 -24.988 -28.776  1.00  0.00     0.010 C 
HETATM   16  C21 UNL     1       5.339 -25.406 -29.530  1.00  0.00     0.006 C 
HETATM   17  C22 UNL     1       4.322 -26.086 -28.669  1.00  0.00    -0.002 C 
ENDROOT
BRANCH   1  18
HETATM   18  C4  UNL     1       1.313 -27.058 -32.216  1.00  0.00     0.010 C 
HETATM   19  C5  UNL     1      -0.155 -27.371 -32.237  1.00  0.00     0.012 C 
BRANCH  18  20
HETATM   20  C3  UNL     1       1.538 -25.789 -33.001  1.00  0.00     0.183 C 
BRANCH  20  21
HETATM   21  O2  UNL     1       1.212 -25.884 -34.350  1.00  0.00    -0.321 OA
BRANCH  21  22
HETATM   22  C2  UNL     1       0.475 -24.922 -34.987  1.00  0.00     0.254 C 
HETATM   23  C1  UNL     1      -1.001 -24.931 -35.010  1.00  0.00     0.126 C 
HETATM   24  O1  UNL     1       1.053 -23.971 -35.591  1.00  0.00    -0.266 OA
ENDBRANCH  21  22
ENDBRANCH  20  21
ENDBRANCH  18  20
ENDBRANCH   1  18
BRANCH  10  25
HETATM   25  O3  UNL     1       8.153 -28.076 -24.382  1.00  0.00    -0.396 OA
ATOM     26  H3  UNL     1       9.030 -27.861 -24.086  1.00  0.00     0.210 HD
ENDBRANCH  10  25
TORSDOF 5
ENDMDL
MODEL 2
REMARK VINA RESULT: -7.400606971      5.748      8.288
REMARK  5 active torsions:
REMARK  status: ('A' for Active; 'I' for Inactive)
REMARK    1  A    between atoms: C2_2  and  O2_4 
REMARK    2  A    between atoms: O2_4  and  C3_5 
REMARK    3  A    between atoms: C3_5  and  C4_6 
REMARK    4  A    between atoms: C4_6  and  C6_8 
REMARK    5  A    between atoms: C15_17  and  O3_18 
ROOT
HETATM    1  C6  UNL     1      -0.022 -27.026 -29.866  1.00  0.00    -0.008 C 
HETATM    2  C7  UNL     1       0.722 -27.746 -28.788  1.00  0.00     0.006 C 
HETATM    3  C8  UNL     1      -0.278 -27.819 -27.653  1.00  0.00     0.010 C 
HETATM    4  C9  UNL     1      -1.189 -26.671 -27.884  1.00  0.00    -0.036 C 
HETATM    5  C10 UNL     1      -0.753 -25.928 -29.075  1.00  0.00     0.015 C 
HETATM    6  C11 UNL     1      -1.441 -25.841 -26.615  1.00  0.00     0.015 C 
HETATM    7  C12 UNL     1      -2.465 -26.852 -26.302  1.00  0.00    -0.004 C 
HETATM    8  C13 UNL     1      -3.693 -26.529 -25.585  1.00  0.00     0.001 C 
HETATM    9  C14 UNL     1      -3.400 -26.396 -24.100  1.00  0.00     0.037 C 
HETATM   10  C15 UNL     1      -4.767 -26.560 -23.421  1.00  0.00     0.118 C 
HETATM   11  C16 UNL     1      -5.636 -25.429 -23.873  1.00  0.00     0.032 C 
HETATM   12  C17 UNL     1      -5.879 -25.558 -25.382  1.00  0.00     0.012 C 
HETATM   13  C18 UNL     1      -4.529 -25.420 -26.108  1.00  0.00    -0.040 C 
HETATM   14  C19 UNL     1      -4.037 -24.046 -25.838  1.00  0.00     0.015 C 
HETATM   15  C20 UNL     1      -4.811 -25.681 -27.569  1.00  0.00     0.010 C 
HETATM   16  C21 UNL     1      -3.550 -25.915 -28.365  1.00  0.00     0.006 C 
HETATM   17  C22 UNL     1      -2.687 -27.000 -27.804  1.00  0.00    -0.002 C 
ENDROOT
BRANCH   1  18
HETATM   18  C4  UNL     1       0.837 -26.434 -30.940  1.00  0.00     0.010 C 
HETATM   19  C5  UNL     1       2.290 -26.789 -30.808  1.00  0.00     0.012 C 
BRANCH  18  20
HETATM   20  C3  UNL     1       0.349 -26.925 -32.281  1.00  0.00     0.183 C 
BRANCH  20  21
HETATM   21  O2  UNL     1       1.214 -26.663 -33.337  1.00  0.00    -0.321 OA
BRANCH  21  22
HETATM   22  C2  UNL     1       1.107 -25.530 -34.099  1.00  0.00     0.254 C 
HETATM   23  C1  UNL     1      -0.043 -25.270 -34.986  1.00  0.00     0.126 C 
HETATM   24  O1  UNL     1       2.016 -24.649 -34.063  1.00  0.00    -0.266 OA
ENDBRANCH  21  22
ENDBRANCH  20  21
ENDBRANCH  18  20
ENDBRANCH   1  18
BRANCH  10  25
HETATM   25  O3  UNL     1      -4.668 -26.663 -22.061  1.00  0.00    -0.396 OA
ATOM     26  H3  UNL     1      -3.869 -27.096 -21.786  1.00  0.00     0.210 HD
ENDBRANCH  10  25
TORSDOF 5
ENDMDL
MODEL 3
REMARK VINA RESULT: -7.245323134      4.584      7.731
REMARK  5 active torsions:
REMARK  status: ('A' for Active; 'I' for Inactive)
REMARK    1  A    between atoms: C2_2  and  O2_4 
REMARK    2  A    between atoms: O2_4  and  C3_5 
REMARK    3  A    between atoms: C3_5  and  C4_6 
REMARK    4  A    between atoms: C4_6  and  C6_8 
REMARK    5  A    between atoms: C15_17  and  O3_18 
ROOT
HETATM    1  C6  UNL     1       2.388 -28.329 -29.124  1.00  0.00    -0.008 C 
HETATM    2  C7  UNL     1       2.090 -29.601 -28.398  1.00  0.00     0.006 C 
HETATM    3  C8  UNL     1       0.631 -29.460 -28.017  1.00  0.00     0.010 C 
HETATM    4  C9  UNL     1       0.401 -27.995 -27.961  1.00  0.00    -0.036 C 
HETATM    5  C10 UNL     1       1.653 -27.287 -28.265  1.00  0.00     0.015 C 
HETATM    6  C11 UNL     1      -0.343 -27.554 -26.690  1.00  0.00     0.015 C 
HETATM    7  C12 UNL     1      -1.566 -27.924 -27.422  1.00  0.00    -0.004 C 
HETATM    8  C13 UNL     1      -2.833 -27.227 -27.235  1.00  0.00     0.001 C 
HETATM    9  C14 UNL     1      -3.489 -27.693 -25.946  1.00  0.00     0.037 C 
HETATM   10  C15 UNL     1      -4.967 -27.304 -26.103  1.00  0.00     0.118 C 
HETATM   11  C16 UNL     1      -5.035 -25.813 -26.202  1.00  0.00     0.032 C 
HETATM   12  C17 UNL     1      -4.327 -25.364 -27.486  1.00  0.00     0.012 C 
HETATM   13  C18 UNL     1      -2.839 -25.750 -27.384  1.00  0.00    -0.040 C 
HETATM   14  C19 UNL     1      -2.273 -24.976 -26.252  1.00  0.00     0.015 C 
HETATM   15  C20 UNL     1      -2.224 -25.401 -28.719  1.00  0.00     0.010 C 
HETATM   16  C21 UNL     1      -0.861 -26.021 -28.903  1.00  0.00     0.006 C 
HETATM   17  C22 UNL     1      -0.851 -27.503 -28.702  1.00  0.00    -0.002 C 
ENDROOT
BRANCH   1  18
HETATM   18  C4  UNL     1       3.844 -27.996 -29.244  1.00  0.00     0.010 C 
HETATM   19  C5  UNL     1       4.702 -29.177 -29.595  1.00  0.00     0.012 C 
BRANCH  18  20
HETATM   20  C3  UNL     1       4.017 -26.949 -30.317  1.00  0.00     0.183 C 
BRANCH  20  21
HETATM   21  O2  UNL     1       3.381 -27.246 -31.517  1.00  0.00    -0.321 OA
BRANCH  21  22
HETATM   22  C2  UNL     1       2.427 -26.424 -32.055  1.00  0.00     0.254 C 
HETATM   23  C1  UNL     1       0.999 -26.788 -32.113  1.00  0.00     0.126 C 
HETATM   24  O1  UNL     1       2.753 -25.297 -32.532  1.00  0.00    -0.266 OA
ENDBRANCH  21  22
ENDBRANCH  20  21
ENDBRANCH  18  20
ENDBRANCH   1  18
BRANCH  10  25
HETATM   25  O3  UNL     1      -5.753 -27.823 -25.112  1.00  0.00    -0.396 OA
ATOM     26  H3  UNL     1      -6.171 -27.149 -24.589  1.00  0.00     0.210 HD
ENDBRANCH  10  25
TORSDOF 5
ENDMDL
MODEL 4
REMARK VINA RESULT: -7.240521006      4.738      7.867
REMARK  5 active torsions:
REMARK  status: ('A' for Active; 'I' for Inactive)
REMARK    1  A    between atoms: C2_2  and  O2_4 
REMARK    2  A    between atoms: O2_4  and  C3_5 
REMARK    3  A    between atoms: C3_5  and  C4_6 
REMARK    4  A    between atoms: C4_6  and  C6_8 
REMARK    5  A    between atoms: C15_17  and  O3_18 
ROOT
HETATM    1  C6  UNL     1       2.322 -28.736 -28.974  1.00  0.00    -0.008 C 
HETATM    2  C7  UNL     1       1.944 -29.954 -28.196  1.00  0.00     0.006 C 
HETATM    3  C8  UNL     1       0.508 -29.687 -27.792  1.00  0.00     0.010 C 
HETATM    4  C9  UNL     1       0.392 -28.208 -27.788  1.00  0.00    -0.036 C 
HETATM    5  C10 UNL     1       1.688 -27.610 -28.142  1.00  0.00     0.015 C 
HETATM    6  C11 UNL     1      -0.287 -27.664 -26.520  1.00  0.00     0.015 C 
HETATM    7  C12 UNL     1      -1.551 -27.965 -27.215  1.00  0.00    -0.004 C 
HETATM    8  C13 UNL     1      -2.757 -27.166 -27.030  1.00  0.00     0.001 C 
HETATM    9  C14 UNL     1      -3.418 -27.532 -25.712  1.00  0.00     0.037 C 
HETATM   10  C15 UNL     1      -4.865 -27.036 -25.856  1.00  0.00     0.118 C 
HETATM   11  C16 UNL     1      -4.821 -25.549 -26.010  1.00  0.00     0.032 C 
HETATM   12  C17 UNL     1      -4.108 -25.203 -27.323  1.00  0.00     0.012 C 
HETATM   13  C18 UNL     1      -2.653 -25.699 -27.235  1.00  0.00    -0.040 C 
HETATM   14  C19 UNL     1      -2.005 -24.930 -26.144  1.00  0.00     0.015 C 
HETATM   15  C20 UNL     1      -2.042 -25.447 -28.594  1.00  0.00     0.010 C 
HETATM   16  C21 UNL     1      -0.735 -26.177 -28.780  1.00  0.00     0.006 C 
HETATM   17  C22 UNL     1      -0.834 -27.647 -28.523  1.00  0.00    -0.002 C 
ENDROOT
BRANCH   1  18
HETATM   18  C4  UNL     1       3.796 -28.521 -29.135  1.00  0.00     0.010 C 
HETATM   19  C5  UNL     1       4.568 -29.793 -29.337  1.00  0.00     0.012 C 
BRANCH  18  20
HETATM   20  C3  UNL     1       4.031 -27.630 -30.329  1.00  0.00     0.183 C 
BRANCH  20  21
HETATM   21  O2  UNL     1       4.358 -26.317 -30.009  1.00  0.00    -0.321 OA
BRANCH  21  22
HETATM   22  C2  UNL     1       3.876 -25.254 -30.725  1.00  0.00     0.254 C 
HETATM   23  C1  UNL     1       4.117 -23.852 -30.334  1.00  0.00     0.126 C 
HETATM   24  O1  UNL     1       3.191 -25.449 -31.773  1.00  0.00    -0.266 OA
ENDBRANCH  21  22
ENDBRANCH  20  21
ENDBRANCH  18  20
ENDBRANCH   1  18
BRANCH  10  25
HETATM   25  O3  UNL     1      -5.667 -27.456 -24.831  1.00  0.00    -0.396 OA
ATOM     26  H3  UNL     1      -6.160 -26.744 -24.440  1.00  0.00     0.210 HD
ENDBRANCH  10  25
TORSDOF 5
ENDMDL
MODEL 5
REMARK VINA RESULT: -7.227935521      5.827      8.410
REMARK  5 active torsions:
REMARK  status: ('A' for Active; 'I' for Inactive)
REMARK    1  A    between atoms: C2_2  and  O2_4 
REMARK    2  A    between atoms: O2_4  and  C3_5 
REMARK    3  A    between atoms: C3_5  and  C4_6 
REMARK    4  A    between atoms: C4_6  and  C6_8 
REMARK    5  A    between atoms: C15_17  and  O3_18 
ROOT
HETATM    1  C6  UNL     1       0.147 -27.679 -29.442  1.00  0.00    -0.008 C 
HETATM    2  C7  UNL     1       0.984 -28.051 -28.261  1.00  0.00     0.006 C 
HETATM    3  C8  UNL     1       0.030 -27.919 -27.092  1.00  0.00     0.010 C 
HETATM    4  C9  UNL     1      -0.984 -26.937 -27.549  1.00  0.00    -0.036 C 
HETATM    5  C10 UNL     1      -0.652 -26.480 -28.906  1.00  0.00     0.015 C 
HETATM    6  C11 UNL     1      -1.268 -25.841 -26.509  1.00  0.00     0.015 C 
HETATM    7  C12 UNL     1      -2.190 -26.819 -25.906  1.00  0.00    -0.004 C 
HETATM    8  C13 UNL     1      -3.418 -26.425 -25.227  1.00  0.00     0.001 C 
HETATM    9  C14 UNL     1      -3.091 -25.908 -23.836  1.00  0.00     0.037 C 
HETATM   10  C15 UNL     1      -4.418 -26.003 -23.068  1.00  0.00     0.118 C 
HETATM   11  C16 UNL     1      -5.396 -25.090 -23.737  1.00  0.00     0.032 C 
HETATM   12  C17 UNL     1      -5.674 -25.606 -25.154  1.00  0.00     0.012 C 
HETATM   13  C18 UNL     1      -4.364 -25.548 -25.961  1.00  0.00    -0.040 C 
HETATM   14  C19 UNL     1      -3.986 -24.116 -26.059  1.00  0.00     0.015 C 
HETATM   15  C20 UNL     1      -4.667 -26.182 -27.298  1.00  0.00     0.010 C 
HETATM   16  C21 UNL     1      -3.416 -26.507 -28.076  1.00  0.00     0.006 C 
HETATM   17  C22 UNL     1      -2.445 -27.351 -27.314  1.00  0.00    -0.002 C 
ENDROOT
BRANCH   1  18
HETATM   18  C4  UNL     1       0.917 -27.307 -30.671  1.00  0.00     0.010 C 
HETATM   19  C5  UNL     1       0.106 -27.381 -31.932  1.00  0.00     0.012 C 
BRANCH  18  20
HETATM   20  C3  UNL     1       1.426 -25.894 -30.518  1.00  0.00     0.183 C 
BRANCH  20  21
HETATM   21  O2  UNL     1       2.812 -25.781 -30.515  1.00  0.00    -0.321 OA
BRANCH  21  22
HETATM   22  C2  UNL     1       3.457 -24.747 -31.141  1.00  0.00     0.254 C 
HETATM   23  C1  UNL     1       4.187 -23.699 -30.403  1.00  0.00     0.126 C 
HETATM   24  O1  UNL     1       3.445 -24.660 -32.404  1.00  0.00    -0.266 OA
ENDBRANCH  21  22
ENDBRANCH  20  21
ENDBRANCH  18  20
ENDBRANCH   1  18
BRANCH  10  25
HETATM   25  O3  UNL     1      -4.268 -25.759 -21.731  1.00  0.00    -0.396 OA
ATOM     26  H3  UNL     1      -5.010 -26.060 -21.221  1.00  0.00     0.210 HD
ENDBRANCH  10  25
TORSDOF 5
ENDMDL
