MODEL 1
REMARK VINA RESULT: -5.677705441      0.000      0.000
REMARK  2 active torsions:
REMARK  status: ('A' for Active; 'I' for Inactive)
REMARK    1  A    between atoms: N1_1  and  C1_5 
REMARK    2  A    between atoms: C4_8  and  C5_9 
ROOT
HETATM    1  C1  UNL     1     -36.601  13.775  42.989  1.00  0.00     0.183 C 
HETATM    2  C2  UNL     1     -37.417  13.581  44.226  1.00  0.00     0.033 C 
HETATM    3  C3  UNL     1     -36.968  12.472  45.117  1.00  0.00     0.007 C 
HETATM    4  C4  UNL     1     -36.418  11.272  44.479  1.00  0.00    -0.010 C 
HETATM    5  C10 UNL     1     -35.650  11.468  43.202  1.00  0.00     0.007 C 
HETATM    6  C11 UNL     1     -36.159  12.537  42.313  1.00  0.00     0.033 C 
ENDROOT
BRANCH   4   7
HETATM    7  C5  UNL     1     -37.382  10.124  44.311  1.00  0.00    -0.007 C 
HETATM    8  C6  UNL     1     -38.613  10.177  45.134  1.00  0.00     0.032 C 
HETATM    9  C7  UNL     1     -39.374   8.869  44.858  1.00  0.00     0.232 C 
HETATM   10  N2  UNL     1     -38.688   7.719  45.356  1.00  0.00    -0.075 N 
HETATM   11  C8  UNL     1     -37.329   8.028  45.700  1.00  0.00     0.232 C 
ATOM     12  H22 UNL     1     -39.185   7.297  46.140  1.00  0.00     0.277 HD
ATOM     13  H21 UNL     1     -38.739   6.939  44.699  1.00  0.00     0.277 HD
HETATM   14  C9  UNL     1     -36.711   8.786  44.562  1.00  0.00     0.032 C 
ENDBRANCH   4   7
BRANCH   1  15
HETATM   15  N1  UNL     1     -37.391  14.555  42.041  1.00  0.00    -0.075 N 
ATOM     16  H13 UNL     1     -37.129  15.541  42.029  1.00  0.00     0.274 HD
ATOM     17  H12 UNL     1     -37.163  14.341  41.070  1.00  0.00     0.274 HD
ATOM     18  H11 UNL     1     -38.377  14.413  42.255  1.00  0.00     0.274 HD
ENDBRANCH   1  15
TORSDOF 2
ENDMDL
MODEL 2
REMARK VINA RESULT: -5.335178180      1.644      2.135
REMARK  2 active torsions:
REMARK  status: ('A' for Active; 'I' for Inactive)
REMARK    1  A    between atoms: N1_1  and  C1_5 
REMARK    2  A    between atoms: C4_8  and  C5_9 
ROOT
HETATM    1  C1  UNL     1     -35.486  11.536  42.752  1.00  0.00     0.183 C 
HETATM    2  C2  UNL     1     -36.544  11.808  43.772  1.00  0.00     0.033 C 
HETATM    3  C3  UNL     1     -36.814  10.690  44.721  1.00  0.00     0.007 C 
HETATM    4  C4  UNL     1     -36.717   9.323  44.202  1.00  0.00    -0.010 C 
HETATM    5  C10 UNL     1     -35.691   9.070  43.133  1.00  0.00     0.007 C 
HETATM    6  C11 UNL     1     -35.491  10.177  42.170  1.00  0.00     0.033 C 
ENDROOT
BRANCH   4   7
HETATM    7  C5  UNL     1     -38.023   8.683  43.804  1.00  0.00    -0.007 C 
HETATM    8  C6  UNL     1     -39.163   8.894  44.726  1.00  0.00     0.032 C 
HETATM    9  C7  UNL     1     -40.335   8.076  44.158  1.00  0.00     0.232 C 
HETATM   10  N2  UNL     1     -40.106   6.667  44.225  1.00  0.00    -0.075 N 
HETATM   11  C8  UNL     1     -38.730   6.373  44.506  1.00  0.00     0.232 C 
ATOM     12  H22 UNL     1     -40.729   6.219  44.897  1.00  0.00     0.277 HD
ATOM     13  H21 UNL     1     -40.424   6.195  43.378  1.00  0.00     0.277 HD
HETATM   14  C9  UNL     1     -37.872   7.189  43.583  1.00  0.00     0.032 C 
ENDBRANCH   4   7
BRANCH   1  15
HETATM   15  N1  UNL     1     -35.644  12.498  41.665  1.00  0.00    -0.075 N 
ATOM     16  H13 UNL     1     -35.088  12.259  40.845  1.00  0.00     0.274 HD
ATOM     17  H12 UNL     1     -36.564  12.448  41.226  1.00  0.00     0.274 HD
ATOM     18  H11 UNL     1     -35.431  13.426  42.028  1.00  0.00     0.274 HD
ENDBRANCH   1  15
TORSDOF 2
ENDMDL
MODEL 3
REMARK VINA RESULT: -5.330664899      2.204      5.638
REMARK  2 active torsions:
REMARK  status: ('A' for Active; 'I' for Inactive)
REMARK    1  A    between atoms: N1_1  and  C1_5 
REMARK    2  A    between atoms: C4_8  and  C5_9 
ROOT
HETATM    1  C1  UNL     1     -40.317   6.127  44.965  1.00  0.00     0.183 C 
HETATM    2  C2  UNL     1     -40.713   7.553  44.757  1.00  0.00     0.033 C 
HETATM    3  C3  UNL     1     -39.875   8.309  43.782  1.00  0.00     0.007 C 
HETATM    4  C4  UNL     1     -38.445   7.996  43.733  1.00  0.00    -0.010 C 
HETATM    5  C10 UNL     1     -38.048   6.572  44.004  1.00  0.00     0.007 C 
HETATM    6  C11 UNL     1     -38.863   5.868  45.021  1.00  0.00     0.033 C 
ENDROOT
BRANCH   4   7
HETATM    7  C5  UNL     1     -37.547   8.922  44.516  1.00  0.00    -0.007 C 
HETATM    8  C6  UNL     1     -38.156  10.194  44.970  1.00  0.00     0.032 C 
HETATM    9  C7  UNL     1     -37.031  10.992  45.650  1.00  0.00     0.232 C 
HETATM   10  N2  UNL     1     -36.022  11.414  44.730  1.00  0.00    -0.075 N 
HETATM   11  C8  UNL     1     -36.138  10.728  43.475  1.00  0.00     0.232 C 
ATOM     12  H22 UNL     1     -36.030  12.426  44.605  1.00  0.00     0.277 HD
ATOM     13  H21 UNL     1     -35.087  11.311  45.127  1.00  0.00     0.277 HD
HETATM   14  C9  UNL     1     -36.282   9.258  43.748  1.00  0.00     0.032 C 
ENDBRANCH   4   7
BRANCH   1  15
HETATM   15  N1  UNL     1     -40.909   5.669  46.218  1.00  0.00    -0.075 N 
ATOM     16  H13 UNL     1     -41.929   5.694  46.204  1.00  0.00     0.274 HD
ATOM     17  H12 UNL     1     -40.799   4.664  46.361  1.00  0.00     0.274 HD
ATOM     18  H11 UNL     1     -40.513   6.220  46.978  1.00  0.00     0.274 HD
ENDBRANCH   1  15
TORSDOF 2
ENDMDL
MODEL 4
REMARK VINA RESULT: -5.329458600      2.297      2.937
REMARK  2 active torsions:
REMARK  status: ('A' for Active; 'I' for Inactive)
REMARK    1  A    between atoms: N1_1  and  C1_5 
REMARK    2  A    between atoms: C4_8  and  C5_9 
ROOT
HETATM    1  C1  UNL     1     -36.851  12.448  46.267  1.00  0.00     0.183 C 
HETATM    2  C2  UNL     1     -36.341  11.073  46.548  1.00  0.00     0.033 C 
HETATM    3  C3  UNL     1     -35.542  10.455  45.450  1.00  0.00     0.007 C 
HETATM    4  C4  UNL     1     -35.940  10.755  44.072  1.00  0.00    -0.010 C 
HETATM    5  C10 UNL     1     -36.510  12.121  43.808  1.00  0.00     0.007 C 
HETATM    6  C11 UNL     1     -37.347  12.680  44.894  1.00  0.00     0.033 C 
ENDROOT
BRANCH   4   7
HETATM    7  C5  UNL     1     -36.803   9.715  43.401  1.00  0.00    -0.007 C 
HETATM    8  C6  UNL     1     -37.376   8.673  44.283  1.00  0.00     0.032 C 
HETATM    9  C7  UNL     1     -38.124   7.693  43.363  1.00  0.00     0.232 C 
HETATM   10  N2  UNL     1     -37.244   6.961  42.507  1.00  0.00    -0.075 N 
HETATM   11  C8  UNL     1     -35.931   7.539  42.489  1.00  0.00     0.232 C 
ATOM     12  H22 UNL     1     -37.214   5.973  42.759  1.00  0.00     0.277 HD
ATOM     13  H21 UNL     1     -37.627   6.872  41.565  1.00  0.00     0.277 HD
HETATM   14  C9  UNL     1     -36.066   9.019  42.272  1.00  0.00     0.032 C 
ENDBRANCH   4   7
BRANCH   1  15
HETATM   15  N1  UNL     1     -37.940  12.728  47.198  1.00  0.00    -0.075 N 
ATOM     16  H13 UNL     1     -37.756  12.376  48.137  1.00  0.00     0.274 HD
ATOM     17  H12 UNL     1     -38.011  13.718  47.435  1.00  0.00     0.274 HD
ATOM     18  H11 UNL     1     -38.802  12.356  46.800  1.00  0.00     0.274 HD
ENDBRANCH   1  15
TORSDOF 2
ENDMDL
MODEL 5
REMARK VINA RESULT: -5.271948000      1.483      5.324
REMARK  2 active torsions:
REMARK  status: ('A' for Active; 'I' for Inactive)
REMARK    1  A    between atoms: N1_1  and  C1_5 
REMARK    2  A    between atoms: C4_8  and  C5_9 
ROOT
HETATM    1  C1  UNL     1     -38.741   6.728  45.858  1.00  0.00     0.183 C 
HETATM    2  C2  UNL     1     -39.608   7.908  45.560  1.00  0.00     0.033 C 
HETATM    3  C3  UNL     1     -39.164   8.747  44.409  1.00  0.00     0.007 C 
HETATM    4  C4  UNL     1     -37.722   8.902  44.201  1.00  0.00    -0.010 C 
HETATM    5  C10 UNL     1     -36.850   7.733  44.560  1.00  0.00     0.007 C 
HETATM    6  C11 UNL     1     -37.285   6.957  45.744  1.00  0.00     0.033 C 
ENDROOT
BRANCH   4   7
HETATM    7  C5  UNL     1     -37.116  10.168  44.756  1.00  0.00    -0.007 C 
HETATM    8  C6  UNL     1     -38.070  11.211  45.197  1.00  0.00     0.032 C 
HETATM    9  C7  UNL     1     -37.221  12.419  45.627  1.00  0.00     0.232 C 
HETATM   10  N2  UNL     1     -36.539  13.030  44.529  1.00  0.00    -0.075 N 
HETATM   11  C8  UNL     1     -36.559  12.189  43.367  1.00  0.00     0.232 C 
ATOM     12  H22 UNL     1     -36.914  13.957  44.326  1.00  0.00     0.277 HD
ATOM     13  H21 UNL     1     -35.587  13.297  44.781  1.00  0.00     0.277 HD
HETATM   14  C9  UNL     1     -36.149  10.804  43.775  1.00  0.00     0.032 C 
ENDBRANCH   4   7
BRANCH   1  15
HETATM   15  N1  UNL     1     -39.028   6.286  47.220  1.00  0.00    -0.075 N 
ATOM     16  H13 UNL     1     -38.779   6.984  47.920  1.00  0.00     0.274 HD
ATOM     17  H12 UNL     1     -40.028   6.244  47.418  1.00  0.00     0.274 HD
ATOM     18  H11 UNL     1     -38.559   5.393  47.370  1.00  0.00     0.274 HD
ENDBRANCH   1  15
TORSDOF 2
ENDMDL
