MODEL 1
REMARK VINA RESULT: -6.800365570      0.000      0.000
REMARK  3 active torsions:
REMARK  status: ('A' for Active; 'I' for Inactive)
REMARK    1  A    between atoms: C2_2  and  N1_5 
REMARK       I    between atoms: N1_5  and  C5_7 
REMARK       I    between atoms: C5_7  and  N3_11 
REMARK    2  A    between atoms: N4_14  and  C8_15 
REMARK    3  A    between atoms: C8_15  and  C9_16 
ROOT
HETATM    1  N1  UNL     1      -5.901   2.707  16.040  1.00  0.00    -0.218 N 
ATOM      2  H1  UNL     1      -6.676   3.297  15.739  1.00  0.00     0.178 HD
HETATM    3  C5  UNL     1      -4.577   3.049  15.621  1.00  0.00     0.671 C 
HETATM    4  N2  UNL     1      -3.645   2.185  15.956  1.00  0.00    -0.235 N 
ATOM      5  H21 UNL     1      -2.700   2.430  15.657  1.00  0.00     0.174 HD
ATOM      6  H22 UNL     1      -3.850   1.334  16.478  1.00  0.00     0.174 HD
HETATM    7  N3  UNL     1      -4.296   4.215  14.905  1.00  0.00    -0.190 N 
HETATM    8  C6  UNL     1      -5.218   5.124  14.306  1.00  0.00     0.173 C 
HETATM    9  C7  UNL     1      -4.517   5.433  12.968  1.00  0.00     0.295 C 
HETATM   10  N4  UNL     1      -3.154   5.328  13.275  1.00  0.00     0.108 N 
HETATM   11  C15 UNL     1      -2.990   4.772  14.598  1.00  0.00     0.414 C 
ENDROOT
BRANCH   1  12
HETATM   12  C2  UNL     1      -6.185   1.566  16.866  1.00  0.00     0.036 C 
HETATM   13  C1  UNL     1      -7.641   1.186  16.727  1.00  0.00     0.038 C 
HETATM   14  C3  UNL     1      -5.362   0.354  16.485  1.00  0.00     0.038 C 
HETATM   15  C4  UNL     1      -5.951   1.817  18.343  1.00  0.00     0.038 C 
ENDBRANCH   1  12
BRANCH  10  16
HETATM   16  C8  UNL     1      -2.362   6.453  12.986  1.00  0.00     0.279 C 
BRANCH  16  17
HETATM   17  C9  UNL     1      -2.834   7.798  13.388  1.00  0.00     0.014 C 
HETATM   18  C10 UNL     1      -2.048   8.828  12.559  1.00  0.00     0.006 C 
HETATM   19  C11 UNL     1      -1.966  10.165  13.269  1.00  0.00     0.000 C 
HETATM   20  C12 UNL     1      -1.133  10.056  14.537  1.00  0.00     0.000 C 
HETATM   21  C13 UNL     1      -1.306   8.677  15.131  1.00  0.00     0.000 C 
HETATM   22  C14 UNL     1      -2.708   8.207  14.805  1.00  0.00     0.006 C 
ENDBRANCH  16  17
ENDBRANCH  10  16
TORSDOF 3
ENDMDL
MODEL 2
REMARK VINA RESULT: -6.617145783      1.469      7.509
REMARK  3 active torsions:
REMARK  status: ('A' for Active; 'I' for Inactive)
REMARK    1  A    between atoms: C2_2  and  N1_5 
REMARK       I    between atoms: N1_5  and  C5_7 
REMARK       I    between atoms: C5_7  and  N3_11 
REMARK    2  A    between atoms: N4_14  and  C8_15 
REMARK    3  A    between atoms: C8_15  and  C9_16 
ROOT
HETATM    1  N1  UNL     1      -1.491   7.425  13.603  1.00  0.00    -0.218 N 
ATOM      2  H1  UNL     1      -0.945   6.893  12.926  1.00  0.00     0.178 HD
HETATM    3  C5  UNL     1      -2.564   6.771  14.284  1.00  0.00     0.671 C 
HETATM    4  N2  UNL     1      -3.289   7.546  15.059  1.00  0.00    -0.235 N 
ATOM      5  H21 UNL     1      -4.054   7.078  15.545  1.00  0.00     0.174 HD
ATOM      6  H22 UNL     1      -3.098   8.541  15.169  1.00  0.00     0.174 HD
HETATM    7  N3  UNL     1      -2.825   5.406  14.133  1.00  0.00    -0.190 N 
HETATM    8  C6  UNL     1      -2.260   4.501  13.186  1.00  0.00     0.173 C 
HETATM    9  C7  UNL     1      -3.496   3.672  12.782  1.00  0.00     0.295 C 
HETATM   10  N4  UNL     1      -4.284   3.665  13.940  1.00  0.00     0.108 N 
HETATM   11  C15 UNL     1      -3.743   4.591  14.908  1.00  0.00     0.414 C 
ENDROOT
BRANCH   1  12
HETATM   12  C2  UNL     1      -1.148   8.802  13.832  1.00  0.00     0.036 C 
HETATM   13  C1  UNL     1       0.214   9.093  13.245  1.00  0.00     0.038 C 
HETATM   14  C3  UNL     1      -2.132   9.759  13.192  1.00  0.00     0.038 C 
HETATM   15  C4  UNL     1      -1.064   9.167  15.301  1.00  0.00     0.038 C 
ENDBRANCH   1  12
BRANCH  10  16
HETATM   16  C8  UNL     1      -4.644   2.402  14.442  1.00  0.00     0.279 C 
BRANCH  16  17
HETATM   17  C9  UNL     1      -4.860   2.232  15.897  1.00  0.00     0.014 C 
HETATM   18  C10 UNL     1      -5.000   0.725  16.169  1.00  0.00     0.006 C 
HETATM   19  C11 UNL     1      -5.810   0.461  17.424  1.00  0.00     0.000 C 
HETATM   20  C12 UNL     1      -7.255   0.900  17.239  1.00  0.00     0.000 C 
HETATM   21  C13 UNL     1      -7.299   2.097  16.318  1.00  0.00     0.000 C 
HETATM   22  C14 UNL     1      -6.026   2.889  16.529  1.00  0.00     0.006 C 
ENDBRANCH  16  17
ENDBRANCH  10  16
TORSDOF 3
ENDMDL
MODEL 3
REMARK VINA RESULT: -6.312310983      2.969      7.532
REMARK  3 active torsions:
REMARK  status: ('A' for Active; 'I' for Inactive)
REMARK    1  A    between atoms: C2_2  and  N1_5 
REMARK       I    between atoms: N1_5  and  C5_7 
REMARK       I    between atoms: C5_7  and  N3_11 
REMARK    2  A    between atoms: N4_14  and  C8_15 
REMARK    3  A    between atoms: C8_15  and  C9_16 
ROOT
HETATM    1  N1  UNL     1      -1.175   4.628  10.616  1.00  0.00    -0.218 N 
ATOM      2  H1  UNL     1      -1.974   4.273  10.090  1.00  0.00     0.178 HD
HETATM    3  C5  UNL     1      -1.302   4.783  12.032  1.00  0.00     0.671 C 
HETATM    4  N2  UNL     1      -0.273   5.344  12.627  1.00  0.00    -0.235 N 
ATOM      5  H21 UNL     1      -0.364   5.455  13.637  1.00  0.00     0.174 HD
ATOM      6  H22 UNL     1       0.556   5.645  12.115  1.00  0.00     0.174 HD
HETATM    7  N3  UNL     1      -2.438   4.370  12.732  1.00  0.00    -0.190 N 
HETATM    8  C6  UNL     1      -3.691   3.942  12.201  1.00  0.00     0.173 C 
HETATM    9  C7  UNL     1      -4.681   4.629  13.164  1.00  0.00     0.295 C 
HETATM   10  N4  UNL     1      -3.986   4.674  14.379  1.00  0.00     0.108 N 
HETATM   11  C15 UNL     1      -2.609   4.288  14.171  1.00  0.00     0.414 C 
ENDROOT
BRANCH   1  12
HETATM   12  C2  UNL     1       0.030   4.950   9.903  1.00  0.00     0.036 C 
HETATM   13  C1  UNL     1      -0.176   4.720   8.423  1.00  0.00     0.038 C 
HETATM   14  C3  UNL     1       0.442   6.396  10.084  1.00  0.00     0.038 C 
HETATM   15  C4  UNL     1       1.216   4.096  10.304  1.00  0.00     0.038 C 
ENDBRANCH   1  12
BRANCH  10  16
HETATM   16  C8  UNL     1      -4.623   4.085  15.484  1.00  0.00     0.279 C 
BRANCH  16  17
HETATM   17  C9  UNL     1      -5.560   2.959  15.268  1.00  0.00     0.014 C 
HETATM   18  C10 UNL     1      -6.571   2.973  16.427  1.00  0.00     0.006 C 
HETATM   19  C11 UNL     1      -7.154   1.594  16.672  1.00  0.00     0.000 C 
HETATM   20  C12 UNL     1      -6.085   0.636  17.177  1.00  0.00     0.000 C 
HETATM   21  C13 UNL     1      -4.753   1.007  16.567  1.00  0.00     0.000 C 
HETATM   22  C14 UNL     1      -5.020   1.583  15.192  1.00  0.00     0.006 C 
ENDBRANCH  16  17
ENDBRANCH  10  16
TORSDOF 3
ENDMDL
MODEL 4
REMARK VINA RESULT: -6.306892820      2.483      7.667
REMARK  3 active torsions:
REMARK  status: ('A' for Active; 'I' for Inactive)
REMARK    1  A    between atoms: C2_2  and  N1_5 
REMARK       I    between atoms: N1_5  and  C5_7 
REMARK       I    between atoms: C5_7  and  N3_11 
REMARK    2  A    between atoms: N4_14  and  C8_15 
REMARK    3  A    between atoms: C8_15  and  C9_16 
ROOT
HETATM    1  N1  UNL     1      -0.678   5.714  11.519  1.00  0.00    -0.218 N 
ATOM      2  H1  UNL     1      -1.186   6.597  11.565  1.00  0.00     0.178 HD
HETATM    3  C5  UNL     1      -1.219   4.577  12.197  1.00  0.00     0.671 C 
HETATM    4  N2  UNL     1      -0.459   3.505  12.185  1.00  0.00    -0.235 N 
ATOM      5  H21 UNL     1      -0.845   2.694  12.669  1.00  0.00     0.174 HD
ATOM      6  H22 UNL     1       0.450   3.485  11.724  1.00  0.00     0.174 HD
HETATM    7  N3  UNL     1      -2.465   4.605  12.829  1.00  0.00    -0.190 N 
HETATM    8  C6  UNL     1      -3.292   5.736  13.094  1.00  0.00     0.173 C 
HETATM    9  C7  UNL     1      -3.793   5.422  14.518  1.00  0.00     0.295 C 
HETATM   10  N4  UNL     1      -3.841   4.022  14.552  1.00  0.00     0.108 N 
HETATM   11  C15 UNL     1      -3.206   3.481  13.372  1.00  0.00     0.414 C 
ENDROOT
BRANCH   1  12
HETATM   12  C2  UNL     1       0.551   5.664  10.777  1.00  0.00     0.036 C 
HETATM   13  C1  UNL     1       0.705   6.928   9.961  1.00  0.00     0.038 C 
HETATM   14  C3  UNL     1       1.766   5.552  11.673  1.00  0.00     0.038 C 
HETATM   15  C4  UNL     1       0.616   4.513   9.792  1.00  0.00     0.038 C 
ENDBRANCH   1  12
BRANCH  10  16
HETATM   16  C8  UNL     1      -5.076   3.448  14.896  1.00  0.00     0.279 C 
BRANCH  16  17
HETATM   17  C9  UNL     1      -5.319   3.027  16.295  1.00  0.00     0.014 C 
HETATM   18  C10 UNL     1      -4.880   1.558  16.416  1.00  0.00     0.006 C 
HETATM   19  C11 UNL     1      -5.615   0.851  17.538  1.00  0.00     0.000 C 
HETATM   20  C12 UNL     1      -7.099   0.728  17.222  1.00  0.00     0.000 C 
HETATM   21  C13 UNL     1      -7.537   1.925  16.410  1.00  0.00     0.000 C 
HETATM   22  C14 UNL     1      -6.693   3.107  16.839  1.00  0.00     0.006 C 
ENDBRANCH  16  17
ENDBRANCH  10  16
TORSDOF 3
ENDMDL
MODEL 5
REMARK VINA RESULT: -6.212915755      0.924      2.118
REMARK  3 active torsions:
REMARK  status: ('A' for Active; 'I' for Inactive)
REMARK    1  A    between atoms: C2_2  and  N1_5 
REMARK       I    between atoms: N1_5  and  C5_7 
REMARK       I    between atoms: C5_7  and  N3_11 
REMARK    2  A    between atoms: N4_14  and  C8_15 
REMARK    3  A    between atoms: C8_15  and  C9_16 
ROOT
HETATM    1  N1  UNL     1      -5.303   2.183  16.353  1.00  0.00    -0.218 N 
ATOM      2  H1  UNL     1      -4.446   1.705  16.073  1.00  0.00     0.178 HD
HETATM    3  C5  UNL     1      -5.534   3.511  15.877  1.00  0.00     0.671 C 
HETATM    4  N2  UNL     1      -6.603   4.100  16.363  1.00  0.00    -0.235 N 
ATOM      5  H21 UNL     1      -6.767   5.048  16.024  1.00  0.00     0.174 HD
ATOM      6  H22 UNL     1      -7.223   3.643  17.031  1.00  0.00     0.174 HD
HETATM    7  N3  UNL     1      -4.684   4.137  14.962  1.00  0.00    -0.190 N 
HETATM    8  C6  UNL     1      -3.401   3.703  14.514  1.00  0.00     0.173 C 
HETATM    9  C7  UNL     1      -2.619   5.033  14.493  1.00  0.00     0.295 C 
HETATM   10  N4  UNL     1      -3.598   5.989  14.193  1.00  0.00     0.108 N 
HETATM   11  C15 UNL     1      -4.909   5.385  14.256  1.00  0.00     0.414 C 
ENDROOT
BRANCH   1  12
HETATM   12  C2  UNL     1      -6.226   1.492  17.210  1.00  0.00     0.036 C 
HETATM   13  C1  UNL     1      -5.762   0.068  17.417  1.00  0.00     0.038 C 
HETATM   14  C3  UNL     1      -6.342   2.134  18.576  1.00  0.00     0.038 C 
HETATM   15  C4  UNL     1      -7.628   1.402  16.640  1.00  0.00     0.038 C 
ENDBRANCH   1  12
BRANCH  10  16
HETATM   16  C8  UNL     1      -3.355   6.799  13.071  1.00  0.00     0.279 C 
BRANCH  16  17
HETATM   17  C9  UNL     1      -2.228   7.760  13.098  1.00  0.00     0.014 C 
HETATM   18  C10 UNL     1      -2.457   8.704  14.290  1.00  0.00     0.006 C 
HETATM   19  C11 UNL     1      -1.779  10.043  14.076  1.00  0.00     0.000 C 
HETATM   20  C12 UNL     1      -2.426  10.801  12.925  1.00  0.00     0.000 C 
HETATM   21  C13 UNL     1      -2.921   9.814  11.894  1.00  0.00     0.000 C 
HETATM   22  C14 UNL     1      -1.991   8.619  11.916  1.00  0.00     0.006 C 
ENDBRANCH  16  17
ENDBRANCH  10  16
TORSDOF 3
ENDMDL
