MODEL 1
REMARK VINA RESULT: -6.292950424      0.000      0.000
REMARK  4 active torsions:
REMARK  status: ('A' for Active; 'I' for Inactive)
REMARK    1  A    between atoms: C2_2  and  C4_4 
REMARK    2  A    between atoms: C4_4  and  N1_5 
REMARK    3  A    between atoms: C8_10  and  C10_12 
REMARK    4  A    between atoms: C10_12  and  O1_13 
ROOT
HETATM    1  N1  UNL     1      -5.067   1.739  15.143  1.00  0.00    -0.408 N 
HETATM    2  C5  UNL     1      -4.328   0.683  14.548  1.00  0.00     0.147 C 
HETATM    3  C6  UNL     1      -4.443   0.589  13.069  1.00  0.00     0.292 C 
HETATM    4  N2  UNL     1      -5.025   1.729  12.431  1.00  0.00     0.097 N 
HETATM    5  C7  UNL     1      -4.463   1.891  11.100  1.00  0.00     0.284 C 
HETATM    6  C8  UNL     1      -3.320   2.844  11.199  1.00  0.00     0.006 C 
HETATM    7  C9  UNL     1      -3.585   4.146  10.460  1.00  0.00     0.019 C 
HETATM    8  C11 UNL     1      -3.248   3.164  12.662  1.00  0.00     0.050 C 
HETATM    9  C12 UNL     1      -4.719   2.984  13.059  1.00  0.00     0.241 C 
HETATM   10  C13 UNL     1      -4.927   3.015  14.528  1.00  0.00     0.152 C 
ENDROOT
BRANCH   1  11
HETATM   11  C4  UNL     1      -5.058   1.753  16.567  1.00  0.00     0.120 C 
BRANCH  11  12
HETATM   12  C2  UNL     1      -6.384   2.196  17.158  1.00  0.00    -0.005 C 
HETATM   13  C1  UNL     1      -6.318   2.275  18.665  1.00  0.00     0.011 C 
HETATM   14  C3  UNL     1      -7.443   1.150  16.827  1.00  0.00     0.011 C 
ENDBRANCH  11  12
ENDBRANCH   1  11
BRANCH   6  15
HETATM   15  C10 UNL     1      -2.064   2.253  10.645  1.00  0.00     0.175 C 
BRANCH  15  16
HETATM   16  O1  UNL     1      -1.443   1.525  11.659  1.00  0.00    -0.400 OA
ATOM     17  H1  UNL     1      -0.636   1.969  11.890  1.00  0.00     0.209 HD
ENDBRANCH  15  16
ENDBRANCH   6  15
TORSDOF 4
ENDMDL
MODEL 2
REMARK VINA RESULT: -6.207239408      2.180      5.850
REMARK  4 active torsions:
REMARK  status: ('A' for Active; 'I' for Inactive)
REMARK    1  A    between atoms: C2_2  and  C4_4 
REMARK    2  A    between atoms: C4_4  and  N1_5 
REMARK    3  A    between atoms: C8_10  and  C10_12 
REMARK    4  A    between atoms: C10_12  and  O1_13 
ROOT
HETATM    1  N1  UNL     1      -3.684   2.351  13.007  1.00  0.00    -0.408 N 
HETATM    2  C5  UNL     1      -4.197   1.061  13.307  1.00  0.00     0.147 C 
HETATM    3  C6  UNL     1      -4.356   0.766  14.755  1.00  0.00     0.292 C 
HETATM    4  N2  UNL     1      -4.260   1.902  15.619  1.00  0.00     0.097 N 
HETATM    5  C7  UNL     1      -5.099   1.703  16.790  1.00  0.00     0.284 C 
HETATM    6  C8  UNL     1      -6.420   2.336  16.519  1.00  0.00     0.006 C 
HETATM    7  C9  UNL     1      -6.688   3.529  17.424  1.00  0.00     0.019 C 
HETATM    8  C11 UNL     1      -6.288   2.855  15.119  1.00  0.00     0.050 C 
HETATM    9  C12 UNL     1      -4.778   3.121  15.062  1.00  0.00     0.241 C 
HETATM   10  C13 UNL     1      -4.300   3.435  13.694  1.00  0.00     0.152 C 
ENDROOT
BRANCH   1  11
HETATM   11  C4  UNL     1      -3.413   2.586  11.629  1.00  0.00     0.120 C 
BRANCH  11  12
HETATM   12  C2  UNL     1      -1.929   2.579  11.313  1.00  0.00    -0.005 C 
HETATM   13  C1  UNL     1      -1.616   3.438  10.111  1.00  0.00     0.011 C 
HETATM   14  C3  UNL     1      -1.511   1.158  10.949  1.00  0.00     0.011 C 
ENDBRANCH  11  12
ENDBRANCH   1  11
BRANCH   6  15
HETATM   15  C10 UNL     1      -7.542   1.366  16.703  1.00  0.00     0.175 C 
BRANCH  15  16
HETATM   16  O1  UNL     1      -6.996   0.086  16.802  1.00  0.00    -0.400 OA
ATOM     17  H1  UNL     1      -7.710  -0.540  16.811  1.00  0.00     0.209 HD
ENDBRANCH  15  16
ENDBRANCH   6  15
TORSDOF 4
ENDMDL
MODEL 3
REMARK VINA RESULT: -6.091890634      1.693      2.567
REMARK  4 active torsions:
REMARK  status: ('A' for Active; 'I' for Inactive)
REMARK    1  A    between atoms: C2_2  and  C4_4 
REMARK    2  A    between atoms: C4_4  and  N1_5 
REMARK    3  A    between atoms: C8_10  and  C10_12 
REMARK    4  A    between atoms: C10_12  and  O1_13 
ROOT
HETATM    1  N1  UNL     1      -5.423   3.176  15.571  1.00  0.00    -0.408 N 
HETATM    2  C5  UNL     1      -5.971   3.819  14.428  1.00  0.00     0.147 C 
HETATM    3  C6  UNL     1      -5.018   4.030  13.307  1.00  0.00     0.292 C 
HETATM    4  N2  UNL     1      -3.790   3.304  13.410  1.00  0.00     0.097 N 
HETATM    5  C7  UNL     1      -3.298   2.975  12.081  1.00  0.00     0.284 C 
HETATM    6  C8  UNL     1      -3.785   1.609  11.739  1.00  0.00     0.006 C 
HETATM    7  C9  UNL     1      -2.651   0.602  11.620  1.00  0.00     0.019 C 
HETATM    8  C11 UNL     1      -4.612   1.216  12.927  1.00  0.00     0.050 C 
HETATM    9  C12 UNL     1      -3.909   2.015  14.031  1.00  0.00     0.241 C 
HETATM   10  C13 UNL     1      -4.656   2.006  15.313  1.00  0.00     0.152 C 
ENDROOT
BRANCH   1  11
HETATM   11  C4  UNL     1      -6.300   3.087  16.690  1.00  0.00     0.120 C 
BRANCH  11  12
HETATM   12  C2  UNL     1      -6.202   1.753  17.407  1.00  0.00    -0.005 C 
HETATM   13  C1  UNL     1      -7.388   0.872  17.099  1.00  0.00     0.011 C 
HETATM   14  C3  UNL     1      -6.227   2.001  18.911  1.00  0.00     0.011 C 
ENDBRANCH  11  12
ENDBRANCH   1  11
BRANCH   6  15
HETATM   15  C10 UNL     1      -4.537   1.602  10.447  1.00  0.00     0.175 C 
BRANCH  15  16
HETATM   16  O1  UNL     1      -5.892   1.757  10.733  1.00  0.00    -0.400 OA
ATOM     17  H1  UNL     1      -5.978   2.423  11.405  1.00  0.00     0.209 HD
ENDBRANCH  15  16
ENDBRANCH   6  15
TORSDOF 4
ENDMDL
MODEL 4
REMARK VINA RESULT: -6.065222577      2.109      2.686
REMARK  4 active torsions:
REMARK  status: ('A' for Active; 'I' for Inactive)
REMARK    1  A    between atoms: C2_2  and  C4_4 
REMARK    2  A    between atoms: C4_4  and  N1_5 
REMARK    3  A    between atoms: C8_10  and  C10_12 
REMARK    4  A    between atoms: C10_12  and  O1_13 
ROOT
HETATM    1  N1  UNL     1      -6.180   3.527  15.264  1.00  0.00    -0.408 N 
HETATM    2  C5  UNL     1      -5.126   2.628  14.950  1.00  0.00     0.147 C 
HETATM    3  C6  UNL     1      -4.478   2.853  13.630  1.00  0.00     0.292 C 
HETATM    4  N2  UNL     1      -4.794   4.099  13.004  1.00  0.00     0.097 N 
HETATM    5  C7  UNL     1      -3.667   4.548  12.202  1.00  0.00     0.284 C 
HETATM    6  C8  UNL     1      -2.844   5.465  13.041  1.00  0.00     0.006 C 
HETATM    7  C9  UNL     1      -2.854   6.893  12.520  1.00  0.00     0.019 C 
HETATM    8  C11 UNL     1      -3.546   5.464  14.365  1.00  0.00     0.050 C 
HETATM    9  C12 UNL     1      -4.988   5.193  13.915  1.00  0.00     0.241 C 
HETATM   10  C13 UNL     1      -5.900   4.906  15.049  1.00  0.00     0.152 C 
ENDROOT
BRANCH   1  11
HETATM   11  C4  UNL     1      -6.881   3.235  16.468  1.00  0.00     0.120 C 
BRANCH  11  12
HETATM   12  C2  UNL     1      -6.403   1.955  17.130  1.00  0.00    -0.005 C 
HETATM   13  C1  UNL     1      -7.419   0.847  16.990  1.00  0.00     0.011 C 
HETATM   14  C3  UNL     1      -6.240   2.206  18.625  1.00  0.00     0.011 C 
ENDBRANCH  11  12
ENDBRANCH   1  11
BRANCH   6  15
HETATM   15  C10 UNL     1      -1.420   5.016  13.109  1.00  0.00     0.175 C 
BRANCH  15  16
HETATM   16  O1  UNL     1      -1.301   4.107  14.159  1.00  0.00    -0.400 OA
ATOM     17  H1  UNL     1      -2.030   4.244  14.752  1.00  0.00     0.209 HD
ENDBRANCH  15  16
ENDBRANCH   6  15
TORSDOF 4
ENDMDL
MODEL 5
REMARK VINA RESULT: -6.022451918      1.637      2.560
REMARK  4 active torsions:
REMARK  status: ('A' for Active; 'I' for Inactive)
REMARK    1  A    between atoms: C2_2  and  C4_4 
REMARK    2  A    between atoms: C4_4  and  N1_5 
REMARK    3  A    between atoms: C8_10  and  C10_12 
REMARK    4  A    between atoms: C10_12  and  O1_13 
ROOT
HETATM    1  N1  UNL     1      -5.267   3.253  15.356  1.00  0.00    -0.408 N 
HETATM    2  C5  UNL     1      -5.236   4.480  14.640  1.00  0.00     0.147 C 
HETATM    3  C6  UNL     1      -3.953   4.772  13.947  1.00  0.00     0.292 C 
HETATM    4  N2  UNL     1      -3.052   3.666  13.845  1.00  0.00     0.097 N 
HETATM    5  C7  UNL     1      -2.263   3.782  12.630  1.00  0.00     0.284 C 
HETATM    6  C8  UNL     1      -2.948   2.998  11.563  1.00  0.00     0.006 C 
HETATM    7  C9  UNL     1      -2.135   1.794  11.115  1.00  0.00     0.019 C 
HETATM    8  C11 UNL     1      -4.184   2.480  12.237  1.00  0.00     0.050 C 
HETATM    9  C12 UNL     1      -3.691   2.389  13.688  1.00  0.00     0.241 C 
HETATM   10  C13 UNL     1      -4.785   2.114  14.650  1.00  0.00     0.152 C 
ENDROOT
BRANCH   1  11
HETATM   11  C4  UNL     1      -6.448   3.033  16.121  1.00  0.00     0.120 C 
BRANCH  11  12
HETATM   12  C2  UNL     1      -6.338   1.824  17.032  1.00  0.00    -0.005 C 
HETATM   13  C1  UNL     1      -7.541   0.921  16.899  1.00  0.00     0.011 C 
HETATM   14  C3  UNL     1      -6.316   2.301  18.481  1.00  0.00     0.011 C 
ENDBRANCH  11  12
ENDBRANCH   1  11
BRANCH   6  15
HETATM   15  C10 UNL     1      -3.222   3.836  10.356  1.00  0.00     0.175 C 
BRANCH  15  16
HETATM   16  O1  UNL     1      -4.462   3.463   9.841  1.00  0.00    -0.400 OA
ATOM     17  H1  UNL     1      -5.029   4.225   9.855  1.00  0.00     0.209 HD
ENDBRANCH  15  16
ENDBRANCH   6  15
TORSDOF 4
ENDMDL
