MODEL 1
REMARK VINA RESULT: -6.740025995      0.000      0.000
REMARK  17 active torsions:
REMARK  status: ('A' for Active; 'I' for Inactive)
REMARK    1  A    between atoms: C5_5  and  O1_6 
REMARK    2  A    between atoms: O1_6  and  C6_7 
REMARK    3  A    between atoms: C6_7  and  C7_8 
REMARK    4  A    between atoms: C7_8  and  C8_9 
REMARK    5  A    between atoms: C8_9  and  N1_10 
REMARK    6  A    between atoms: N1_10  and  C9_12 
REMARK    7  A    between atoms: C9_12  and  C10_13 
REMARK    8  A    between atoms: C10_13  and  O2_14 
REMARK    9  A    between atoms: C17_22  and  C18_23 
REMARK   10  A    between atoms: C18_23  and  C19_24 
REMARK   11  A    between atoms: C18_23  and  N2_27 
REMARK   12  A    between atoms: C19_24  and  O3_25 
REMARK   13  A    between atoms: N2_27  and  C20_30 
REMARK   14  A    between atoms: C20_30  and  C21_31 
REMARK   15  A    between atoms: C21_31  and  C22_32 
REMARK   16  A    between atoms: C22_32  and  C23_33 
REMARK   17  A    between atoms: C23_33  and  N3_34 
ROOT
HETATM    1  C1  UNL     1      33.786  36.253  -9.676  1.00  0.00     0.016 C 
HETATM    2  C2  UNL     1      32.764  37.150  -8.932  1.00  0.00    -0.033 C 
HETATM    3  C3  UNL     1      33.415  37.378  -7.588  1.00  0.00     0.013 C 
HETATM    4  C4  UNL     1      33.165  38.777  -7.057  1.00  0.00     0.033 C 
HETATM    5  C5  UNL     1      33.947  39.702  -7.975  1.00  0.00     0.121 C 
HETATM    6  C11 UNL     1      33.688  39.441  -9.415  1.00  0.00     0.037 C 
HETATM    7  C12 UNL     1      32.651  38.408  -9.730  1.00  0.00    -0.003 C 
HETATM    8  C13 UNL     1      31.319  39.068  -9.749  1.00  0.00     0.006 C 
HETATM    9  C14 UNL     1      30.138  38.157  -9.828  1.00  0.00     0.006 C 
HETATM   10  C15 UNL     1      30.238  37.145  -8.718  1.00  0.00    -0.005 C 
HETATM   11  C16 UNL     1      29.017  36.284  -8.807  1.00  0.00     0.012 C 
HETATM   12  C17 UNL     1      28.980  35.113  -7.862  1.00  0.00     0.019 C 
HETATM   13  C24 UNL     1      30.319  34.401  -7.816  1.00  0.00     0.007 C 
HETATM   14  C25 UNL     1      31.499  35.336  -7.773  1.00  0.00     0.011 C 
HETATM   15  C26 UNL     1      31.499  36.345  -8.881  1.00  0.00    -0.033 C 
HETATM   16  C27 UNL     1      31.417  35.604 -10.214  1.00  0.00     0.016 C 
ENDROOT
BRANCH  12  17
HETATM   17  C18 UNL     1      27.936  34.130  -8.264  1.00  0.00     0.213 C 
BRANCH  17  18
HETATM   18  C19 UNL     1      28.045  32.747  -7.737  1.00  0.00     0.197 C 
BRANCH  18  19
HETATM   19  O3  UNL     1      27.338  32.603  -6.525  1.00  0.00    -0.399 OA
ATOM     20  H3  UNL     1      27.863  32.158  -5.870  1.00  0.00     0.209 HD
ENDBRANCH  18  19
ENDBRANCH  17  18
BRANCH  17  21
HETATM   21  N2  UNL     1      26.609  34.668  -8.154  1.00  0.00    -0.069 N 
ATOM     22  H22 UNL     1      26.042  34.096  -7.528  1.00  0.00     0.277 HD
ATOM     23  H21 UNL     1      26.621  35.542  -7.628  1.00  0.00     0.277 HD
BRANCH  21  24
HETATM   24  C20 UNL     1      25.945  34.848  -9.400  1.00  0.00     0.233 C 
BRANCH  24  25
HETATM   25  C21 UNL     1      25.082  36.058  -9.553  1.00  0.00     0.029 C 
BRANCH  25  26
HETATM   26  C22 UNL     1      24.224  36.291  -8.309  1.00  0.00     0.029 C 
BRANCH  26  27
HETATM   27  C23 UNL     1      22.908  35.568  -8.356  1.00  0.00     0.229 C 
BRANCH  27  28
HETATM   28  N3  UNL     1      22.945  34.437  -7.455  1.00  0.00    -0.079 N 
ATOM     29  H33 UNL     1      23.893  34.224  -7.144  1.00  0.00     0.274 HD
ATOM     30  H32 UNL     1      22.539  34.655  -6.546  1.00  0.00     0.274 HD
ATOM     31  H31 UNL     1      22.495  33.635  -7.896  1.00  0.00     0.274 HD
ENDBRANCH  27  28
ENDBRANCH  26  27
ENDBRANCH  25  26
ENDBRANCH  24  25
ENDBRANCH  21  24
ENDBRANCH  17  21
ENDBRANCH  12  17
BRANCH   5  32
HETATM   32  O1  UNL     1      33.879  41.036  -7.595  1.00  0.00    -0.386 OA
BRANCH  32  33
HETATM   33  C6  UNL     1      33.862  41.903  -8.716  1.00  0.00     0.169 C 
BRANCH  33  34
HETATM   34  C7  UNL     1      32.524  42.597  -8.825  1.00  0.00     0.045 C 
BRANCH  34  35
HETATM   35  C8  UNL     1      32.287  42.925 -10.285  1.00  0.00     0.116 C 
BRANCH  35  36
HETATM   36  N1  UNL     1      31.316  43.961 -10.488  1.00  0.00    -0.419 N 
ATOM     37  H1  UNL     1      30.543  44.116  -9.841  1.00  0.00     0.153 HD
BRANCH  36  38
HETATM   38  C9  UNL     1      31.506  44.764 -11.660  1.00  0.00     0.139 C 
BRANCH  38  39
HETATM   39  C10 UNL     1      32.907  44.606 -12.235  1.00  0.00     0.183 C 
BRANCH  39  40
HETATM   40  O2  UNL     1      33.401  45.892 -12.439  1.00  0.00    -0.399 OA
ATOM     41  H2  UNL     1      34.005  45.837 -13.171  1.00  0.00     0.209 HD
ENDBRANCH  39  40
ENDBRANCH  38  39
ENDBRANCH  36  38
ENDBRANCH  35  36
ENDBRANCH  34  35
ENDBRANCH  33  34
ENDBRANCH  32  33
ENDBRANCH   5  32
TORSDOF 17
ENDMDL
MODEL 2
REMARK VINA RESULT: -6.652531995      5.065      9.155
REMARK  17 active torsions:
REMARK  status: ('A' for Active; 'I' for Inactive)
REMARK    1  A    between atoms: C5_5  and  O1_6 
REMARK    2  A    between atoms: O1_6  and  C6_7 
REMARK    3  A    between atoms: C6_7  and  C7_8 
REMARK    4  A    between atoms: C7_8  and  C8_9 
REMARK    5  A    between atoms: C8_9  and  N1_10 
REMARK    6  A    between atoms: N1_10  and  C9_12 
REMARK    7  A    between atoms: C9_12  and  C10_13 
REMARK    8  A    between atoms: C10_13  and  O2_14 
REMARK    9  A    between atoms: C17_22  and  C18_23 
REMARK   10  A    between atoms: C18_23  and  C19_24 
REMARK   11  A    between atoms: C18_23  and  N2_27 
REMARK   12  A    between atoms: C19_24  and  O3_25 
REMARK   13  A    between atoms: N2_27  and  C20_30 
REMARK   14  A    between atoms: C20_30  and  C21_31 
REMARK   15  A    between atoms: C21_31  and  C22_32 
REMARK   16  A    between atoms: C22_32  and  C23_33 
REMARK   17  A    between atoms: C23_33  and  N3_34 
ROOT
HETATM    1  C1  UNL     1      32.240  38.245  -8.217  1.00  0.00     0.016 C 
HETATM    2  C2  UNL     1      33.165  38.563  -9.419  1.00  0.00    -0.033 C 
HETATM    3  C3  UNL     1      34.540  38.621  -8.795  1.00  0.00     0.013 C 
HETATM    4  C4  UNL     1      35.611  38.052  -9.706  1.00  0.00     0.033 C 
HETATM    5  C5  UNL     1      35.332  36.560  -9.773  1.00  0.00     0.121 C 
HETATM    6  C11 UNL     1      33.911  36.251 -10.081  1.00  0.00     0.037 C 
HETATM    7  C12 UNL     1      33.022  37.420 -10.372  1.00  0.00    -0.003 C 
HETATM    8  C13 UNL     1      33.126  37.743 -11.819  1.00  0.00     0.006 C 
HETATM    9  C14 UNL     1      32.480  39.018 -12.254  1.00  0.00     0.006 C 
HETATM   10  C15 UNL     1      33.009  40.138 -11.399  1.00  0.00    -0.005 C 
HETATM   11  C16 UNL     1      32.373  41.398 -11.896  1.00  0.00     0.012 C 
HETATM   12  C17 UNL     1      32.665  42.633 -11.088  1.00  0.00     0.019 C 
HETATM   13  C24 UNL     1      32.562  42.355  -9.600  1.00  0.00     0.007 C 
HETATM   14  C25 UNL     1      33.186  41.049  -9.186  1.00  0.00     0.011 C 
HETATM   15  C26 UNL     1      32.672  39.872  -9.959  1.00  0.00    -0.033 C 
HETATM   16  C27 UNL     1      31.150  39.833  -9.832  1.00  0.00     0.016 C 
ENDROOT
BRANCH  12  17
HETATM   17  C18 UNL     1      31.721  43.735 -11.428  1.00  0.00     0.213 C 
BRANCH  17  18
HETATM   18  C19 UNL     1      32.280  44.961 -12.050  1.00  0.00     0.197 C 
BRANCH  18  19
HETATM   19  O3  UNL     1      33.643  44.798 -12.371  1.00  0.00    -0.399 OA
ATOM     20  H3  UNL     1      33.775  44.057 -12.951  1.00  0.00     0.209 HD
ENDBRANCH  18  19
ENDBRANCH  17  18
BRANCH  17  21
HETATM   21  N2  UNL     1      30.542  43.257 -12.095  1.00  0.00    -0.069 N 
ATOM     22  H22 UNL     1      30.546  42.237 -12.140  1.00  0.00     0.277 HD
ATOM     23  H21 UNL     1      29.719  43.402 -11.510  1.00  0.00     0.277 HD
BRANCH  21  24
HETATM   24  C20 UNL     1      30.337  43.810 -13.389  1.00  0.00     0.233 C 
BRANCH  24  25
HETATM   25  C21 UNL     1      30.537  42.909 -14.564  1.00  0.00     0.029 C 
BRANCH  25  26
HETATM   26  C22 UNL     1      31.907  43.127 -15.207  1.00  0.00     0.029 C 
BRANCH  26  27
HETATM   27  C23 UNL     1      32.010  44.429 -15.949  1.00  0.00     0.229 C 
BRANCH  27  28
HETATM   28  N3  UNL     1      33.204  45.130 -15.531  1.00  0.00    -0.079 N 
ATOM     29  H33 UNL     1      33.057  45.665 -14.676  1.00  0.00     0.274 HD
ATOM     30  H32 UNL     1      33.922  44.494 -15.184  1.00  0.00     0.274 HD
ATOM     31  H31 UNL     1      33.543  45.712 -16.297  1.00  0.00     0.274 HD
ENDBRANCH  27  28
ENDBRANCH  26  27
ENDBRANCH  25  26
ENDBRANCH  24  25
ENDBRANCH  21  24
ENDBRANCH  17  21
ENDBRANCH  12  17
BRANCH   5  32
HETATM   32  O1  UNL     1      36.265  35.861 -10.527  1.00  0.00    -0.386 OA
BRANCH  32  33
HETATM   33  C6  UNL     1      36.434  34.534 -10.059  1.00  0.00     0.169 C 
BRANCH  33  34
HETATM   34  C7  UNL     1      37.901  34.175 -10.013  1.00  0.00     0.045 C 
BRANCH  34  35
HETATM   35  C8  UNL     1      38.407  34.460  -8.613  1.00  0.00     0.116 C 
BRANCH  35  36
HETATM   36  N1  UNL     1      38.479  35.859  -8.305  1.00  0.00    -0.419 N 
ATOM     37  H1  UNL     1      38.791  36.551  -8.986  1.00  0.00     0.153 HD
BRANCH  36  38
HETATM   38  C9  UNL     1      38.082  36.219  -6.976  1.00  0.00     0.139 C 
BRANCH  38  39
HETATM   39  C10 UNL     1      39.271  36.294  -6.029  1.00  0.00     0.183 C 
BRANCH  39  40
HETATM   40  O2  UNL     1      40.376  36.640  -6.802  1.00  0.00    -0.399 OA
ATOM     41  H2  UNL     1      41.064  36.888  -6.196  1.00  0.00     0.209 HD
ENDBRANCH  39  40
ENDBRANCH  38  39
ENDBRANCH  36  38
ENDBRANCH  35  36
ENDBRANCH  34  35
ENDBRANCH  33  34
ENDBRANCH  32  33
ENDBRANCH   5  32
TORSDOF 17
ENDMDL
MODEL 3
REMARK VINA RESULT: -6.623242241      4.747      8.778
REMARK  17 active torsions:
REMARK  status: ('A' for Active; 'I' for Inactive)
REMARK    1  A    between atoms: C5_5  and  O1_6 
REMARK    2  A    between atoms: O1_6  and  C6_7 
REMARK    3  A    between atoms: C6_7  and  C7_8 
REMARK    4  A    between atoms: C7_8  and  C8_9 
REMARK    5  A    between atoms: C8_9  and  N1_10 
REMARK    6  A    between atoms: N1_10  and  C9_12 
REMARK    7  A    between atoms: C9_12  and  C10_13 
REMARK    8  A    between atoms: C10_13  and  O2_14 
REMARK    9  A    between atoms: C17_22  and  C18_23 
REMARK   10  A    between atoms: C18_23  and  C19_24 
REMARK   11  A    between atoms: C18_23  and  N2_27 
REMARK   12  A    between atoms: C19_24  and  O3_25 
REMARK   13  A    between atoms: N2_27  and  C20_30 
REMARK   14  A    between atoms: C20_30  and  C21_31 
REMARK   15  A    between atoms: C21_31  and  C22_32 
REMARK   16  A    between atoms: C22_32  and  C23_33 
REMARK   17  A    between atoms: C23_33  and  N3_34 
ROOT
HETATM    1  C1  UNL     1      32.242  38.477  -8.158  1.00  0.00     0.016 C 
HETATM    2  C2  UNL     1      33.149  38.640  -9.404  1.00  0.00    -0.033 C 
HETATM    3  C3  UNL     1      34.545  38.558  -8.832  1.00  0.00     0.013 C 
HETATM    4  C4  UNL     1      35.504  37.834  -9.757  1.00  0.00     0.033 C 
HETATM    5  C5  UNL     1      35.050  36.384  -9.754  1.00  0.00     0.121 C 
HETATM    6  C11 UNL     1      33.592  36.234  -9.999  1.00  0.00     0.037 C 
HETATM    7  C12 UNL     1      32.835  37.489 -10.305  1.00  0.00    -0.003 C 
HETATM    8  C13 UNL     1      32.918  37.746 -11.767  1.00  0.00     0.006 C 
HETATM    9  C14 UNL     1      32.409  39.072 -12.229  1.00  0.00     0.006 C 
HETATM   10  C15 UNL     1      33.098  40.151 -11.438  1.00  0.00    -0.005 C 
HETATM   11  C16 UNL     1      32.594  41.460 -11.962  1.00  0.00     0.012 C 
HETATM   12  C17 UNL     1      33.060  42.680 -11.215  1.00  0.00     0.019 C 
HETATM   13  C24 UNL     1      32.985  42.468  -9.714  1.00  0.00     0.007 C 
HETATM   14  C25 UNL     1      33.469  41.113  -9.271  1.00  0.00     0.011 C 
HETATM   15  C26 UNL     1      32.790  39.979  -9.978  1.00  0.00    -0.033 C 
HETATM   16  C27 UNL     1      31.281  40.125  -9.795  1.00  0.00     0.016 C 
ENDROOT
BRANCH  12  17
HETATM   17  C18 UNL     1      32.239  43.872 -11.565  1.00  0.00     0.213 C 
BRANCH  17  18
HETATM   18  C19 UNL     1      32.648  44.675 -12.744  1.00  0.00     0.197 C 
BRANCH  18  19
HETATM   19  O3  UNL     1      33.351  45.834 -12.357  1.00  0.00    -0.399 OA
ATOM     20  H3  UNL     1      32.881  46.622 -12.604  1.00  0.00     0.209 HD
ENDBRANCH  18  19
ENDBRANCH  17  18
BRANCH  17  21
HETATM   21  N2  UNL     1      30.831  43.591 -11.540  1.00  0.00    -0.069 N 
ATOM     22  H22 UNL     1      30.666  42.618 -11.281  1.00  0.00     0.277 HD
ATOM     23  H21 UNL     1      30.388  44.059 -10.750  1.00  0.00     0.277 HD
BRANCH  21  24
HETATM   24  C20 UNL     1      30.150  43.905 -12.750  1.00  0.00     0.233 C 
BRANCH  24  25
HETATM   25  C21 UNL     1      29.069  42.973 -13.195  1.00  0.00     0.029 C 
BRANCH  25  26
HETATM   26  C22 UNL     1      29.636  41.811 -14.010  1.00  0.00     0.029 C 
BRANCH  26  27
HETATM   27  C23 UNL     1      29.200  40.466 -13.502  1.00  0.00     0.229 C 
BRANCH  27  28
HETATM   28  N3  UNL     1      28.701  40.597 -12.152  1.00  0.00    -0.079 N 
ATOM     29  H33 UNL     1      29.441  40.502 -11.457  1.00  0.00     0.274 HD
ATOM     30  H32 UNL     1      28.421  41.553 -11.936  1.00  0.00     0.274 HD
ATOM     31  H31 UNL     1      27.944  39.930 -12.002  1.00  0.00     0.274 HD
ENDBRANCH  27  28
ENDBRANCH  26  27
ENDBRANCH  25  26
ENDBRANCH  24  25
ENDBRANCH  21  24
ENDBRANCH  17  21
ENDBRANCH  12  17
BRANCH   5  32
HETATM   32  O1  UNL     1      35.865  35.553 -10.512  1.00  0.00    -0.386 OA
BRANCH  32  33
HETATM   33  C6  UNL     1      37.239  35.785 -10.255  1.00  0.00     0.169 C 
BRANCH  33  34
HETATM   34  C7  UNL     1      37.960  34.476 -10.030  1.00  0.00     0.045 C 
BRANCH  34  35
HETATM   35  C8  UNL     1      37.591  33.540 -11.163  1.00  0.00     0.116 C 
BRANCH  35  36
HETATM   36  N1  UNL     1      37.564  34.179 -12.446  1.00  0.00    -0.419 N 
ATOM     37  H1  UNL     1      37.541  35.194 -12.549  1.00  0.00     0.153 HD
BRANCH  36  38
HETATM   38  C9  UNL     1      37.570  33.297 -13.576  1.00  0.00     0.139 C 
BRANCH  38  39
HETATM   39  C10 UNL     1      38.674  32.254 -13.475  1.00  0.00     0.183 C 
BRANCH  39  40
HETATM   40  O2  UNL     1      39.686  32.659 -14.342  1.00  0.00    -0.399 OA
ATOM     41  H2  UNL     1      40.506  32.389 -13.947  1.00  0.00     0.209 HD
ENDBRANCH  39  40
ENDBRANCH  38  39
ENDBRANCH  36  38
ENDBRANCH  35  36
ENDBRANCH  34  35
ENDBRANCH  33  34
ENDBRANCH  32  33
ENDBRANCH   5  32
TORSDOF 17
ENDMDL
MODEL 4
REMARK VINA RESULT: -6.585463419      1.980      2.617
REMARK  17 active torsions:
REMARK  status: ('A' for Active; 'I' for Inactive)
REMARK    1  A    between atoms: C5_5  and  O1_6 
REMARK    2  A    between atoms: O1_6  and  C6_7 
REMARK    3  A    between atoms: C6_7  and  C7_8 
REMARK    4  A    between atoms: C7_8  and  C8_9 
REMARK    5  A    between atoms: C8_9  and  N1_10 
REMARK    6  A    between atoms: N1_10  and  C9_12 
REMARK    7  A    between atoms: C9_12  and  C10_13 
REMARK    8  A    between atoms: C10_13  and  O2_14 
REMARK    9  A    between atoms: C17_22  and  C18_23 
REMARK   10  A    between atoms: C18_23  and  C19_24 
REMARK   11  A    between atoms: C18_23  and  N2_27 
REMARK   12  A    between atoms: C19_24  and  O3_25 
REMARK   13  A    between atoms: N2_27  and  C20_30 
REMARK   14  A    between atoms: C20_30  and  C21_31 
REMARK   15  A    between atoms: C21_31  and  C22_32 
REMARK   16  A    between atoms: C22_32  and  C23_33 
REMARK   17  A    between atoms: C23_33  and  N3_34 
ROOT
HETATM    1  C1  UNL     1      33.772  38.255 -10.707  1.00  0.00     0.016 C 
HETATM    2  C2  UNL     1      32.503  38.997 -10.216  1.00  0.00    -0.033 C 
HETATM    3  C3  UNL     1      33.006  39.812  -9.047  1.00  0.00     0.013 C 
HETATM    4  C4  UNL     1      32.332  41.168  -8.958  1.00  0.00     0.033 C 
HETATM    5  C5  UNL     1      32.839  41.949 -10.158  1.00  0.00     0.121 C 
HETATM    6  C11 UNL     1      32.725  41.191 -11.431  1.00  0.00     0.037 C 
HETATM    7  C12 UNL     1      32.053  39.855 -11.354  1.00  0.00    -0.003 C 
HETATM    8  C13 UNL     1      30.587  40.056 -11.498  1.00  0.00     0.006 C 
HETATM    9  C14 UNL     1      29.733  38.861 -11.226  1.00  0.00     0.006 C 
HETATM   10  C15 UNL     1      30.086  38.319  -9.867  1.00  0.00    -0.005 C 
HETATM   11  C16 UNL     1      29.179  37.155  -9.617  1.00  0.00     0.012 C 
HETATM   12  C17 UNL     1      29.455  36.378  -8.358  1.00  0.00     0.019 C 
HETATM   13  C24 UNL     1      30.942  36.140  -8.172  1.00  0.00     0.007 C 
HETATM   14  C25 UNL     1      31.789  37.345  -8.486  1.00  0.00     0.011 C 
HETATM   15  C26 UNL     1      31.532  37.914  -9.848  1.00  0.00    -0.033 C 
HETATM   16  C27 UNL     1      31.725  36.807 -10.883  1.00  0.00     0.016 C 
ENDROOT
BRANCH  12  17
HETATM   17  C18 UNL     1      28.765  35.058  -8.378  1.00  0.00     0.213 C 
BRANCH  17  18
HETATM   18  C19 UNL     1      28.317  34.488  -7.082  1.00  0.00     0.197 C 
BRANCH  18  19
HETATM   19  O3  UNL     1      29.260  33.574  -6.571  1.00  0.00    -0.399 OA
ATOM     20  H3  UNL     1      29.853  33.995  -5.960  1.00  0.00     0.209 HD
ENDBRANCH  18  19
ENDBRANCH  17  18
BRANCH  17  21
HETATM   21  N2  UNL     1      27.758  34.984  -9.400  1.00  0.00    -0.069 N 
ATOM     22  H22 UNL     1      27.850  35.766 -10.049  1.00  0.00     0.277 HD
ATOM     23  H21 UNL     1      27.950  34.208 -10.034  1.00  0.00     0.277 HD
BRANCH  21  24
HETATM   24  C20 UNL     1      26.426  34.904  -8.905  1.00  0.00     0.233 C 
BRANCH  24  25
HETATM   25  C21 UNL     1      25.467  35.967  -9.331  1.00  0.00     0.029 C 
BRANCH  25  26
HETATM   26  C22 UNL     1      24.423  36.242  -8.249  1.00  0.00     0.029 C 
BRANCH  26  27
HETATM   27  C23 UNL     1      23.128  35.516  -8.480  1.00  0.00     0.229 C 
BRANCH  27  28
HETATM   28  N3  UNL     1      22.980  34.466  -7.497  1.00  0.00    -0.079 N 
ATOM     29  H33 UNL     1      22.591  34.813  -6.620  1.00  0.00     0.274 HD
ATOM     30  H32 UNL     1      22.235  33.813  -7.739  1.00  0.00     0.274 HD
ATOM     31  H31 UNL     1      23.875  33.997  -7.362  1.00  0.00     0.274 HD
ENDBRANCH  27  28
ENDBRANCH  26  27
ENDBRANCH  25  26
ENDBRANCH  24  25
ENDBRANCH  21  24
ENDBRANCH  17  21
ENDBRANCH  12  17
BRANCH   5  32
HETATM   32  O1  UNL     1      32.365  43.253 -10.203  1.00  0.00    -0.386 OA
BRANCH  32  33
HETATM   33  C6  UNL     1      31.854  43.585 -11.482  1.00  0.00     0.169 C 
BRANCH  33  34
HETATM   34  C7  UNL     1      32.736  44.614 -12.150  1.00  0.00     0.045 C 
BRANCH  34  35
HETATM   35  C8  UNL     1      32.841  44.255 -13.619  1.00  0.00     0.116 C 
BRANCH  35  36
HETATM   36  N1  UNL     1      31.662  44.575 -14.371  1.00  0.00    -0.419 N 
ATOM     37  H1  UNL     1      30.873  45.073 -13.961  1.00  0.00     0.153 HD
BRANCH  36  38
HETATM   38  C9  UNL     1      31.669  44.147 -15.739  1.00  0.00     0.139 C 
BRANCH  38  39
HETATM   39  C10 UNL     1      32.395  45.136 -16.640  1.00  0.00     0.183 C 
BRANCH  39  40
HETATM   40  O2  UNL     1      33.560  44.504 -17.068  1.00  0.00    -0.399 OA
ATOM     41  H2  UNL     1      33.887  44.006 -16.328  1.00  0.00     0.209 HD
ENDBRANCH  39  40
ENDBRANCH  38  39
ENDBRANCH  36  38
ENDBRANCH  35  36
ENDBRANCH  34  35
ENDBRANCH  33  34
ENDBRANCH  32  33
ENDBRANCH   5  32
TORSDOF 17
ENDMDL
MODEL 5
REMARK VINA RESULT: -6.583494637      4.664      8.248
REMARK  17 active torsions:
REMARK  status: ('A' for Active; 'I' for Inactive)
REMARK    1  A    between atoms: C5_5  and  O1_6 
REMARK    2  A    between atoms: O1_6  and  C6_7 
REMARK    3  A    between atoms: C6_7  and  C7_8 
REMARK    4  A    between atoms: C7_8  and  C8_9 
REMARK    5  A    between atoms: C8_9  and  N1_10 
REMARK    6  A    between atoms: N1_10  and  C9_12 
REMARK    7  A    between atoms: C9_12  and  C10_13 
REMARK    8  A    between atoms: C10_13  and  O2_14 
REMARK    9  A    between atoms: C17_22  and  C18_23 
REMARK   10  A    between atoms: C18_23  and  C19_24 
REMARK   11  A    between atoms: C18_23  and  N2_27 
REMARK   12  A    between atoms: C19_24  and  O3_25 
REMARK   13  A    between atoms: N2_27  and  C20_30 
REMARK   14  A    between atoms: C20_30  and  C21_31 
REMARK   15  A    between atoms: C21_31  and  C22_32 
REMARK   16  A    between atoms: C22_32  and  C23_33 
REMARK   17  A    between atoms: C23_33  and  N3_34 
ROOT
HETATM    1  C1  UNL     1      32.309  38.573  -7.990  1.00  0.00     0.016 C 
HETATM    2  C2  UNL     1      33.209  38.724  -9.242  1.00  0.00    -0.033 C 
HETATM    3  C3  UNL     1      34.608  38.699  -8.671  1.00  0.00     0.013 C 
HETATM    4  C4  UNL     1      35.586  37.974  -9.576  1.00  0.00     0.033 C 
HETATM    5  C5  UNL     1      35.173  36.513  -9.528  1.00  0.00     0.121 C 
HETATM    6  C11 UNL     1      33.719  36.315  -9.765  1.00  0.00     0.037 C 
HETATM    7  C12 UNL     1      32.927  37.538 -10.107  1.00  0.00    -0.003 C 
HETATM    8  C13 UNL     1      33.000  37.752 -11.576  1.00  0.00     0.006 C 
HETATM    9  C14 UNL     1      32.453  39.049 -12.077  1.00  0.00     0.006 C 
HETATM   10  C15 UNL     1      33.113  40.171 -11.321  1.00  0.00    -0.005 C 
HETATM   11  C16 UNL     1      32.571  41.448 -11.884  1.00  0.00     0.012 C 
HETATM   12  C17 UNL     1      33.004  42.703 -11.175  1.00  0.00     0.019 C 
HETATM   13  C24 UNL     1      32.937  42.535  -9.668  1.00  0.00     0.007 C 
HETATM   14  C25 UNL     1      33.459  41.208  -9.185  1.00  0.00     0.011 C 
HETATM   15  C26 UNL     1      32.812  40.034  -9.856  1.00  0.00    -0.033 C 
HETATM   16  C27 UNL     1      31.299  40.143  -9.674  1.00  0.00     0.016 C 
ENDROOT
BRANCH  12  17
HETATM   17  C18 UNL     1      32.149  43.860 -11.559  1.00  0.00     0.213 C 
BRANCH  17  18
HETATM   18  C19 UNL     1      32.545  44.651 -12.752  1.00  0.00     0.197 C 
BRANCH  18  19
HETATM   19  O3  UNL     1      33.253  45.813 -12.385  1.00  0.00    -0.399 OA
ATOM     20  H3  UNL     1      33.665  46.219 -13.138  1.00  0.00     0.209 HD
ENDBRANCH  18  19
ENDBRANCH  17  18
BRANCH  17  21
HETATM   21  N2  UNL     1      30.750  43.534 -11.542  1.00  0.00    -0.069 N 
ATOM     22  H22 UNL     1      30.613  42.564 -11.257  1.00  0.00     0.277 HD
ATOM     23  H21 UNL     1      30.283  44.011 -10.771  1.00  0.00     0.277 HD
BRANCH  21  24
HETATM   24  C20 UNL     1      30.075  43.792 -12.768  1.00  0.00     0.233 C 
BRANCH  24  25
HETATM   25  C21 UNL     1      29.017  42.824 -13.188  1.00  0.00     0.029 C 
BRANCH  25  26
HETATM   26  C22 UNL     1      29.613  41.648 -13.962  1.00  0.00     0.029 C 
BRANCH  26  27
HETATM   27  C23 UNL     1      29.232  40.311 -13.391  1.00  0.00     0.229 C 
BRANCH  27  28
HETATM   28  N3  UNL     1      28.696  40.489 -12.060  1.00  0.00    -0.079 N 
ATOM     29  H33 UNL     1      29.320  40.121 -11.342  1.00  0.00     0.274 HD
ATOM     30  H32 UNL     1      28.702  41.467 -11.770  1.00  0.00     0.274 HD
ATOM     31  H31 UNL     1      27.765  40.077 -12.010  1.00  0.00     0.274 HD
ENDBRANCH  27  28
ENDBRANCH  26  27
ENDBRANCH  25  26
ENDBRANCH  24  25
ENDBRANCH  21  24
ENDBRANCH  17  21
ENDBRANCH  12  17
BRANCH   5  32
HETATM   32  O1  UNL     1      36.009  35.683 -10.263  1.00  0.00    -0.386 OA
BRANCH  32  33
HETATM   33  C6  UNL     1      37.319  35.642  -9.722  1.00  0.00     0.169 C 
BRANCH  33  34
HETATM   34  C7  UNL     1      37.292  35.083  -8.318  1.00  0.00     0.045 C 
BRANCH  34  35
HETATM   35  C8  UNL     1      38.229  35.916  -7.467  1.00  0.00     0.116 C 
BRANCH  35  36
HETATM   36  N1  UNL     1      37.554  36.695  -6.469  1.00  0.00    -0.419 N 
ATOM     37  H1  UNL     1      36.553  36.887  -6.513  1.00  0.00     0.153 HD
BRANCH  36  38
HETATM   38  C9  UNL     1      38.381  37.185  -5.406  1.00  0.00     0.139 C 
BRANCH  38  39
HETATM   39  C10 UNL     1      37.733  38.353  -4.676  1.00  0.00     0.183 C 
BRANCH  39  40
HETATM   40  O2  UNL     1      36.626  38.731  -5.431  1.00  0.00    -0.399 OA
ATOM     41  H2  UNL     1      35.894  38.790  -4.830  1.00  0.00     0.209 HD
ENDBRANCH  39  40
ENDBRANCH  38  39
ENDBRANCH  36  38
ENDBRANCH  35  36
ENDBRANCH  34  35
ENDBRANCH  33  34
ENDBRANCH  32  33
ENDBRANCH   5  32
TORSDOF 17
ENDMDL
