MODEL 1
REMARK VINA RESULT: -7.122950579      0.000      0.000
REMARK  16 active torsions:
REMARK  status: ('A' for Active; 'I' for Inactive)
REMARK    1  A    between atoms: C2_2  and  C3_3 
REMARK    2  A    between atoms: C3_3  and  C4_4 
REMARK    3  A    between atoms: C4_4  and  C5_5 
REMARK    4  A    between atoms: C5_5  and  C6_6 
REMARK    5  A    between atoms: C6_6  and  C7_7 
REMARK    6  A    between atoms: C8_8  and  C9_9 
REMARK    7  A    between atoms: C9_9  and  C10_10 
REMARK    8  A    between atoms: C10_10  and  O1_11 
REMARK    9  A    between atoms: C13_17  and  C14_18 
REMARK   10  A    between atoms: C16_20  and  O2_21 
REMARK   11  A    between atoms: C17_23  and  O3_24 
REMARK   12  A    between atoms: C18_26  and  N2_27 
REMARK   13  A    between atoms: N2_27  and  C19_30 
REMARK   14  A    between atoms: C19_30  and  C20_31 
REMARK   15  A    between atoms: C21_34  and  C22_35 
REMARK   16  A    between atoms: C22_35  and  O5_36 
ROOT
HETATM    1  C10 UNL     1      12.430  41.067  -8.859  1.00  0.00     0.128 C 
HETATM    2  C11 UNL     1      13.023  42.333  -9.388  1.00  0.00     0.027 C 
HETATM    3  N1  UNL     1      12.822  43.518  -9.012  1.00  0.00    -0.398 N 
ATOM      4  H1  UNL     1      13.350  44.219  -9.533  1.00  0.00     0.158 HD
HETATM    5  C12 UNL     1      12.002  44.046  -8.004  1.00  0.00     0.145 C 
HETATM    6  C13 UNL     1      13.913  41.941 -10.510  1.00  0.00     0.073 C 
HETATM    7  C16 UNL     1      14.157  40.506 -10.311  1.00  0.00     0.123 C 
HETATM    8  C17 UNL     1      14.445  39.740 -11.585  1.00  0.00     0.189 C 
HETATM    9  C18 UNL     1      13.691  38.465 -11.677  1.00  0.00     0.248 C 
HETATM   10  C21 UNL     1      13.254  37.872 -10.389  1.00  0.00     0.179 C 
HETATM   11  O6  UNL     1      13.003  38.747  -9.376  1.00  0.00    -0.370 OA
HETATM   12  C23 UNL     1      12.809  40.009  -9.826  1.00  0.00     0.200 C 
ENDROOT
BRANCH   1  13
HETATM   13  C9  UNL     1      12.768  40.842  -7.432  1.00  0.00     0.073 C 
BRANCH  13  14
HETATM   14  C8  UNL     1      11.627  40.476  -6.596  1.00  0.00    -0.027 C 
HETATM   15  C7  UNL     1      11.468  39.215  -6.204  1.00  0.00    -0.031 C 
BRANCH  15  16
HETATM   16  C6  UNL     1      10.348  38.765  -5.364  1.00  0.00     0.027 C 
BRANCH  16  17
HETATM   17  C5  UNL     1      10.731  38.731  -3.918  1.00  0.00     0.004 C 
BRANCH  17  18
HETATM   18  C4  UNL     1       9.630  38.200  -3.055  1.00  0.00     0.000 C 
BRANCH  18  19
HETATM   19  C3  UNL     1       9.991  38.520  -1.613  1.00  0.00    -0.000 C 
BRANCH  19  20
HETATM   20  C2  UNL     1       9.286  37.555  -0.670  1.00  0.00    -0.005 C 
HETATM   21  C1  UNL     1       9.458  36.120  -1.145  1.00  0.00     0.005 C 
ENDBRANCH  19  20
ENDBRANCH  18  19
ENDBRANCH  17  18
ENDBRANCH  16  17
ENDBRANCH  15  16
ENDBRANCH  13  14
ENDBRANCH   1  13
BRANCH   1  22
HETATM   22  O1  UNL     1      11.029  41.288  -8.962  1.00  0.00    -0.381 OA
ATOM     23  H1  UNL     1      10.795  41.320  -9.883  1.00  0.00     0.211 HD
ENDBRANCH   1  22
BRANCH   6  24
HETATM   24  C14 UNL     1      15.163  42.785 -10.565  1.00  0.00     0.009 C 
HETATM   25  C15 UNL     1      15.149  43.716 -11.741  1.00  0.00     0.006 C 
ENDBRANCH   6  24
BRANCH   7  26
HETATM   26  O2  UNL     1      15.094  40.207  -9.327  1.00  0.00    -0.384 OA
ATOM     27  H2  UNL     1      15.073  40.783  -8.572  1.00  0.00     0.210 HD
ENDBRANCH   7  26
BRANCH   8  28
HETATM   28  O3  UNL     1      14.117  40.568 -12.681  1.00  0.00    -0.390 OA
ATOM     29  H3  UNL     1      14.887  41.075 -12.910  1.00  0.00     0.210 HD
ENDBRANCH   8  28
BRANCH  10  30
HETATM   30  C22 UNL     1      14.218  36.808  -9.852  1.00  0.00     0.198 C 
BRANCH  30  31
HETATM   31  O5  UNL     1      14.753  37.368  -8.667  1.00  0.00    -0.398 OA
ATOM     32  H5  UNL     1      14.122  38.027  -8.403  1.00  0.00     0.209 HD
ENDBRANCH  30  31
ENDBRANCH  10  30
BRANCH   9  33
HETATM   33  N2  UNL     1      14.432  37.428 -12.404  1.00  0.00    -0.058 N 
ATOM     34  H22 UNL     1      15.433  37.628 -12.409  1.00  0.00     0.278 HD
ATOM     35  H21 UNL     1      14.442  36.551 -11.883  1.00  0.00     0.278 HD
BRANCH  33  36
HETATM   36  C19 UNL     1      13.942  37.232 -13.731  1.00  0.00     0.331 C 
BRANCH  36  37
HETATM   37  C20 UNL     1      13.262  35.914 -13.795  1.00  0.00     0.256 C 
HETATM   38  N3  UNL     1      13.041  35.163 -12.610  1.00  0.00    -0.061 NA
HETATM   39  O4  UNL     1      12.865  35.426 -14.886  1.00  0.00    -0.275 OA
ENDBRANCH  36  37
ENDBRANCH  33  36
ENDBRANCH   9  33
TORSDOF 16
ENDMDL
MODEL 2
REMARK VINA RESULT: -6.845844585      1.389      1.565
REMARK  16 active torsions:
REMARK  status: ('A' for Active; 'I' for Inactive)
REMARK    1  A    between atoms: C2_2  and  C3_3 
REMARK    2  A    between atoms: C3_3  and  C4_4 
REMARK    3  A    between atoms: C4_4  and  C5_5 
REMARK    4  A    between atoms: C5_5  and  C6_6 
REMARK    5  A    between atoms: C6_6  and  C7_7 
REMARK    6  A    between atoms: C8_8  and  C9_9 
REMARK    7  A    between atoms: C9_9  and  C10_10 
REMARK    8  A    between atoms: C10_10  and  O1_11 
REMARK    9  A    between atoms: C13_17  and  C14_18 
REMARK   10  A    between atoms: C16_20  and  O2_21 
REMARK   11  A    between atoms: C17_23  and  O3_24 
REMARK   12  A    between atoms: C18_26  and  N2_27 
REMARK   13  A    between atoms: N2_27  and  C19_30 
REMARK   14  A    between atoms: C19_30  and  C20_31 
REMARK   15  A    between atoms: C21_34  and  C22_35 
REMARK   16  A    between atoms: C22_35  and  O5_36 
ROOT
HETATM    1  C10 UNL     1      12.942  40.154  -9.130  1.00  0.00     0.128 C 
HETATM    2  C11 UNL     1      13.895  41.305  -9.115  1.00  0.00     0.027 C 
HETATM    3  N1  UNL     1      13.907  42.313  -8.360  1.00  0.00    -0.398 N 
ATOM      4  H1  UNL     1      14.667  42.968  -8.546  1.00  0.00     0.158 HD
HETATM    5  C12 UNL     1      13.062  42.693  -7.307  1.00  0.00     0.145 C 
HETATM    6  C13 UNL     1      14.859  41.064 -10.219  1.00  0.00     0.073 C 
HETATM    7  C16 UNL     1      14.727  39.633 -10.526  1.00  0.00     0.123 C 
HETATM    8  C17 UNL     1      15.056  39.270 -11.958  1.00  0.00     0.189 C 
HETATM    9  C18 UNL     1      14.059  38.356 -12.567  1.00  0.00     0.248 C 
HETATM   10  C21 UNL     1      13.272  37.527 -11.623  1.00  0.00     0.179 C 
HETATM   11  O6  UNL     1      13.051  38.062 -10.389  1.00  0.00    -0.370 OA
HETATM   12  C23 UNL     1      13.236  39.403 -10.374  1.00  0.00     0.200 C 
ENDROOT
BRANCH   1  13
HETATM   13  C9  UNL     1      12.957  39.396  -7.853  1.00  0.00     0.073 C 
BRANCH  13  14
HETATM   14  C8  UNL     1      11.688  39.420  -7.128  1.00  0.00    -0.027 C 
HETATM   15  C7  UNL     1      11.524  38.656  -6.053  1.00  0.00    -0.031 C 
BRANCH  15  16
HETATM   16  C6  UNL     1      10.281  38.622  -5.268  1.00  0.00     0.027 C 
BRANCH  16  17
HETATM   17  C5  UNL     1      10.561  38.698  -3.800  1.00  0.00     0.004 C 
BRANCH  17  18
HETATM   18  C4  UNL     1       9.531  37.973  -2.991  1.00  0.00     0.000 C 
BRANCH  18  19
HETATM   19  C3  UNL     1       9.556  38.567  -1.591  1.00  0.00    -0.000 C 
BRANCH  19  20
HETATM   20  C2  UNL     1       9.191  37.504  -0.565  1.00  0.00    -0.005 C 
HETATM   21  C1  UNL     1       9.409  36.110  -1.136  1.00  0.00     0.005 C 
ENDBRANCH  19  20
ENDBRANCH  18  19
ENDBRANCH  17  18
ENDBRANCH  16  17
ENDBRANCH  15  16
ENDBRANCH  13  14
ENDBRANCH   1  13
BRANCH   1  22
HETATM   22  O1  UNL     1      11.672  40.776  -9.271  1.00  0.00    -0.381 OA
ATOM     23  H1  UNL     1      11.773  41.708  -9.115  1.00  0.00     0.211 HD
ENDBRANCH   1  22
BRANCH   6  24
HETATM   24  C14 UNL     1      16.258  41.498  -9.856  1.00  0.00     0.009 C 
HETATM   25  C15 UNL     1      16.649  42.757 -10.572  1.00  0.00     0.006 C 
ENDBRANCH   6  24
BRANCH   7  26
HETATM   26  O2  UNL     1      15.376  38.786  -9.635  1.00  0.00    -0.384 OA
ATOM     27  H2  UNL     1      16.110  38.308 -10.004  1.00  0.00     0.210 HD
ENDBRANCH   7  26
BRANCH   8  28
HETATM   28  O3  UNL     1      15.130  40.464 -12.710  1.00  0.00    -0.390 OA
ATOM     29  H3  UNL     1      16.040  40.736 -12.745  1.00  0.00     0.210 HD
ENDBRANCH   8  28
BRANCH  10  30
HETATM   30  C22 UNL     1      13.853  36.122 -11.418  1.00  0.00     0.198 C 
BRANCH  30  31
HETATM   31  O5  UNL     1      12.965  35.259 -12.105  1.00  0.00    -0.398 OA
ATOM     32  H5  UNL     1      13.517  34.767 -12.701  1.00  0.00     0.209 HD
ENDBRANCH  30  31
ENDBRANCH  10  30
BRANCH   9  33
HETATM   33  N2  UNL     1      14.661  37.446 -13.549  1.00  0.00    -0.058 N 
ATOM     34  H22 UNL     1      15.666  37.605 -13.629  1.00  0.00     0.278 HD
ATOM     35  H21 UNL     1      14.674  36.487 -13.200  1.00  0.00     0.278 HD
BRANCH  33  36
HETATM   36  C19 UNL     1      14.027  37.519 -14.827  1.00  0.00     0.331 C 
BRANCH  36  37
HETATM   37  C20 UNL     1      13.813  36.138 -15.328  1.00  0.00     0.256 C 
HETATM   38  N3  UNL     1      14.751  35.543 -16.214  1.00  0.00    -0.061 NA
HETATM   39  O4  UNL     1      12.807  35.459 -14.991  1.00  0.00    -0.275 OA
ENDBRANCH  36  37
ENDBRANCH  33  36
ENDBRANCH   9  33
TORSDOF 16
ENDMDL
MODEL 3
REMARK VINA RESULT: -6.693937049      1.023      1.476
REMARK  16 active torsions:
REMARK  status: ('A' for Active; 'I' for Inactive)
REMARK    1  A    between atoms: C2_2  and  C3_3 
REMARK    2  A    between atoms: C3_3  and  C4_4 
REMARK    3  A    between atoms: C4_4  and  C5_5 
REMARK    4  A    between atoms: C5_5  and  C6_6 
REMARK    5  A    between atoms: C6_6  and  C7_7 
REMARK    6  A    between atoms: C8_8  and  C9_9 
REMARK    7  A    between atoms: C9_9  and  C10_10 
REMARK    8  A    between atoms: C10_10  and  O1_11 
REMARK    9  A    between atoms: C13_17  and  C14_18 
REMARK   10  A    between atoms: C16_20  and  O2_21 
REMARK   11  A    between atoms: C17_23  and  O3_24 
REMARK   12  A    between atoms: C18_26  and  N2_27 
REMARK   13  A    between atoms: N2_27  and  C19_30 
REMARK   14  A    between atoms: C19_30  and  C20_31 
REMARK   15  A    between atoms: C21_34  and  C22_35 
REMARK   16  A    between atoms: C22_35  and  O5_36 
ROOT
HETATM    1  C10 UNL     1      12.566  41.136  -9.029  1.00  0.00     0.128 C 
HETATM    2  C11 UNL     1      13.140  42.386  -9.614  1.00  0.00     0.027 C 
HETATM    3  N1  UNL     1      12.952  43.581  -9.266  1.00  0.00    -0.398 N 
ATOM      4  H1  UNL     1      13.463  44.266  -9.825  1.00  0.00     0.158 HD
HETATM    5  C12 UNL     1      12.167  44.139  -8.247  1.00  0.00     0.145 C 
HETATM    6  C13 UNL     1      13.992  41.960 -10.753  1.00  0.00     0.073 C 
HETATM    7  C16 UNL     1      14.243  40.531 -10.520  1.00  0.00     0.123 C 
HETATM    8  C17 UNL     1      14.487  39.727 -11.780  1.00  0.00     0.189 C 
HETATM    9  C18 UNL     1      13.731  38.452 -11.809  1.00  0.00     0.248 C 
HETATM   10  C21 UNL     1      13.337  37.897 -10.491  1.00  0.00     0.179 C 
HETATM   11  O6  UNL     1      13.121  38.802  -9.495  1.00  0.00    -0.370 OA
HETATM   12  C23 UNL     1      12.912  40.050  -9.976  1.00  0.00     0.200 C 
ENDROOT
BRANCH   1  13
HETATM   13  C9  UNL     1      12.952  40.952  -7.607  1.00  0.00     0.073 C 
BRANCH  13  14
HETATM   14  C8  UNL     1      11.933  40.297  -6.789  1.00  0.00    -0.027 C 
HETATM   15  C7  UNL     1      12.092  39.030  -6.419  1.00  0.00    -0.031 C 
BRANCH  15  16
HETATM   16  C6  UNL     1      11.116  38.299  -5.598  1.00  0.00     0.027 C 
BRANCH  16  17
HETATM   17  C5  UNL     1      10.351  39.226  -4.706  1.00  0.00     0.004 C 
BRANCH  17  18
HETATM   18  C4  UNL     1       9.234  38.528  -3.994  1.00  0.00     0.000 C 
BRANCH  18  19
HETATM   19  C3  UNL     1       8.608  39.535  -3.042  1.00  0.00    -0.000 C 
BRANCH  19  20
HETATM   20  C2  UNL     1       8.370  40.856  -3.760  1.00  0.00    -0.005 C 
HETATM   21  C1  UNL     1       8.094  41.968  -2.758  1.00  0.00     0.005 C 
ENDBRANCH  19  20
ENDBRANCH  18  19
ENDBRANCH  17  18
ENDBRANCH  16  17
ENDBRANCH  15  16
ENDBRANCH  13  14
ENDBRANCH   1  13
BRANCH   1  22
HETATM   22  O1  UNL     1      11.162  41.356  -9.090  1.00  0.00    -0.381 OA
ATOM     23  H1  UNL     1      10.905  41.406 -10.004  1.00  0.00     0.211 HD
ENDBRANCH   1  22
BRANCH   6  24
HETATM   24  C14 UNL     1      15.240  42.800 -10.874  1.00  0.00     0.009 C 
HETATM   25  C15 UNL     1      15.169  43.727 -12.052  1.00  0.00     0.006 C 
ENDBRANCH   6  24
BRANCH   7  26
HETATM   26  O2  UNL     1      15.212  40.260  -9.559  1.00  0.00    -0.384 OA
ATOM     27  H2  UNL     1      14.875  40.139  -8.679  1.00  0.00     0.210 HD
ENDBRANCH   7  26
BRANCH   8  28
HETATM   28  O3  UNL     1      14.123  40.524 -12.888  1.00  0.00    -0.390 OA
ATOM     29  H3  UNL     1      13.562  40.006 -13.454  1.00  0.00     0.210 HD
ENDBRANCH   8  28
BRANCH  10  30
HETATM   30  C22 UNL     1      14.318  36.848  -9.956  1.00  0.00     0.198 C 
BRANCH  30  31
HETATM   31  O5  UNL     1      14.810  37.395  -8.746  1.00  0.00    -0.398 OA
ATOM     32  H5  UNL     1      14.383  38.240  -8.670  1.00  0.00     0.209 HD
ENDBRANCH  30  31
ENDBRANCH  10  30
BRANCH   9  33
HETATM   33  N2  UNL     1      14.447  37.393 -12.530  1.00  0.00    -0.058 N 
ATOM     34  H22 UNL     1      15.452  37.571 -12.540  1.00  0.00     0.278 HD
ATOM     35  H21 UNL     1      14.440  36.520 -12.002  1.00  0.00     0.278 HD
BRANCH  33  36
HETATM   36  C19 UNL     1      13.948  37.196 -13.854  1.00  0.00     0.331 C 
BRANCH  36  37
HETATM   37  C20 UNL     1      13.230  35.898 -13.901  1.00  0.00     0.256 C 
HETATM   38  N3  UNL     1      12.957  35.185 -12.703  1.00  0.00    -0.061 NA
HETATM   39  O4  UNL     1      12.844  35.394 -14.989  1.00  0.00    -0.275 OA
ENDBRANCH  36  37
ENDBRANCH  33  36
ENDBRANCH   9  33
TORSDOF 16
ENDMDL
MODEL 4
REMARK VINA RESULT: -6.516450811      2.428      3.662
REMARK  16 active torsions:
REMARK  status: ('A' for Active; 'I' for Inactive)
REMARK    1  A    between atoms: C2_2  and  C3_3 
REMARK    2  A    between atoms: C3_3  and  C4_4 
REMARK    3  A    between atoms: C4_4  and  C5_5 
REMARK    4  A    between atoms: C5_5  and  C6_6 
REMARK    5  A    between atoms: C6_6  and  C7_7 
REMARK    6  A    between atoms: C8_8  and  C9_9 
REMARK    7  A    between atoms: C9_9  and  C10_10 
REMARK    8  A    between atoms: C10_10  and  O1_11 
REMARK    9  A    between atoms: C13_17  and  C14_18 
REMARK   10  A    between atoms: C16_20  and  O2_21 
REMARK   11  A    between atoms: C17_23  and  O3_24 
REMARK   12  A    between atoms: C18_26  and  N2_27 
REMARK   13  A    between atoms: N2_27  and  C19_30 
REMARK   14  A    between atoms: C19_30  and  C20_31 
REMARK   15  A    between atoms: C21_34  and  C22_35 
REMARK   16  A    between atoms: C22_35  and  O5_36 
ROOT
HETATM    1  C10 UNL     1      14.449  39.958 -11.406  1.00  0.00     0.128 C 
HETATM    2  C11 UNL     1      15.501  40.788 -12.067  1.00  0.00     0.027 C 
HETATM    3  N1  UNL     1      15.901  41.944 -11.769  1.00  0.00    -0.398 N 
ATOM      4  H1  UNL     1      16.639  42.303 -12.376  1.00  0.00     0.158 HD
HETATM    5  C12 UNL     1      15.513  42.827 -10.750  1.00  0.00     0.145 C 
HETATM    6  C13 UNL     1      16.003  39.989 -13.214  1.00  0.00     0.073 C 
HETATM    7  C16 UNL     1      15.582  38.612 -12.924  1.00  0.00     0.123 C 
HETATM    8  C17 UNL     1      15.365  37.755 -14.154  1.00  0.00     0.189 C 
HETATM    9  C18 UNL     1      14.107  36.970 -14.098  1.00  0.00     0.248 C 
HETATM   10  C21 UNL     1      13.571  36.693 -12.743  1.00  0.00     0.179 C 
HETATM   11  O6  UNL     1      13.846  37.620 -11.783  1.00  0.00    -0.370 OA
HETATM   12  C23 UNL     1      14.209  38.812 -12.314  1.00  0.00     0.200 C 
ENDROOT
BRANCH   1  13
HETATM   13  C9  UNL     1      14.780  39.653  -9.991  1.00  0.00     0.073 C 
BRANCH  13  14
HETATM   14  C8  UNL     1      13.641  39.728  -9.079  1.00  0.00    -0.027 C 
HETATM   15  C7  UNL     1      13.220  38.633  -8.452  1.00  0.00    -0.031 C 
BRANCH  15  16
HETATM   16  C6  UNL     1      12.083  38.623  -7.520  1.00  0.00     0.027 C 
BRANCH  16  17
HETATM   17  C5  UNL     1      11.653  40.012  -7.169  1.00  0.00     0.004 C 
BRANCH  17  18
HETATM   18  C4  UNL     1      10.986  40.075  -5.830  1.00  0.00     0.000 C 
BRANCH  18  19
HETATM   19  C3  UNL     1      10.780  38.643  -5.361  1.00  0.00    -0.000 C 
BRANCH  19  20
HETATM   20  C2  UNL     1      10.338  38.628  -3.905  1.00  0.00    -0.005 C 
HETATM   21  C1  UNL     1       8.851  38.928  -3.793  1.00  0.00     0.005 C 
ENDBRANCH  19  20
ENDBRANCH  18  19
ENDBRANCH  17  18
ENDBRANCH  16  17
ENDBRANCH  15  16
ENDBRANCH  13  14
ENDBRANCH   1  13
BRANCH   1  22
HETATM   22  O1  UNL     1      13.301  40.798 -11.429  1.00  0.00    -0.381 OA
ATOM     23  H1  UNL     1      12.573  40.324 -11.044  1.00  0.00     0.211 HD
ENDBRANCH   1  22
BRANCH   6  24
HETATM   24  C14 UNL     1      17.489  40.158 -13.417  1.00  0.00     0.009 C 
HETATM   25  C15 UNL     1      17.790  40.962 -14.647  1.00  0.00     0.006 C 
ENDBRANCH   6  24
BRANCH   7  26
HETATM   26  O2  UNL     1      16.367  37.950 -11.986  1.00  0.00    -0.384 OA
ATOM     27  H2  UNL     1      16.449  37.014 -12.128  1.00  0.00     0.210 HD
ENDBRANCH   7  26
BRANCH   8  28
HETATM   28  O3  UNL     1      15.350  38.602 -15.284  1.00  0.00    -0.390 OA
ATOM     29  H3  UNL     1      16.249  38.812 -15.509  1.00  0.00     0.210 HD
ENDBRANCH   8  28
BRANCH  10  30
HETATM   30  C22 UNL     1      13.988  35.323 -12.194  1.00  0.00     0.198 C 
BRANCH  30  31
HETATM   31  O5  UNL     1      12.871  34.484 -12.425  1.00  0.00    -0.398 OA
ATOM     32  H5  UNL     1      13.237  33.613 -12.518  1.00  0.00     0.209 HD
ENDBRANCH  30  31
ENDBRANCH  10  30
BRANCH   9  33
HETATM   33  N2  UNL     1      14.219  35.683 -14.794  1.00  0.00    -0.058 N 
ATOM     34  H22 UNL     1      15.163  35.544 -15.157  1.00  0.00     0.278 HD
ATOM     35  H21 UNL     1      14.181  34.905 -14.135  1.00  0.00     0.278 HD
BRANCH  33  36
HETATM   36  C19 UNL     1      13.244  35.530 -15.826  1.00  0.00     0.331 C 
BRANCH  36  37
HETATM   37  C20 UNL     1      13.766  36.155 -17.067  1.00  0.00     0.256 C 
HETATM   38  N3  UNL     1      15.153  36.099 -17.370  1.00  0.00    -0.061 NA
HETATM   39  O4  UNL     1      13.007  36.748 -17.880  1.00  0.00    -0.275 OA
ENDBRANCH  36  37
ENDBRANCH  33  36
ENDBRANCH   9  33
TORSDOF 16
ENDMDL
MODEL 5
REMARK VINA RESULT: -6.391926465      3.125      4.663
REMARK  16 active torsions:
REMARK  status: ('A' for Active; 'I' for Inactive)
REMARK    1  A    between atoms: C2_2  and  C3_3 
REMARK    2  A    between atoms: C3_3  and  C4_4 
REMARK    3  A    between atoms: C4_4  and  C5_5 
REMARK    4  A    between atoms: C5_5  and  C6_6 
REMARK    5  A    between atoms: C6_6  and  C7_7 
REMARK    6  A    between atoms: C8_8  and  C9_9 
REMARK    7  A    between atoms: C9_9  and  C10_10 
REMARK    8  A    between atoms: C10_10  and  O1_11 
REMARK    9  A    between atoms: C13_17  and  C14_18 
REMARK   10  A    between atoms: C16_20  and  O2_21 
REMARK   11  A    between atoms: C17_23  and  O3_24 
REMARK   12  A    between atoms: C18_26  and  N2_27 
REMARK   13  A    between atoms: N2_27  and  C19_30 
REMARK   14  A    between atoms: C19_30  and  C20_31 
REMARK   15  A    between atoms: C21_34  and  C22_35 
REMARK   16  A    between atoms: C22_35  and  O5_36 
ROOT
HETATM    1  C10 UNL     1      14.872  40.558 -12.199  1.00  0.00     0.128 C 
HETATM    2  C11 UNL     1      16.124  41.076 -12.830  1.00  0.00     0.027 C 
HETATM    3  N1  UNL     1      16.666  42.205 -12.702  1.00  0.00    -0.398 N 
ATOM      4  H1  UNL     1      17.525  42.322 -13.240  1.00  0.00     0.158 HD
HETATM    5  C12 UNL     1      16.298  43.332 -11.951  1.00  0.00     0.145 C 
HETATM    6  C13 UNL     1      16.633  39.988 -13.703  1.00  0.00     0.073 C 
HETATM    7  C16 UNL     1      15.957  38.775 -13.223  1.00  0.00     0.123 C 
HETATM    8  C17 UNL     1      15.765  37.708 -14.280  1.00  0.00     0.189 C 
HETATM    9  C18 UNL     1      14.400  37.129 -14.277  1.00  0.00     0.248 C 
HETATM   10  C21 UNL     1      13.653  37.226 -12.999  1.00  0.00     0.179 C 
HETATM   11  O6  UNL     1      13.948  38.295 -12.207  1.00  0.00    -0.370 OA
HETATM   12  C23 UNL     1      14.568  39.284 -12.893  1.00  0.00     0.200 C 
ENDROOT
BRANCH   1  13
HETATM   13  C9  UNL     1      14.962  40.525 -10.718  1.00  0.00     0.073 C 
BRANCH  13  14
HETATM   14  C8  UNL     1      13.861  41.203 -10.037  1.00  0.00    -0.027 C 
HETATM   15  C7  UNL     1      14.050  41.728  -8.830  1.00  0.00    -0.031 C 
BRANCH  15  16
HETATM   16  C6  UNL     1      12.997  42.426  -8.077  1.00  0.00     0.027 C 
BRANCH  16  17
HETATM   17  C5  UNL     1      11.810  41.541  -7.853  1.00  0.00     0.004 C 
BRANCH  17  18
HETATM   18  C4  UNL     1      11.994  40.640  -6.672  1.00  0.00     0.000 C 
BRANCH  18  19
HETATM   19  C3  UNL     1      11.600  39.238  -7.109  1.00  0.00    -0.000 C 
BRANCH  19  20
HETATM   20  C2  UNL     1      12.842  38.431  -7.461  1.00  0.00    -0.005 C 
HETATM   21  C1  UNL     1      12.820  38.023  -8.927  1.00  0.00     0.005 C 
ENDBRANCH  19  20
ENDBRANCH  18  19
ENDBRANCH  17  18
ENDBRANCH  16  17
ENDBRANCH  15  16
ENDBRANCH  13  14
ENDBRANCH   1  13
BRANCH   1  22
HETATM   22  O1  UNL     1      13.891  41.517 -12.572  1.00  0.00    -0.381 OA
ATOM     23  H1  UNL     1      14.276  42.384 -12.506  1.00  0.00     0.211 HD
ENDBRANCH   1  22
BRANCH   6  24
HETATM   24  C14 UNL     1      18.141  39.908 -13.692  1.00  0.00     0.009 C 
HETATM   25  C15 UNL     1      18.728  40.383 -14.988  1.00  0.00     0.006 C 
ENDBRANCH   6  24
BRANCH   7  26
HETATM   26  O2  UNL     1      16.494  38.233 -12.059  1.00  0.00    -0.384 OA
ATOM     27  H2  UNL     1      15.867  37.780 -11.507  1.00  0.00     0.210 HD
ENDBRANCH   7  26
BRANCH   8  28
HETATM   28  O3  UNL     1      16.037  38.284 -15.541  1.00  0.00    -0.390 OA
ATOM     29  H3  UNL     1      15.224  38.627 -15.892  1.00  0.00     0.210 HD
ENDBRANCH   8  28
BRANCH  10  30
HETATM   30  C22 UNL     1      13.764  35.966 -12.134  1.00  0.00     0.198 C 
BRANCH  30  31
HETATM   31  O5  UNL     1      12.511  35.320 -12.270  1.00  0.00    -0.398 OA
ATOM     32  H5  UNL     1      12.207  35.189 -11.380  1.00  0.00     0.209 HD
ENDBRANCH  30  31
ENDBRANCH  10  30
BRANCH   9  33
HETATM   33  N2  UNL     1      14.389  35.718 -14.682  1.00  0.00    -0.058 N 
ATOM     34  H22 UNL     1      15.313  35.421 -14.998  1.00  0.00     0.278 HD
ATOM     35  H21 UNL     1      14.287  35.106 -13.872  1.00  0.00     0.278 HD
BRANCH  33  36
HETATM   36  C19 UNL     1      13.394  35.437 -15.667  1.00  0.00     0.331 C 
BRANCH  36  37
HETATM   37  C20 UNL     1      13.837  36.010 -16.963  1.00  0.00     0.256 C 
HETATM   38  N3  UNL     1      15.175  35.834 -17.406  1.00  0.00    -0.061 NA
HETATM   39  O4  UNL     1      13.051  36.662 -17.701  1.00  0.00    -0.275 OA
ENDBRANCH  36  37
ENDBRANCH  33  36
ENDBRANCH   9  33
TORSDOF 16
ENDMDL
