MODEL 1
REMARK VINA RESULT: -8.653814294      0.000      0.000
REMARK  7 active torsions:
REMARK  status: ('A' for Active; 'I' for Inactive)
REMARK    1  A    between atoms: O1_2  and  C2_3 
REMARK    2  A    between atoms: C2_3  and  C3_4 
REMARK    3  A    between atoms: C2_3  and  C8_9 
REMARK    4  A    between atoms: C4_5  and  C5_6 
REMARK    5  A    between atoms: C11_12  and  O2_13 
REMARK    6  A    between atoms: C14_17  and  O3_18 
REMARK    7  A    between atoms: N1_22  and  O4_24 
ROOT
HETATM    1  C8  UNL     1       0.115  34.567  45.703  1.00  0.00     0.017 A 
HETATM    2  C9  UNL     1       0.427  35.892  45.667  1.00  0.00    -0.016 A 
HETATM    3  C10 UNL     1       0.263  36.713  44.445  1.00  0.00     0.052 C 
HETATM    4  C11 UNL     1       0.928  36.469  46.838  1.00  0.00     0.087 A 
HETATM    5  C12 UNL     1       1.109  35.745  48.003  1.00  0.00     0.059 A 
HETATM    6  C13 UNL     1       0.793  34.403  48.040  1.00  0.00    -0.002 A 
HETATM    7  C14 UNL     1       0.303  33.841  46.890  1.00  0.00     0.083 A 
HETATM    8  C15 UNL     1       1.052  33.805  49.361  1.00  0.00     0.106 A 
HETATM    9  C16 UNL     1       1.575  34.898  50.195  1.00  0.00     0.087 A 
HETATM   10  N1  UNL     1       1.926  34.778  51.436  1.00  0.00    -0.269 N 
ATOM     11  H1  UNL     1       1.850  33.875  51.905  1.00  0.00     0.194 HD
HETATM   12  C17 UNL     1       1.601  36.079  49.341  1.00  0.00     0.210 A 
HETATM   13  O5  UNL     1       1.990  37.199  49.718  1.00  0.00    -0.285 OA
ENDROOT
BRANCH   1  14
HETATM   14  C2  UNL     1      -0.434  33.871  44.513  1.00  0.00     0.179 C 
BRANCH  14  15
HETATM   15  O1  UNL     1       0.523  33.024  43.933  1.00  0.00    -0.382 OA
HETATM   16  C1  UNL     1      -0.004  31.833  43.474  1.00  0.00     0.202 C 
ENDBRANCH  14  15
BRANCH  14  17
HETATM   17  C3  UNL     1      -1.029  34.777  43.508  1.00  0.00     0.006 C 
HETATM   18  C4  UNL     1      -2.233  34.597  42.982  1.00  0.00    -0.024 C 
BRANCH  18  19
HETATM   19  C5  UNL     1      -2.830  35.496  41.980  1.00  0.00    -0.000 C 
HETATM   20  C6  UNL     1      -1.819  36.247  41.180  1.00  0.00     0.013 C 
HETATM   21  C7  UNL     1      -3.775  34.789  41.038  1.00  0.00     0.013 C 
ENDBRANCH  18  19
ENDBRANCH  14  17
ENDBRANCH   1  14
BRANCH   7  22
HETATM   22  O3  UNL     1      -0.029  32.488  46.888  1.00  0.00    -0.359 OA
ATOM     23  H3  UNL     1      -0.531  32.151  47.620  1.00  0.00     0.217 HD
ENDBRANCH   7  22
BRANCH   4  24
HETATM   24  O2  UNL     1       1.237  37.812  46.781  1.00  0.00    -0.359 OA
ATOM     25  H2  UNL     1       2.150  38.032  46.634  1.00  0.00     0.217 HD
ENDBRANCH   4  24
BRANCH  10  26
HETATM   26  O4  UNL     1       2.405  35.878  52.123  1.00  0.00    -0.290 OA
ATOM     27  H4  UNL     1       3.255  35.836  52.546  1.00  0.00     0.244 HD
ENDBRANCH  10  26
TORSDOF 7
ENDMDL
MODEL 2
REMARK VINA RESULT: -8.537720319      4.943      8.568
REMARK  7 active torsions:
REMARK  status: ('A' for Active; 'I' for Inactive)
REMARK    1  A    between atoms: O1_2  and  C2_3 
REMARK    2  A    between atoms: C2_3  and  C3_4 
REMARK    3  A    between atoms: C2_3  and  C8_9 
REMARK    4  A    between atoms: C4_5  and  C5_6 
REMARK    5  A    between atoms: C11_12  and  O2_13 
REMARK    6  A    between atoms: C14_17  and  O3_18 
REMARK    7  A    between atoms: N1_22  and  O4_24 
ROOT
HETATM    1  C8  UNL     1      -1.877  36.024  42.374  1.00  0.00     0.017 A 
HETATM    2  C9  UNL     1      -1.106  37.067  41.955  1.00  0.00    -0.016 A 
HETATM    3  C10 UNL     1      -0.128  37.737  42.843  1.00  0.00     0.052 C 
HETATM    4  C11 UNL     1      -1.273  37.503  40.638  1.00  0.00     0.087 A 
HETATM    5  C12 UNL     1      -2.179  36.918  39.772  1.00  0.00     0.059 A 
HETATM    6  C13 UNL     1      -2.960  35.863  40.195  1.00  0.00    -0.002 A 
HETATM    7  C14 UNL     1      -2.794  35.437  41.487  1.00  0.00     0.083 A 
HETATM    8  C15 UNL     1      -3.860  35.374  39.136  1.00  0.00     0.106 A 
HETATM    9  C16 UNL     1      -3.590  36.222  37.964  1.00  0.00     0.087 A 
HETATM   10  N1  UNL     1      -4.184  36.110  36.818  1.00  0.00    -0.269 N 
ATOM     11  H1  UNL     1      -4.896  35.394  36.679  1.00  0.00     0.194 HD
HETATM   12  C17 UNL     1      -2.555  37.162  38.377  1.00  0.00     0.210 A 
HETATM   13  O5  UNL     1      -2.076  38.036  37.633  1.00  0.00    -0.285 OA
ENDROOT
BRANCH   1  14
HETATM   14  C2  UNL     1      -1.760  35.484  43.751  1.00  0.00     0.179 C 
BRANCH  14  15
HETATM   15  O1  UNL     1      -1.390  36.486  44.661  1.00  0.00    -0.382 OA
HETATM   16  C1  UNL     1      -1.985  36.351  45.900  1.00  0.00     0.202 C 
ENDBRANCH  14  15
BRANCH  14  17
HETATM   17  C3  UNL     1      -0.877  34.304  43.862  1.00  0.00     0.006 C 
HETATM   18  C4  UNL     1      -1.297  33.057  43.698  1.00  0.00    -0.024 C 
BRANCH  18  19
HETATM   19  C5  UNL     1      -0.420  31.878  43.809  1.00  0.00    -0.000 C 
HETATM   20  C6  UNL     1       0.111  31.661  45.186  1.00  0.00     0.013 C 
HETATM   21  C7  UNL     1      -1.076  30.606  43.328  1.00  0.00     0.013 C 
ENDBRANCH  18  19
ENDBRANCH  14  17
ENDBRANCH   1  14
BRANCH   7  22
HETATM   22  O3  UNL     1      -3.563  34.374  41.952  1.00  0.00    -0.359 OA
ATOM     23  H3  UNL     1      -3.795  33.688  41.336  1.00  0.00     0.217 HD
ENDBRANCH   7  22
BRANCH   4  24
HETATM   24  O2  UNL     1      -0.483  38.559  40.233  1.00  0.00    -0.359 OA
ATOM     25  H2  UNL     1      -0.914  39.247  39.738  1.00  0.00     0.217 HD
ENDBRANCH   4  24
BRANCH  10  26
HETATM   26  O4  UNL     1      -3.847  36.965  35.785  1.00  0.00    -0.290 OA
ATOM     27  H4  UNL     1      -3.415  36.622  35.012  1.00  0.00     0.244 HD
ENDBRANCH  10  26
TORSDOF 7
ENDMDL
MODEL 3
REMARK VINA RESULT: -8.283463605      4.798      8.359
REMARK  7 active torsions:
REMARK  status: ('A' for Active; 'I' for Inactive)
REMARK    1  A    between atoms: O1_2  and  C2_3 
REMARK    2  A    between atoms: C2_3  and  C3_4 
REMARK    3  A    between atoms: C2_3  and  C8_9 
REMARK    4  A    between atoms: C4_5  and  C5_6 
REMARK    5  A    between atoms: C11_12  and  O2_13 
REMARK    6  A    between atoms: C14_17  and  O3_18 
REMARK    7  A    between atoms: N1_22  and  O4_24 
ROOT
HETATM    1  C8  UNL     1      -2.272  35.813  42.269  1.00  0.00     0.017 A 
HETATM    2  C9  UNL     1      -2.979  35.307  41.219  1.00  0.00    -0.016 A 
HETATM    3  C10 UNL     1      -3.857  34.122  41.350  1.00  0.00     0.052 C 
HETATM    4  C11 UNL     1      -2.842  35.947  39.983  1.00  0.00     0.087 A 
HETATM    5  C12 UNL     1      -2.029  37.051  39.805  1.00  0.00     0.059 A 
HETATM    6  C13 UNL     1      -1.314  37.563  40.867  1.00  0.00    -0.002 A 
HETATM    7  C14 UNL     1      -1.449  36.934  42.077  1.00  0.00     0.083 A 
HETATM    8  C15 UNL     1      -0.507  38.735  40.484  1.00  0.00     0.106 A 
HETATM    9  C16 UNL     1      -0.767  38.944  39.052  1.00  0.00     0.087 A 
HETATM   10  N1  UNL     1      -0.241  39.886  38.334  1.00  0.00    -0.269 N 
ATOM     11  H1  UNL     1       0.406  40.551  38.758  1.00  0.00     0.194 HD
HETATM   12  C17 UNL     1      -1.704  37.899  38.656  1.00  0.00     0.210 A 
HETATM   13  O5  UNL     1      -2.148  37.768  37.502  1.00  0.00    -0.285 OA
ENDROOT
BRANCH   1  14
HETATM   14  C2  UNL     1      -2.363  35.209  43.621  1.00  0.00     0.179 C 
BRANCH  14  15
HETATM   15  O1  UNL     1      -2.382  36.195  44.618  1.00  0.00    -0.382 OA
HETATM   16  C1  UNL     1      -1.762  35.805  45.789  1.00  0.00     0.202 C 
ENDBRANCH  14  15
BRANCH  14  17
HETATM   17  C3  UNL     1      -1.331  34.188  43.895  1.00  0.00     0.006 C 
HETATM   18  C4  UNL     1      -1.472  32.904  43.592  1.00  0.00    -0.024 C 
BRANCH  18  19
HETATM   19  C5  UNL     1      -0.445  31.883  43.864  1.00  0.00    -0.000 C 
HETATM   20  C6  UNL     1      -0.016  31.839  45.292  1.00  0.00     0.013 C 
HETATM   21  C7  UNL     1      -0.860  30.497  43.432  1.00  0.00     0.013 C 
ENDBRANCH  18  19
ENDBRANCH  14  17
ENDBRANCH   1  14
BRANCH   7  22
HETATM   22  O3  UNL     1      -0.743  37.421  43.175  1.00  0.00    -0.359 OA
ATOM     23  H3  UNL     1      -0.488  38.336  43.169  1.00  0.00     0.217 HD
ENDBRANCH   7  22
BRANCH   4  24
HETATM   24  O2  UNL     1      -3.567  35.420  38.933  1.00  0.00    -0.359 OA
ATOM     25  H2  UNL     1      -4.024  36.042  38.379  1.00  0.00     0.217 HD
ENDBRANCH   4  24
BRANCH  10  26
HETATM   26  O4  UNL     1      -0.560  39.985  36.993  1.00  0.00    -0.290 OA
ATOM     27  H4  UNL     1      -0.244  39.328  36.383  1.00  0.00     0.244 HD
ENDBRANCH  10  26
TORSDOF 7
ENDMDL
MODEL 4
REMARK VINA RESULT: -8.159015613      2.021      3.095
REMARK  7 active torsions:
REMARK  status: ('A' for Active; 'I' for Inactive)
REMARK    1  A    between atoms: O1_2  and  C2_3 
REMARK    2  A    between atoms: C2_3  and  C3_4 
REMARK    3  A    between atoms: C2_3  and  C8_9 
REMARK    4  A    between atoms: C4_5  and  C5_6 
REMARK    5  A    between atoms: C11_12  and  O2_13 
REMARK    6  A    between atoms: C14_17  and  O3_18 
REMARK    7  A    between atoms: N1_22  and  O4_24 
ROOT
HETATM    1  C8  UNL     1      -1.996  35.103  43.827  1.00  0.00     0.017 A 
HETATM    2  C9  UNL     1      -1.957  36.366  44.337  1.00  0.00    -0.016 A 
HETATM    3  C10 UNL     1      -2.676  37.498  43.709  1.00  0.00     0.052 C 
HETATM    4  C11 UNL     1      -1.195  36.572  45.491  1.00  0.00     0.087 A 
HETATM    5  C12 UNL     1      -0.497  35.551  46.111  1.00  0.00     0.059 A 
HETATM    6  C13 UNL     1      -0.536  34.273  45.595  1.00  0.00    -0.002 A 
HETATM    7  C14 UNL     1      -1.284  34.075  44.464  1.00  0.00     0.083 A 
HETATM    8  C15 UNL     1       0.265  33.325  46.389  1.00  0.00     0.106 A 
HETATM    9  C16 UNL     1       0.839  34.116  47.488  1.00  0.00     0.087 A 
HETATM   10  N1  UNL     1       1.612  33.643  48.414  1.00  0.00    -0.269 N 
ATOM     11  H1  UNL     1       1.864  32.655  48.415  1.00  0.00     0.194 HD
HETATM   12  C17 UNL     1       0.358  35.479  47.298  1.00  0.00     0.210 A 
HETATM   13  O5  UNL     1       0.646  36.427  48.049  1.00  0.00    -0.285 OA
ENDROOT
BRANCH   1  14
HETATM   14  C2  UNL     1      -2.788  34.787  42.613  1.00  0.00     0.179 C 
BRANCH  14  15
HETATM   15  O1  UNL     1      -3.208  33.448  42.615  1.00  0.00    -0.382 OA
HETATM   16  C1  UNL     1      -3.942  33.101  41.497  1.00  0.00     0.202 C 
ENDBRANCH  14  15
BRANCH  14  17
HETATM   17  C3  UNL     1      -2.112  35.136  41.346  1.00  0.00     0.006 C 
HETATM   18  C4  UNL     1      -2.638  35.943  40.433  1.00  0.00    -0.024 C 
BRANCH  18  19
HETATM   19  C5  UNL     1      -1.969  36.293  39.169  1.00  0.00    -0.000 C 
HETATM   20  C6  UNL     1      -2.918  36.666  38.079  1.00  0.00     0.013 C 
HETATM   21  C7  UNL     1      -0.945  37.391  39.325  1.00  0.00     0.013 C 
ENDBRANCH  18  19
ENDBRANCH  14  17
ENDBRANCH   1  14
BRANCH   7  22
HETATM   22  O3  UNL     1      -1.349  32.797  43.912  1.00  0.00    -0.359 OA
ATOM     23  H3  UNL     1      -1.525  32.068  44.495  1.00  0.00     0.217 HD
ENDBRANCH   7  22
BRANCH   4  24
HETATM   24  O2  UNL     1      -1.169  37.857  45.992  1.00  0.00    -0.359 OA
ATOM     25  H2  UNL     1      -1.451  38.548  45.404  1.00  0.00     0.217 HD
ENDBRANCH   4  24
BRANCH  10  26
HETATM   26  O4  UNL     1       2.094  34.484  49.401  1.00  0.00    -0.290 OA
ATOM     27  H4  UNL     1       1.788  35.382  49.446  1.00  0.00     0.244 HD
ENDBRANCH  10  26
TORSDOF 7
ENDMDL
MODEL 5
REMARK VINA RESULT: -8.157821474      1.500      3.117
REMARK  7 active torsions:
REMARK  status: ('A' for Active; 'I' for Inactive)
REMARK    1  A    between atoms: O1_2  and  C2_3 
REMARK    2  A    between atoms: C2_3  and  C3_4 
REMARK    3  A    between atoms: C2_3  and  C8_9 
REMARK    4  A    between atoms: C4_5  and  C5_6 
REMARK    5  A    between atoms: C11_12  and  O2_13 
REMARK    6  A    between atoms: C14_17  and  O3_18 
REMARK    7  A    between atoms: N1_22  and  O4_24 
ROOT
HETATM    1  C8  UNL     1      -0.169  35.577  44.626  1.00  0.00     0.017 A 
HETATM    2  C9  UNL     1      -0.047  34.232  44.806  1.00  0.00    -0.016 A 
HETATM    3  C10 UNL     1      -0.296  33.259  43.717  1.00  0.00     0.052 C 
HETATM    4  C11 UNL     1       0.319  33.782  46.078  1.00  0.00     0.087 A 
HETATM    5  C12 UNL     1       0.555  34.647  47.132  1.00  0.00     0.059 A 
HETATM    6  C13 UNL     1       0.431  36.009  46.950  1.00  0.00    -0.002 A 
HETATM    7  C14 UNL     1       0.071  36.446  45.702  1.00  0.00     0.083 A 
HETATM    8  C15 UNL     1       0.720  36.765  48.182  1.00  0.00     0.106 A 
HETATM    9  C16 UNL     1       1.048  35.755  49.199  1.00  0.00     0.087 A 
HETATM   10  N1  UNL     1       1.364  36.018  50.427  1.00  0.00    -0.269 N 
ATOM     11  H1  UNL     1       1.398  36.984  50.751  1.00  0.00     0.194 HD
HETATM   12  C17 UNL     1       0.941  34.462  48.532  1.00  0.00     0.210 A 
HETATM   13  O5  UNL     1       1.152  33.373  49.094  1.00  0.00    -0.285 OA
ENDROOT
BRANCH   1  14
HETATM   14  C2  UNL     1      -0.541  36.147  43.308  1.00  0.00     0.179 C 
BRANCH  14  15
HETATM   15  O1  UNL     1      -0.271  37.523  43.255  1.00  0.00    -0.382 OA
HETATM   16  C1  UNL     1      -0.872  38.161  42.187  1.00  0.00     0.202 C 
ENDBRANCH  14  15
BRANCH  14  17
HETATM   17  C3  UNL     1      -1.931  35.857  42.897  1.00  0.00     0.006 C 
HETATM   18  C4  UNL     1      -2.242  35.121  41.839  1.00  0.00    -0.024 C 
BRANCH  18  19
HETATM   19  C5  UNL     1      -3.626  34.830  41.425  1.00  0.00    -0.000 C 
HETATM   20  C6  UNL     1      -3.889  35.124  39.986  1.00  0.00     0.013 C 
HETATM   21  C7  UNL     1      -4.046  33.410  41.721  1.00  0.00     0.013 C 
ENDBRANCH  18  19
ENDBRANCH  14  17
ENDBRANCH   1  14
BRANCH   7  22
HETATM   22  O3  UNL     1      -0.064  37.814  45.479  1.00  0.00    -0.359 OA
ATOM     23  H3  UNL     1       0.617  38.389  45.808  1.00  0.00     0.217 HD
ENDBRANCH   7  22
BRANCH   4  24
HETATM   24  O2  UNL     1       0.439  32.417  46.240  1.00  0.00    -0.359 OA
ATOM     25  H2  UNL     1      -0.104  32.020  46.911  1.00  0.00     0.217 HD
ENDBRANCH   4  24
BRANCH  10  26
HETATM   26  O4  UNL     1       1.655  34.984  51.297  1.00  0.00    -0.290 OA
ATOM     27  H4  UNL     1       2.322  35.101  51.963  1.00  0.00     0.244 HD
ENDBRANCH  10  26
TORSDOF 7
ENDMDL
