MODEL 1
REMARK VINA RESULT: -7.457726124      0.000      0.000
REMARK  10 active torsions:
REMARK  status: ('A' for Active; 'I' for Inactive)
REMARK    1  A    between atoms: C2_2  and  N1_3 
REMARK    2  A    between atoms: N1_3  and  C3_4 
REMARK    3  A    between atoms: N1_3  and  C5_6 
REMARK    4  A    between atoms: C5_6  and  O1_7 
REMARK    5  A    between atoms: C5_6  and  N2_9 
REMARK    6  A    between atoms: N3_12  and  C8_13 
REMARK    7  A    between atoms: C8_13  and  N4_15 
REMARK    8  A    between atoms: N4_15  and  C9_17 
REMARK    9  A    between atoms: C9_17  and  C12_20 
REMARK   10  A    between atoms: C12_20  and  C13_21 
ROOT
HETATM    1  N2  UNL     1     115.003 126.330 177.473  1.00  0.00    -0.344 N 
HETATM    2  C6  UNL     1     116.021 126.261 178.557  1.00  0.00     0.146 C 
HETATM    3  C7  UNL     1     115.656 125.188 179.542  1.00  0.00     0.145 C 
HETATM    4  N3  UNL     1     114.344 125.621 180.075  1.00  0.00    -0.355 N 
HETATM    5  C16 UNL     1     113.287 125.614 179.127  1.00  0.00     0.145 C 
HETATM    6  C17 UNL     1     113.641 126.068 177.729  1.00  0.00     0.146 C 
ENDROOT
BRANCH   4   7
HETATM    7  C8  UNL     1     114.252 125.998 181.449  1.00  0.00     0.170 C 
HETATM    8  S1  UNL     1     114.680 124.879 182.564  1.00  0.00    -0.041 SA
BRANCH   7   9
HETATM    9  N4  UNL     1     113.810 127.282 181.795  1.00  0.00    -0.359 N 
ATOM     10  H4  UNL     1     112.811 127.460 181.896  1.00  0.00     0.162 HD
BRANCH   9  11
HETATM   11  C9  UNL     1     114.753 128.363 182.011  1.00  0.00     0.025 C 
HETATM   12  C10 UNL     1     116.107 127.921 182.464  1.00  0.00     0.038 C 
HETATM   13  C11 UNL     1     114.168 129.196 183.163  1.00  0.00     0.038 C 
BRANCH  11  14
HETATM   14  C12 UNL     1     114.847 129.271 180.841  1.00  0.00     0.034 C 
BRANCH  14  15
HETATM   15  C13 UNL     1     114.472 130.689 181.039  1.00  0.00    -0.020 C 
HETATM   16  C14 UNL     1     115.777 131.498 180.913  1.00  0.00     0.009 C 
HETATM   17  C15 UNL     1     113.532 131.293 180.062  1.00  0.00     0.009 C 
ENDBRANCH  14  15
ENDBRANCH  11  14
ENDBRANCH   9  11
ENDBRANCH   7   9
ENDBRANCH   4   7
BRANCH   1  18
HETATM   18  C5  UNL     1     115.502 126.697 176.212  1.00  0.00     0.217 C 
BRANCH  18  19
HETATM   19  N1  UNL     1     116.349 127.717 175.786  1.00  0.00    -0.348 N 
BRANCH  19  20
HETATM   20  C2  UNL     1     117.648 127.288 175.180  1.00  0.00     0.122 C 
HETATM   21  C1  UNL     1     118.452 126.518 176.177  1.00  0.00     0.026 C 
ENDBRANCH  19  20
BRANCH  19  22
HETATM   22  C3  UNL     1     116.120 129.121 175.820  1.00  0.00     0.122 C 
HETATM   23  C4  UNL     1     115.775 129.622 177.217  1.00  0.00     0.026 C 
ENDBRANCH  19  22
ENDBRANCH  18  19
BRANCH  18  24
HETATM   24  O1  UNL     1     115.077 125.908 175.232  1.00  0.00    -0.333 OA
ATOM     25  H1  UNL     1     114.147 125.715 175.270  1.00  0.00     0.220 HD
ENDBRANCH  18  24
ENDBRANCH   1  18
TORSDOF 10
ENDMDL
MODEL 2
REMARK VINA RESULT: -7.400930696      0.301      1.486
REMARK  10 active torsions:
REMARK  status: ('A' for Active; 'I' for Inactive)
REMARK    1  A    between atoms: C2_2  and  N1_3 
REMARK    2  A    between atoms: N1_3  and  C3_4 
REMARK    3  A    between atoms: N1_3  and  C5_6 
REMARK    4  A    between atoms: C5_6  and  O1_7 
REMARK    5  A    between atoms: C5_6  and  N2_9 
REMARK    6  A    between atoms: N3_12  and  C8_13 
REMARK    7  A    between atoms: C8_13  and  N4_15 
REMARK    8  A    between atoms: N4_15  and  C9_17 
REMARK    9  A    between atoms: C9_17  and  C12_20 
REMARK   10  A    between atoms: C12_20  and  C13_21 
ROOT
HETATM    1  N2  UNL     1     114.930 126.311 177.601  1.00  0.00    -0.344 N 
HETATM    2  C6  UNL     1     115.942 126.227 178.688  1.00  0.00     0.146 C 
HETATM    3  C7  UNL     1     115.565 125.152 179.666  1.00  0.00     0.145 C 
HETATM    4  N3  UNL     1     114.256 125.593 180.197  1.00  0.00    -0.355 N 
HETATM    5  C16 UNL     1     113.202 125.600 179.246  1.00  0.00     0.145 C 
HETATM    6  C17 UNL     1     113.564 126.059 177.851  1.00  0.00     0.146 C 
ENDROOT
BRANCH   4   7
HETATM    7  C8  UNL     1     114.162 125.963 181.572  1.00  0.00     0.170 C 
HETATM    8  S1  UNL     1     114.602 124.842 182.682  1.00  0.00    -0.041 SA
BRANCH   7   9
HETATM    9  N4  UNL     1     113.709 127.241 181.925  1.00  0.00    -0.359 N 
ATOM     10  H4  UNL     1     112.712 127.399 182.070  1.00  0.00     0.162 HD
BRANCH   9  11
HETATM   11  C9  UNL     1     114.637 128.343 182.086  1.00  0.00     0.025 C 
HETATM   12  C10 UNL     1     116.003 127.940 182.538  1.00  0.00     0.038 C 
HETATM   13  C11 UNL     1     114.053 129.212 183.212  1.00  0.00     0.038 C 
BRANCH  11  14
HETATM   14  C12 UNL     1     114.702 129.206 180.881  1.00  0.00     0.034 C 
BRANCH  14  15
HETATM   15  C13 UNL     1     114.423 130.649 181.051  1.00  0.00    -0.020 C 
HETATM   16  C14 UNL     1     115.790 131.358 181.010  1.00  0.00     0.009 C 
HETATM   17  C15 UNL     1     113.597 131.316 180.013  1.00  0.00     0.009 C 
ENDBRANCH  14  15
ENDBRANCH  11  14
ENDBRANCH   9  11
ENDBRANCH   7   9
ENDBRANCH   4   7
BRANCH   1  18
HETATM   18  C5  UNL     1     115.435 126.682 176.344  1.00  0.00     0.217 C 
BRANCH  18  19
HETATM   19  N1  UNL     1     116.350 127.649 175.937  1.00  0.00    -0.348 N 
BRANCH  19  20
HETATM   20  C2  UNL     1     116.068 129.052 176.374  1.00  0.00     0.122 C 
HETATM   21  C1  UNL     1     116.093 129.973 175.197  1.00  0.00     0.026 C 
ENDBRANCH  19  20
BRANCH  19  22
HETATM   22  C3  UNL     1     117.546 127.468 175.187  1.00  0.00     0.122 C 
HETATM   23  C4  UNL     1     118.443 126.385 175.773  1.00  0.00     0.026 C 
ENDBRANCH  19  22
ENDBRANCH  18  19
BRANCH  18  24
HETATM   24  O1  UNL     1     114.938 125.960 175.348  1.00  0.00    -0.333 OA
ATOM     25  H1  UNL     1     114.092 125.571 175.539  1.00  0.00     0.220 HD
ENDBRANCH  18  24
ENDBRANCH   1  18
TORSDOF 10
ENDMDL
MODEL 3
REMARK VINA RESULT: -7.399329873      2.284      4.085
REMARK  10 active torsions:
REMARK  status: ('A' for Active; 'I' for Inactive)
REMARK    1  A    between atoms: C2_2  and  N1_3 
REMARK    2  A    between atoms: N1_3  and  C3_4 
REMARK    3  A    between atoms: N1_3  and  C5_6 
REMARK    4  A    between atoms: C5_6  and  O1_7 
REMARK    5  A    between atoms: C5_6  and  N2_9 
REMARK    6  A    between atoms: N3_12  and  C8_13 
REMARK    7  A    between atoms: C8_13  and  N4_15 
REMARK    8  A    between atoms: N4_15  and  C9_17 
REMARK    9  A    between atoms: C9_17  and  C12_20 
REMARK   10  A    between atoms: C12_20  and  C13_21 
ROOT
HETATM    1  N2  UNL     1     116.174 128.325 178.397  1.00  0.00    -0.344 N 
HETATM    2  C6  UNL     1     114.872 128.845 178.896  1.00  0.00     0.146 C 
HETATM    3  C7  UNL     1     115.079 129.642 180.151  1.00  0.00     0.145 C 
HETATM    4  N3  UNL     1     115.659 128.668 181.104  1.00  0.00    -0.355 N 
HETATM    5  C16 UNL     1     116.953 128.199 180.757  1.00  0.00     0.145 C 
HETATM    6  C17 UNL     1     117.202 127.949 179.287  1.00  0.00     0.146 C 
ENDROOT
BRANCH   4   7
HETATM    7  C8  UNL     1     114.897 128.292 182.250  1.00  0.00     0.170 C 
HETATM    8  S1  UNL     1     113.827 129.386 182.831  1.00  0.00    -0.041 SA
BRANCH   7   9
HETATM    9  N4  UNL     1     115.081 127.030 182.831  1.00  0.00    -0.359 N 
ATOM     10  H4  UNL     1     115.845 126.886 183.490  1.00  0.00     0.162 HD
BRANCH   9  11
HETATM   11  C9  UNL     1     114.199 125.925 182.507  1.00  0.00     0.025 C 
HETATM   12  C10 UNL     1     114.808 124.572 182.695  1.00  0.00     0.038 C 
HETATM   13  C11 UNL     1     113.908 126.057 181.003  1.00  0.00     0.038 C 
BRANCH  11  14
HETATM   14  C12 UNL     1     112.890 126.026 183.199  1.00  0.00     0.034 C 
BRANCH  14  15
HETATM   15  C13 UNL     1     111.791 125.157 182.723  1.00  0.00    -0.020 C 
HETATM   16  C14 UNL     1     111.502 124.167 183.867  1.00  0.00     0.009 C 
HETATM   17  C15 UNL     1     110.490 125.803 182.415  1.00  0.00     0.009 C 
ENDBRANCH  14  15
ENDBRANCH  11  14
ENDBRANCH   9  11
ENDBRANCH   7   9
ENDBRANCH   4   7
BRANCH   1  18
HETATM   18  C5  UNL     1     116.276 128.218 177.000  1.00  0.00     0.217 C 
BRANCH  18  19
HETATM   19  N1  UNL     1     116.522 127.146 176.146  1.00  0.00    -0.348 N 
BRANCH  19  20
HETATM   20  C2  UNL     1     117.925 127.007 175.647  1.00  0.00     0.122 C 
HETATM   21  C1  UNL     1     118.728 126.172 176.593  1.00  0.00     0.026 C 
ENDBRANCH  19  20
BRANCH  19  22
HETATM   22  C3  UNL     1     115.614 126.139 175.715  1.00  0.00     0.122 C 
HETATM   23  C4  UNL     1     114.639 125.725 176.811  1.00  0.00     0.026 C 
ENDBRANCH  19  22
ENDBRANCH  18  19
BRANCH  18  24
HETATM   24  O1  UNL     1     116.101 129.375 176.373  1.00  0.00    -0.333 OA
ATOM     25  H1  UNL     1     116.793 130.007 176.531  1.00  0.00     0.220 HD
ENDBRANCH  18  24
ENDBRANCH   1  18
TORSDOF 10
ENDMDL
MODEL 4
REMARK VINA RESULT: -7.329229294      3.314      6.778
REMARK  10 active torsions:
REMARK  status: ('A' for Active; 'I' for Inactive)
REMARK    1  A    between atoms: C2_2  and  N1_3 
REMARK    2  A    between atoms: N1_3  and  C3_4 
REMARK    3  A    between atoms: N1_3  and  C5_6 
REMARK    4  A    between atoms: C5_6  and  O1_7 
REMARK    5  A    between atoms: C5_6  and  N2_9 
REMARK    6  A    between atoms: N3_12  and  C8_13 
REMARK    7  A    between atoms: C8_13  and  N4_15 
REMARK    8  A    between atoms: N4_15  and  C9_17 
REMARK    9  A    between atoms: C9_17  and  C12_20 
REMARK   10  A    between atoms: C12_20  and  C13_21 
ROOT
HETATM    1  N2  UNL     1     113.708 126.306 182.983  1.00  0.00    -0.344 N 
HETATM    2  C6  UNL     1     114.874 126.355 182.060  1.00  0.00     0.146 C 
HETATM    3  C7  UNL     1     115.740 127.538 182.381  1.00  0.00     0.145 C 
HETATM    4  N3  UNL     1     114.851 128.703 182.170  1.00  0.00    -0.355 N 
HETATM    5  C16 UNL     1     113.766 128.793 183.082  1.00  0.00     0.145 C 
HETATM    6  C17 UNL     1     113.105 127.487 183.464  1.00  0.00     0.146 C 
ENDROOT
BRANCH   4   7
HETATM    7  C8  UNL     1     115.144 129.607 181.106  1.00  0.00     0.170 C 
HETATM    8  S1  UNL     1     116.300 130.734 181.376  1.00  0.00    -0.041 SA
BRANCH   7   9
HETATM    9  N4  UNL     1     114.454 129.506 179.890  1.00  0.00    -0.359 N 
ATOM     10  H4  UNL     1     113.480 129.805 179.839  1.00  0.00     0.162 HD
BRANCH   9  11
HETATM   11  C9  UNL     1     115.104 128.984 178.704  1.00  0.00     0.025 C 
HETATM   12  C10 UNL     1     115.299 129.986 177.613  1.00  0.00     0.038 C 
HETATM   13  C11 UNL     1     114.143 127.922 178.142  1.00  0.00     0.038 C 
BRANCH  11  14
HETATM   14  C12 UNL     1     116.371 128.279 179.020  1.00  0.00     0.034 C 
BRANCH  14  15
HETATM   15  C13 UNL     1     116.640 127.001 178.323  1.00  0.00    -0.020 C 
HETATM   16  C14 UNL     1     117.921 127.226 177.497  1.00  0.00     0.009 C 
HETATM   17  C15 UNL     1     116.909 125.806 179.161  1.00  0.00     0.009 C 
ENDBRANCH  14  15
ENDBRANCH  11  14
ENDBRANCH   9  11
ENDBRANCH   7   9
ENDBRANCH   4   7
BRANCH   1  18
HETATM   18  C5  UNL     1     113.254 125.015 183.302  1.00  0.00     0.217 C 
BRANCH  18  19
HETATM   19  N1  UNL     1     111.985 124.476 183.493  1.00  0.00    -0.348 N 
BRANCH  19  20
HETATM   20  C2  UNL     1     111.047 124.565 182.330  1.00  0.00     0.122 C 
HETATM   21  C1  UNL     1     110.082 125.689 182.532  1.00  0.00     0.026 C 
ENDBRANCH  19  20
BRANCH  19  22
HETATM   22  C3  UNL     1     111.475 123.813 184.644  1.00  0.00     0.122 C 
HETATM   23  C4  UNL     1     111.035 122.384 184.347  1.00  0.00     0.026 C 
ENDBRANCH  19  22
ENDBRANCH  18  19
BRANCH  18  24
HETATM   24  O1  UNL     1     114.239 124.137 183.448  1.00  0.00    -0.333 OA
ATOM     25  H1  UNL     1     114.086 123.498 184.134  1.00  0.00     0.220 HD
ENDBRANCH  18  24
ENDBRANCH   1  18
TORSDOF 10
ENDMDL
MODEL 5
REMARK VINA RESULT: -7.310413378      2.685      4.042
REMARK  10 active torsions:
REMARK  status: ('A' for Active; 'I' for Inactive)
REMARK    1  A    between atoms: C2_2  and  N1_3 
REMARK    2  A    between atoms: N1_3  and  C3_4 
REMARK    3  A    between atoms: N1_3  and  C5_6 
REMARK    4  A    between atoms: C5_6  and  O1_7 
REMARK    5  A    between atoms: C5_6  and  N2_9 
REMARK    6  A    between atoms: N3_12  and  C8_13 
REMARK    7  A    between atoms: C8_13  and  N4_15 
REMARK    8  A    between atoms: N4_15  and  C9_17 
REMARK    9  A    between atoms: C9_17  and  C12_20 
REMARK   10  A    between atoms: C12_20  and  C13_21 
ROOT
HETATM    1  N2  UNL     1     115.171 126.357 177.295  1.00  0.00    -0.344 N 
HETATM    2  C6  UNL     1     114.224 125.264 177.647  1.00  0.00     0.146 C 
HETATM    3  C7  UNL     1     113.130 125.791 178.530  1.00  0.00     0.145 C 
HETATM    4  N3  UNL     1     113.843 126.278 179.733  1.00  0.00    -0.355 N 
HETATM    5  C16 UNL     1     114.691 127.394 179.507  1.00  0.00     0.145 C 
HETATM    6  C17 UNL     1     115.464 127.393 178.207  1.00  0.00     0.146 C 
ENDROOT
BRANCH   4   7
HETATM    7  C8  UNL     1     113.628 125.612 180.976  1.00  0.00     0.170 C 
HETATM    8  S1  UNL     1     114.954 125.162 181.825  1.00  0.00    -0.041 SA
BRANCH   7   9
HETATM    9  N4  UNL     1     112.323 125.369 181.425  1.00  0.00    -0.359 N 
ATOM     10  H4  UNL     1     111.645 124.943 180.793  1.00  0.00     0.162 HD
BRANCH   9  11
HETATM   11  C9  UNL     1     111.921 125.715 182.774  1.00  0.00     0.025 C 
HETATM   12  C10 UNL     1     112.657 126.877 183.360  1.00  0.00     0.038 C 
HETATM   13  C11 UNL     1     112.288 124.497 183.638  1.00  0.00     0.038 C 
BRANCH  11  14
HETATM   14  C12 UNL     1     110.453 125.890 182.898  1.00  0.00     0.034 C 
BRANCH  14  15
HETATM   15  C13 UNL     1     109.728 124.991 183.822  1.00  0.00    -0.020 C 
HETATM   16  C14 UNL     1     109.018 125.905 184.839  1.00  0.00     0.009 C 
HETATM   17  C15 UNL     1     108.663 124.130 183.249  1.00  0.00     0.009 C 
ENDBRANCH  14  15
ENDBRANCH  11  14
ENDBRANCH   9  11
ENDBRANCH   7   9
ENDBRANCH   4   7
BRANCH   1  18
HETATM   18  C5  UNL     1     115.754 126.253 176.022  1.00  0.00     0.217 C 
BRANCH  18  19
HETATM   19  N1  UNL     1     116.918 126.776 175.465  1.00  0.00    -0.348 N 
BRANCH  19  20
HETATM   20  C2  UNL     1     118.184 126.039 175.768  1.00  0.00     0.122 C 
HETATM   21  C1  UNL     1     118.700 126.434 177.114  1.00  0.00     0.026 C 
ENDBRANCH  19  20
BRANCH  19  22
HETATM   22  C3  UNL     1     117.053 127.905 174.609  1.00  0.00     0.122 C 
HETATM   23  C4  UNL     1     116.362 129.144 175.166  1.00  0.00     0.026 C 
ENDBRANCH  19  22
ENDBRANCH  18  19
BRANCH  18  24
HETATM   24  O1  UNL     1     115.048 125.502 175.185  1.00  0.00    -0.333 OA
ATOM     25  H1  UNL     1     114.448 124.904 175.616  1.00  0.00     0.220 HD
ENDBRANCH  18  24
ENDBRANCH   1  18
TORSDOF 10
ENDMDL
