MODEL 1
REMARK VINA RESULT: -4.263748917      0.000      0.000
REMARK  4 active torsions:
REMARK  status: ('A' for Active; 'I' for Inactive)
REMARK    1  A    between atoms: N1_1  and  C1_5 
REMARK    2  A    between atoms: C1_5  and  C2_6 
REMARK    3  A    between atoms: C2_6  and  N2_7 
REMARK    4  A    between atoms: N2_7  and  C3_9 
ROOT
HETATM    1  C3  UNL     1     -48.501 -22.857   8.955  1.00  0.00     0.144 A 
HETATM    2  N3  UNL     1     -49.165 -23.374  10.002  1.00  0.00    -0.262 N 
ATOM      3  H3  UNL     1     -49.525 -24.327  10.047  1.00  0.00     0.191 HD
HETATM    4  N4  UNL     1     -49.286 -22.469  10.976  1.00  0.00    -0.184 N 
HETATM    5  N5  UNL     1     -49.849 -22.529  12.161  1.00  0.00    -0.229 N 
ATOM      6  H5  UNL     1     -50.291 -23.403  12.445  1.00  0.00     0.194 HD
HETATM    7  C4  UNL     1     -49.869 -21.505  13.006  1.00  0.00     0.343 A 
HETATM    8  O1  UNL     1     -50.407 -21.550  14.148  1.00  0.00    -0.245 OA
HETATM    9  N6  UNL     1     -49.283 -20.333  12.642  1.00  0.00    -0.272 N 
ATOM     10  H6  UNL     1     -49.288 -19.537  13.280  1.00  0.00     0.174 HD
HETATM   11  C5  UNL     1     -48.699 -20.231  11.442  1.00  0.00     0.281 A 
HETATM   12  O2  UNL     1     -48.165 -19.159  11.113  1.00  0.00    -0.265 OA
HETATM   13  C6  UNL     1     -48.698 -21.310  10.595  1.00  0.00     0.171 A 
HETATM   14  C7  UNL     1     -48.204 -21.557   9.321  1.00  0.00     0.127 A 
HETATM   15  N7  UNL     1     -47.504 -20.568   8.564  1.00  0.00    -0.096 NA
ENDROOT
BRANCH   1  16
HETATM   16  N2  UNL     1     -48.176 -23.376   7.837  1.00  0.00    -0.372 N 
ATOM     17  H2  UNL     1     -48.859 -23.320   7.081  1.00  0.00     0.161 HD
BRANCH  16  18
HETATM   18  C2  UNL     1     -46.938 -24.029   7.552  1.00  0.00     0.148 C 
BRANCH  18  19
HETATM   19  C1  UNL     1     -46.199 -23.225   6.509  1.00  0.00     0.249 C 
BRANCH  19  20
HETATM   20  N1  UNL     1     -45.377 -22.192   7.073  1.00  0.00    -0.078 N 
ATOM     21  H13 UNL     1     -45.727 -21.268   6.819  1.00  0.00     0.274 HD
ATOM     22  H12 UNL     1     -45.498 -22.144   8.085  1.00  0.00     0.274 HD
ATOM     23  H11 UNL     1     -44.391 -22.288   6.829  1.00  0.00     0.274 HD
ENDBRANCH  19  20
ENDBRANCH  18  19
ENDBRANCH  16  18
ENDBRANCH   1  16
TORSDOF 4
ENDMDL
MODEL 2
REMARK VINA RESULT: -4.141955774      1.206      1.314
REMARK  4 active torsions:
REMARK  status: ('A' for Active; 'I' for Inactive)
REMARK    1  A    between atoms: N1_1  and  C1_5 
REMARK    2  A    between atoms: C1_5  and  C2_6 
REMARK    3  A    between atoms: C2_6  and  N2_7 
REMARK    4  A    between atoms: N2_7  and  C3_9 
ROOT
HETATM    1  C3  UNL     1     -48.802 -22.949   8.919  1.00  0.00     0.144 A 
HETATM    2  N3  UNL     1     -49.469 -23.385  10.000  1.00  0.00    -0.262 N 
ATOM      3  H3  UNL     1     -49.920 -24.297  10.075  1.00  0.00     0.191 HD
HETATM    4  N4  UNL     1     -49.459 -22.460  10.963  1.00  0.00    -0.184 N 
HETATM    5  N5  UNL     1     -49.975 -22.449  12.171  1.00  0.00    -0.229 N 
ATOM      6  H5  UNL     1     -50.490 -23.271  12.487  1.00  0.00     0.194 HD
HETATM    7  C4  UNL     1     -49.859 -21.417  12.999  1.00  0.00     0.343 A 
HETATM    8  O1  UNL     1     -50.351 -21.395  14.162  1.00  0.00    -0.245 OA
HETATM    9  N6  UNL     1     -49.176 -20.315  12.593  1.00  0.00    -0.272 N 
ATOM     10  H6  UNL     1     -49.076 -19.514  13.217  1.00  0.00     0.174 HD
HETATM   11  C5  UNL     1     -48.635 -20.286  11.368  1.00  0.00     0.281 A 
HETATM   12  O2  UNL     1     -48.012 -19.277  11.001  1.00  0.00    -0.265 OA
HETATM   13  C6  UNL     1     -48.776 -21.370  10.540  1.00  0.00     0.171 A 
HETATM   14  C7  UNL     1     -48.363 -21.681   9.251  1.00  0.00     0.127 A 
HETATM   15  N7  UNL     1     -47.601 -20.776   8.450  1.00  0.00    -0.096 NA
ENDROOT
BRANCH   1  16
HETATM   16  N2  UNL     1     -48.578 -23.511   7.797  1.00  0.00    -0.372 N 
ATOM     17  H2  UNL     1     -47.742 -24.091   7.726  1.00  0.00     0.161 HD
BRANCH  16  18
HETATM   18  C2  UNL     1     -49.397 -23.399   6.632  1.00  0.00     0.148 C 
BRANCH  18  19
HETATM   19  C1  UNL     1     -48.568 -22.807   5.516  1.00  0.00     0.249 C 
BRANCH  19  20
HETATM   20  N1  UNL     1     -48.523 -21.373   5.551  1.00  0.00    -0.078 N 
ATOM     21  H13 UNL     1     -49.211 -20.971   4.914  1.00  0.00     0.274 HD
ATOM     22  H12 UNL     1     -48.887 -21.019   6.435  1.00  0.00     0.274 HD
ATOM     23  H11 UNL     1     -47.592 -20.998   5.365  1.00  0.00     0.274 HD
ENDBRANCH  19  20
ENDBRANCH  18  19
ENDBRANCH  16  18
ENDBRANCH   1  16
TORSDOF 4
ENDMDL
MODEL 3
REMARK VINA RESULT: -4.103478343      2.233      5.677
REMARK  4 active torsions:
REMARK  status: ('A' for Active; 'I' for Inactive)
REMARK    1  A    between atoms: N1_1  and  C1_5 
REMARK    2  A    between atoms: C1_5  and  C2_6 
REMARK    3  A    between atoms: C2_6  and  N2_7 
REMARK    4  A    between atoms: N2_7  and  C3_9 
ROOT
HETATM    1  C3  UNL     1     -50.907 -21.933  12.065  1.00  0.00     0.144 A 
HETATM    2  N3  UNL     1     -50.974 -21.977  10.724  1.00  0.00    -0.262 N 
ATOM      3  H3  UNL     1     -51.824 -22.161  10.191  1.00  0.00     0.191 HD
HETATM    4  N4  UNL     1     -49.774 -21.746  10.186  1.00  0.00    -0.184 N 
HETATM    5  N5  UNL     1     -49.371 -21.693   8.937  1.00  0.00    -0.229 N 
ATOM      6  H5  UNL     1     -50.057 -21.849   8.198  1.00  0.00     0.194 HD
HETATM    7  C4  UNL     1     -48.113 -21.445   8.591  1.00  0.00     0.343 A 
HETATM    8  O1  UNL     1     -47.713 -21.392   7.394  1.00  0.00    -0.245 OA
HETATM    9  N6  UNL     1     -47.187 -21.235   9.565  1.00  0.00    -0.272 N 
ATOM     10  H6  UNL     1     -46.216 -21.042   9.317  1.00  0.00     0.174 HD
HETATM   11  C5  UNL     1     -47.558 -21.281  10.850  1.00  0.00     0.281 A 
HETATM   12  O2  UNL     1     -46.709 -21.089  11.736  1.00  0.00    -0.265 OA
HETATM   13  C6  UNL     1     -48.866 -21.539  11.169  1.00  0.00     0.171 A 
HETATM   14  C7  UNL     1     -49.583 -21.658  12.353  1.00  0.00     0.127 A 
HETATM   15  N7  UNL     1     -48.975 -21.505  13.637  1.00  0.00    -0.096 NA
ENDROOT
BRANCH   1  16
HETATM   16  N2  UNL     1     -51.811 -22.097  12.949  1.00  0.00    -0.372 N 
ATOM     17  H2  UNL     1     -52.076 -23.056  13.173  1.00  0.00     0.161 HD
BRANCH  16  18
HETATM   18  C2  UNL     1     -52.484 -21.051  13.652  1.00  0.00     0.148 C 
BRANCH  18  19
HETATM   19  C1  UNL     1     -52.273 -21.255  15.134  1.00  0.00     0.249 C 
BRANCH  19  20
HETATM   20  N1  UNL     1     -51.100 -20.594  15.630  1.00  0.00    -0.078 N 
ATOM     21  H13 UNL     1     -50.259 -20.953  15.177  1.00  0.00     0.274 HD
ATOM     22  H12 UNL     1     -51.063 -19.628  15.308  1.00  0.00     0.274 HD
ATOM     23  H11 UNL     1     -51.013 -20.642  16.646  1.00  0.00     0.274 HD
ENDBRANCH  19  20
ENDBRANCH  18  19
ENDBRANCH  16  18
ENDBRANCH   1  16
TORSDOF 4
ENDMDL
MODEL 4
REMARK VINA RESULT: -4.075251666      5.983      7.594
REMARK  4 active torsions:
REMARK  status: ('A' for Active; 'I' for Inactive)
REMARK    1  A    between atoms: N1_1  and  C1_5 
REMARK    2  A    between atoms: C1_5  and  C2_6 
REMARK    3  A    between atoms: C2_6  and  N2_7 
REMARK    4  A    between atoms: N2_7  and  C3_9 
ROOT
HETATM    1  C3  UNL     1     -45.370 -18.248   6.209  1.00  0.00     0.144 A 
HETATM    2  N3  UNL     1     -45.192 -16.925   6.058  1.00  0.00    -0.262 N 
ATOM      3  H3  UNL     1     -44.338 -16.422   6.298  1.00  0.00     0.191 HD
HETATM    4  N4  UNL     1     -46.290 -16.359   5.549  1.00  0.00    -0.184 N 
HETATM    5  N5  UNL     1     -46.568 -15.113   5.239  1.00  0.00    -0.229 N 
ATOM      6  H5  UNL     1     -45.852 -14.403   5.393  1.00  0.00     0.194 HD
HETATM    7  C4  UNL     1     -47.737 -14.736   4.734  1.00  0.00     0.343 A 
HETATM    8  O1  UNL     1     -48.016 -13.542   4.431  1.00  0.00    -0.245 OA
HETATM    9  N6  UNL     1     -48.700 -15.672   4.522  1.00  0.00    -0.272 N 
ATOM     10  H6  UNL     1     -49.604 -15.399   4.134  1.00  0.00     0.174 HD
HETATM   11  C5  UNL     1     -48.456 -16.952   4.826  1.00  0.00     0.281 A 
HETATM   12  O2  UNL     1     -49.339 -17.804   4.632  1.00  0.00    -0.265 OA
HETATM   13  C6  UNL     1     -47.237 -17.305   5.346  1.00  0.00     0.171 A 
HETATM   14  C7  UNL     1     -46.655 -18.495   5.763  1.00  0.00     0.127 A 
HETATM   15  N7  UNL     1     -47.342 -19.746   5.708  1.00  0.00    -0.096 NA
ENDROOT
BRANCH   1  16
HETATM   16  N2  UNL     1     -44.584 -19.147   6.655  1.00  0.00    -0.372 N 
ATOM     17  H2  UNL     1     -44.626 -19.349   7.654  1.00  0.00     0.161 HD
BRANCH  16  18
HETATM   18  C2  UNL     1     -43.648 -19.894   5.876  1.00  0.00     0.148 C 
BRANCH  18  19
HETATM   19  C1  UNL     1     -44.107 -21.333   5.823  1.00  0.00     0.249 C 
BRANCH  19  20
HETATM   20  N1  UNL     1     -45.060 -21.657   6.846  1.00  0.00    -0.078 N 
ATOM     21  H13 UNL     1     -45.636 -22.452   6.569  1.00  0.00     0.274 HD
ATOM     22  H12 UNL     1     -44.596 -22.062   7.659  1.00  0.00     0.274 HD
ATOM     23  H11 UNL     1     -45.641 -20.863   7.116  1.00  0.00     0.274 HD
ENDBRANCH  19  20
ENDBRANCH  18  19
ENDBRANCH  16  18
ENDBRANCH   1  16
TORSDOF 4
ENDMDL
MODEL 5
REMARK VINA RESULT: -4.054562856      3.057      6.151
REMARK  4 active torsions:
REMARK  status: ('A' for Active; 'I' for Inactive)
REMARK    1  A    between atoms: N1_1  and  C1_5 
REMARK    2  A    between atoms: C1_5  and  C2_6 
REMARK    3  A    between atoms: C2_6  and  N2_7 
REMARK    4  A    between atoms: N2_7  and  C3_9 
ROOT
HETATM    1  C3  UNL     1     -51.593 -21.658  13.386  1.00  0.00     0.144 A 
HETATM    2  N3  UNL     1     -50.461 -21.098  13.844  1.00  0.00    -0.262 N 
ATOM      3  H3  UNL     1     -50.285 -20.860  14.820  1.00  0.00     0.191 HD
HETATM    4  N4  UNL     1     -49.597 -20.898  12.845  1.00  0.00    -0.184 N 
HETATM    5  N5  UNL     1     -48.388 -20.386  12.824  1.00  0.00    -0.229 N 
ATOM      6  H5  UNL     1     -47.981 -20.064  13.703  1.00  0.00     0.194 HD
HETATM    7  C4  UNL     1     -47.671 -20.267  11.712  1.00  0.00     0.343 A 
HETATM    8  O1  UNL     1     -46.508 -19.776  11.678  1.00  0.00    -0.245 OA
HETATM    9  N6  UNL     1     -48.200 -20.691  10.534  1.00  0.00    -0.272 N 
ATOM     10  H6  UNL     1     -47.663 -20.609   9.670  1.00  0.00     0.174 HD
HETATM   11  C5  UNL     1     -49.431 -21.218  10.513  1.00  0.00     0.281 A 
HETATM   12  O2  UNL     1     -49.910 -21.605   9.435  1.00  0.00    -0.265 OA
HETATM   13  C6  UNL     1     -50.141 -21.326  11.681  1.00  0.00     0.171 A 
HETATM   14  C7  UNL     1     -51.400 -21.804  12.025  1.00  0.00     0.127 A 
HETATM   15  N7  UNL     1     -52.302 -22.351  11.061  1.00  0.00    -0.096 NA
ENDROOT
BRANCH   1  16
HETATM   16  N2  UNL     1     -52.655 -22.007  13.998  1.00  0.00    -0.372 N 
ATOM     17  H2  UNL     1     -53.148 -22.827  13.645  1.00  0.00     0.161 HD
BRANCH  16  18
HETATM   18  C2  UNL     1     -53.214 -21.348  15.135  1.00  0.00     0.148 C 
BRANCH  18  19
HETATM   19  C1  UNL     1     -53.666 -19.968  14.717  1.00  0.00     0.249 C 
BRANCH  19  20
HETATM   20  N1  UNL     1     -52.931 -18.917  15.361  1.00  0.00    -0.078 N 
ATOM     21  H13 UNL     1     -53.344 -18.007  15.158  1.00  0.00     0.274 HD
ATOM     22  H12 UNL     1     -53.070 -18.943  16.371  1.00  0.00     0.274 HD
ATOM     23  H11 UNL     1     -51.938 -18.926  15.130  1.00  0.00     0.274 HD
ENDBRANCH  19  20
ENDBRANCH  18  19
ENDBRANCH  16  18
ENDBRANCH   1  16
TORSDOF 4
ENDMDL
