MODEL 1
REMARK VINA RESULT: -4.491276433      0.000      0.000
REMARK  4 active torsions:
REMARK  status: ('A' for Active; 'I' for Inactive)
REMARK    1  A    between atoms: N1_1  and  N2_4 
REMARK    2  A    between atoms: N2_4  and  C1_6 
REMARK    3  A    between atoms: C4_15  and  S1_16 
REMARK    4  A    between atoms: S1_16  and  N5_17 
ROOT
HETATM    1  C1  UNL     1     -49.347 -22.374  10.705  1.00  0.00     0.152 A 
HETATM    2  N3  UNL     1     -49.841 -22.258  11.979  1.00  0.00    -0.292 N 
ATOM      3  H3  UNL     1     -50.458 -22.988  12.335  1.00  0.00     0.172 HD
HETATM    4  C2  UNL     1     -49.546 -21.237  12.759  1.00  0.00     0.328 A 
HETATM    5  O1  UNL     1     -50.028 -21.177  13.924  1.00  0.00    -0.247 OA
HETATM    6  N4  UNL     1     -48.728 -20.277  12.277  1.00  0.00    -0.274 N 
ATOM      7  H4  UNL     1     -48.493 -19.481  12.871  1.00  0.00     0.173 HD
HETATM    8  C3  UNL     1     -48.217 -20.343  11.038  1.00  0.00     0.276 A 
HETATM    9  O2  UNL     1     -47.458 -19.449  10.600  1.00  0.00    -0.266 OA
HETATM   10  C4  UNL     1     -48.512 -21.416  10.187  1.00  0.00     0.192 A 
ENDROOT
BRANCH  10  11
HETATM   11  S1  UNL     1     -47.803 -21.497   8.601  1.00  0.00     0.266 S 
HETATM   12  O3  UNL     1     -48.726 -21.990   7.543  1.00  0.00    -0.200 OA
HETATM   13  O4  UNL     1     -46.687 -22.558   8.664  1.00  0.00    -0.200 OA
BRANCH  11  14
HETATM   14  N5  UNL     1     -47.029 -20.057   8.109  1.00  0.00    -0.324 N 
ATOM     15  H52 UNL     1     -46.691 -19.368   8.781  1.00  0.00     0.169 HD
ATOM     16  H51 UNL     1     -46.942 -19.956   7.098  1.00  0.00     0.169 HD
ENDBRANCH  11  14
ENDBRANCH  10  11
BRANCH   1  17
HETATM   17  N2  UNL     1     -49.714 -23.485   9.936  1.00  0.00    -0.291 N 
ATOM     18  H2  UNL     1     -50.657 -23.521   9.549  1.00  0.00     0.188 HD
BRANCH  17  19
HETATM   19  N1  UNL     1     -48.868 -24.518   9.686  1.00  0.00    -0.344 N 
ATOM     20  H12 UNL     1     -47.972 -24.524  10.174  1.00  0.00     0.176 HD
ATOM     21  H11 UNL     1     -49.095 -25.273   9.039  1.00  0.00     0.176 HD
ENDBRANCH  17  19
ENDBRANCH   1  17
TORSDOF 4
ENDMDL
MODEL 2
REMARK VINA RESULT: -4.403370266      1.197      1.411
REMARK  4 active torsions:
REMARK  status: ('A' for Active; 'I' for Inactive)
REMARK    1  A    between atoms: N1_1  and  N2_4 
REMARK    2  A    between atoms: N2_4  and  C1_6 
REMARK    3  A    between atoms: C4_15  and  S1_16 
REMARK    4  A    between atoms: S1_16  and  N5_17 
ROOT
HETATM    1  C1  UNL     1     -49.870 -22.338  10.667  1.00  0.00     0.152 A 
HETATM    2  N3  UNL     1     -50.374 -22.506  11.931  1.00  0.00    -0.292 N 
ATOM      3  H3  UNL     1     -51.308 -22.901  12.040  1.00  0.00     0.172 HD
HETATM    4  C2  UNL     1     -49.693 -22.174  13.011  1.00  0.00     0.328 A 
HETATM    5  O1  UNL     1     -50.202 -22.348  14.152  1.00  0.00    -0.247 OA
HETATM    6  N4  UNL     1     -48.458 -21.653  12.854  1.00  0.00    -0.274 N 
ATOM      7  H4  UNL     1     -47.920 -21.391  13.682  1.00  0.00     0.173 HD
HETATM    8  C3  UNL     1     -47.918 -21.469  11.639  1.00  0.00     0.276 A 
HETATM    9  O2  UNL     1     -46.772 -20.986  11.504  1.00  0.00    -0.266 OA
HETATM   10  C4  UNL     1     -48.618 -21.812  10.475  1.00  0.00     0.192 A 
ENDROOT
BRANCH  10  11
HETATM   11  S1  UNL     1     -47.879 -21.602   8.914  1.00  0.00     0.266 S 
HETATM   12  O3  UNL     1     -48.781 -21.889   7.767  1.00  0.00    -0.200 OA
HETATM   13  O4  UNL     1     -46.763 -22.659   8.802  1.00  0.00    -0.200 OA
BRANCH  11  14
HETATM   14  N5  UNL     1     -47.098 -20.098   8.710  1.00  0.00    -0.324 N 
ATOM     15  H52 UNL     1     -47.333 -19.465   7.946  1.00  0.00     0.169 HD
ATOM     16  H51 UNL     1     -46.386 -19.899   9.414  1.00  0.00     0.169 HD
ENDBRANCH  11  14
ENDBRANCH  10  11
BRANCH   1  17
HETATM   17  N2  UNL     1     -50.660 -22.708   9.571  1.00  0.00    -0.291 N 
ATOM     18  H2  UNL     1     -50.577 -23.657   9.207  1.00  0.00     0.188 HD
BRANCH  17  19
HETATM   19  N1  UNL     1     -51.532 -21.855   8.973  1.00  0.00    -0.344 N 
ATOM     20  H12 UNL     1     -52.273 -21.455   9.550  1.00  0.00     0.176 HD
ATOM     21  H11 UNL     1     -51.472 -21.606   7.986  1.00  0.00     0.176 HD
ENDBRANCH  17  19
ENDBRANCH   1  17
TORSDOF 4
ENDMDL
MODEL 3
REMARK VINA RESULT: -4.377194647      6.723      8.005
REMARK  4 active torsions:
REMARK  status: ('A' for Active; 'I' for Inactive)
REMARK    1  A    between atoms: N1_1  and  N2_4 
REMARK    2  A    between atoms: N2_4  and  C1_6 
REMARK    3  A    between atoms: C4_15  and  S1_16 
REMARK    4  A    between atoms: S1_16  and  N5_17 
ROOT
HETATM    1  C1  UNL     1     -45.851 -16.773   6.257  1.00  0.00     0.152 A 
HETATM    2  N3  UNL     1     -46.793 -15.779   6.291  1.00  0.00    -0.292 N 
ATOM      3  H3  UNL     1     -46.990 -15.318   7.179  1.00  0.00     0.172 HD
HETATM    4  C2  UNL     1     -47.454 -15.397   5.215  1.00  0.00     0.328 A 
HETATM    5  O1  UNL     1     -48.313 -14.477   5.300  1.00  0.00    -0.247 OA
HETATM    6  N4  UNL     1     -47.185 -16.014   4.046  1.00  0.00    -0.274 N 
ATOM      7  H4  UNL     1     -47.690 -15.729   3.206  1.00  0.00     0.173 HD
HETATM    8  C3  UNL     1     -46.271 -16.993   3.958  1.00  0.00     0.276 A 
HETATM    9  O2  UNL     1     -46.028 -17.559   2.869  1.00  0.00    -0.266 OA
HETATM   10  C4  UNL     1     -45.554 -17.419   5.084  1.00  0.00     0.192 A 
ENDROOT
BRANCH  10  11
HETATM   11  S1  UNL     1     -44.345 -18.661   4.934  1.00  0.00     0.266 S 
HETATM   12  O3  UNL     1     -43.930 -19.268   6.228  1.00  0.00    -0.200 OA
HETATM   13  O4  UNL     1     -43.070 -17.982   4.399  1.00  0.00    -0.200 OA
BRANCH  11  14
HETATM   14  N5  UNL     1     -44.727 -19.870   3.791  1.00  0.00    -0.324 N 
ATOM     15  H52 UNL     1     -45.682 -20.200   3.650  1.00  0.00     0.169 HD
ATOM     16  H51 UNL     1     -43.921 -20.224   3.275  1.00  0.00     0.169 HD
ENDBRANCH  11  14
ENDBRANCH  10  11
BRANCH   1  17
HETATM   17  N2  UNL     1     -45.198 -17.126   7.446  1.00  0.00    -0.291 N 
ATOM     18  H2  UNL     1     -44.292 -16.705   7.649  1.00  0.00     0.188 HD
BRANCH  17  19
HETATM   19  N1  UNL     1     -45.722 -18.006   8.338  1.00  0.00    -0.344 N 
ATOM     20  H12 UNL     1     -46.680 -18.322   8.184  1.00  0.00     0.176 HD
ATOM     21  H11 UNL     1     -45.200 -18.354   9.142  1.00  0.00     0.176 HD
ENDBRANCH  17  19
ENDBRANCH   1  17
TORSDOF 4
ENDMDL
MODEL 4
REMARK VINA RESULT: -4.301632173      2.023      3.631
REMARK  4 active torsions:
REMARK  status: ('A' for Active; 'I' for Inactive)
REMARK    1  A    between atoms: N1_1  and  N2_4 
REMARK    2  A    between atoms: N2_4  and  C1_6 
REMARK    3  A    between atoms: C4_15  and  S1_16 
REMARK    4  A    between atoms: S1_16  and  N5_17 
ROOT
HETATM    1  C1  UNL     1     -49.903 -21.839  12.126  1.00  0.00     0.152 A 
HETATM    2  N3  UNL     1     -50.896 -22.783  12.158  1.00  0.00    -0.292 N 
ATOM      3  H3  UNL     1     -51.544 -22.789  12.946  1.00  0.00     0.172 HD
HETATM    4  C2  UNL     1     -51.044 -23.683  11.205  1.00  0.00     0.328 A 
HETATM    5  O1  UNL     1     -51.974 -24.532  11.283  1.00  0.00    -0.247 OA
HETATM    6  N4  UNL     1     -50.181 -23.666  10.168  1.00  0.00    -0.274 N 
ATOM      7  H4  UNL     1     -50.283 -24.358   9.424  1.00  0.00     0.173 HD
HETATM    8  C3  UNL     1     -49.192 -22.762  10.088  1.00  0.00     0.276 A 
HETATM    9  O2  UNL     1     -48.397 -22.753   9.121  1.00  0.00    -0.266 OA
HETATM   10  C4  UNL     1     -49.011 -21.794  11.084  1.00  0.00     0.192 A 
ENDROOT
BRANCH  10  11
HETATM   11  S1  UNL     1     -47.746 -20.609  10.935  1.00  0.00     0.266 S 
HETATM   12  O3  UNL     1     -46.569 -20.859  11.809  1.00  0.00    -0.200 OA
HETATM   13  O4  UNL     1     -48.324 -19.272  11.440  1.00  0.00    -0.200 OA
BRANCH  11  14
HETATM   14  N5  UNL     1     -47.256 -20.311   9.327  1.00  0.00    -0.324 N 
ATOM     15  H52 UNL     1     -46.383 -19.832   9.107  1.00  0.00     0.169 HD
ATOM     16  H51 UNL     1     -47.911 -20.652   8.623  1.00  0.00     0.169 HD
ENDBRANCH  11  14
ENDBRANCH  10  11
BRANCH   1  17
HETATM   17  N2  UNL     1     -49.808 -20.922  13.181  1.00  0.00    -0.291 N 
ATOM     18  H2  UNL     1     -49.094 -20.195  13.133  1.00  0.00     0.188 HD
BRANCH  17  19
HETATM   19  N1  UNL     1     -50.626 -20.962  14.264  1.00  0.00    -0.344 N 
ATOM     20  H12 UNL     1     -50.887 -21.879  14.627  1.00  0.00     0.176 HD
ATOM     21  H11 UNL     1     -50.981 -20.121  14.718  1.00  0.00     0.176 HD
ENDBRANCH  17  19
ENDBRANCH   1  17
TORSDOF 4
ENDMDL
MODEL 5
REMARK VINA RESULT: -4.271059735      2.464      3.682
REMARK  4 active torsions:
REMARK  status: ('A' for Active; 'I' for Inactive)
REMARK    1  A    between atoms: N1_1  and  N2_4 
REMARK    2  A    between atoms: N2_4  and  C1_6 
REMARK    3  A    between atoms: C4_15  and  S1_16 
REMARK    4  A    between atoms: S1_16  and  N5_17 
ROOT
HETATM    1  C1  UNL     1     -49.871 -20.518  11.442  1.00  0.00     0.152 A 
HETATM    2  N3  UNL     1     -48.723 -19.975  11.959  1.00  0.00    -0.292 N 
ATOM      3  H3  UNL     1     -48.792 -19.351  12.762  1.00  0.00     0.172 HD
HETATM    4  C2  UNL     1     -47.533 -20.232  11.453  1.00  0.00     0.328 A 
HETATM    5  O1  UNL     1     -46.506 -19.706  11.965  1.00  0.00    -0.247 OA
HETATM    6  N4  UNL     1     -47.453 -21.060  10.390  1.00  0.00    -0.274 N 
ATOM      7  H4  UNL     1     -46.538 -21.267   9.988  1.00  0.00     0.173 HD
HETATM    8  C3  UNL     1     -48.546 -21.618   9.847  1.00  0.00     0.276 A 
HETATM    9  O2  UNL     1     -48.462 -22.385   8.861  1.00  0.00    -0.266 OA
HETATM   10  C4  UNL     1     -49.824 -21.363  10.363  1.00  0.00     0.192 A 
ENDROOT
BRANCH  10  11
HETATM   11  S1  UNL     1     -51.220 -22.132   9.666  1.00  0.00     0.266 S 
HETATM   12  O3  UNL     1     -52.517 -21.531  10.075  1.00  0.00    -0.200 OA
HETATM   13  O4  UNL     1     -51.266 -23.567  10.225  1.00  0.00    -0.200 OA
BRANCH  11  14
HETATM   14  N5  UNL     1     -51.142 -22.311   7.970  1.00  0.00    -0.324 N 
ATOM     15  H52 UNL     1     -50.478 -21.788   7.400  1.00  0.00     0.169 HD
ATOM     16  H51 UNL     1     -51.813 -22.980   7.590  1.00  0.00     0.169 HD
ENDBRANCH  11  14
ENDBRANCH  10  11
BRANCH   1  17
HETATM   17  N2  UNL     1     -51.099 -20.188  12.031  1.00  0.00    -0.291 N 
ATOM     18  H2  UNL     1     -51.642 -19.422  11.631  1.00  0.00     0.188 HD
BRANCH  17  19
HETATM   19  N1  UNL     1     -51.595 -20.844  13.111  1.00  0.00    -0.344 N 
ATOM     20  H12 UNL     1     -51.057 -20.804  13.978  1.00  0.00     0.176 HD
ATOM     21  H11 UNL     1     -52.471 -21.366  13.086  1.00  0.00     0.176 HD
ENDBRANCH  17  19
ENDBRANCH   1  17
TORSDOF 4
ENDMDL
