MODEL 1
REMARK VINA RESULT: -6.666368615      0.000      0.000
REMARK  3 active torsions:
REMARK  status: ('A' for Active; 'I' for Inactive)
REMARK    1  A    between atoms: O1_1  and  C1_3 
REMARK    2  A    between atoms: C8_10  and  C9_11 
REMARK    3  A    between atoms: C9_11  and  N1_12 
ROOT
HETATM    1  C1  UNL     1      -4.243   1.789  15.680  1.00  0.00     0.059 C 
HETATM    2  C2  UNL     1      -3.070   2.773  15.611  1.00  0.00     0.042 C 
HETATM    3  C3  UNL     1      -3.426   3.910  14.722  1.00  0.00    -0.011 C 
HETATM    4  C4  UNL     1      -4.676   4.635  15.092  1.00  0.00     0.009 C 
HETATM    5  C5  UNL     1      -5.824   3.625  15.134  1.00  0.00    -0.011 C 
HETATM    6  C6  UNL     1      -5.433   2.576  16.149  1.00  0.00     0.042 C 
HETATM    7  C7  UNL     1      -5.993   2.951  13.790  1.00  0.00     0.016 C 
HETATM    8  C8  UNL     1      -4.695   2.294  13.332  1.00  0.00    -0.019 C 
HETATM    9  C12 UNL     1      -3.636   3.340  13.313  1.00  0.00     0.016 C 
HETATM   10  C13 UNL     1      -4.431   1.183  14.313  1.00  0.00     0.049 C 
ENDROOT
BRANCH   8  11
HETATM   11  C9  UNL     1      -4.896   1.786  11.929  1.00  0.00     0.159 C 
BRANCH  11  12
HETATM   12  N1  UNL     1      -4.102   0.633  11.620  1.00  0.00    -0.286 N 
HETATM   13  C10 UNL     1      -2.853   0.685  11.138  1.00  0.00     0.201 A 
HETATM   14  N2  UNL     1      -2.439  -0.579  10.978  1.00  0.00    -0.346 N 
HETATM   15  C11 UNL     1      -3.413  -1.418  11.354  1.00  0.00     0.198 A 
ATOM     16  H2  UNL     1      -1.524  -0.859  10.625  1.00  0.00     0.167 HD
HETATM   17  N3  UNL     1      -4.417  -0.638  11.741  1.00  0.00    -0.293 N 
ATOM     18  H3  UNL     1      -5.313  -0.980  12.087  1.00  0.00     0.188 HD
ENDBRANCH  11  12
ENDBRANCH   8  11
BRANCH   1  19
HETATM   19  O1  UNL     1      -3.978   0.796  16.606  1.00  0.00    -0.390 OA
ATOM     20  H1  UNL     1      -4.468   0.010  16.393  1.00  0.00     0.210 HD
ENDBRANCH   1  19
TORSDOF 3
ENDMDL
MODEL 2
REMARK VINA RESULT: -6.391841878      1.761      2.313
REMARK  3 active torsions:
REMARK  status: ('A' for Active; 'I' for Inactive)
REMARK    1  A    between atoms: O1_1  and  C1_3 
REMARK    2  A    between atoms: C8_10  and  C9_11 
REMARK    3  A    between atoms: C9_11  and  N1_12 
ROOT
HETATM    1  C1  UNL     1      -2.660   4.185  14.380  1.00  0.00     0.059 C 
HETATM    2  C2  UNL     1      -3.102   5.652  14.420  1.00  0.00     0.042 C 
HETATM    3  C3  UNL     1      -4.535   5.749  14.035  1.00  0.00    -0.011 C 
HETATM    4  C4  UNL     1      -5.466   4.916  14.850  1.00  0.00     0.009 C 
HETATM    5  C5  UNL     1      -5.002   3.461  14.772  1.00  0.00    -0.011 C 
HETATM    6  C6  UNL     1      -3.585   3.436  15.295  1.00  0.00     0.042 C 
HETATM    7  C7  UNL     1      -4.992   2.977  13.339  1.00  0.00     0.016 C 
HETATM    8  C8  UNL     1      -4.135   3.879  12.457  1.00  0.00    -0.019 C 
HETATM    9  C12 UNL     1      -4.653   5.269  12.583  1.00  0.00     0.016 C 
HETATM   10  C13 UNL     1      -2.723   3.712  12.951  1.00  0.00     0.049 C 
ENDROOT
BRANCH   8  11
HETATM   11  C9  UNL     1      -4.301   3.431  11.028  1.00  0.00     0.159 C 
BRANCH  11  12
HETATM   12  N1  UNL     1      -4.275   2.006  10.871  1.00  0.00    -0.286 N 
HETATM   13  C10 UNL     1      -3.156   1.271  10.839  1.00  0.00     0.201 A 
HETATM   14  N2  UNL     1      -3.527  -0.007  10.682  1.00  0.00    -0.346 N 
HETATM   15  C11 UNL     1      -4.863  -0.078  10.615  1.00  0.00     0.198 A 
ATOM     16  H2  UNL     1      -2.891  -0.802  10.622  1.00  0.00     0.167 HD
HETATM   17  N3  UNL     1      -5.286   1.176  10.735  1.00  0.00    -0.293 N 
ATOM     18  H3  UNL     1      -6.266   1.458  10.722  1.00  0.00     0.188 HD
ENDBRANCH  11  12
ENDBRANCH   8  11
BRANCH   1  19
HETATM   19  O1  UNL     1      -1.369   4.064  14.863  1.00  0.00    -0.390 OA
ATOM     20  H1  UNL     1      -1.339   4.307  15.781  1.00  0.00     0.210 HD
ENDBRANCH   1  19
TORSDOF 3
ENDMDL
MODEL 3
REMARK VINA RESULT: -6.270683986      1.508      1.938
REMARK  3 active torsions:
REMARK  status: ('A' for Active; 'I' for Inactive)
REMARK    1  A    between atoms: O1_1  and  C1_3 
REMARK    2  A    between atoms: C8_10  and  C9_11 
REMARK    3  A    between atoms: C9_11  and  N1_12 
ROOT
HETATM    1  C1  UNL     1      -5.075   3.384  14.761  1.00  0.00     0.059 C 
HETATM    2  C2  UNL     1      -3.639   3.317  15.291  1.00  0.00     0.042 C 
HETATM    3  C3  UNL     1      -2.787   4.277  14.540  1.00  0.00    -0.011 C 
HETATM    4  C4  UNL     1      -3.266   5.690  14.550  1.00  0.00     0.009 C 
HETATM    5  C5  UNL     1      -4.693   5.717  13.999  1.00  0.00    -0.011 C 
HETATM    6  C6  UNL     1      -5.513   4.815  14.892  1.00  0.00     0.042 C 
HETATM    7  C7  UNL     1      -4.736   5.163  12.592  1.00  0.00     0.016 C 
HETATM    8  C8  UNL     1      -4.146   3.758  12.532  1.00  0.00    -0.019 C 
HETATM    9  C12 UNL     1      -2.763   3.819  13.077  1.00  0.00     0.016 C 
HETATM   10  C13 UNL     1      -5.076   2.890  13.338  1.00  0.00     0.049 C 
ENDROOT
BRANCH   8  11
HETATM   11  C9  UNL     1      -4.078   3.340  11.086  1.00  0.00     0.159 C 
BRANCH  11  12
HETATM   12  N1  UNL     1      -4.140   1.920  10.900  1.00  0.00    -0.286 N 
HETATM   13  C10 UNL     1      -3.076   1.107  10.938  1.00  0.00     0.201 A 
HETATM   14  N2  UNL     1      -3.523  -0.138  10.724  1.00  0.00    -0.346 N 
HETATM   15  C11 UNL     1      -4.851  -0.113  10.554  1.00  0.00     0.198 A 
ATOM     16  H2  UNL     1      -2.942  -0.976  10.696  1.00  0.00     0.167 HD
HETATM   17  N3  UNL     1      -5.194   1.167  10.669  1.00  0.00    -0.293 N 
ATOM     18  H3  UNL     1      -6.147   1.518  10.588  1.00  0.00     0.188 HD
ENDBRANCH  11  12
ENDBRANCH   8  11
BRANCH   1  19
HETATM   19  O1  UNL     1      -5.907   2.596  15.537  1.00  0.00    -0.390 OA
ATOM     20  H1  UNL     1      -6.331   3.125  16.203  1.00  0.00     0.210 HD
ENDBRANCH   1  19
TORSDOF 3
ENDMDL
MODEL 4
REMARK VINA RESULT: -6.252930311      1.121      1.605
REMARK  3 active torsions:
REMARK  status: ('A' for Active; 'I' for Inactive)
REMARK    1  A    between atoms: O1_1  and  C1_3 
REMARK    2  A    between atoms: C8_10  and  C9_11 
REMARK    3  A    between atoms: C9_11  and  N1_12 
ROOT
HETATM    1  C1  UNL     1      -4.354   1.614  15.717  1.00  0.00     0.059 C 
HETATM    2  C2  UNL     1      -3.237   2.656  15.846  1.00  0.00     0.042 C 
HETATM    3  C3  UNL     1      -3.558   3.836  15.001  1.00  0.00    -0.011 C 
HETATM    4  C4  UNL     1      -4.879   4.471  15.279  1.00  0.00     0.009 C 
HETATM    5  C5  UNL     1      -5.967   3.406  15.124  1.00  0.00    -0.011 C 
HETATM    6  C6  UNL     1      -5.630   2.306  16.103  1.00  0.00     0.042 C 
HETATM    7  C7  UNL     1      -5.952   2.825  13.727  1.00  0.00     0.016 C 
HETATM    8  C8  UNL     1      -4.578   2.268  13.374  1.00  0.00    -0.019 C 
HETATM    9  C12 UNL     1      -3.583   3.361  13.543  1.00  0.00     0.016 C 
HETATM   10  C13 UNL     1      -4.359   1.102  14.301  1.00  0.00     0.049 C 
ENDROOT
BRANCH   8  11
HETATM   11  C9  UNL     1      -4.598   1.854  11.925  1.00  0.00     0.159 C 
BRANCH  11  12
HETATM   12  N1  UNL     1      -3.302   1.862  11.311  1.00  0.00    -0.286 N 
HETATM   13  C10 UNL     1      -2.452   0.828  11.331  1.00  0.00     0.201 A 
HETATM   14  N2  UNL     1      -1.356   1.205  10.659  1.00  0.00    -0.346 N 
HETATM   15  C11 UNL     1      -1.511   2.461  10.221  1.00  0.00     0.198 A 
ATOM     16  H2  UNL     1      -0.530   0.626  10.506  1.00  0.00     0.167 HD
HETATM   17  N3  UNL     1      -2.717   2.831  10.640  1.00  0.00    -0.293 N 
ATOM     18  H3  UNL     1      -3.134   3.744  10.465  1.00  0.00     0.188 HD
ENDBRANCH  11  12
ENDBRANCH   8  11
BRANCH   1  19
HETATM   19  O1  UNL     1      -4.135   0.570  16.599  1.00  0.00    -0.390 OA
ATOM     20  H1  UNL     1      -4.294  -0.261  16.167  1.00  0.00     0.210 HD
ENDBRANCH   1  19
TORSDOF 3
ENDMDL
MODEL 5
REMARK VINA RESULT: -6.022519051      3.153      4.205
REMARK  3 active torsions:
REMARK  status: ('A' for Active; 'I' for Inactive)
REMARK    1  A    between atoms: O1_1  and  C1_3 
REMARK    2  A    between atoms: C8_10  and  C9_11 
REMARK    3  A    between atoms: C9_11  and  N1_12 
ROOT
HETATM    1  C1  UNL     1      -2.498   4.186  14.475  1.00  0.00     0.059 C 
HETATM    2  C2  UNL     1      -2.385   3.671  13.035  1.00  0.00     0.042 C 
HETATM    3  C3  UNL     1      -3.564   4.126  12.251  1.00  0.00    -0.011 C 
HETATM    4  C4  UNL     1      -3.788   5.601  12.247  1.00  0.00     0.009 C 
HETATM    5  C5  UNL     1      -3.912   6.073  13.696  1.00  0.00    -0.011 C 
HETATM    6  C6  UNL     1      -2.626   5.680  14.385  1.00  0.00     0.042 C 
HETATM    7  C7  UNL     1      -5.060   5.374  14.391  1.00  0.00     0.016 C 
HETATM    8  C8  UNL     1      -4.914   3.858  14.313  1.00  0.00    -0.019 C 
HETATM    9  C12 UNL     1      -4.806   3.482  12.878  1.00  0.00     0.016 C 
HETATM   10  C13 UNL     1      -3.688   3.524  15.120  1.00  0.00     0.049 C 
ENDROOT
BRANCH   8  11
HETATM   11  C9  UNL     1      -6.163   3.237  14.882  1.00  0.00     0.159 C 
BRANCH  11  12
HETATM   12  N1  UNL     1      -5.901   2.220  15.858  1.00  0.00    -0.286 N 
HETATM   13  C10 UNL     1      -5.271   1.067  15.595  1.00  0.00     0.201 A 
HETATM   14  N2  UNL     1      -5.211   0.380  16.744  1.00  0.00    -0.346 N 
HETATM   15  C11 UNL     1      -5.794   1.088  17.719  1.00  0.00     0.198 A 
ATOM     16  H2  UNL     1      -4.786  -0.541  16.858  1.00  0.00     0.167 HD
HETATM   17  N3  UNL     1      -6.205   2.211  17.138  1.00  0.00    -0.293 N 
ATOM     18  H3  UNL     1      -6.691   2.965  17.620  1.00  0.00     0.188 HD
ENDBRANCH  11  12
ENDBRANCH   8  11
BRANCH   1  19
HETATM   19  O1  UNL     1      -1.347   3.884  15.180  1.00  0.00    -0.390 OA
ATOM     20  H1  UNL     1      -1.045   4.648  15.657  1.00  0.00     0.210 HD
ENDBRANCH   1  19
TORSDOF 3
ENDMDL
