MODEL 1
REMARK VINA RESULT: -7.201285215      0.000      0.000
REMARK  2 active torsions:
REMARK  status: ('A' for Active; 'I' for Inactive)
REMARK    1  A    between atoms: N1_5  and  S1_7 
REMARK    2  A    between atoms: S1_7  and  N2_10 
ROOT
HETATM    1  C1  UNL     1      -3.568 -22.233 -32.656  1.00  0.00     0.070 C 
HETATM    2  C2  UNL     1      -4.734 -23.177 -32.547  1.00  0.00     0.024 A 
HETATM    3  C3  UNL     1      -4.809 -24.131 -31.576  1.00  0.00     0.062 A 
HETATM    4  C4  UNL     1      -5.926 -25.004 -31.504  1.00  0.00     0.115 A 
HETATM    5  N1  UNL     1      -5.957 -25.871 -30.595  1.00  0.00    -0.261 N 
ATOM      6  H1  UNL     1      -5.141 -25.848 -29.984  1.00  0.00     0.180 HD
HETATM    7  C5  UNL     1      -6.930 -24.873 -32.427  1.00  0.00     0.287 A 
HETATM    8  O3  UNL     1      -7.976 -25.589 -32.470  1.00  0.00    -0.264 OA
HETATM    9  N4  UNL     1      -6.794 -23.901 -33.368  1.00  0.00    -0.264 N 
ATOM     10  H4  UNL     1      -7.533 -23.789 -34.062  1.00  0.00     0.190 HD
HETATM   11  N5  UNL     1      -5.751 -23.098 -33.422  1.00  0.00    -0.302 N 
ATOM     12  H5  UNL     1      -5.715 -22.390 -34.156  1.00  0.00     0.186 HD
ENDROOT
BRANCH   5  13
HETATM   13  S1  UNL     1      -7.063 -27.056 -30.180  1.00  0.00     0.336 S 
HETATM   14  O1  UNL     1      -6.614 -27.810 -28.926  1.00  0.00    -0.181 OA
HETATM   15  O2  UNL     1      -7.124 -28.122 -31.260  1.00  0.00    -0.181 OA
BRANCH  13  16
HETATM   16  N2  UNL     1      -8.666 -26.512 -29.922  1.00  0.00    -0.216 N 
HETATM   17  N3  UNL     1      -8.927 -25.359 -29.540  1.00  0.00    -0.335 N 
ATOM     18  H32 UNL     1      -8.144 -24.724 -29.378  1.00  0.00     0.177 HD
ATOM     19  H31 UNL     1      -9.881 -25.035 -29.386  1.00  0.00     0.177 HD
ATOM     20  H2  UNL     1      -9.436 -27.160 -30.088  1.00  0.00     0.201 HD
ENDBRANCH  13  16
ENDBRANCH   5  13
TORSDOF 2
ENDMDL
MODEL 2
REMARK VINA RESULT: -7.184352866      3.003      4.758
REMARK  2 active torsions:
REMARK  status: ('A' for Active; 'I' for Inactive)
REMARK    1  A    between atoms: N1_5  and  S1_7 
REMARK    2  A    between atoms: S1_7  and  N2_10 
ROOT
HETATM    1  C1  UNL     1      -5.369 -27.096 -28.939  1.00  0.00     0.070 C 
HETATM    2  C2  UNL     1      -6.407 -26.273 -29.651  1.00  0.00     0.024 A 
HETATM    3  C3  UNL     1      -6.097 -25.463 -30.703  1.00  0.00     0.062 A 
HETATM    4  C4  UNL     1      -7.104 -24.702 -31.352  1.00  0.00     0.115 A 
HETATM    5  N1  UNL     1      -6.778 -23.967 -32.317  1.00  0.00    -0.261 N 
ATOM      6  H1  UNL     1      -5.783 -24.003 -32.536  1.00  0.00     0.180 HD
HETATM    7  C5  UNL     1      -8.395 -24.794 -30.904  1.00  0.00     0.287 A 
HETATM    8  O3  UNL     1      -9.382 -24.167 -31.397  1.00  0.00    -0.264 OA
HETATM    9  N4  UNL     1      -8.637 -25.620 -29.852  1.00  0.00    -0.264 N 
ATOM     10  H4  UNL     1      -9.594 -25.701 -29.505  1.00  0.00     0.190 HD
HETATM   11  N5  UNL     1      -7.692 -26.320 -29.259  1.00  0.00    -0.302 N 
ATOM     12  H5  UNL     1      -7.945 -26.921 -28.474  1.00  0.00     0.186 HD
ENDROOT
BRANCH   5  13
HETATM   13  S1  UNL     1      -7.641 -22.941 -33.319  1.00  0.00     0.336 S 
HETATM   14  O1  UNL     1      -6.714 -22.239 -34.315  1.00  0.00    -0.181 OA
HETATM   15  O2  UNL     1      -8.256 -21.811 -32.513  1.00  0.00    -0.181 OA
BRANCH  13  16
HETATM   16  N2  UNL     1      -8.910 -23.672 -34.206  1.00  0.00    -0.216 N 
HETATM   17  N3  UNL     1     -10.094 -23.309 -34.101  1.00  0.00    -0.335 N 
ATOM     18  H32 UNL     1     -10.301 -22.544 -33.458  1.00  0.00     0.177 HD
ATOM     19  H31 UNL     1     -10.850 -23.744 -34.630  1.00  0.00     0.177 HD
ATOM     20  H2  UNL     1      -8.686 -24.435 -34.845  1.00  0.00     0.201 HD
ENDBRANCH  13  16
ENDBRANCH   5  13
TORSDOF 2
ENDMDL
MODEL 3
REMARK VINA RESULT: -6.954505267      2.977      4.202
REMARK  2 active torsions:
REMARK  status: ('A' for Active; 'I' for Inactive)
REMARK    1  A    between atoms: N1_5  and  S1_7 
REMARK    2  A    between atoms: S1_7  and  N2_10 
ROOT
HETATM    1  C1  UNL     1      -5.076 -27.202 -28.613  1.00  0.00     0.070 C 
HETATM    2  C2  UNL     1      -5.684 -26.232 -29.588  1.00  0.00     0.024 A 
HETATM    3  C3  UNL     1      -6.992 -26.302 -29.965  1.00  0.00     0.062 A 
HETATM    4  C4  UNL     1      -7.532 -25.368 -30.887  1.00  0.00     0.115 A 
HETATM    5  N1  UNL     1      -8.742 -25.467 -31.209  1.00  0.00    -0.261 N 
ATOM      6  H1  UNL     1      -9.222 -26.242 -30.750  1.00  0.00     0.180 HD
HETATM    7  C5  UNL     1      -6.716 -24.392 -31.395  1.00  0.00     0.287 A 
HETATM    8  O3  UNL     1      -7.076 -23.501 -32.223  1.00  0.00    -0.264 OA
HETATM    9  N4  UNL     1      -5.422 -24.376 -30.978  1.00  0.00    -0.264 N 
ATOM     10  H4  UNL     1      -4.800 -23.655 -31.345  1.00  0.00     0.190 HD
HETATM   11  N5  UNL     1      -4.935 -25.251 -30.121  1.00  0.00    -0.302 N 
ATOM     12  H5  UNL     1      -3.954 -25.180 -29.852  1.00  0.00     0.186 HD
ENDROOT
BRANCH   5  13
HETATM   13  S1  UNL     1      -9.730 -24.590 -32.236  1.00  0.00     0.336 S 
HETATM   14  O1  UNL     1     -10.132 -23.255 -31.603  1.00  0.00    -0.181 OA
HETATM   15  O2  UNL     1     -11.046 -25.317 -32.450  1.00  0.00    -0.181 OA
BRANCH  13  16
HETATM   16  N2  UNL     1      -9.080 -24.264 -33.785  1.00  0.00    -0.216 N 
HETATM   17  N3  UNL     1      -9.301 -23.203 -34.393  1.00  0.00    -0.335 N 
ATOM     18  H32 UNL     1      -9.894 -22.509 -33.937  1.00  0.00     0.177 HD
ATOM     19  H31 UNL     1      -8.913 -23.009 -35.316  1.00  0.00     0.177 HD
ATOM     20  H2  UNL     1      -8.489 -24.969 -34.227  1.00  0.00     0.201 HD
ENDBRANCH  13  16
ENDBRANCH   5  13
TORSDOF 2
ENDMDL
MODEL 4
REMARK VINA RESULT: -6.917836224      3.191      3.871
REMARK  2 active torsions:
REMARK  status: ('A' for Active; 'I' for Inactive)
REMARK    1  A    between atoms: N1_5  and  S1_7 
REMARK    2  A    between atoms: S1_7  and  N2_10 
ROOT
HETATM    1  C1  UNL     1      -3.938 -24.792 -31.447  1.00  0.00     0.070 C 
HETATM    2  C2  UNL     1      -5.229 -24.085 -31.756  1.00  0.00     0.024 A 
HETATM    3  C3  UNL     1      -6.419 -24.745 -31.837  1.00  0.00     0.062 A 
HETATM    4  C4  UNL     1      -7.617 -24.044 -32.131  1.00  0.00     0.115 A 
HETATM    5  N1  UNL     1      -8.694 -24.688 -32.197  1.00  0.00    -0.261 N 
ATOM      6  H1  UNL     1      -8.580 -25.687 -32.024  1.00  0.00     0.180 HD
HETATM    7  C5  UNL     1      -7.560 -22.690 -32.332  1.00  0.00     0.287 A 
HETATM    8  O3  UNL     1      -8.557 -21.952 -32.600  1.00  0.00    -0.264 OA
HETATM    9  N4  UNL     1      -6.343 -22.092 -32.236  1.00  0.00    -0.264 N 
ATOM     10  H4  UNL     1      -6.282 -21.084 -32.382  1.00  0.00     0.190 HD
HETATM   11  N5  UNL     1      -5.239 -22.757 -31.963  1.00  0.00    -0.302 N 
ATOM     12  H5  UNL     1      -4.359 -22.244 -31.906  1.00  0.00     0.186 HD
ENDROOT
BRANCH   5  13
HETATM   13  S1  UNL     1     -10.277 -24.246 -32.511  1.00  0.00     0.336 S 
HETATM   14  O1  UNL     1     -10.815 -23.320 -31.416  1.00  0.00    -0.181 OA
HETATM   15  O2  UNL     1     -11.184 -25.462 -32.457  1.00  0.00    -0.181 OA
BRANCH  13  16
HETATM   16  N2  UNL     1     -10.545 -23.487 -34.021  1.00  0.00    -0.216 N 
HETATM   17  N3  UNL     1      -9.674 -23.431 -34.906  1.00  0.00    -0.335 N 
ATOM     18  H32 UNL     1      -8.769 -23.859 -34.707  1.00  0.00     0.177 HD
ATOM     19  H31 UNL     1      -9.834 -22.979 -35.806  1.00  0.00     0.177 HD
ATOM     20  H2  UNL     1     -11.456 -23.064 -34.203  1.00  0.00     0.201 HD
ENDBRANCH  13  16
ENDBRANCH   5  13
TORSDOF 2
ENDMDL
MODEL 5
REMARK VINA RESULT: -6.795464742      3.038      4.593
REMARK  2 active torsions:
REMARK  status: ('A' for Active; 'I' for Inactive)
REMARK    1  A    between atoms: N1_5  and  S1_7 
REMARK    2  A    between atoms: S1_7  and  N2_10 
ROOT
HETATM    1  C1  UNL     1     -11.382 -24.839 -32.492  1.00  0.00     0.070 C 
HETATM    2  C2  UNL     1      -9.994 -24.307 -32.724  1.00  0.00     0.024 A 
HETATM    3  C3  UNL     1      -8.920 -24.738 -32.004  1.00  0.00     0.062 A 
HETATM    4  C4  UNL     1      -7.624 -24.214 -32.251  1.00  0.00     0.115 A 
HETATM    5  N1  UNL     1      -6.660 -24.637 -31.565  1.00  0.00    -0.261 N 
ATOM      6  H1  UNL     1      -6.930 -25.341 -30.878  1.00  0.00     0.180 HD
HETATM    7  C5  UNL     1      -7.469 -23.266 -33.227  1.00  0.00     0.287 A 
HETATM    8  O3  UNL     1      -6.367 -22.722 -33.544  1.00  0.00    -0.264 OA
HETATM    9  N4  UNL     1      -8.580 -22.881 -33.910  1.00  0.00    -0.264 N 
ATOM     10  H4  UNL     1      -8.482 -22.176 -34.641  1.00  0.00     0.190 HD
HETATM   11  N5  UNL     1      -9.776 -23.376 -33.668  1.00  0.00    -0.302 N 
ATOM     12  H5  UNL     1     -10.566 -23.040 -34.219  1.00  0.00     0.186 HD
ENDROOT
BRANCH   5  13
HETATM   13  S1  UNL     1      -5.025 -24.283 -31.546  1.00  0.00     0.336 S 
HETATM   14  O1  UNL     1      -4.350 -24.742 -32.841  1.00  0.00    -0.181 OA
HETATM   15  O2  UNL     1      -4.327 -25.075 -30.455  1.00  0.00    -0.181 OA
BRANCH  13  16
HETATM   16  N2  UNL     1      -4.629 -22.636 -31.302  1.00  0.00    -0.216 N 
HETATM   17  N3  UNL     1      -3.873 -22.010 -32.064  1.00  0.00    -0.335 N 
ATOM     18  H32 UNL     1      -3.482 -22.512 -32.861  1.00  0.00     0.177 HD
ATOM     19  H31 UNL     1      -3.638 -21.028 -31.918  1.00  0.00     0.177 HD
ATOM     20  H2  UNL     1      -5.029 -22.149 -30.499  1.00  0.00     0.201 HD
ENDBRANCH  13  16
ENDBRANCH   5  13
TORSDOF 2
ENDMDL
