MODEL 1
REMARK VINA RESULT: -9.116170075      0.000      0.000
REMARK  8 active torsions:
REMARK  status: ('A' for Active; 'I' for Inactive)
REMARK    1  A    between atoms: C2_2  and  N1_3 
REMARK    2  A    between atoms: N1_3  and  O1_5 
REMARK    3  A    between atoms: O1_5  and  S1_6 
REMARK    4  A    between atoms: S1_6  and  N2_9 
REMARK    5  A    between atoms: N2_9  and  C3_10 
REMARK    6  A    between atoms: N2_9  and  C8_16 
REMARK    7  A    between atoms: C3_10  and  C4_11 
REMARK    8  A    between atoms: C8_16  and  C9_17 
ROOT
HETATM    1  C9  UNL     1     -27.253   4.459 -12.922  1.00  0.00     0.008 C 
HETATM    2  C10 UNL     1     -28.757   4.251 -13.181  1.00  0.00     0.007 C 
HETATM    3  C11 UNL     1     -28.881   4.991 -14.510  1.00  0.00     0.006 C 
HETATM    4  C12 UNL     1     -28.229   6.285 -14.156  1.00  0.00    -0.001 C 
HETATM    5  C13 UNL     1     -27.911   7.177 -15.306  1.00  0.00     0.000 C 
HETATM    6  C14 UNL     1     -27.555   6.505 -16.578  1.00  0.00     0.046 C 
HETATM    7  C15 UNL     1     -26.632   7.192 -17.504  1.00  0.00     0.093 C 
HETATM    8  C16 UNL     1     -26.076   6.111 -18.458  1.00  0.00     0.049 C 
HETATM    9  C17 UNL     1     -27.207   8.236 -18.377  1.00  0.00     0.041 C 
HETATM   10  C18 UNL     1     -28.268   9.092 -17.815  1.00  0.00     0.006 C 
HETATM   11  C19 UNL     1     -27.939   9.775 -16.538  1.00  0.00     0.041 C 
HETATM   12  C20 UNL     1     -26.679   9.315 -15.873  1.00  0.00     0.097 C 
HETATM   13  C21 UNL     1     -26.152  10.509 -15.054  1.00  0.00     0.050 C 
HETATM   14  O5  UNL     1     -25.675   8.978 -16.733  1.00  0.00    -0.229 OA
HETATM   15  O6  UNL     1     -25.489   7.714 -16.894  1.00  0.00    -0.229 OA
HETATM   16  C22 UNL     1     -26.991   8.252 -14.824  1.00  0.00     0.027 C 
HETATM   17  C23 UNL     1     -25.803   7.792 -14.069  1.00  0.00     0.009 C 
HETATM   18  C24 UNL     1     -25.745   6.268 -13.884  1.00  0.00     0.010 C 
HETATM   19  C25 UNL     1     -27.059   5.867 -13.298  1.00  0.00    -0.035 C 
HETATM   20  C26 UNL     1     -27.130   6.675 -11.976  1.00  0.00     0.016 C 
ENDROOT
BRANCH   1  21
HETATM   21  C8  UNL     1     -26.548   3.379 -13.629  1.00  0.00     0.115 C 
BRANCH  21  22
HETATM   22  N2  UNL     1     -26.715   2.078 -13.009  1.00  0.00    -0.179 NA
BRANCH  22  23
HETATM   23  S1  UNL     1     -25.643   0.905 -13.663  1.00  0.00     0.361 S 
HETATM   24  O2  UNL     1     -24.640   0.545 -12.607  1.00  0.00    -0.179 OA
HETATM   25  O3  UNL     1     -24.897   1.361 -14.859  1.00  0.00    -0.179 OA
BRANCH  23  26
HETATM   26  O1  UNL     1     -26.438  -0.521 -14.058  1.00  0.00    -0.138 OA
BRANCH  26  27
HETATM   27  N1  UNL     1     -25.693  -1.346 -14.784  1.00  0.00    -0.247 N 
ATOM     28  H1  UNL     1     -24.849  -1.748 -14.375  1.00  0.00     0.195 HD
BRANCH  27  29
HETATM   29  C2  UNL     1     -26.041  -1.677 -16.104  1.00  0.00     0.097 C 
HETATM   30  C1  UNL     1     -25.348  -1.049 -17.249  1.00  0.00     0.076 C 
HETATM   31  C27 UNL     1     -27.005  -2.569 -16.322  1.00  0.00     0.291 C 
HETATM   32  F1  UNL     1     -27.351  -2.898 -17.568  1.00  0.00    -0.171 F 
HETATM   33  F2  UNL     1     -27.650  -3.155 -15.287  1.00  0.00    -0.171 F 
ENDBRANCH  27  29
ENDBRANCH  26  27
ENDBRANCH  23  26
ENDBRANCH  22  23
BRANCH  22  34
HETATM   34  C3  UNL     1     -26.477   2.141 -11.582  1.00  0.00     0.174 C 
BRANCH  34  35
HETATM   35  C4  UNL     1     -27.451   1.389 -10.767  1.00  0.00     0.066 A 
HETATM   36  C5  UNL     1     -28.677   0.940 -11.259  1.00  0.00     0.036 A 
HETATM   37  C6  UNL     1     -29.284   0.284 -10.182  1.00  0.00     0.027 A 
HETATM   38  C7  UNL     1     -28.407   0.376  -9.131  1.00  0.00     0.142 A 
HETATM   39  O4  UNL     1     -27.350   1.031  -9.523  1.00  0.00    -0.326 OA
ENDBRANCH  34  35
ENDBRANCH  22  34
ENDBRANCH  21  22
ENDBRANCH   1  21
TORSDOF 8
ENDMDL
MODEL 2
REMARK VINA RESULT: -8.876846512      0.864      1.070
REMARK  8 active torsions:
REMARK  status: ('A' for Active; 'I' for Inactive)
REMARK    1  A    between atoms: C2_2  and  N1_3 
REMARK    2  A    between atoms: N1_3  and  O1_5 
REMARK    3  A    between atoms: O1_5  and  S1_6 
REMARK    4  A    between atoms: S1_6  and  N2_9 
REMARK    5  A    between atoms: N2_9  and  C3_10 
REMARK    6  A    between atoms: N2_9  and  C8_16 
REMARK    7  A    between atoms: C3_10  and  C4_11 
REMARK    8  A    between atoms: C8_16  and  C9_17 
ROOT
HETATM    1  C9  UNL     1     -27.192   4.385 -12.951  1.00  0.00     0.008 C 
HETATM    2  C10 UNL     1     -28.698   4.151 -13.176  1.00  0.00     0.007 C 
HETATM    3  C11 UNL     1     -28.873   4.922 -14.481  1.00  0.00     0.006 C 
HETATM    4  C12 UNL     1     -28.239   6.220 -14.113  1.00  0.00    -0.001 C 
HETATM    5  C13 UNL     1     -27.971   7.146 -15.247  1.00  0.00     0.000 C 
HETATM    6  C14 UNL     1     -27.635   6.513 -16.545  1.00  0.00     0.046 C 
HETATM    7  C15 UNL     1     -26.752   7.243 -17.477  1.00  0.00     0.093 C 
HETATM    8  C16 UNL     1     -26.200   6.198 -18.473  1.00  0.00     0.049 C 
HETATM    9  C17 UNL     1     -27.372   8.296 -18.308  1.00  0.00     0.041 C 
HETATM   10  C18 UNL     1     -28.434   9.115 -17.696  1.00  0.00     0.006 C 
HETATM   11  C19 UNL     1     -28.086   9.773 -16.412  1.00  0.00     0.041 C 
HETATM   12  C20 UNL     1     -26.799   9.323 -15.793  1.00  0.00     0.097 C 
HETATM   13  C21 UNL     1     -26.274  10.508 -14.958  1.00  0.00     0.050 C 
HETATM   14  O5  UNL     1     -25.811   9.030 -16.687  1.00  0.00    -0.229 OA
HETATM   15  O6  UNL     1     -25.604   7.774 -16.885  1.00  0.00    -0.229 OA
HETATM   16  C22 UNL     1     -27.060   8.229 -14.763  1.00  0.00     0.027 C 
HETATM   17  C23 UNL     1     -25.842   7.776 -14.052  1.00  0.00     0.009 C 
HETATM   18  C24 UNL     1     -25.749   6.249 -13.906  1.00  0.00     0.010 C 
HETATM   19  C25 UNL     1     -27.037   5.805 -13.296  1.00  0.00    -0.035 C 
HETATM   20  C26 UNL     1     -27.089   6.579 -11.953  1.00  0.00     0.016 C 
ENDROOT
BRANCH   1  21
HETATM   21  C8  UNL     1     -26.484   3.338 -13.703  1.00  0.00     0.115 C 
BRANCH  21  22
HETATM   22  N2  UNL     1     -26.646   2.012 -13.139  1.00  0.00    -0.179 NA
BRANCH  22  23
HETATM   23  S1  UNL     1     -25.414   0.931 -13.657  1.00  0.00     0.361 S 
HETATM   24  O2  UNL     1     -24.344   0.899 -12.606  1.00  0.00    -0.179 OA
HETATM   25  O3  UNL     1     -24.777   1.305 -14.941  1.00  0.00    -0.179 OA
BRANCH  23  26
HETATM   26  O1  UNL     1     -25.979  -0.645 -13.795  1.00  0.00    -0.138 OA
BRANCH  26  27
HETATM   27  N1  UNL     1     -26.429  -0.930 -15.011  1.00  0.00    -0.247 N 
ATOM     28  H1  UNL     1     -27.154  -0.343 -15.425  1.00  0.00     0.195 HD
BRANCH  27  29
HETATM   29  C2  UNL     1     -25.928  -2.021 -15.740  1.00  0.00     0.097 C 
HETATM   30  C1  UNL     1     -25.876  -3.371 -15.141  1.00  0.00     0.076 C 
HETATM   31  C27 UNL     1     -25.497  -1.833 -16.987  1.00  0.00     0.291 C 
HETATM   32  F1  UNL     1     -25.018  -2.856 -17.696  1.00  0.00    -0.171 F 
HETATM   33  F2  UNL     1     -25.537  -0.604 -17.552  1.00  0.00    -0.171 F 
ENDBRANCH  27  29
ENDBRANCH  26  27
ENDBRANCH  23  26
ENDBRANCH  22  23
BRANCH  22  34
HETATM   34  C3  UNL     1     -26.614   2.049 -11.691  1.00  0.00     0.174 C 
BRANCH  34  35
HETATM   35  C4  UNL     1     -27.488   1.057 -11.035  1.00  0.00     0.066 A 
HETATM   36  C5  UNL     1     -28.765   1.356 -10.560  1.00  0.00     0.036 A 
HETATM   37  C6  UNL     1     -29.244   0.157 -10.021  1.00  0.00     0.027 A 
HETATM   38  C7  UNL     1     -28.249  -0.770 -10.200  1.00  0.00     0.142 A 
HETATM   39  O4  UNL     1     -27.243  -0.196 -10.797  1.00  0.00    -0.326 OA
ENDBRANCH  34  35
ENDBRANCH  22  34
ENDBRANCH  21  22
ENDBRANCH   1  21
TORSDOF 8
ENDMDL
MODEL 3
REMARK VINA RESULT: -8.555016520      1.356      1.700
REMARK  8 active torsions:
REMARK  status: ('A' for Active; 'I' for Inactive)
REMARK    1  A    between atoms: C2_2  and  N1_3 
REMARK    2  A    between atoms: N1_3  and  O1_5 
REMARK    3  A    between atoms: O1_5  and  S1_6 
REMARK    4  A    between atoms: S1_6  and  N2_9 
REMARK    5  A    between atoms: N2_9  and  C3_10 
REMARK    6  A    between atoms: N2_9  and  C8_16 
REMARK    7  A    between atoms: C3_10  and  C4_11 
REMARK    8  A    between atoms: C8_16  and  C9_17 
ROOT
HETATM    1  C9  UNL     1     -27.285   4.057 -12.973  1.00  0.00     0.008 C 
HETATM    2  C10 UNL     1     -28.800   3.899 -13.206  1.00  0.00     0.007 C 
HETATM    3  C11 UNL     1     -28.928   4.672 -14.515  1.00  0.00     0.006 C 
HETATM    4  C12 UNL     1     -28.232   5.938 -14.147  1.00  0.00    -0.001 C 
HETATM    5  C13 UNL     1     -27.911   6.845 -15.284  1.00  0.00     0.000 C 
HETATM    6  C14 UNL     1     -27.600   6.192 -16.577  1.00  0.00     0.046 C 
HETATM    7  C15 UNL     1     -26.677   6.872 -17.507  1.00  0.00     0.093 C 
HETATM    8  C16 UNL     1     -26.172   5.797 -18.496  1.00  0.00     0.049 C 
HETATM    9  C17 UNL     1     -27.238   7.952 -18.344  1.00  0.00     0.041 C 
HETATM   10  C18 UNL     1     -28.261   8.826 -17.742  1.00  0.00     0.006 C 
HETATM   11  C19 UNL     1     -27.887   9.471 -16.458  1.00  0.00     0.041 C 
HETATM   12  C20 UNL     1     -26.627   8.959 -15.830  1.00  0.00     0.097 C 
HETATM   13  C21 UNL     1     -26.048  10.119 -14.997  1.00  0.00     0.050 C 
HETATM   14  O5  UNL     1     -25.651   8.612 -16.718  1.00  0.00    -0.229 OA
HETATM   15  O6  UNL     1     -25.507   7.347 -16.909  1.00  0.00    -0.229 OA
HETATM   16  C22 UNL     1     -26.950   7.883 -14.798  1.00  0.00     0.027 C 
HETATM   17  C23 UNL     1     -25.760   7.372 -14.078  1.00  0.00     0.009 C 
HETATM   18  C24 UNL     1     -25.744   5.843 -13.927  1.00  0.00     0.010 C 
HETATM   19  C25 UNL     1     -27.057   5.467 -13.322  1.00  0.00    -0.035 C 
HETATM   20  C26 UNL     1     -27.077   6.247 -11.983  1.00  0.00     0.016 C 
ENDROOT
BRANCH   1  21
HETATM   21  C8  UNL     1     -26.627   2.973 -13.718  1.00  0.00     0.115 C 
BRANCH  21  22
HETATM   22  N2  UNL     1     -26.504   1.743 -12.959  1.00  0.00    -0.179 NA
BRANCH  22  23
HETATM   23  S1  UNL     1     -26.338   0.367 -13.975  1.00  0.00     0.361 S 
HETATM   24  O2  UNL     1     -27.599   0.217 -14.774  1.00  0.00    -0.179 OA
HETATM   25  O3  UNL     1     -26.109  -0.903 -13.248  1.00  0.00    -0.179 OA
BRANCH  23  26
HETATM   26  O1  UNL     1     -25.098   0.558 -15.092  1.00  0.00    -0.138 OA
BRANCH  26  27
HETATM   27  N1  UNL     1     -25.243  -0.212 -16.164  1.00  0.00    -0.247 N 
ATOM     28  H1  UNL     1     -26.135  -0.215 -16.659  1.00  0.00     0.195 HD
BRANCH  27  29
HETATM   29  C2  UNL     1     -24.195  -1.021 -16.632  1.00  0.00     0.097 C 
HETATM   30  C1  UNL     1     -22.939  -0.420 -17.129  1.00  0.00     0.076 C 
HETATM   31  C27 UNL     1     -24.337  -2.346 -16.624  1.00  0.00     0.291 C 
HETATM   32  F1  UNL     1     -23.353  -3.132 -17.064  1.00  0.00    -0.171 F 
HETATM   33  F2  UNL     1     -25.479  -2.914 -16.172  1.00  0.00    -0.171 F 
ENDBRANCH  27  29
ENDBRANCH  26  27
ENDBRANCH  23  26
ENDBRANCH  22  23
BRANCH  22  34
HETATM   34  C3  UNL     1     -25.353   1.780 -12.080  1.00  0.00     0.174 C 
BRANCH  34  35
HETATM   35  C4  UNL     1     -25.558   1.115 -10.778  1.00  0.00     0.066 A 
HETATM   36  C5  UNL     1     -26.819   0.834 -10.252  1.00  0.00     0.036 A 
HETATM   37  C6  UNL     1     -26.571   0.211  -9.023  1.00  0.00     0.027 A 
HETATM   38  C7  UNL     1     -25.207   0.156  -8.888  1.00  0.00     0.142 A 
HETATM   39  O4  UNL     1     -24.659   0.698  -9.940  1.00  0.00    -0.326 OA
ENDBRANCH  34  35
ENDBRANCH  22  34
ENDBRANCH  21  22
ENDBRANCH   1  21
TORSDOF 8
ENDMDL
MODEL 4
REMARK VINA RESULT: -8.483298333      0.836      1.002
REMARK  8 active torsions:
REMARK  status: ('A' for Active; 'I' for Inactive)
REMARK    1  A    between atoms: C2_2  and  N1_3 
REMARK    2  A    between atoms: N1_3  and  O1_5 
REMARK    3  A    between atoms: O1_5  and  S1_6 
REMARK    4  A    between atoms: S1_6  and  N2_9 
REMARK    5  A    between atoms: N2_9  and  C3_10 
REMARK    6  A    between atoms: N2_9  and  C8_16 
REMARK    7  A    between atoms: C3_10  and  C4_11 
REMARK    8  A    between atoms: C8_16  and  C9_17 
ROOT
HETATM    1  C9  UNL     1     -27.631   4.431 -13.139  1.00  0.00     0.008 C 
HETATM    2  C10 UNL     1     -29.147   4.461 -13.408  1.00  0.00     0.007 C 
HETATM    3  C11 UNL     1     -29.152   5.288 -14.690  1.00  0.00     0.006 C 
HETATM    4  C12 UNL     1     -28.320   6.450 -14.263  1.00  0.00    -0.001 C 
HETATM    5  C13 UNL     1     -27.867   7.350 -15.358  1.00  0.00     0.000 C 
HETATM    6  C14 UNL     1     -27.604   6.709 -16.668  1.00  0.00     0.046 C 
HETATM    7  C15 UNL     1     -26.584   7.305 -17.554  1.00  0.00     0.093 C 
HETATM    8  C16 UNL     1     -26.185   6.212 -18.570  1.00  0.00     0.049 C 
HETATM    9  C17 UNL     1     -26.994   8.472 -18.363  1.00  0.00     0.041 C 
HETATM   10  C18 UNL     1     -27.921   9.440 -17.750  1.00  0.00     0.006 C 
HETATM   11  C19 UNL     1     -27.505   9.992 -16.436  1.00  0.00     0.041 C 
HETATM   12  C20 UNL     1     -26.331   9.314 -15.801  1.00  0.00     0.097 C 
HETATM   13  C21 UNL     1     -25.639  10.368 -14.915  1.00  0.00     0.050 C 
HETATM   14  O5  UNL     1     -25.380   8.884 -16.681  1.00  0.00    -0.229 OA
HETATM   15  O6  UNL     1     -25.381   7.618 -16.916  1.00  0.00    -0.229 OA
HETATM   16  C22 UNL     1     -26.803   8.249 -14.815  1.00  0.00     0.027 C 
HETATM   17  C23 UNL     1     -25.700   7.577 -14.091  1.00  0.00     0.009 C 
HETATM   18  C24 UNL     1     -25.868   6.053 -13.995  1.00  0.00     0.010 C 
HETATM   19  C25 UNL     1     -27.230   5.815 -13.432  1.00  0.00    -0.035 C 
HETATM   20  C26 UNL     1     -27.191   6.546 -12.065  1.00  0.00     0.016 C 
ENDROOT
BRANCH   1  21
HETATM   21  C8  UNL     1     -27.087   3.302 -13.909  1.00  0.00     0.115 C 
BRANCH  21  22
HETATM   22  N2  UNL     1     -26.721   2.165 -13.087  1.00  0.00    -0.179 NA
BRANCH  22  23
HETATM   23  S1  UNL     1     -25.144   1.585 -13.445  1.00  0.00     0.361 S 
HETATM   24  O2  UNL     1     -24.561   1.003 -12.190  1.00  0.00    -0.179 OA
HETATM   25  O3  UNL     1     -24.210   2.625 -13.937  1.00  0.00    -0.179 OA
BRANCH  23  26
HETATM   26  O1  UNL     1     -25.173   0.337 -14.568  1.00  0.00    -0.138 OA
BRANCH  26  27
HETATM   27  N1  UNL     1     -25.683  -0.788 -14.081  1.00  0.00    -0.247 N 
ATOM     28  H1  UNL     1     -25.244  -1.225 -13.270  1.00  0.00     0.195 HD
BRANCH  27  29
HETATM   29  C2  UNL     1     -26.814  -1.389 -14.657  1.00  0.00     0.097 C 
HETATM   30  C1  UNL     1     -28.171  -0.877 -14.372  1.00  0.00     0.076 C 
HETATM   31  C27 UNL     1     -26.658  -2.432 -15.471  1.00  0.00     0.291 C 
HETATM   32  F1  UNL     1     -27.719  -3.017 -16.029  1.00  0.00    -0.171 F 
HETATM   33  F2  UNL     1     -25.423  -2.914 -15.745  1.00  0.00    -0.171 F 
ENDBRANCH  27  29
ENDBRANCH  26  27
ENDBRANCH  23  26
ENDBRANCH  22  23
BRANCH  22  34
HETATM   34  C3  UNL     1     -26.754   2.502 -11.678  1.00  0.00     0.174 C 
BRANCH  34  35
HETATM   35  C4  UNL     1     -27.549   1.576 -10.848  1.00  0.00     0.066 A 
HETATM   36  C5  UNL     1     -28.794   1.080 -11.231  1.00  0.00     0.036 A 
HETATM   37  C6  UNL     1     -29.198   0.252 -10.177  1.00  0.00     0.027 A 
HETATM   38  C7  UNL     1     -28.193   0.299  -9.245  1.00  0.00     0.142 A 
HETATM   39  O4  UNL     1     -27.251   1.088  -9.682  1.00  0.00    -0.326 OA
ENDBRANCH  34  35
ENDBRANCH  22  34
ENDBRANCH  21  22
ENDBRANCH   1  21
TORSDOF 8
ENDMDL
MODEL 5
REMARK VINA RESULT: -8.385629621      1.710      2.066
REMARK  8 active torsions:
REMARK  status: ('A' for Active; 'I' for Inactive)
REMARK    1  A    between atoms: C2_2  and  N1_3 
REMARK    2  A    between atoms: N1_3  and  O1_5 
REMARK    3  A    between atoms: O1_5  and  S1_6 
REMARK    4  A    between atoms: S1_6  and  N2_9 
REMARK    5  A    between atoms: N2_9  and  C3_10 
REMARK    6  A    between atoms: N2_9  and  C8_16 
REMARK    7  A    between atoms: C3_10  and  C4_11 
REMARK    8  A    between atoms: C8_16  and  C9_17 
ROOT
HETATM    1  C9  UNL     1     -26.919   4.100 -12.977  1.00  0.00     0.008 C 
HETATM    2  C10 UNL     1     -28.360   3.879 -12.478  1.00  0.00     0.007 C 
HETATM    3  C11 UNL     1     -29.121   4.509 -13.641  1.00  0.00     0.006 C 
HETATM    4  C12 UNL     1     -28.425   5.825 -13.734  1.00  0.00    -0.001 C 
HETATM    5  C13 UNL     1     -28.718   6.618 -14.960  1.00  0.00     0.000 C 
HETATM    6  C14 UNL     1     -28.981   5.843 -16.195  1.00  0.00     0.046 C 
HETATM    7  C15 UNL     1     -28.629   6.448 -17.496  1.00  0.00     0.093 C 
HETATM    8  C16 UNL     1     -28.552   5.291 -18.517  1.00  0.00     0.049 C 
HETATM    9  C17 UNL     1     -29.583   7.421 -18.067  1.00  0.00     0.041 C 
HETATM   10  C18 UNL     1     -30.282   8.325 -17.135  1.00  0.00     0.006 C 
HETATM   11  C19 UNL     1     -29.413   9.108 -16.220  1.00  0.00     0.041 C 
HETATM   12  C20 UNL     1     -27.974   8.697 -16.199  1.00  0.00     0.097 C 
HETATM   13  C21 UNL     1     -27.163   9.952 -15.818  1.00  0.00     0.050 C 
HETATM   14  O5  UNL     1     -27.483   8.287 -17.404  1.00  0.00    -0.229 OA
HETATM   15  O6  UNL     1     -27.352   7.013 -17.539  1.00  0.00    -0.229 OA
HETATM   16  C22 UNL     1     -27.717   7.725 -15.051  1.00  0.00     0.027 C 
HETATM   17  C23 UNL     1     -26.298   7.322 -14.917  1.00  0.00     0.009 C 
HETATM   18  C24 UNL     1     -26.107   5.818 -14.669  1.00  0.00     0.010 C 
HETATM   19  C25 UNL     1     -26.974   5.472 -13.503  1.00  0.00    -0.035 C 
HETATM   20  C26 UNL     1     -26.441   6.385 -12.369  1.00  0.00     0.016 C 
ENDROOT
BRANCH   1  21
HETATM   21  C8  UNL     1     -26.595   2.963 -13.852  1.00  0.00     0.115 C 
BRANCH  21  22
HETATM   22  N2  UNL     1     -26.444   1.710 -13.137  1.00  0.00    -0.179 NA
BRANCH  22  23
HETATM   23  S1  UNL     1     -26.248   0.375 -14.201  1.00  0.00     0.361 S 
HETATM   24  O2  UNL     1     -27.497   0.239 -15.021  1.00  0.00    -0.179 OA
HETATM   25  O3  UNL     1     -26.012  -0.919 -13.518  1.00  0.00    -0.179 OA
BRANCH  23  26
HETATM   26  O1  UNL     1     -24.997   0.622 -15.295  1.00  0.00    -0.138 OA
BRANCH  26  27
HETATM   27  N1  UNL     1     -25.067  -0.178 -16.352  1.00  0.00    -0.247 N 
ATOM     28  H1  UNL     1     -25.909  -0.173 -16.928  1.00  0.00     0.195 HD
BRANCH  27  29
HETATM   29  C2  UNL     1     -24.006  -1.033 -16.694  1.00  0.00     0.097 C 
HETATM   30  C1  UNL     1     -22.709  -0.486 -17.146  1.00  0.00     0.076 C 
HETATM   31  C27 UNL     1     -24.174  -2.352 -16.608  1.00  0.00     0.291 C 
HETATM   32  F1  UNL     1     -23.179  -3.181 -16.928  1.00  0.00    -0.171 F 
HETATM   33  F2  UNL     1     -25.354  -2.871 -16.196  1.00  0.00    -0.171 F 
ENDBRANCH  27  29
ENDBRANCH  26  27
ENDBRANCH  23  26
ENDBRANCH  22  23
BRANCH  22  34
HETATM   34  C3  UNL     1     -25.293   1.741 -12.258  1.00  0.00     0.174 C 
BRANCH  34  35
HETATM   35  C4  UNL     1     -25.520   1.129 -10.934  1.00  0.00     0.066 A 
HETATM   36  C5  UNL     1     -26.786   0.812 -10.443  1.00  0.00     0.036 A 
HETATM   37  C6  UNL     1     -26.560   0.260  -9.177  1.00  0.00     0.027 A 
HETATM   38  C7  UNL     1     -25.201   0.278  -8.987  1.00  0.00     0.142 A 
HETATM   39  O4  UNL     1     -24.637   0.796 -10.042  1.00  0.00    -0.326 OA
ENDBRANCH  34  35
ENDBRANCH  22  34
ENDBRANCH  21  22
ENDBRANCH   1  21
TORSDOF 8
ENDMDL
