MODEL 1
REMARK VINA RESULT: -8.574784828      0.000      0.000
REMARK  6 active torsions:
REMARK  status: ('A' for Active; 'I' for Inactive)
REMARK    1  A    between atoms: C4_4  and  C5_5 
REMARK    2  A    between atoms: C6_6  and  C7_7 
REMARK    3  A    between atoms: C7_7  and  C8_8 
REMARK    4  A    between atoms: C12_12  and  C13_13 
REMARK    5  A    between atoms: C13_13  and  N1_16 
REMARK       I    between atoms: N1_16  and  C16_18 
REMARK       I    between atoms: C16_18  and  N2_19 
REMARK       I    between atoms: C16_18  and  N3_23 
REMARK    6  A    between atoms: C25_38  and  O1_39 
ROOT
HETATM    1  C13 UNL     1     127.515  39.901 -23.743  1.00  0.00     0.026 C 
HETATM    2  C14 UNL     1     126.831  40.955 -22.859  1.00  0.00     0.038 C 
HETATM    3  C15 UNL     1     127.428  40.402 -25.139  1.00  0.00     0.038 C 
ENDROOT
BRANCH   1   4
HETATM    4  C12 UNL     1     126.652  38.651 -23.610  1.00  0.00     0.026 A 
HETATM    5  C11 UNL     1     126.609  37.645 -24.702  1.00  0.00     0.021 A 
HETATM    6  C10 UNL     1     126.854  36.275 -24.358  1.00  0.00    -0.014 C 
HETATM    7  C21 UNL     1     125.467  38.408 -24.431  1.00  0.00     0.011 A 
HETATM    8  C4  UNL     1     126.233  35.124 -24.065  1.00  0.00    -0.058 C 
HETATM    9  C3  UNL     1     124.799  34.838 -23.989  1.00  0.00     0.074 C 
HETATM   10  C2  UNL     1     124.169  35.669 -22.923  1.00  0.00    -0.056 C 
HETATM   11  C1  UNL     1     123.394  35.037 -22.077  1.00  0.00     0.017 C 
HETATM   12  C25 UNL     1     124.241  37.109 -22.606  1.00  0.00     0.155 C 
HETATM   13  C22 UNL     1     124.230  37.998 -23.790  1.00  0.00    -0.013 C 
HETATM   14  C23 UNL     1     123.564  39.312 -23.307  1.00  0.00     0.018 C 
HETATM   15  C24 UNL     1     123.276  37.454 -24.845  1.00  0.00     0.018 C 
BRANCH   8  16
HETATM   16  C5  UNL     1     127.112  34.013 -23.788  1.00  0.00     0.003 C 
HETATM   17  C6  UNL     1     128.319  33.797 -24.176  1.00  0.00    -0.026 C 
BRANCH  17  18
HETATM   18  C7  UNL     1     129.035  32.560 -23.755  1.00  0.00     0.027 C 
BRANCH  18  19
HETATM   19  C8  UNL     1     130.533  32.765 -23.738  1.00  0.00    -0.001 C 
HETATM   20  C9  UNL     1     130.810  34.109 -24.391  1.00  0.00     0.005 C 
ENDBRANCH  18  19
ENDBRANCH  17  18
ENDBRANCH   8  16
BRANCH  12  21
HETATM   21  O1  UNL     1     123.123  37.405 -21.823  1.00  0.00    -0.390 OA
ATOM     22  H1  UNL     1     123.191  38.323 -21.585  1.00  0.00     0.210 HD
ENDBRANCH  12  21
ENDBRANCH   1   4
BRANCH   1  23
HETATM   23  N1  UNL     1     128.791  39.544 -23.270  1.00  0.00    -0.372 N 
HETATM   24  C16 UNL     1     129.907  39.625 -24.144  1.00  0.00     0.384 C 
HETATM   25  N2  UNL     1     130.168  40.920 -24.685  1.00  0.00    -0.041 N 
HETATM   26  N3  UNL     1     129.954  38.567 -25.127  1.00  0.00    -0.333 N 
ATOM     27  H23 UNL     1     129.333  41.280 -25.148  1.00  0.00     0.279 HD
ATOM     28  H22 UNL     1     130.262  41.601 -23.931  1.00  0.00     0.279 HD
ATOM     29  H21 UNL     1     130.969  40.979 -25.313  1.00  0.00     0.279 HD
HETATM   30  C17 UNL     1     131.042  38.218 -25.679  1.00  0.00     0.107 A 
ATOM     31  H3  UNL     1     129.091  38.088 -25.384  1.00  0.00     0.164 HD
HETATM   32  C18 UNL     1     132.276  38.765 -25.438  1.00  0.00     0.065 A 
HETATM   33  N5  UNL     1     130.965  37.203 -26.589  1.00  0.00    -0.319 N 
HETATM   34  C19 UNL     1     133.394  38.273 -26.122  1.00  0.00     0.094 A 
HETATM   35  N4  UNL     1     133.270  37.273 -27.007  1.00  0.00    -0.343 N 
HETATM   36  C20 UNL     1     132.053  36.748 -27.232  1.00  0.00     0.180 A 
ATOM     37  H4  UNL     1     134.088  36.917 -27.502  1.00  0.00     0.167 HD
HETATM   38 CL1  UNL     1     131.899  35.433 -28.398  1.00  0.00    -0.045 Cl
ATOM     39  H5  UNL     1     130.058  36.780 -26.786  1.00  0.00     0.170 HD
ATOM     40  H1  UNL     1     128.913  39.230 -22.307  1.00  0.00     0.157 HD
ENDBRANCH   1  23
TORSDOF 6
ENDMDL
MODEL 2
REMARK VINA RESULT: -8.554034595      4.307      7.656
REMARK  6 active torsions:
REMARK  status: ('A' for Active; 'I' for Inactive)
REMARK    1  A    between atoms: C4_4  and  C5_5 
REMARK    2  A    between atoms: C6_6  and  C7_7 
REMARK    3  A    between atoms: C7_7  and  C8_8 
REMARK    4  A    between atoms: C12_12  and  C13_13 
REMARK    5  A    between atoms: C13_13  and  N1_16 
REMARK       I    between atoms: N1_16  and  C16_18 
REMARK       I    between atoms: C16_18  and  N2_19 
REMARK       I    between atoms: C16_18  and  N3_23 
REMARK    6  A    between atoms: C25_38  and  O1_39 
ROOT
HETATM    1  C13 UNL     1     125.464  38.252 -24.322  1.00  0.00     0.026 C 
HETATM    2  C14 UNL     1     125.018  39.127 -25.504  1.00  0.00     0.038 C 
HETATM    3  C15 UNL     1     124.896  38.875 -23.098  1.00  0.00     0.038 C 
ENDROOT
BRANCH   1   4
HETATM    4  C12 UNL     1     126.983  38.383 -24.284  1.00  0.00     0.026 A 
HETATM    5  C11 UNL     1     127.824  37.266 -23.782  1.00  0.00     0.021 A 
HETATM    6  C10 UNL     1     128.901  36.815 -24.614  1.00  0.00    -0.014 C 
HETATM    7  C21 UNL     1     127.749  38.450 -23.041  1.00  0.00     0.011 A 
HETATM    8  C4  UNL     1     130.221  36.946 -24.809  1.00  0.00    -0.058 C 
HETATM    9  C3  UNL     1     131.190  37.765 -24.079  1.00  0.00     0.074 C 
HETATM   10  C2  UNL     1     130.836  39.208 -24.206  1.00  0.00    -0.056 C 
HETATM   11  C1  UNL     1     131.810  40.016 -24.545  1.00  0.00     0.017 C 
HETATM   12  C25 UNL     1     129.570  39.945 -24.026  1.00  0.00     0.155 C 
HETATM   13  C22 UNL     1     128.752  39.488 -22.879  1.00  0.00    -0.013 C 
HETATM   14  C23 UNL     1     127.972  40.742 -22.409  1.00  0.00     0.018 C 
HETATM   15  C24 UNL     1     129.651  39.136 -21.702  1.00  0.00     0.018 C 
BRANCH   8  16
HETATM   16  C5  UNL     1     130.754  36.161 -25.898  1.00  0.00     0.003 C 
HETATM   17  C6  UNL     1     131.181  36.532 -27.053  1.00  0.00    -0.026 C 
BRANCH  17  18
HETATM   18  C7  UNL     1     131.692  35.526 -28.025  1.00  0.00     0.027 C 
BRANCH  18  19
HETATM   19  C8  UNL     1     133.132  35.795 -28.397  1.00  0.00    -0.001 C 
HETATM   20  C9  UNL     1     133.436  37.232 -28.008  1.00  0.00     0.005 C 
ENDBRANCH  18  19
ENDBRANCH  17  18
ENDBRANCH   8  16
BRANCH  12  21
HETATM   21  O1  UNL     1     129.909  41.284 -23.818  1.00  0.00    -0.390 OA
ATOM     22  H1  UNL     1     129.148  41.801 -24.058  1.00  0.00     0.210 HD
ENDBRANCH  12  21
ENDBRANCH   1   4
BRANCH   1  23
HETATM   23  N1  UNL     1     125.197  36.887 -24.529  1.00  0.00    -0.372 N 
HETATM   24  C16 UNL     1     123.910  36.373 -24.220  1.00  0.00     0.384 C 
HETATM   25  N2  UNL     1     122.826  36.976 -24.928  1.00  0.00    -0.041 N 
HETATM   26  N3  UNL     1     123.666  36.226 -22.804  1.00  0.00    -0.333 N 
ATOM     27  H23 UNL     1     122.841  37.986 -24.795  1.00  0.00     0.279 HD
ATOM     28  H22 UNL     1     122.992  36.924 -25.932  1.00  0.00     0.279 HD
ATOM     29  H21 UNL     1     121.901  36.607 -24.706  1.00  0.00     0.279 HD
HETATM   30  C17 UNL     1     122.802  35.411 -22.357  1.00  0.00     0.107 A 
ATOM     31  H3  UNL     1     124.202  36.792 -22.146  1.00  0.00     0.164 HD
HETATM   32  C18 UNL     1     122.008  34.588 -23.113  1.00  0.00     0.065 A 
HETATM   33  N5  UNL     1     122.663  35.356 -21.000  1.00  0.00    -0.319 N 
HETATM   34  C19 UNL     1     121.099  33.734 -22.479  1.00  0.00     0.094 A 
HETATM   35  N4  UNL     1     120.996  33.712 -21.142  1.00  0.00    -0.343 N 
HETATM   36  C20 UNL     1     121.782  34.527 -20.414  1.00  0.00     0.180 A 
ATOM     37  H4  UNL     1     120.333  33.088 -20.684  1.00  0.00     0.167 HD
HETATM   38 CL1  UNL     1     121.642  34.492 -18.657  1.00  0.00    -0.045 Cl
ATOM     39  H5  UNL     1     123.241  35.959 -20.415  1.00  0.00     0.170 HD
ATOM     40  H1  UNL     1     125.922  36.271 -24.897  1.00  0.00     0.157 HD
ENDBRANCH   1  23
TORSDOF 6
ENDMDL
MODEL 3
REMARK VINA RESULT: -8.420288631      4.483      7.809
REMARK  6 active torsions:
REMARK  status: ('A' for Active; 'I' for Inactive)
REMARK    1  A    between atoms: C4_4  and  C5_5 
REMARK    2  A    between atoms: C6_6  and  C7_7 
REMARK    3  A    between atoms: C7_7  and  C8_8 
REMARK    4  A    between atoms: C12_12  and  C13_13 
REMARK    5  A    between atoms: C13_13  and  N1_16 
REMARK       I    between atoms: N1_16  and  C16_18 
REMARK       I    between atoms: C16_18  and  N2_19 
REMARK       I    between atoms: C16_18  and  N3_23 
REMARK    6  A    between atoms: C25_38  and  O1_39 
ROOT
HETATM    1  C13 UNL     1     125.450  38.215 -24.211  1.00  0.00     0.026 C 
HETATM    2  C14 UNL     1     125.170  37.085 -25.214  1.00  0.00     0.038 C 
HETATM    3  C15 UNL     1     124.841  39.445 -24.781  1.00  0.00     0.038 C 
ENDROOT
BRANCH   1   4
HETATM    4  C12 UNL     1     126.967  38.371 -24.204  1.00  0.00     0.026 A 
HETATM    5  C11 UNL     1     127.836  37.269 -23.717  1.00  0.00     0.021 A 
HETATM    6  C10 UNL     1     128.903  36.834 -24.569  1.00  0.00    -0.014 C 
HETATM    7  C21 UNL     1     127.755  38.453 -22.976  1.00  0.00     0.011 A 
HETATM    8  C4  UNL     1     130.217  36.986 -24.790  1.00  0.00    -0.058 C 
HETATM    9  C3  UNL     1     131.186  37.823 -24.080  1.00  0.00     0.074 C 
HETATM   10  C2  UNL     1     130.806  39.259 -24.203  1.00  0.00    -0.056 C 
HETATM   11  C1  UNL     1     131.759  40.083 -24.563  1.00  0.00     0.017 C 
HETATM   12  C25 UNL     1     129.532  39.976 -23.999  1.00  0.00     0.155 C 
HETATM   13  C22 UNL     1     128.745  39.508 -22.836  1.00  0.00    -0.013 C 
HETATM   14  C23 UNL     1     127.953  40.750 -22.352  1.00  0.00     0.018 C 
HETATM   15  C24 UNL     1     129.673  39.173 -21.676  1.00  0.00     0.018 C 
BRANCH   8  16
HETATM   16  C5  UNL     1     130.741  36.208 -25.888  1.00  0.00     0.003 C 
HETATM   17  C6  UNL     1     131.190  36.589 -27.031  1.00  0.00    -0.026 C 
BRANCH  17  18
HETATM   18  C7  UNL     1     131.685  35.589 -28.017  1.00  0.00     0.027 C 
BRANCH  18  19
HETATM   19  C8  UNL     1     133.129  35.842 -28.388  1.00  0.00    -0.001 C 
HETATM   20  C9  UNL     1     133.456  37.267 -27.972  1.00  0.00     0.005 C 
ENDBRANCH  18  19
ENDBRANCH  17  18
ENDBRANCH   8  16
BRANCH  12  21
HETATM   21  O1  UNL     1     129.853  41.321 -23.800  1.00  0.00    -0.390 OA
ATOM     22  H1  UNL     1     130.646  41.490 -24.297  1.00  0.00     0.210 HD
ENDBRANCH  12  21
ENDBRANCH   1   4
BRANCH   1  23
HETATM   23  N1  UNL     1     125.088  37.872 -22.896  1.00  0.00    -0.372 N 
HETATM   24  C16 UNL     1     123.864  38.352 -22.361  1.00  0.00     0.384 C 
HETATM   25  N2  UNL     1     122.691  37.968 -23.078  1.00  0.00    -0.041 N 
HETATM   26  N3  UNL     1     123.893  39.753 -22.008  1.00  0.00    -0.333 N 
ATOM     27  H23 UNL     1     122.775  38.238 -24.057  1.00  0.00     0.279 HD
ATOM     28  H22 UNL     1     122.656  36.953 -23.174  1.00  0.00     0.279 HD
ATOM     29  H21 UNL     1     121.811  38.313 -22.694  1.00  0.00     0.279 HD
HETATM   30  C17 UNL     1     123.098  40.241 -21.148  1.00  0.00     0.107 A 
ATOM     31  H3  UNL     1     124.571  40.366 -22.461  1.00  0.00     0.164 HD
HETATM   32  C18 UNL     1     122.137  39.547 -20.458  1.00  0.00     0.065 A 
HETATM   33  N5  UNL     1     123.222  41.576 -20.892  1.00  0.00    -0.319 N 
HETATM   34  C19 UNL     1     121.332  40.220 -19.533  1.00  0.00     0.094 A 
HETATM   35  N4  UNL     1     121.490  41.533 -19.313  1.00  0.00    -0.343 N 
HETATM   36  C20 UNL     1     122.437  42.200 -19.998  1.00  0.00     0.180 A 
ATOM     37  H4  UNL     1     120.901  42.019 -18.637  1.00  0.00     0.167 HD
HETATM   38 CL1  UNL     1     122.639  43.927 -19.704  1.00  0.00    -0.045 Cl
ATOM     39  H5  UNL     1     123.929  42.115 -21.393  1.00  0.00     0.170 HD
ATOM     40  H1  UNL     1     125.700  37.283 -22.332  1.00  0.00     0.157 HD
ENDBRANCH   1  23
TORSDOF 6
ENDMDL
MODEL 4
REMARK VINA RESULT: -8.327574560      1.106      1.334
REMARK  6 active torsions:
REMARK  status: ('A' for Active; 'I' for Inactive)
REMARK    1  A    between atoms: C4_4  and  C5_5 
REMARK    2  A    between atoms: C6_6  and  C7_7 
REMARK    3  A    between atoms: C7_7  and  C8_8 
REMARK    4  A    between atoms: C12_12  and  C13_13 
REMARK    5  A    between atoms: C13_13  and  N1_16 
REMARK       I    between atoms: N1_16  and  C16_18 
REMARK       I    between atoms: C16_18  and  N2_19 
REMARK       I    between atoms: C16_18  and  N3_23 
REMARK    6  A    between atoms: C25_38  and  O1_39 
ROOT
HETATM    1  C13 UNL     1     128.623  40.726 -23.728  1.00  0.00     0.026 C 
HETATM    2  C14 UNL     1     128.179  41.823 -22.747  1.00  0.00     0.038 C 
HETATM    3  C15 UNL     1     128.568  41.328 -25.086  1.00  0.00     0.038 C 
ENDROOT
BRANCH   1   4
HETATM    4  C12 UNL     1     127.554  39.644 -23.623  1.00  0.00     0.026 A 
HETATM    5  C11 UNL     1     127.359  38.668 -24.725  1.00  0.00     0.021 A 
HETATM    6  C10 UNL     1     127.357  37.274 -24.390  1.00  0.00    -0.014 C 
HETATM    7  C21 UNL     1     126.361  39.615 -24.467  1.00  0.00     0.011 A 
HETATM    8  C4  UNL     1     126.541  36.246 -24.120  1.00  0.00    -0.058 C 
HETATM    9  C3  UNL     1     125.078  36.211 -24.072  1.00  0.00     0.074 C 
HETATM   10  C2  UNL     1     124.581  37.132 -23.009  1.00  0.00    -0.056 C 
HETATM   11  C1  UNL     1     123.692  36.638 -22.183  1.00  0.00     0.017 C 
HETATM   12  C25 UNL     1     124.895  38.535 -22.677  1.00  0.00     0.155 C 
HETATM   13  C22 UNL     1     125.060  39.421 -23.852  1.00  0.00    -0.013 C 
HETATM   14  C23 UNL     1     124.622  40.827 -23.368  1.00  0.00     0.018 C 
HETATM   15  C24 UNL     1     124.046  39.057 -24.929  1.00  0.00     0.018 C 
BRANCH   8  16
HETATM   16  C5  UNL     1     127.209  34.997 -23.838  1.00  0.00     0.003 C 
HETATM   17  C6  UNL     1     126.794  33.962 -23.200  1.00  0.00    -0.026 C 
BRANCH  17  18
HETATM   18  C7  UNL     1     127.677  32.774 -23.035  1.00  0.00     0.027 C 
BRANCH  18  19
HETATM   19  C8  UNL     1     128.615  32.612 -24.209  1.00  0.00    -0.001 C 
HETATM   20  C9  UNL     1     130.032  32.661 -23.662  1.00  0.00     0.005 C 
ENDBRANCH  18  19
ENDBRANCH  17  18
ENDBRANCH   8  16
BRANCH  12  21
HETATM   21  O1  UNL     1     123.830  39.016 -21.910  1.00  0.00    -0.390 OA
ATOM     22  H1  UNL     1     124.064  39.896 -21.637  1.00  0.00     0.210 HD
ENDBRANCH  12  21
ENDBRANCH   1   4
BRANCH   1  23
HETATM   23  N1  UNL     1     129.832  40.117 -23.346  1.00  0.00    -0.372 N 
HETATM   24  C16 UNL     1     130.860  39.942 -24.311  1.00  0.00     0.384 C 
HETATM   25  N2  UNL     1     131.337  41.140 -24.921  1.00  0.00    -0.041 N 
HETATM   26  N3  UNL     1     130.598  38.877 -25.253  1.00  0.00    -0.333 N 
ATOM     27  H23 UNL     1     130.560  41.659 -25.328  1.00  0.00     0.279 HD
ATOM     28  H22 UNL     1     131.638  41.801 -24.205  1.00  0.00     0.279 HD
ATOM     29  H21 UNL     1     132.075  41.015 -25.614  1.00  0.00     0.279 HD
HETATM   30  C17 UNL     1     131.536  38.294 -25.877  1.00  0.00     0.107 A 
ATOM     31  H3  UNL     1     129.634  38.587 -25.420  1.00  0.00     0.164 HD
HETATM   32  C18 UNL     1     132.874  38.571 -25.758  1.00  0.00     0.065 A 
HETATM   33  N5  UNL     1     131.168  37.300 -26.738  1.00  0.00    -0.319 N 
HETATM   34  C19 UNL     1     133.799  37.839 -26.511  1.00  0.00     0.094 A 
HETATM   35  N4  UNL     1     133.392  36.871 -27.344  1.00  0.00    -0.343 N 
HETATM   36  C20 UNL     1     132.076  36.611 -27.449  1.00  0.00     0.180 A 
ATOM     37  H4  UNL     1     134.070  36.339 -27.890  1.00  0.00     0.167 HD
HETATM   38 CL1  UNL     1     131.548  35.335 -28.546  1.00  0.00    -0.045 Cl
ATOM     39  H5  UNL     1     130.179  37.075 -26.844  1.00  0.00     0.170 HD
ATOM     40  H1  UNL     1     129.969  39.804 -22.386  1.00  0.00     0.157 HD
ENDBRANCH   1  23
TORSDOF 6
ENDMDL
MODEL 5
REMARK VINA RESULT: -8.261537051      4.592      7.894
REMARK  6 active torsions:
REMARK  status: ('A' for Active; 'I' for Inactive)
REMARK    1  A    between atoms: C4_4  and  C5_5 
REMARK    2  A    between atoms: C6_6  and  C7_7 
REMARK    3  A    between atoms: C7_7  and  C8_8 
REMARK    4  A    between atoms: C12_12  and  C13_13 
REMARK    5  A    between atoms: C13_13  and  N1_16 
REMARK       I    between atoms: N1_16  and  C16_18 
REMARK       I    between atoms: C16_18  and  N2_19 
REMARK       I    between atoms: C16_18  and  N3_23 
REMARK    6  A    between atoms: C25_38  and  O1_39 
ROOT
HETATM    1  C13 UNL     1     125.021  37.155 -24.045  1.00  0.00     0.026 C 
HETATM    2  C14 UNL     1     124.408  37.597 -25.383  1.00  0.00     0.038 C 
HETATM    3  C15 UNL     1     124.317  37.922 -22.985  1.00  0.00     0.038 C 
ENDROOT
BRANCH   1   4
HETATM    4  C12 UNL     1     126.475  37.613 -24.105  1.00  0.00     0.026 A 
HETATM    5  C11 UNL     1     127.562  36.738 -23.598  1.00  0.00     0.021 A 
HETATM    6  C10 UNL     1     128.672  36.479 -24.468  1.00  0.00    -0.014 C 
HETATM    7  C21 UNL     1     127.264  37.922 -22.914  1.00  0.00     0.011 A 
HETATM    8  C4  UNL     1     129.920  36.879 -24.748  1.00  0.00    -0.058 C 
HETATM    9  C3  UNL     1     130.719  37.932 -24.119  1.00  0.00     0.074 C 
HETATM   10  C2  UNL     1     130.052  39.254 -24.297  1.00  0.00    -0.056 C 
HETATM   11  C1  UNL     1     130.808  40.231 -24.735  1.00  0.00     0.017 C 
HETATM   12  C25 UNL     1     128.665  39.710 -24.081  1.00  0.00     0.155 C 
HETATM   13  C22 UNL     1     128.023  39.160 -22.865  1.00  0.00    -0.013 C 
HETATM   14  C23 UNL     1     127.009  40.243 -22.413  1.00  0.00     0.018 C 
HETATM   15  C24 UNL     1     129.031  39.085 -21.727  1.00  0.00     0.018 C 
BRANCH   8  16
HETATM   16  C5  UNL     1     130.560  36.162 -25.825  1.00  0.00     0.003 C 
HETATM   17  C6  UNL     1     131.153  36.605 -26.877  1.00  0.00    -0.026 C 
BRANCH  17  18
HETATM   18  C7  UNL     1     131.746  35.659 -27.862  1.00  0.00     0.027 C 
BRANCH  18  19
HETATM   19  C8  UNL     1     133.065  36.169 -28.398  1.00  0.00    -0.001 C 
HETATM   20  C9  UNL     1     133.413  37.423 -27.613  1.00  0.00     0.005 C 
ENDBRANCH  18  19
ENDBRANCH  17  18
ENDBRANCH   8  16
BRANCH  12  21
HETATM   21  O1  UNL     1     128.713  41.101 -23.961  1.00  0.00    -0.390 OA
ATOM     22  H1  UNL     1     129.629  41.349 -24.004  1.00  0.00     0.210 HD
ENDBRANCH  12  21
ENDBRANCH   1   4
BRANCH   1  23
HETATM   23  N1  UNL     1     125.061  35.756 -23.904  1.00  0.00    -0.372 N 
HETATM   24  C16 UNL     1     123.858  35.047 -23.644  1.00  0.00     0.384 C 
HETATM   25  N2  UNL     1     122.835  35.196 -24.628  1.00  0.00    -0.041 N 
HETATM   26  N3  UNL     1     123.381  35.190 -22.287  1.00  0.00    -0.333 N 
ATOM     27  H23 UNL     1     122.633  36.184 -24.776  1.00  0.00     0.279 HD
ATOM     28  H22 UNL     1     123.195  34.946 -25.548  1.00  0.00     0.279 HD
ATOM     29  H21 UNL     1     121.970  34.687 -24.440  1.00  0.00     0.279 HD
HETATM   30  C17 UNL     1     122.618  34.327 -21.754  1.00  0.00     0.107 A 
ATOM     31  H3  UNL     1     123.667  36.004 -21.743  1.00  0.00     0.164 HD
HETATM   32  C18 UNL     1     122.152  33.187 -22.356  1.00  0.00     0.065 A 
HETATM   33  N5  UNL     1     122.236  34.566 -20.465  1.00  0.00    -0.319 N 
HETATM   34  C19 UNL     1     121.316  32.322 -21.641  1.00  0.00     0.094 A 
HETATM   35  N4  UNL     1     120.967  32.596 -20.376  1.00  0.00    -0.343 N 
HETATM   36  C20 UNL     1     121.433  33.719 -19.799  1.00  0.00     0.180 A 
ATOM     37  H4  UNL     1     120.359  31.963 -19.858  1.00  0.00     0.167 HD
HETATM   38 CL1  UNL     1     120.971  34.073 -18.135  1.00  0.00    -0.045 Cl
ATOM     39  H5  UNL     1     122.569  35.408 -19.996  1.00  0.00     0.170 HD
ATOM     40  H1  UNL     1     125.945  35.255 -23.989  1.00  0.00     0.157 HD
ENDBRANCH   1  23
TORSDOF 6
ENDMDL
