MODEL 1
REMARK VINA RESULT: -9.368580636      0.000      0.000
REMARK  9 active torsions:
REMARK  status: ('A' for Active; 'I' for Inactive)
REMARK    1  A    between atoms: C2_2  and  C3_3 
REMARK    2  A    between atoms: C5_5  and  N1_6 
REMARK    3  A    between atoms: N1_6  and  C6_7 
REMARK    4  A    between atoms: C6_7  and  C7_11 
REMARK    5  A    between atoms: C9_14  and  O2_15 
REMARK    6  A    between atoms: C10_17  and  C11_18 
REMARK    7  A    between atoms: C15_24  and  N3_25 
REMARK       I    between atoms: N3_25  and  C16_27 
REMARK    8  A    between atoms: C16_27  and  C17_29 
REMARK    9  A    between atoms: C17_29  and  N4_30 
ROOT
HETATM    1  C7  UNL     1     -91.093 -14.736   8.362  1.00  0.00     0.146 A 
HETATM    2  O1  UNL     1     -91.215 -15.865   7.651  1.00  0.00    -0.314 OA
HETATM    3  C8  UNL     1     -91.843 -16.777   8.343  1.00  0.00     0.180 A 
HETATM    4  C9  UNL     1     -92.160 -16.242   9.576  1.00  0.00     0.102 A 
HETATM    5  C10 UNL     1     -91.667 -14.929   9.563  1.00  0.00     0.054 A 
ENDROOT
BRANCH   1   6
HETATM    6  C6  UNL     1     -90.415 -13.557   7.791  1.00  0.00     0.208 C 
HETATM    7  N2  UNL     1     -91.188 -12.706   7.100  1.00  0.00    -0.372 N 
ATOM      8  H22 UNL     1     -90.720 -11.891   6.705  1.00  0.00     0.158 HD
ATOM      9  H21 UNL     1     -92.182 -12.920   7.016  1.00  0.00     0.158 HD
BRANCH   6  10
HETATM   10  N1  UNL     1     -89.140 -13.283   7.899  1.00  0.00    -0.384 NA
BRANCH  10  11
HETATM   11  C5  UNL     1     -87.993 -13.025   8.009  1.00  0.00     0.127 A 
HETATM   12  C4  UNL     1     -87.242 -13.543   9.085  1.00  0.00     0.070 A 
HETATM   13  C3  UNL     1     -85.907 -13.246   9.229  1.00  0.00     0.013 A 
HETATM   14  N7  UNL     1     -85.288 -12.456   8.343  1.00  0.00    -0.344 N 
HETATM   15  C24 UNL     1     -85.956 -11.927   7.284  1.00  0.00     0.135 A 
ATOM     16  H7  UNL     1     -84.298 -12.247   8.464  1.00  0.00     0.167 HD
HETATM   17  C22 UNL     1     -87.293 -12.218   7.132  1.00  0.00     0.067 A 
HETATM   18  N6  UNL     1     -85.605 -11.123   6.263  1.00  0.00    -0.285 N 
HETATM   19  C23 UNL     1     -87.731 -11.561   5.986  1.00  0.00     0.126 A 
HETATM   20  N5  UNL     1     -86.665 -10.900   5.480  1.00  0.00    -0.309 N 
ATOM     21  H5  UNL     1     -86.669 -10.324   4.638  1.00  0.00     0.186 HD
ATOM     22  H6  UNL     1     -84.672 -10.742   6.110  1.00  0.00     0.188 HD
BRANCH  13  23
HETATM   23  C2  UNL     1     -85.137 -13.815  10.371  1.00  0.00     0.052 C 
HETATM   24  C1  UNL     1     -86.041 -13.997  11.578  1.00  0.00     0.011 C 
ENDBRANCH  13  23
ENDBRANCH  10  11
ENDBRANCH   6  10
ENDBRANCH   1   6
BRANCH   5  25
HETATM   25  C11 UNL     1     -91.792 -14.012  10.675  1.00  0.00     0.062 A 
HETATM   26  C12 UNL     1     -92.938 -13.215  10.775  1.00  0.00     0.169 A 
HETATM   27  F1  UNL     1     -93.903 -13.373   9.829  1.00  0.00    -0.202 F 
HETATM   28  C13 UNL     1     -93.050 -12.317  11.805  1.00  0.00     0.158 A 
HETATM   29  F2  UNL     1     -94.181 -11.561  11.866  1.00  0.00    -0.203 F 
HETATM   30  C14 UNL     1     -92.031 -12.195  12.749  1.00  0.00     0.078 A 
HETATM   31  C15 UNL     1     -90.885 -12.953  12.696  1.00  0.00     0.077 A 
HETATM   32  C21 UNL     1     -90.824 -13.850  11.628  1.00  0.00     0.157 A 
HETATM   33  F3  UNL     1     -89.722 -14.636  11.506  1.00  0.00    -0.203 F 
BRANCH  31  34
HETATM   34  N3  UNL     1     -89.823 -12.898  13.619  1.00  0.00    -0.323 N 
HETATM   35  C16 UNL     1     -89.716 -13.481  14.869  1.00  0.00     0.248 C 
HETATM   36  O3  UNL     1     -90.614 -14.172  15.372  1.00  0.00    -0.271 OA
ATOM     37  H3  UNL     1     -89.016 -12.349  13.324  1.00  0.00     0.169 HD
BRANCH  35  38
HETATM   38  C17 UNL     1     -88.481 -13.288  15.665  1.00  0.00     0.338 C 
BRANCH  38  39
HETATM   39  N4  UNL     1     -87.552 -14.355  15.660  1.00  0.00    -0.070 N 
HETATM   40  C18 UNL     1     -87.770 -15.333  14.627  1.00  0.00     0.272 C 
HETATM   41  C19 UNL     1     -87.443 -15.057  16.931  1.00  0.00     0.272 C 
HETATM   42  C20 UNL     1     -86.218 -13.732  15.484  1.00  0.00     0.272 C 
ENDBRANCH  38  39
ENDBRANCH  35  38
ENDBRANCH  31  34
ENDBRANCH   5  25
BRANCH   4  43
HETATM   43  O2  UNL     1     -92.812 -16.785  10.654  1.00  0.00    -0.358 OA
ATOM     44  H2  UNL     1     -92.519 -17.397  11.318  1.00  0.00     0.217 HD
ENDBRANCH   4  43
TORSDOF 9
ENDMDL
MODEL 2
REMARK VINA RESULT: -9.059733662      2.165      3.211
REMARK  9 active torsions:
REMARK  status: ('A' for Active; 'I' for Inactive)
REMARK    1  A    between atoms: C2_2  and  C3_3 
REMARK    2  A    between atoms: C5_5  and  N1_6 
REMARK    3  A    between atoms: N1_6  and  C6_7 
REMARK    4  A    between atoms: C6_7  and  C7_11 
REMARK    5  A    between atoms: C9_14  and  O2_15 
REMARK    6  A    between atoms: C10_17  and  C11_18 
REMARK    7  A    between atoms: C15_24  and  N3_25 
REMARK       I    between atoms: N3_25  and  C16_27 
REMARK    8  A    between atoms: C16_27  and  C17_29 
REMARK    9  A    between atoms: C17_29  and  N4_30 
ROOT
HETATM    1  C7  UNL     1     -91.304 -13.429   9.825  1.00  0.00     0.146 A 
HETATM    2  O1  UNL     1     -92.610 -13.256   9.584  1.00  0.00    -0.314 OA
HETATM    3  C8  UNL     1     -93.214 -12.795  10.646  1.00  0.00     0.180 A 
HETATM    4  C9  UNL     1     -92.277 -12.651  11.649  1.00  0.00     0.102 A 
HETATM    5  C10 UNL     1     -91.056 -13.065  11.096  1.00  0.00     0.054 A 
ENDROOT
BRANCH   1   6
HETATM    6  C6  UNL     1     -90.407 -13.944   8.772  1.00  0.00     0.208 C 
HETATM    7  N2  UNL     1     -90.878 -14.964   8.040  1.00  0.00    -0.372 N 
ATOM      8  H22 UNL     1     -90.259 -15.321   7.312  1.00  0.00     0.158 HD
ATOM      9  H21 UNL     1     -91.813 -15.315   8.249  1.00  0.00     0.158 HD
BRANCH   6  10
HETATM   10  N1  UNL     1     -89.208 -13.494   8.503  1.00  0.00    -0.384 NA
BRANCH  10  11
HETATM   11  C5  UNL     1     -88.127 -13.079   8.273  1.00  0.00     0.127 A 
HETATM   12  C4  UNL     1     -87.073 -13.274   9.191  1.00  0.00     0.070 A 
HETATM   13  C3  UNL     1     -85.812 -12.790   8.940  1.00  0.00     0.013 A 
HETATM   14  N7  UNL     1     -85.555 -12.121   7.809  1.00  0.00    -0.344 N 
HETATM   15  C24 UNL     1     -86.526 -11.901   6.884  1.00  0.00     0.135 A 
ATOM     16  H7  UNL     1     -84.613 -11.770   7.638  1.00  0.00     0.167 HD
HETATM   17  C22 UNL     1     -87.793 -12.381   7.128  1.00  0.00     0.067 A 
HETATM   18  N6  UNL     1     -86.559 -11.279   5.691  1.00  0.00    -0.285 N 
HETATM   19  C23 UNL     1     -88.586 -12.025   6.041  1.00  0.00     0.126 A 
HETATM   20  N5  UNL     1     -87.791 -11.350   5.179  1.00  0.00    -0.309 N 
ATOM     21  H5  UNL     1     -88.084 -10.958   4.284  1.00  0.00     0.186 HD
ATOM     22  H6  UNL     1     -85.763 -10.822   5.245  1.00  0.00     0.188 HD
BRANCH  13  23
HETATM   23  C2  UNL     1     -84.717 -13.020   9.924  1.00  0.00     0.052 C 
HETATM   24  C1  UNL     1     -84.941 -14.325  10.668  1.00  0.00     0.011 C 
ENDBRANCH  13  23
ENDBRANCH  10  11
ENDBRANCH   6  10
ENDBRANCH   1   6
BRANCH   5  25
HETATM   25  C11 UNL     1     -89.804 -13.071  11.820  1.00  0.00     0.062 A 
HETATM   26  C12 UNL     1     -89.017 -11.913  11.829  1.00  0.00     0.169 A 
HETATM   27  F1  UNL     1     -89.494 -10.819  11.176  1.00  0.00    -0.202 F 
HETATM   28  C13 UNL     1     -87.812 -11.919  12.484  1.00  0.00     0.158 A 
HETATM   29  F2  UNL     1     -87.077 -10.774  12.468  1.00  0.00    -0.203 F 
HETATM   30  C14 UNL     1     -87.369 -13.069  13.138  1.00  0.00     0.078 A 
HETATM   31  C15 UNL     1     -88.104 -14.231  13.158  1.00  0.00     0.077 A 
HETATM   32  C21 UNL     1     -89.321 -14.169  12.478  1.00  0.00     0.157 A 
HETATM   33  F3  UNL     1     -90.105 -15.278  12.452  1.00  0.00    -0.203 F 
BRANCH  31  34
HETATM   34  N3  UNL     1     -87.732 -15.423  13.810  1.00  0.00    -0.323 N 
HETATM   35  C16 UNL     1     -87.592 -15.677  15.163  1.00  0.00     0.248 C 
HETATM   36  O3  UNL     1     -87.786 -14.819  16.035  1.00  0.00    -0.271 OA
ATOM     37  H3  UNL     1     -87.538 -16.214  13.196  1.00  0.00     0.169 HD
BRANCH  35  38
HETATM   38  C17 UNL     1     -87.194 -17.031  15.617  1.00  0.00     0.338 C 
BRANCH  38  39
HETATM   39  N4  UNL     1     -85.834 -17.380  15.446  1.00  0.00    -0.070 N 
HETATM   40  C18 UNL     1     -84.957 -16.267  15.195  1.00  0.00     0.272 C 
HETATM   41  C19 UNL     1     -85.601 -18.380  14.412  1.00  0.00     0.272 C 
HETATM   42  C20 UNL     1     -85.429 -18.064  16.698  1.00  0.00     0.272 C 
ENDBRANCH  38  39
ENDBRANCH  35  38
ENDBRANCH  31  34
ENDBRANCH   5  25
BRANCH   4  43
HETATM   43  O2  UNL     1     -92.399 -12.208  12.941  1.00  0.00    -0.358 OA
ATOM     44  H2  UNL     1     -91.748 -11.899  13.560  1.00  0.00     0.217 HD
ENDBRANCH   4  43
TORSDOF 9
ENDMDL
MODEL 3
REMARK VINA RESULT: -9.055137845      2.643      5.105
REMARK  9 active torsions:
REMARK  status: ('A' for Active; 'I' for Inactive)
REMARK    1  A    between atoms: C2_2  and  C3_3 
REMARK    2  A    between atoms: C5_5  and  N1_6 
REMARK    3  A    between atoms: N1_6  and  C6_7 
REMARK    4  A    between atoms: C6_7  and  C7_11 
REMARK    5  A    between atoms: C9_14  and  O2_15 
REMARK    6  A    between atoms: C10_17  and  C11_18 
REMARK    7  A    between atoms: C15_24  and  N3_25 
REMARK       I    between atoms: N3_25  and  C16_27 
REMARK    8  A    between atoms: C16_27  and  C17_29 
REMARK    9  A    between atoms: C17_29  and  N4_30 
ROOT
HETATM    1  C7  UNL     1     -91.923 -14.295  11.080  1.00  0.00     0.146 A 
HETATM    2  O1  UNL     1     -92.872 -15.235  11.182  1.00  0.00    -0.314 OA
HETATM    3  C8  UNL     1     -92.622 -16.227  10.371  1.00  0.00     0.180 A 
HETATM    4  C9  UNL     1     -91.454 -15.946   9.691  1.00  0.00     0.102 A 
HETATM    5  C10 UNL     1     -91.024 -14.698  10.165  1.00  0.00     0.054 A 
ENDROOT
BRANCH   1   6
HETATM    6  C6  UNL     1     -91.988 -13.070  11.901  1.00  0.00     0.208 C 
HETATM    7  N2  UNL     1     -93.148 -12.398  11.872  1.00  0.00    -0.372 N 
ATOM      8  H22 UNL     1     -93.193 -11.551  12.439  1.00  0.00     0.158 HD
ATOM      9  H21 UNL     1     -93.904 -12.769  11.296  1.00  0.00     0.158 HD
BRANCH   6  10
HETATM   10  N1  UNL     1     -91.018 -12.594  12.640  1.00  0.00    -0.384 NA
BRANCH  10  11
HETATM   11  C5  UNL     1     -90.149 -12.151  13.306  1.00  0.00     0.127 A 
HETATM   12  C4  UNL     1     -89.917 -12.648  14.606  1.00  0.00     0.070 A 
HETATM   13  C3  UNL     1     -88.915 -12.137  15.395  1.00  0.00     0.013 A 
HETATM   14  N7  UNL     1     -88.130 -11.151  14.941  1.00  0.00    -0.344 N 
HETATM   15  C24 UNL     1     -88.302 -10.630  13.698  1.00  0.00     0.135 A 
ATOM     16  H7  UNL     1     -87.390 -10.784  15.539  1.00  0.00     0.167 HD
HETATM   17  C22 UNL     1     -89.305 -11.135  12.901  1.00  0.00     0.067 A 
HETATM   18  N6  UNL     1     -87.683  -9.663  12.994  1.00  0.00    -0.285 N 
HETATM   19  C23 UNL     1     -89.265 -10.438  11.697  1.00  0.00     0.126 A 
HETATM   20  N5  UNL     1     -88.256  -9.543  11.793  1.00  0.00    -0.309 N 
ATOM     21  H5  UNL     1     -87.976  -8.883  11.067  1.00  0.00     0.186 HD
ATOM     22  H6  UNL     1     -86.896  -9.106  13.328  1.00  0.00     0.188 HD
BRANCH  13  23
HETATM   23  C2  UNL     1     -88.688 -12.688  16.761  1.00  0.00     0.052 C 
HETATM   24  C1  UNL     1     -87.624 -11.882  17.485  1.00  0.00     0.011 C 
ENDBRANCH  13  23
ENDBRANCH  10  11
ENDBRANCH   6  10
ENDBRANCH   1   6
BRANCH   5  25
HETATM   25  C11 UNL     1     -89.825 -14.032   9.706  1.00  0.00     0.062 A 
HETATM   26  C12 UNL     1     -89.853 -13.343   8.488  1.00  0.00     0.169 A 
HETATM   27  F1  UNL     1     -91.031 -13.307   7.808  1.00  0.00    -0.202 F 
HETATM   28  C13 UNL     1     -88.712 -12.737   8.027  1.00  0.00     0.158 A 
HETATM   29  F2  UNL     1     -88.781 -12.078   6.838  1.00  0.00    -0.203 F 
HETATM   30  C14 UNL     1     -87.530 -12.805   8.764  1.00  0.00     0.078 A 
HETATM   31  C15 UNL     1     -87.449 -13.469   9.965  1.00  0.00     0.077 A 
HETATM   32  C21 UNL     1     -88.638 -14.066  10.387  1.00  0.00     0.157 A 
HETATM   33  F3  UNL     1     -88.640 -14.742  11.566  1.00  0.00    -0.203 F 
BRANCH  31  34
HETATM   34  N3  UNL     1     -86.299 -13.566  10.772  1.00  0.00    -0.323 N 
HETATM   35  C16 UNL     1     -85.595 -12.567  11.420  1.00  0.00     0.248 C 
HETATM   36  O3  UNL     1     -85.911 -11.370  11.361  1.00  0.00    -0.271 OA
ATOM     37  H3  UNL     1     -85.932 -14.509  10.897  1.00  0.00     0.169 HD
BRANCH  35  38
HETATM   38  C17 UNL     1     -84.405 -12.916  12.231  1.00  0.00     0.338 C 
BRANCH  38  39
HETATM   39  N4  UNL     1     -84.615 -13.099  13.618  1.00  0.00    -0.070 N 
HETATM   40  C18 UNL     1     -85.825 -13.804  13.951  1.00  0.00     0.272 C 
HETATM   41  C19 UNL     1     -84.583 -11.866  14.393  1.00  0.00     0.272 C 
HETATM   42  C20 UNL     1     -83.441 -13.859  14.111  1.00  0.00     0.272 C 
ENDBRANCH  38  39
ENDBRANCH  35  38
ENDBRANCH  31  34
ENDBRANCH   5  25
BRANCH   4  43
HETATM   43  O2  UNL     1     -90.771 -16.659   8.739  1.00  0.00    -0.358 OA
ATOM     44  H2  UNL     1     -90.112 -16.389   8.110  1.00  0.00     0.217 HD
ENDBRANCH   4  43
TORSDOF 9
ENDMDL
MODEL 4
REMARK VINA RESULT: -8.917167458      1.623      2.259
REMARK  9 active torsions:
REMARK  status: ('A' for Active; 'I' for Inactive)
REMARK    1  A    between atoms: C2_2  and  C3_3 
REMARK    2  A    between atoms: C5_5  and  N1_6 
REMARK    3  A    between atoms: N1_6  and  C6_7 
REMARK    4  A    between atoms: C6_7  and  C7_11 
REMARK    5  A    between atoms: C9_14  and  O2_15 
REMARK    6  A    between atoms: C10_17  and  C11_18 
REMARK    7  A    between atoms: C15_24  and  N3_25 
REMARK       I    between atoms: N3_25  and  C16_27 
REMARK    8  A    between atoms: C16_27  and  C17_29 
REMARK    9  A    between atoms: C17_29  and  N4_30 
ROOT
HETATM    1  C7  UNL     1     -91.077 -14.819   8.546  1.00  0.00     0.146 A 
HETATM    2  O1  UNL     1     -91.206 -15.872   7.728  1.00  0.00    -0.314 OA
HETATM    3  C8  UNL     1     -91.934 -16.800   8.288  1.00  0.00     0.180 A 
HETATM    4  C9  UNL     1     -92.313 -16.357   9.539  1.00  0.00     0.102 A 
HETATM    5  C10 UNL     1     -91.750 -15.080   9.681  1.00  0.00     0.054 A 
ENDROOT
BRANCH   1   6
HETATM    6  C6  UNL     1     -90.294 -13.638   8.134  1.00  0.00     0.208 C 
HETATM    7  N2  UNL     1     -90.731 -12.988   7.045  1.00  0.00    -0.372 N 
ATOM      8  H22 UNL     1     -90.190 -12.173   6.759  1.00  0.00     0.158 HD
ATOM      9  H21 UNL     1     -91.566 -13.342   6.577  1.00  0.00     0.158 HD
BRANCH   6  10
HETATM   10  N1  UNL     1     -89.223 -13.185   8.734  1.00  0.00    -0.384 NA
BRANCH  10  11
HETATM   11  C5  UNL     1     -88.263 -12.777   9.289  1.00  0.00     0.127 A 
HETATM   12  C4  UNL     1     -86.976 -13.210   8.908  1.00  0.00     0.070 A 
HETATM   13  C3  UNL     1     -85.851 -12.749   9.550  1.00  0.00     0.013 A 
HETATM   14  N7  UNL     1     -85.956 -11.871  10.556  1.00  0.00    -0.344 N 
HETATM   15  C24 UNL     1     -87.167 -11.415  10.970  1.00  0.00     0.135 A 
ATOM     16  H7  UNL     1     -85.111 -11.539  11.021  1.00  0.00     0.167 HD
HETATM   17  C22 UNL     1     -88.300 -11.873  10.333  1.00  0.00     0.067 A 
HETATM   18  N6  UNL     1     -87.568 -10.556  11.926  1.00  0.00    -0.285 N 
HETATM   19  C23 UNL     1     -89.391 -11.259  10.941  1.00  0.00     0.126 A 
HETATM   20  N5  UNL     1     -88.900 -10.457  11.914  1.00  0.00    -0.309 N 
ATOM     21  H5  UNL     1     -89.456  -9.872  12.538  1.00  0.00     0.186 HD
ATOM     22  H6  UNL     1     -86.948 -10.057  12.563  1.00  0.00     0.188 HD
BRANCH  13  23
HETATM   23  C2  UNL     1     -84.504 -13.218   9.120  1.00  0.00     0.052 C 
HETATM   24  C1  UNL     1     -83.889 -12.231   8.143  1.00  0.00     0.011 C 
ENDBRANCH  13  23
ENDBRANCH  10  11
ENDBRANCH   6  10
ENDBRANCH   1   6
BRANCH   5  25
HETATM   25  C11 UNL     1     -91.907 -14.257  10.860  1.00  0.00     0.062 A 
HETATM   26  C12 UNL     1     -92.930 -13.302  10.892  1.00  0.00     0.169 A 
HETATM   27  F1  UNL     1     -93.755 -13.222   9.813  1.00  0.00    -0.202 F 
HETATM   28  C13 UNL     1     -93.066 -12.493  11.991  1.00  0.00     0.158 A 
HETATM   29  F2  UNL     1     -94.074 -11.577  11.982  1.00  0.00    -0.203 F 
HETATM   30  C14 UNL     1     -92.193 -12.616  13.071  1.00  0.00     0.078 A 
HETATM   31  C15 UNL     1     -91.172 -13.537  13.089  1.00  0.00     0.077 A 
HETATM   32  C21 UNL     1     -91.080 -14.334  11.948  1.00  0.00     0.157 A 
HETATM   33  F3  UNL     1     -90.096 -15.269  11.889  1.00  0.00    -0.203 F 
BRANCH  31  34
HETATM   34  N3  UNL     1     -90.264 -13.732  14.148  1.00  0.00    -0.323 N 
HETATM   35  C16 UNL     1     -89.420 -12.822  14.760  1.00  0.00     0.248 C 
HETATM   36  O3  UNL     1     -89.350 -11.632  14.422  1.00  0.00    -0.271 OA
ATOM     37  H3  UNL     1     -90.221 -14.682  14.517  1.00  0.00     0.169 HD
BRANCH  35  38
HETATM   38  C17 UNL     1     -88.550 -13.264  15.874  1.00  0.00     0.338 C 
BRANCH  38  39
HETATM   39  N4  UNL     1     -87.357 -13.936  15.517  1.00  0.00    -0.070 N 
HETATM   40  C18 UNL     1     -86.821 -13.562  14.234  1.00  0.00     0.272 C 
HETATM   41  C19 UNL     1     -87.455 -15.388  15.559  1.00  0.00     0.272 C 
HETATM   42  C20 UNL     1     -86.375 -13.616  16.581  1.00  0.00     0.272 C 
ENDBRANCH  38  39
ENDBRANCH  35  38
ENDBRANCH  31  34
ENDBRANCH   5  25
BRANCH   4  43
HETATM   43  O2  UNL     1     -93.074 -16.949  10.514  1.00  0.00    -0.358 OA
ATOM     44  H2  UNL     1     -93.974 -16.803  10.780  1.00  0.00     0.217 HD
ENDBRANCH   4  43
TORSDOF 9
ENDMDL
MODEL 5
REMARK VINA RESULT: -8.886848543      2.777      5.699
REMARK  9 active torsions:
REMARK  status: ('A' for Active; 'I' for Inactive)
REMARK    1  A    between atoms: C2_2  and  C3_3 
REMARK    2  A    between atoms: C5_5  and  N1_6 
REMARK    3  A    between atoms: N1_6  and  C6_7 
REMARK    4  A    between atoms: C6_7  and  C7_11 
REMARK    5  A    between atoms: C9_14  and  O2_15 
REMARK    6  A    between atoms: C10_17  and  C11_18 
REMARK    7  A    between atoms: C15_24  and  N3_25 
REMARK       I    between atoms: N3_25  and  C16_27 
REMARK    8  A    between atoms: C16_27  and  C17_29 
REMARK    9  A    between atoms: C17_29  and  N4_30 
ROOT
HETATM    1  C7  UNL     1     -92.042 -14.340  10.820  1.00  0.00     0.146 A 
HETATM    2  O1  UNL     1     -92.998 -15.279  10.828  1.00  0.00    -0.314 OA
HETATM    3  C8  UNL     1     -92.697 -16.246  10.004  1.00  0.00     0.180 A 
HETATM    4  C9  UNL     1     -91.486 -15.949   9.412  1.00  0.00     0.102 A 
HETATM    5  C10 UNL     1     -91.085 -14.719   9.954  1.00  0.00     0.054 A 
ENDROOT
BRANCH   1   6
HETATM    6  C6  UNL     1     -92.157 -13.142  11.673  1.00  0.00     0.208 C 
HETATM    7  N2  UNL     1     -93.397 -12.666  11.861  1.00  0.00    -0.372 N 
ATOM      8  H22 UNL     1     -93.477 -11.837  12.450  1.00  0.00     0.158 HD
ATOM      9  H21 UNL     1     -94.172 -13.153  11.412  1.00  0.00     0.158 HD
BRANCH   6  10
HETATM   10  N1  UNL     1     -91.162 -12.516  12.249  1.00  0.00    -0.384 NA
BRANCH  10  11
HETATM   11  C5  UNL     1     -90.255 -11.958  12.759  1.00  0.00     0.127 A 
HETATM   12  C4  UNL     1     -89.529 -10.976  12.052  1.00  0.00     0.070 A 
HETATM   13  C3  UNL     1     -88.467 -10.323  12.629  1.00  0.00     0.013 A 
HETATM   14  N7  UNL     1     -88.098 -10.606  13.885  1.00  0.00    -0.344 N 
HETATM   15  C24 UNL     1     -88.757 -11.541  14.619  1.00  0.00     0.135 A 
ATOM     16  H7  UNL     1     -87.307 -10.111  14.298  1.00  0.00     0.167 HD
HETATM   17  C22 UNL     1     -89.822 -12.201  14.048  1.00  0.00     0.067 A 
HETATM   18  N6  UNL     1     -88.614 -12.021  15.868  1.00  0.00    -0.285 N 
HETATM   19  C23 UNL     1     -90.312 -13.092  14.998  1.00  0.00     0.126 A 
HETATM   20  N5  UNL     1     -89.544 -12.951  16.103  1.00  0.00    -0.309 N 
ATOM     21  H5  UNL     1     -89.656 -13.471  16.973  1.00  0.00     0.186 HD
ATOM     22  H6  UNL     1     -87.904 -11.720  16.536  1.00  0.00     0.188 HD
BRANCH  13  23
HETATM   23  C2  UNL     1     -87.725  -9.284  11.860  1.00  0.00     0.052 C 
HETATM   24  C1  UNL     1     -86.344  -9.792  11.485  1.00  0.00     0.011 C 
ENDBRANCH  13  23
ENDBRANCH  10  11
ENDBRANCH   6  10
ENDBRANCH   1   6
BRANCH   5  25
HETATM   25  C11 UNL     1     -89.856 -14.044   9.597  1.00  0.00     0.062 A 
HETATM   26  C12 UNL     1     -89.791 -13.343   8.388  1.00  0.00     0.169 A 
HETATM   27  F1  UNL     1     -90.912 -13.303   7.618  1.00  0.00    -0.202 F 
HETATM   28  C13 UNL     1     -88.620 -12.729   8.024  1.00  0.00     0.158 A 
HETATM   29  F2  UNL     1     -88.598 -12.057   6.840  1.00  0.00    -0.203 F 
HETATM   30  C14 UNL     1     -87.499 -12.801   8.850  1.00  0.00     0.078 A 
HETATM   31  C15 UNL     1     -87.510 -13.477  10.047  1.00  0.00     0.077 A 
HETATM   32  C21 UNL     1     -88.726 -14.082  10.368  1.00  0.00     0.157 A 
HETATM   33  F3  UNL     1     -88.818 -14.771  11.536  1.00  0.00    -0.203 F 
BRANCH  31  34
HETATM   34  N3  UNL     1     -86.426 -13.579  10.940  1.00  0.00    -0.323 N 
HETATM   35  C16 UNL     1     -85.141 -14.037  10.712  1.00  0.00     0.248 C 
HETATM   36  O3  UNL     1     -84.756 -14.451   9.609  1.00  0.00    -0.271 OA
ATOM     37  H3  UNL     1     -86.616 -13.272  11.894  1.00  0.00     0.169 HD
BRANCH  35  38
HETATM   38  C17 UNL     1     -84.157 -14.042  11.821  1.00  0.00     0.338 C 
BRANCH  38  39
HETATM   39  N4  UNL     1     -83.420 -12.851  12.018  1.00  0.00    -0.070 N 
HETATM   40  C18 UNL     1     -83.872 -12.043  13.120  1.00  0.00     0.272 C 
HETATM   41  C19 UNL     1     -83.335 -12.000  10.839  1.00  0.00     0.272 C 
HETATM   42  C20 UNL     1     -82.018 -13.274  12.251  1.00  0.00     0.272 C 
ENDBRANCH  38  39
ENDBRANCH  35  38
ENDBRANCH  31  34
ENDBRANCH   5  25
BRANCH   4  43
HETATM   43  O2  UNL     1     -90.743 -16.635   8.486  1.00  0.00    -0.358 OA
ATOM     44  H2  UNL     1     -89.816 -16.838   8.455  1.00  0.00     0.217 HD
ENDBRANCH   4  43
TORSDOF 9
ENDMDL
