MODEL 1
REMARK VINA RESULT: -7.942663099      0.000      0.000
REMARK  9 active torsions:
REMARK  status: ('A' for Active; 'I' for Inactive)
REMARK    1  A    between atoms: C2_2  and  C3_4 
REMARK    2  A    between atoms: C4_5  and  O1_6 
REMARK    3  A    between atoms: O1_6  and  C5_7 
REMARK    4  A    between atoms: C5_7  and  O2_8 
REMARK    5  A    between atoms: O2_8  and  C6_9 
REMARK    6  A    between atoms: C6_9  and  C7_11 
REMARK    7  A    between atoms: C17_21  and  O4_22 
REMARK    8  A    between atoms: C21_27  and  O5_28 
REMARK    9  A    between atoms: C26_34  and  O6_35 
ROOT
HETATM    1  C3  UNL     1     -86.391 -12.213  13.073  1.00  0.00     0.021 C 
HETATM    2  C4  UNL     1     -86.582 -12.979  12.019  1.00  0.00     0.068 C 
HETATM    3  C10 UNL     1     -87.799 -13.359  11.321  1.00  0.00     0.072 C 
HETATM    4  C11 UNL     1     -87.896 -14.873  11.040  1.00  0.00     0.016 C 
HETATM    5  C12 UNL     1     -88.718 -15.033   9.845  1.00  0.00     0.013 C 
HETATM    6  C13 UNL     1     -90.189 -15.136   9.904  1.00  0.00    -0.012 C 
HETATM    7  C14 UNL     1     -90.520 -16.637   9.789  1.00  0.00     0.018 C 
HETATM    8  C15 UNL     1     -90.679 -14.547   8.572  1.00  0.00     0.014 C 
HETATM    9  C16 UNL     1     -91.985 -13.897   8.552  1.00  0.00     0.033 C 
HETATM   10  C17 UNL     1     -92.966 -14.268   9.594  1.00  0.00     0.129 C 
HETATM   11  C18 UNL     1     -92.392 -14.541  10.936  1.00  0.00     0.010 C 
HETATM   12  C19 UNL     1     -92.987 -13.514  11.917  1.00  0.00     0.020 C 
HETATM   13  C20 UNL     1     -92.974 -15.866  11.407  1.00  0.00     0.020 C 
HETATM   14  C21 UNL     1     -90.893 -14.492  11.033  1.00  0.00     0.078 C 
HETATM   15  C22 UNL     1     -90.395 -13.047  11.140  1.00  0.00     0.074 C 
HETATM   16  C23 UNL     1     -89.091 -13.015  11.911  1.00  0.00    -0.070 C 
HETATM   17  C24 UNL     1     -89.418 -12.661  13.127  1.00  0.00    -0.020 C 
HETATM   18  C25 UNL     1     -88.476 -12.516  14.280  1.00  0.00     0.064 C 
HETATM   19  C26 UNL     1     -87.477 -11.465  13.828  1.00  0.00     0.158 C 
ENDROOT
BRANCH   2  20
HETATM   20  O1  UNL     1     -85.430 -13.545  11.444  1.00  0.00    -0.329 OA
BRANCH  20  21
HETATM   21  C5  UNL     1     -84.865 -12.916  10.289  1.00  0.00     0.354 C 
BRANCH  21  22
HETATM   22  O2  UNL     1     -85.135 -13.701   9.159  1.00  0.00    -0.295 OA
BRANCH  22  23
HETATM   23  C6  UNL     1     -84.839 -13.357   7.871  1.00  0.00     0.264 C 
HETATM   24  O3  UNL     1     -83.679 -13.567   7.432  1.00  0.00    -0.265 OA
BRANCH  23  25
HETATM   25  C7  UNL     1     -85.841 -12.733   6.942  1.00  0.00     0.077 C 
HETATM   26  C8  UNL     1     -85.364 -12.728   5.530  1.00  0.00     0.020 C 
HETATM   27  C9  UNL     1     -87.189 -13.357   7.135  1.00  0.00     0.020 C 
ENDBRANCH  23  25
ENDBRANCH  22  23
ENDBRANCH  21  22
ENDBRANCH  20  21
ENDBRANCH   2  20
BRANCH   1  28
HETATM   28  C2  UNL     1     -85.084 -11.986  13.605  1.00  0.00     0.036 C 
HETATM   29  C1  UNL     1     -84.374 -10.927  13.375  1.00  0.00     0.037 C 
HETATM   30 CL1  UNL     1     -84.366 -13.164  14.698  1.00  0.00    -0.084 Cl
ENDBRANCH   1  28
BRANCH  19  31
HETATM   31  O6  UNL     1     -88.152 -10.619  12.928  1.00  0.00    -0.390 OA
ATOM     32  H6  UNL     1     -88.844 -10.167  13.395  1.00  0.00     0.210 HD
ENDBRANCH  19  31
BRANCH  14  33
HETATM   33  O5  UNL     1     -90.588 -15.013  12.281  1.00  0.00    -0.388 OA
ATOM     34  H5  UNL     1     -90.381 -14.364  12.943  1.00  0.00     0.210 HD
ENDBRANCH  14  33
BRANCH  10  35
HETATM   35  O4  UNL     1     -93.754 -15.342   9.106  1.00  0.00    -0.395 OA
ATOM     36  H4  UNL     1     -94.030 -15.872   9.844  1.00  0.00     0.210 HD
ENDBRANCH  10  35
TORSDOF 9
ENDMDL
MODEL 2
REMARK VINA RESULT: -7.773547692      0.879      1.084
REMARK  9 active torsions:
REMARK  status: ('A' for Active; 'I' for Inactive)
REMARK    1  A    between atoms: C2_2  and  C3_4 
REMARK    2  A    between atoms: C4_5  and  O1_6 
REMARK    3  A    between atoms: O1_6  and  C5_7 
REMARK    4  A    between atoms: C5_7  and  O2_8 
REMARK    5  A    between atoms: O2_8  and  C6_9 
REMARK    6  A    between atoms: C6_9  and  C7_11 
REMARK    7  A    between atoms: C17_21  and  O4_22 
REMARK    8  A    between atoms: C21_27  and  O5_28 
REMARK    9  A    between atoms: C26_34  and  O6_35 
ROOT
HETATM    1  C3  UNL     1     -86.381 -12.255  13.881  1.00  0.00     0.021 C 
HETATM    2  C4  UNL     1     -86.427 -12.991  12.791  1.00  0.00     0.068 C 
HETATM    3  C10 UNL     1     -87.538 -13.348  11.925  1.00  0.00     0.072 C 
HETATM    4  C11 UNL     1     -87.596 -14.854  11.593  1.00  0.00     0.016 C 
HETATM    5  C12 UNL     1     -88.248 -14.980  10.294  1.00  0.00     0.013 C 
HETATM    6  C13 UNL     1     -89.714 -15.080  10.150  1.00  0.00    -0.012 C 
HETATM    7  C14 UNL     1     -90.025 -16.575   9.951  1.00  0.00     0.018 C 
HETATM    8  C15 UNL     1     -90.018 -14.453   8.780  1.00  0.00     0.014 C 
HETATM    9  C16 UNL     1     -91.310 -13.798   8.600  1.00  0.00     0.033 C 
HETATM   10  C17 UNL     1     -92.423 -14.194   9.490  1.00  0.00     0.129 C 
HETATM   11  C18 UNL     1     -92.037 -14.504  10.890  1.00  0.00     0.010 C 
HETATM   12  C19 UNL     1     -92.759 -13.501  11.808  1.00  0.00     0.020 C 
HETATM   13  C20 UNL     1     -92.676 -15.839  11.242  1.00  0.00     0.020 C 
HETATM   14  C21 UNL     1     -90.564 -14.463  11.190  1.00  0.00     0.078 C 
HETATM   15  C22 UNL     1     -90.085 -13.023  11.402  1.00  0.00     0.074 C 
HETATM   16  C23 UNL     1     -88.898 -13.016  12.343  1.00  0.00    -0.070 C 
HETATM   17  C24 UNL     1     -89.386 -12.693  13.513  1.00  0.00    -0.020 C 
HETATM   18  C25 UNL     1     -88.610 -12.582  14.786  1.00  0.00     0.064 C 
HETATM   19  C26 UNL     1     -87.559 -11.522  14.501  1.00  0.00     0.158 C 
ENDROOT
BRANCH   2  20
HETATM   20  O1  UNL     1     -85.207 -13.546  12.363  1.00  0.00    -0.329 OA
BRANCH  20  21
HETATM   21  C5  UNL     1     -84.435 -12.830  11.394  1.00  0.00     0.354 C 
BRANCH  21  22
HETATM   22  O2  UNL     1     -84.648 -13.393  10.128  1.00  0.00    -0.295 OA
BRANCH  22  23
HETATM   23  C6  UNL     1     -84.827 -12.688   8.971  1.00  0.00     0.264 C 
HETATM   24  O3  UNL     1     -84.651 -11.443   8.979  1.00  0.00    -0.265 OA
BRANCH  23  25
HETATM   25  C7  UNL     1     -85.229 -13.335   7.676  1.00  0.00     0.077 C 
HETATM   26  C8  UNL     1     -86.688 -13.181   7.407  1.00  0.00     0.020 C 
HETATM   27  C9  UNL     1     -84.345 -12.864   6.563  1.00  0.00     0.020 C 
ENDBRANCH  23  25
ENDBRANCH  22  23
ENDBRANCH  21  22
ENDBRANCH  20  21
ENDBRANCH   2  20
BRANCH   1  28
HETATM   28  C2  UNL     1     -85.157 -12.046  14.591  1.00  0.00     0.036 C 
HETATM   29  C1  UNL     1     -84.468 -10.950  14.554  1.00  0.00     0.037 C 
HETATM   30 CL1  UNL     1     -84.531 -13.308  15.647  1.00  0.00    -0.084 Cl
ENDBRANCH   1  28
BRANCH  19  31
HETATM   31  O6  UNL     1     -88.106 -10.651  13.542  1.00  0.00    -0.390 OA
ATOM     32  H6  UNL     1     -88.355 -11.157  12.778  1.00  0.00     0.210 HD
ENDBRANCH  19  31
BRANCH  14  33
HETATM   33  O5  UNL     1     -90.431 -15.018  12.453  1.00  0.00    -0.388 OA
ATOM     34  H5  UNL     1     -90.972 -14.617  13.123  1.00  0.00     0.210 HD
ENDBRANCH  14  33
BRANCH  10  35
HETATM   35  O4  UNL     1     -93.138 -15.252   8.871  1.00  0.00    -0.395 OA
ATOM     36  H4  UNL     1     -93.318 -15.006   7.971  1.00  0.00     0.210 HD
ENDBRANCH  10  35
TORSDOF 9
ENDMDL
MODEL 3
REMARK VINA RESULT: -7.595797152      2.573      5.610
REMARK  9 active torsions:
REMARK  status: ('A' for Active; 'I' for Inactive)
REMARK    1  A    between atoms: C2_2  and  C3_4 
REMARK    2  A    between atoms: C4_5  and  O1_6 
REMARK    3  A    between atoms: O1_6  and  C5_7 
REMARK    4  A    between atoms: C5_7  and  O2_8 
REMARK    5  A    between atoms: O2_8  and  C6_9 
REMARK    6  A    between atoms: C6_9  and  C7_11 
REMARK    7  A    between atoms: C17_21  and  O4_22 
REMARK    8  A    between atoms: C21_27  and  O5_28 
REMARK    9  A    between atoms: C26_34  and  O6_35 
ROOT
HETATM    1  C3  UNL     1     -85.224 -12.846   8.762  1.00  0.00     0.021 C 
HETATM    2  C4  UNL     1     -86.222 -13.605   9.164  1.00  0.00     0.068 C 
HETATM    3  C10 UNL     1     -86.902 -13.689  10.446  1.00  0.00     0.072 C 
HETATM    4  C11 UNL     1     -87.073 -15.136  10.954  1.00  0.00     0.016 C 
HETATM    5  C12 UNL     1     -88.262 -15.153  11.801  1.00  0.00     0.013 C 
HETATM    6  C13 UNL     1     -88.209 -14.848  13.244  1.00  0.00    -0.012 C 
HETATM    7  C14 UNL     1     -88.218 -16.206  13.971  1.00  0.00     0.018 C 
HETATM    8  C15 UNL     1     -89.585 -14.246  13.569  1.00  0.00     0.014 C 
HETATM    9  C16 UNL     1     -89.666 -13.269  14.650  1.00  0.00     0.033 C 
HETATM   10  C17 UNL     1     -88.609 -13.283  15.683  1.00  0.00     0.129 C 
HETATM   11  C18 UNL     1     -87.244 -13.603  15.192  1.00  0.00     0.010 C 
HETATM   12  C19 UNL     1     -86.346 -12.385  15.474  1.00  0.00     0.020 C 
HETATM   13  C20 UNL     1     -86.685 -14.682  16.106  1.00  0.00     0.020 C 
HETATM   14  C21 UNL     1     -87.137 -13.957  13.735  1.00  0.00     0.078 C 
HETATM   15  C22 UNL     1     -87.130 -12.697  12.861  1.00  0.00     0.074 C 
HETATM   16  C23 UNL     1     -86.352 -12.966  11.590  1.00  0.00    -0.070 C 
HETATM   17  C24 UNL     1     -85.167 -12.449  11.795  1.00  0.00    -0.020 C 
HETATM   18  C25 UNL     1     -84.019 -12.482  10.838  1.00  0.00     0.064 C 
HETATM   19  C26 UNL     1     -84.537 -11.777   9.595  1.00  0.00     0.158 C 
ENDROOT
BRANCH   2  20
HETATM   20  O1  UNL     1     -86.743 -14.503   8.216  1.00  0.00    -0.329 OA
BRANCH  20  21
HETATM   21  C5  UNL     1     -88.007 -14.203   7.615  1.00  0.00     0.354 C 
BRANCH  21  22
HETATM   22  O2  UNL     1     -88.961 -15.127   8.063  1.00  0.00    -0.295 OA
BRANCH  22  23
HETATM   23  C6  UNL     1     -90.310 -14.915   8.097  1.00  0.00     0.264 C 
HETATM   24  O3  UNL     1     -90.826 -14.122   7.267  1.00  0.00    -0.265 OA
BRANCH  23  25
HETATM   25  C7  UNL     1     -91.217 -15.588   9.087  1.00  0.00     0.077 C 
HETATM   26  C8  UNL     1     -90.657 -16.885   9.563  1.00  0.00     0.020 C 
HETATM   27  C9  UNL     1     -91.586 -14.638  10.184  1.00  0.00     0.020 C 
ENDBRANCH  23  25
ENDBRANCH  22  23
ENDBRANCH  21  22
ENDBRANCH  20  21
ENDBRANCH   2  20
BRANCH   1  28
HETATM   28  C2  UNL     1     -84.698 -12.944   7.436  1.00  0.00     0.036 C 
HETATM   29  C1  UNL     1     -83.540 -13.446   7.145  1.00  0.00     0.037 C 
HETATM   30 CL1  UNL     1     -85.670 -12.418   6.066  1.00  0.00    -0.084 Cl
ENDBRANCH   1  28
BRANCH  19  31
HETATM   31  O6  UNL     1     -85.502 -10.848  10.024  1.00  0.00    -0.390 OA
ATOM     32  H6  UNL     1     -85.547 -10.141   9.392  1.00  0.00     0.210 HD
ENDBRANCH  19  31
BRANCH  14  33
HETATM   33  O5  UNL     1     -85.852 -14.450  13.569  1.00  0.00    -0.388 OA
ATOM     34  H5  UNL     1     -85.480 -14.307  12.707  1.00  0.00     0.210 HD
ENDBRANCH  14  33
BRANCH  10  35
HETATM   35  O4  UNL     1     -89.025 -14.134  16.739  1.00  0.00    -0.395 OA
ATOM     36  H4  UNL     1     -88.318 -14.199  17.370  1.00  0.00     0.210 HD
ENDBRANCH  10  35
TORSDOF 9
ENDMDL
MODEL 4
REMARK VINA RESULT: -7.487063177      1.875      2.630
REMARK  9 active torsions:
REMARK  status: ('A' for Active; 'I' for Inactive)
REMARK    1  A    between atoms: C2_2  and  C3_4 
REMARK    2  A    between atoms: C4_5  and  O1_6 
REMARK    3  A    between atoms: O1_6  and  C5_7 
REMARK    4  A    between atoms: C5_7  and  O2_8 
REMARK    5  A    between atoms: O2_8  and  C6_9 
REMARK    6  A    between atoms: C6_9  and  C7_11 
REMARK    7  A    between atoms: C17_21  and  O4_22 
REMARK    8  A    between atoms: C21_27  and  O5_28 
REMARK    9  A    between atoms: C26_34  and  O6_35 
ROOT
HETATM    1  C3  UNL     1     -85.262 -12.801  10.521  1.00  0.00     0.021 C 
HETATM    2  C4  UNL     1     -86.006 -13.266   9.539  1.00  0.00     0.068 C 
HETATM    3  C10 UNL     1     -87.444 -13.455   9.435  1.00  0.00     0.072 C 
HETATM    4  C11 UNL     1     -87.840 -14.844   8.892  1.00  0.00     0.016 C 
HETATM    5  C12 UNL     1     -89.132 -14.689   8.230  1.00  0.00     0.013 C 
HETATM    6  C13 UNL     1     -90.412 -14.810   8.955  1.00  0.00    -0.012 C 
HETATM    7  C14 UNL     1     -90.937 -16.230   8.666  1.00  0.00     0.018 C 
HETATM    8  C15 UNL     1     -91.383 -13.895   8.192  1.00  0.00     0.014 C 
HETATM    9  C16 UNL     1     -92.465 -13.268   8.945  1.00  0.00     0.033 C 
HETATM   10  C17 UNL     1     -92.894 -13.902  10.210  1.00  0.00     0.129 C 
HETATM   11  C18 UNL     1     -91.806 -14.514  11.014  1.00  0.00     0.010 C 
HETATM   12  C19 UNL     1     -91.755 -13.781  12.368  1.00  0.00     0.020 C 
HETATM   13  C20 UNL     1     -92.262 -15.918  11.383  1.00  0.00     0.020 C 
HETATM   14  C21 UNL     1     -90.436 -14.486  10.397  1.00  0.00     0.078 C 
HETATM   15  C22 UNL     1     -89.774 -13.117  10.586  1.00  0.00     0.074 C 
HETATM   16  C23 UNL     1     -88.269 -13.282  10.629  1.00  0.00    -0.070 C 
HETATM   17  C24 UNL     1     -87.955 -13.260  11.899  1.00  0.00    -0.020 C 
HETATM   18  C25 UNL     1     -86.580 -13.417  12.465  1.00  0.00     0.064 C 
HETATM   19  C26 UNL     1     -85.782 -12.280  11.850  1.00  0.00     0.158 C 
ENDROOT
BRANCH   2  20
HETATM   20  O1  UNL     1     -85.324 -13.658   8.373  1.00  0.00    -0.329 OA
BRANCH  20  21
HETATM   21  C5  UNL     1     -85.648 -13.004   7.141  1.00  0.00     0.354 C 
BRANCH  21  22
HETATM   22  O2  UNL     1     -84.481 -12.457   6.590  1.00  0.00    -0.295 OA
BRANCH  22  23
HETATM   23  C6  UNL     1     -83.884 -12.875   5.435  1.00  0.00     0.264 C 
HETATM   24  O3  UNL     1     -84.471 -12.684   4.338  1.00  0.00    -0.265 OA
BRANCH  23  25
HETATM   25  C7  UNL     1     -82.546 -13.559   5.408  1.00  0.00     0.077 C 
HETATM   26  C8  UNL     1     -81.833 -13.337   4.118  1.00  0.00     0.020 C 
HETATM   27  C9  UNL     1     -81.751 -13.193   6.622  1.00  0.00     0.020 C 
ENDBRANCH  23  25
ENDBRANCH  22  23
ENDBRANCH  21  22
ENDBRANCH  20  21
ENDBRANCH   2  20
BRANCH   1  28
HETATM   28  C2  UNL     1     -83.840 -12.716  10.405  1.00  0.00     0.036 C 
HETATM   29  C1  UNL     1     -83.013 -13.587  10.889  1.00  0.00     0.037 C 
HETATM   30 CL1  UNL     1     -83.113 -11.390   9.503  1.00  0.00    -0.084 Cl
ENDBRANCH   1  28
BRANCH  19  31
HETATM   31  O6  UNL     1     -86.687 -11.232  11.602  1.00  0.00    -0.390 OA
ATOM     32  H6  UNL     1     -86.838 -10.761  12.413  1.00  0.00     0.210 HD
ENDBRANCH  19  31
BRANCH  14  33
HETATM   33  O5  UNL     1     -89.657 -15.314  11.190  1.00  0.00    -0.388 OA
ATOM     34  H5  UNL     1     -89.978 -15.431  12.077  1.00  0.00     0.210 HD
ENDBRANCH  14  33
BRANCH  10  35
HETATM   35  O4  UNL     1     -93.942 -14.814   9.921  1.00  0.00    -0.395 OA
ATOM     36  H4  UNL     1     -94.769 -14.355   9.996  1.00  0.00     0.210 HD
ENDBRANCH  10  35
TORSDOF 9
ENDMDL
MODEL 5
REMARK VINA RESULT: -7.476684878      1.578      2.141
REMARK  9 active torsions:
REMARK  status: ('A' for Active; 'I' for Inactive)
REMARK    1  A    between atoms: C2_2  and  C3_4 
REMARK    2  A    between atoms: C4_5  and  O1_6 
REMARK    3  A    between atoms: O1_6  and  C5_7 
REMARK    4  A    between atoms: C5_7  and  O2_8 
REMARK    5  A    between atoms: O2_8  and  C6_9 
REMARK    6  A    between atoms: C6_9  and  C7_11 
REMARK    7  A    between atoms: C17_21  and  O4_22 
REMARK    8  A    between atoms: C21_27  and  O5_28 
REMARK    9  A    between atoms: C26_34  and  O6_35 
ROOT
HETATM    1  C3  UNL     1     -86.430 -12.103  13.378  1.00  0.00     0.021 C 
HETATM    2  C4  UNL     1     -86.538 -12.894  12.332  1.00  0.00     0.068 C 
HETATM    3  C10 UNL     1     -87.699 -13.308  11.562  1.00  0.00     0.072 C 
HETATM    4  C11 UNL     1     -87.756 -14.830  11.310  1.00  0.00     0.016 C 
HETATM    5  C12 UNL     1     -88.492 -15.029  10.066  1.00  0.00     0.013 C 
HETATM    6  C13 UNL     1     -89.963 -15.154  10.029  1.00  0.00    -0.012 C 
HETATM    7  C14 UNL     1     -90.264 -16.661   9.926  1.00  0.00     0.018 C 
HETATM    8  C15 UNL     1     -90.369 -14.601   8.653  1.00  0.00     0.014 C 
HETATM    9  C16 UNL     1     -91.680 -13.973   8.529  1.00  0.00     0.033 C 
HETATM   10  C17 UNL     1     -92.723 -14.336   9.512  1.00  0.00     0.129 C 
HETATM   11  C18 UNL     1     -92.239 -14.570  10.896  1.00  0.00     0.010 C 
HETATM   12  C19 UNL     1     -92.913 -13.531  11.810  1.00  0.00     0.020 C 
HETATM   13  C20 UNL     1     -92.832 -15.893  11.356  1.00  0.00     0.020 C 
HETATM   14  C21 UNL     1     -90.751 -14.496  11.092  1.00  0.00     0.078 C 
HETATM   15  C22 UNL     1     -90.281 -13.041  11.199  1.00  0.00     0.074 C 
HETATM   16  C23 UNL     1     -89.033 -12.972  12.055  1.00  0.00    -0.070 C 
HETATM   17  C24 UNL     1     -89.446 -12.597  13.239  1.00  0.00    -0.020 C 
HETATM   18  C25 UNL     1     -88.587 -12.412  14.449  1.00  0.00     0.064 C 
HETATM   19  C26 UNL     1     -87.575 -11.355  14.040  1.00  0.00     0.158 C 
ENDROOT
BRANCH   2  20
HETATM   20  O1  UNL     1     -85.342 -13.455  11.849  1.00  0.00    -0.329 OA
BRANCH  20  21
HETATM   21  C5  UNL     1     -84.912 -13.112  10.528  1.00  0.00     0.354 C 
BRANCH  21  22
HETATM   22  O2  UNL     1     -83.667 -12.472  10.600  1.00  0.00    -0.295 OA
BRANCH  22  23
HETATM   23  C6  UNL     1     -83.153 -11.636   9.650  1.00  0.00     0.264 C 
HETATM   24  O3  UNL     1     -83.903 -11.222   8.729  1.00  0.00    -0.265 OA
BRANCH  23  25
HETATM   25  C7  UNL     1     -81.721 -11.184   9.649  1.00  0.00     0.077 C 
HETATM   26  C8  UNL     1     -81.441 -10.223   8.544  1.00  0.00     0.020 C 
HETATM   27  C9  UNL     1     -81.331 -10.690  11.008  1.00  0.00     0.020 C 
ENDBRANCH  23  25
ENDBRANCH  22  23
ENDBRANCH  21  22
ENDBRANCH  20  21
ENDBRANCH   2  20
BRANCH   1  28
HETATM   28  C2  UNL     1     -85.165 -11.844  13.992  1.00  0.00     0.036 C 
HETATM   29  C1  UNL     1     -84.714 -12.471  15.032  1.00  0.00     0.037 C 
HETATM   30 CL1  UNL     1     -84.082 -10.644  13.294  1.00  0.00    -0.084 Cl
ENDBRANCH   1  28
BRANCH  19  31
HETATM   31  O6  UNL     1     -88.199 -10.540  13.078  1.00  0.00    -0.390 OA
ATOM     32  H6  UNL     1     -87.825 -10.734  12.227  1.00  0.00     0.210 HD
ENDBRANCH  19  31
BRANCH  14  33
HETATM   33  O5  UNL     1     -90.523 -14.985  12.369  1.00  0.00    -0.388 OA
ATOM     34  H5  UNL     1     -90.643 -14.349  13.065  1.00  0.00     0.210 HD
ENDBRANCH  14  33
BRANCH  10  35
HETATM   35  O4  UNL     1     -93.462 -15.433   8.996  1.00  0.00    -0.395 OA
ATOM     36  H4  UNL     1     -92.850 -16.103   8.718  1.00  0.00     0.210 HD
ENDBRANCH  10  35
TORSDOF 9
ENDMDL
