MODEL 1
REMARK VINA RESULT: -9.082385731      0.000      0.000
REMARK  7 active torsions:
REMARK  status: ('A' for Active; 'I' for Inactive)
REMARK    1  A    between atoms: N1_2  and  C3_4 
REMARK    2  A    between atoms: C3_4  and  C4_5 
REMARK    3  A    between atoms: C7_8  and  N2_9 
REMARK    4  A    between atoms: N2_9  and  C8_11 
REMARK    5  A    between atoms: C11_16  and  C12_17 
REMARK    6  A    between atoms: C19_26  and  C20_27 
REMARK    7  A    between atoms: C23_35  and  N7_36 
ROOT
HETATM    1  C20 UNL     1    -100.449 -15.845  51.689  1.00  0.00     0.130 A 
HETATM    2  N4  UNL     1    -100.236 -16.995  52.355  1.00  0.00    -0.327 N 
ATOM      3  H4  UNL     1    -100.317 -17.928  51.950  1.00  0.00     0.168 HD
HETATM    4  C21 UNL     1     -99.905 -16.744  53.610  1.00  0.00     0.190 A 
HETATM    5  C22 UNL     1     -99.615 -17.773  54.575  1.00  0.00     0.137 C 
HETATM    6  N5  UNL     1     -99.363 -18.604  55.357  1.00  0.00    -0.188 NA
HETATM    7  N6  UNL     1     -99.902 -15.420  53.768  1.00  0.00    -0.318 N 
ATOM      8  H6  UNL     1     -99.684 -14.929  54.635  1.00  0.00     0.169 HD
HETATM    9  C23 UNL     1    -100.240 -14.823  52.582  1.00  0.00     0.136 A 
ENDROOT
BRANCH   1  10
HETATM   10  C19 UNL     1    -100.824 -15.729  50.270  1.00  0.00     0.179 A 
HETATM   11  O1  UNL     1    -101.871 -16.256  49.685  1.00  0.00    -0.288 OA
HETATM   12  C18 UNL     1    -101.922 -15.966  48.402  1.00  0.00     0.119 A 
HETATM   13  C11 UNL     1    -102.932 -16.398  47.537  1.00  0.00     0.012 C 
HETATM   14  C26 UNL     1    -100.813 -15.188  48.144  1.00  0.00     0.114 A 
HETATM   15  C10 UNL     1    -102.870 -16.421  46.165  1.00  0.00     0.032 C 
HETATM   16  C9  UNL     1    -101.953 -15.762  45.372  1.00  0.00     0.090 C 
HETATM   17  N3  UNL     1    -101.039 -14.836  45.740  1.00  0.00    -0.350 N 
HETATM   18  C8  UNL     1    -100.442 -14.642  46.930  1.00  0.00     0.135 C 
ATOM     19  H3  UNL     1    -100.760 -14.187  45.004  1.00  0.00     0.166 HD
HETATM   20  N8  UNL     1    -100.179 -15.071  49.300  1.00  0.00    -0.329 N 
ATOM     21  H8  UNL     1     -99.313 -14.548  49.434  1.00  0.00     0.168 HD
BRANCH  13  22
HETATM   22  C12 UNL     1    -104.144 -16.860  48.155  1.00  0.00    -0.023 A 
HETATM   23  C13 UNL     1    -104.541 -18.155  47.914  1.00  0.00     0.015 A 
HETATM   24  C14 UNL     1    -105.703 -18.611  48.502  1.00  0.00     0.043 A 
HETATM   25  C15 UNL     1    -106.435 -17.764  49.313  1.00  0.00     0.116 A 
HETATM   26  F1  UNL     1    -107.568 -18.195  49.890  1.00  0.00    -0.206 F 
HETATM   27  C16 UNL     1    -106.041 -16.458  49.559  1.00  0.00     0.043 A 
HETATM   28  C17 UNL     1    -104.877 -16.016  48.966  1.00  0.00     0.015 A 
ENDBRANCH  13  22
BRANCH  18  29
HETATM   29  N2  UNL     1     -99.417 -13.883  47.016  1.00  0.00    -0.341 N 
ATOM     30  H2  UNL     1     -99.330 -13.225  47.790  1.00  0.00     0.167 HD
BRANCH  29  31
HETATM   31  C7  UNL     1     -98.401 -13.957  46.029  1.00  0.00     0.033 A 
HETATM   32  C6  UNL     1     -97.162 -14.422  46.402  1.00  0.00     0.030 A 
HETATM   33  C5  UNL     1     -96.180 -14.491  45.433  1.00  0.00     0.011 A 
HETATM   34  C4  UNL     1     -96.360 -14.128  44.129  1.00  0.00    -0.030 A 
HETATM   35  C28 UNL     1     -97.624 -13.656  43.761  1.00  0.00     0.011 A 
HETATM   36  C27 UNL     1     -98.637 -13.577  44.727  1.00  0.00     0.030 A 
BRANCH  34  37
HETATM   37  C3  UNL     1     -95.306 -14.205  43.094  1.00  0.00     0.309 C 
BRANCH  37  38
HETATM   38  N1  UNL     1     -94.980 -12.931  42.506  1.00  0.00     0.084 N 
HETATM   39  C1  UNL     1     -94.366 -13.055  41.208  1.00  0.00     0.309 C 
HETATM   40  C2  UNL     1     -94.053 -12.230  43.372  1.00  0.00     0.309 C 
ENDBRANCH  37  38
ENDBRANCH  34  37
ENDBRANCH  29  31
ENDBRANCH  18  29
ENDBRANCH   1  10
BRANCH   9  41
HETATM   41  N7  UNL     1    -100.352 -13.420  52.400  1.00  0.00    -0.374 N 
HETATM   42  C24 UNL     1    -101.639 -12.782  52.227  1.00  0.00     0.150 C 
HETATM   43  C25 UNL     1     -99.168 -12.598  52.385  1.00  0.00     0.150 C 
ENDBRANCH   9  41
TORSDOF 7
ENDMDL
MODEL 2
REMARK VINA RESULT: -9.003996495      0.411      1.058
REMARK  7 active torsions:
REMARK  status: ('A' for Active; 'I' for Inactive)
REMARK    1  A    between atoms: N1_2  and  C3_4 
REMARK    2  A    between atoms: C3_4  and  C4_5 
REMARK    3  A    between atoms: C7_8  and  N2_9 
REMARK    4  A    between atoms: N2_9  and  C8_11 
REMARK    5  A    between atoms: C11_16  and  C12_17 
REMARK    6  A    between atoms: C19_26  and  C20_27 
REMARK    7  A    between atoms: C23_35  and  N7_36 
ROOT
HETATM    1  C20 UNL     1    -100.446 -15.819  51.650  1.00  0.00     0.130 A 
HETATM    2  N4  UNL     1    -100.250 -16.967  52.326  1.00  0.00    -0.327 N 
ATOM      3  H4  UNL     1    -100.349 -17.901  51.929  1.00  0.00     0.168 HD
HETATM    4  C21 UNL     1     -99.911 -16.710  53.578  1.00  0.00     0.190 A 
HETATM    5  C22 UNL     1     -99.635 -17.736  54.550  1.00  0.00     0.137 C 
HETATM    6  N5  UNL     1     -99.395 -18.564  55.339  1.00  0.00    -0.188 NA
HETATM    7  N6  UNL     1     -99.885 -15.385  53.724  1.00  0.00    -0.318 N 
ATOM      8  H6  UNL     1     -99.655 -14.890  54.586  1.00  0.00     0.169 HD
HETATM    9  C23 UNL     1    -100.216 -14.793  52.534  1.00  0.00     0.136 A 
ENDROOT
BRANCH   1  10
HETATM   10  C19 UNL     1    -100.824 -15.709  50.232  1.00  0.00     0.179 A 
HETATM   11  O1  UNL     1    -101.871 -16.240  49.650  1.00  0.00    -0.288 OA
HETATM   12  C18 UNL     1    -101.925 -15.955  48.367  1.00  0.00     0.119 A 
HETATM   13  C11 UNL     1    -102.935 -16.392  47.506  1.00  0.00     0.012 C 
HETATM   14  C26 UNL     1    -100.818 -15.174  48.104  1.00  0.00     0.114 A 
HETATM   15  C10 UNL     1    -102.876 -16.419  46.133  1.00  0.00     0.032 C 
HETATM   16  C9  UNL     1    -101.961 -15.761  45.336  1.00  0.00     0.090 C 
HETATM   17  N3  UNL     1    -101.050 -14.832  45.699  1.00  0.00    -0.350 N 
HETATM   18  C8  UNL     1    -100.450 -14.632  46.888  1.00  0.00     0.135 C 
ATOM     19  H3  UNL     1    -100.774 -14.184  44.961  1.00  0.00     0.166 HD
HETATM   20  N8  UNL     1    -100.183 -15.052  49.258  1.00  0.00    -0.329 N 
ATOM     21  H8  UNL     1     -99.318 -14.526  49.389  1.00  0.00     0.168 HD
BRANCH  13  22
HETATM   22  C12 UNL     1    -104.145 -16.856  48.127  1.00  0.00    -0.023 A 
HETATM   23  C13 UNL     1    -104.529 -18.158  47.906  1.00  0.00     0.015 A 
HETATM   24  C14 UNL     1    -105.689 -18.615  48.498  1.00  0.00     0.043 A 
HETATM   25  C15 UNL     1    -106.431 -17.761  49.292  1.00  0.00     0.116 A 
HETATM   26  F1  UNL     1    -107.562 -18.193  49.873  1.00  0.00    -0.206 F 
HETATM   27  C16 UNL     1    -106.051 -16.448  49.518  1.00  0.00     0.043 A 
HETATM   28  C17 UNL     1    -104.888 -16.005  48.921  1.00  0.00     0.015 A 
ENDBRANCH  13  22
BRANCH  18  29
HETATM   29  N2  UNL     1     -99.428 -13.870  46.968  1.00  0.00    -0.341 N 
ATOM     30  H2  UNL     1     -99.350 -13.196  47.730  1.00  0.00     0.167 HD
BRANCH  29  31
HETATM   31  C7  UNL     1     -98.402 -13.963  45.994  1.00  0.00     0.033 A 
HETATM   32  C6  UNL     1     -98.691 -13.588  44.703  1.00  0.00     0.030 A 
HETATM   33  C5  UNL     1     -97.685 -13.682  43.762  1.00  0.00     0.011 A 
HETATM   34  C4  UNL     1     -96.421 -14.124  44.030  1.00  0.00    -0.030 A 
HETATM   35  C28 UNL     1     -96.138 -14.504  45.347  1.00  0.00     0.011 A 
HETATM   36  C27 UNL     1     -97.143 -14.417  46.320  1.00  0.00     0.030 A 
BRANCH  34  37
HETATM   37  C3  UNL     1     -95.345 -14.224  43.020  1.00  0.00     0.309 C 
BRANCH  37  38
HETATM   38  N1  UNL     1     -94.281 -13.274  43.214  1.00  0.00     0.084 N 
HETATM   39  C1  UNL     1     -94.427 -12.094  42.399  1.00  0.00     0.309 C 
HETATM   40  C2  UNL     1     -93.018 -13.897  42.873  1.00  0.00     0.309 C 
ENDBRANCH  37  38
ENDBRANCH  34  37
ENDBRANCH  29  31
ENDBRANCH  18  29
ENDBRANCH   1  10
BRANCH   9  41
HETATM   41  N7  UNL     1    -100.304 -13.389  52.340  1.00  0.00    -0.374 N 
HETATM   42  C24 UNL     1     -99.120 -12.559  52.289  1.00  0.00     0.150 C 
HETATM   43  C25 UNL     1    -101.592 -12.761  52.188  1.00  0.00     0.150 C 
ENDBRANCH   9  41
TORSDOF 7
ENDMDL
MODEL 3
REMARK VINA RESULT: -8.960686902      1.675      2.060
REMARK  7 active torsions:
REMARK  status: ('A' for Active; 'I' for Inactive)
REMARK    1  A    between atoms: N1_2  and  C3_4 
REMARK    2  A    between atoms: C3_4  and  C4_5 
REMARK    3  A    between atoms: C7_8  and  N2_9 
REMARK    4  A    between atoms: N2_9  and  C8_11 
REMARK    5  A    between atoms: C11_16  and  C12_17 
REMARK    6  A    between atoms: C19_26  and  C20_27 
REMARK    7  A    between atoms: C23_35  and  N7_36 
ROOT
HETATM    1  C20 UNL     1     -99.435 -14.942  50.461  1.00  0.00     0.130 A 
HETATM    2  N4  UNL     1     -98.487 -15.729  51.003  1.00  0.00    -0.327 N 
ATOM      3  H4  UNL     1     -97.884 -16.363  50.478  1.00  0.00     0.168 HD
HETATM    4  C21 UNL     1     -98.448 -15.564  52.315  1.00  0.00     0.190 A 
HETATM    5  C22 UNL     1     -97.535 -16.271  53.175  1.00  0.00     0.137 C 
HETATM    6  N5  UNL     1     -96.785 -16.830  53.876  1.00  0.00    -0.188 NA
HETATM    7  N6  UNL     1     -99.377 -14.663  52.635  1.00  0.00    -0.318 N 
ATOM      8  H6  UNL     1     -99.579 -14.333  53.578  1.00  0.00     0.169 HD
HETATM    9  C23 UNL     1    -100.016 -14.250  51.496  1.00  0.00     0.136 A 
ENDROOT
BRANCH   1  10
HETATM   10  C19 UNL     1     -99.761 -14.848  49.029  1.00  0.00     0.179 A 
HETATM   11  O1  UNL     1    -100.848 -15.277  48.437  1.00  0.00    -0.288 OA
HETATM   12  C18 UNL     1    -100.834 -15.042  47.142  1.00  0.00     0.119 A 
HETATM   13  C11 UNL     1    -101.867 -15.394  46.268  1.00  0.00     0.012 C 
HETATM   14  C26 UNL     1     -99.637 -14.410  46.883  1.00  0.00     0.114 A 
HETATM   15  C10 UNL     1    -101.776 -15.486  44.901  1.00  0.00     0.032 C 
HETATM   16  C9  UNL     1    -100.770 -14.975  44.107  1.00  0.00     0.090 C 
HETATM   17  N3  UNL     1     -99.764 -14.145  44.461  1.00  0.00    -0.350 N 
HETATM   18  C8  UNL     1     -99.176 -13.967  45.658  1.00  0.00     0.135 C 
ATOM     19  H3  UNL     1     -99.394 -13.566  43.706  1.00  0.00     0.166 HD
HETATM   20  N8  UNL     1     -99.021 -14.314  48.050  1.00  0.00    -0.329 N 
ATOM     21  H8  UNL     1     -98.103 -13.888  48.186  1.00  0.00     0.168 HD
BRANCH  13  22
HETATM   22  C12 UNL     1    -103.139 -15.685  46.871  1.00  0.00    -0.023 A 
HETATM   23  C13 UNL     1    -103.380 -16.975  47.283  1.00  0.00     0.015 A 
HETATM   24  C14 UNL     1    -104.598 -17.266  47.863  1.00  0.00     0.043 A 
HETATM   25  C15 UNL     1    -105.538 -16.265  48.015  1.00  0.00     0.116 A 
HETATM   26  F1  UNL     1    -106.727 -16.536  48.577  1.00  0.00    -0.206 F 
HETATM   27  C16 UNL     1    -105.302 -14.964  47.601  1.00  0.00     0.043 A 
HETATM   28  C17 UNL     1    -104.080 -14.686  47.024  1.00  0.00     0.015 A 
ENDBRANCH  13  22
BRANCH  18  29
HETATM   29  N2  UNL     1     -98.072 -13.327  45.740  1.00  0.00    -0.341 N 
ATOM     30  H2  UNL     1     -97.981 -12.544  46.386  1.00  0.00     0.167 HD
BRANCH  29  31
HETATM   31  C7  UNL     1     -96.974 -13.711  44.929  1.00  0.00     0.033 A 
HETATM   32  C6  UNL     1     -95.811 -14.104  45.548  1.00  0.00     0.030 A 
HETATM   33  C5  UNL     1     -94.748 -14.477  44.749  1.00  0.00     0.011 A 
HETATM   34  C4  UNL     1     -94.777 -14.480  43.383  1.00  0.00    -0.030 A 
HETATM   35  C28 UNL     1     -95.965 -14.077  42.764  1.00  0.00     0.011 A 
HETATM   36  C27 UNL     1     -97.058 -13.695  43.554  1.00  0.00     0.030 A 
BRANCH  34  37
HETATM   37  C3  UNL     1     -93.637 -14.880  42.531  1.00  0.00     0.309 C 
BRANCH  37  38
HETATM   38  N1  UNL     1     -93.581 -14.179  41.274  1.00  0.00     0.084 N 
HETATM   39  C1  UNL     1     -93.205 -15.031  40.173  1.00  0.00     0.309 C 
HETATM   40  C2  UNL     1     -92.603 -13.113  41.366  1.00  0.00     0.309 C 
ENDBRANCH  37  38
ENDBRANCH  34  37
ENDBRANCH  29  31
ENDBRANCH  18  29
ENDBRANCH   1  10
BRANCH   9  41
HETATM   41  N7  UNL     1    -101.077 -13.307  51.475  1.00  0.00    -0.374 N 
HETATM   42  C24 UNL     1    -102.456 -13.726  51.347  1.00  0.00     0.150 C 
HETATM   43  C25 UNL     1    -100.793 -11.899  51.585  1.00  0.00     0.150 C 
ENDBRANCH   9  41
TORSDOF 7
ENDMDL
MODEL 4
REMARK VINA RESULT: -8.956914529      1.742      2.237
REMARK  7 active torsions:
REMARK  status: ('A' for Active; 'I' for Inactive)
REMARK    1  A    between atoms: N1_2  and  C3_4 
REMARK    2  A    between atoms: C3_4  and  C4_5 
REMARK    3  A    between atoms: C7_8  and  N2_9 
REMARK    4  A    between atoms: N2_9  and  C8_11 
REMARK    5  A    between atoms: C11_16  and  C12_17 
REMARK    6  A    between atoms: C19_26  and  C20_27 
REMARK    7  A    between atoms: C23_35  and  N7_36 
ROOT
HETATM    1  C20 UNL     1     -99.342 -15.790  50.231  1.00  0.00     0.130 A 
HETATM    2  N4  UNL     1    -100.051 -16.559  51.078  1.00  0.00    -0.327 N 
ATOM      3  H4  UNL     1    -100.966 -16.961  50.874  1.00  0.00     0.168 HD
HETATM    4  C21 UNL     1     -99.392 -16.720  52.213  1.00  0.00     0.190 A 
HETATM    5  C22 UNL     1     -99.894 -17.495  53.318  1.00  0.00     0.137 C 
HETATM    6  N5  UNL     1    -100.290 -18.137  54.211  1.00  0.00    -0.188 NA
HETATM    7  N6  UNL     1     -98.243 -16.051  52.110  1.00  0.00    -0.318 N 
ATOM      8  H6  UNL     1     -97.526 -15.993  52.833  1.00  0.00     0.169 HD
HETATM    9  C23 UNL     1     -98.178 -15.454  50.878  1.00  0.00     0.136 A 
ENDROOT
BRANCH   1  10
HETATM   10  C19 UNL     1     -99.752 -15.404  48.871  1.00  0.00     0.179 A 
HETATM   11  O1  UNL     1    -100.899 -15.655  48.291  1.00  0.00    -0.288 OA
HETATM   12  C18 UNL     1    -100.953 -15.173  47.067  1.00  0.00     0.119 A 
HETATM   13  C11 UNL     1    -102.059 -15.296  46.222  1.00  0.00     0.012 C 
HETATM   14  C26 UNL     1     -99.737 -14.562  46.846  1.00  0.00     0.114 A 
HETATM   15  C10 UNL     1    -102.061 -15.125  44.859  1.00  0.00     0.032 C 
HETATM   16  C9  UNL     1    -101.077 -14.519  44.104  1.00  0.00     0.090 C 
HETATM   17  N3  UNL     1    -100.001 -13.825  44.534  1.00  0.00    -0.350 N 
HETATM   18  C8  UNL     1     -99.328 -13.912  45.697  1.00  0.00     0.135 C 
ATOM     19  H3  UNL     1     -99.644 -13.129  43.879  1.00  0.00     0.166 HD
HETATM   20  N8  UNL     1     -99.043 -14.726  47.960  1.00  0.00    -0.329 N 
ATOM     21  H8  UNL     1     -98.094 -14.380  48.106  1.00  0.00     0.168 HD
BRANCH  13  22
HETATM   22  C12 UNL     1    -103.306 -15.636  46.851  1.00  0.00    -0.023 A 
HETATM   23  C13 UNL     1    -103.582 -16.967  47.064  1.00  0.00     0.015 A 
HETATM   24  C14 UNL     1    -104.776 -17.306  47.667  1.00  0.00     0.043 A 
HETATM   25  C15 UNL     1    -105.659 -16.310  48.039  1.00  0.00     0.116 A 
HETATM   26  F1  UNL     1    -106.824 -16.626  48.626  1.00  0.00    -0.206 F 
HETATM   27  C16 UNL     1    -105.388 -14.968  47.826  1.00  0.00     0.043 A 
HETATM   28  C17 UNL     1    -104.190 -14.643  47.223  1.00  0.00     0.015 A 
ENDBRANCH  13  22
BRANCH  18  29
HETATM   29  N2  UNL     1     -98.183 -13.356  45.817  1.00  0.00    -0.341 N 
ATOM     30  H2  UNL     1     -98.031 -12.648  46.535  1.00  0.00     0.167 HD
BRANCH  29  31
HETATM   31  C7  UNL     1     -97.126 -13.726  44.947  1.00  0.00     0.033 A 
HETATM   32  C6  UNL     1     -95.923 -14.094  45.502  1.00  0.00     0.030 A 
HETATM   33  C5  UNL     1     -94.900 -14.454  44.647  1.00  0.00     0.011 A 
HETATM   34  C4  UNL     1     -95.006 -14.467  43.285  1.00  0.00    -0.030 A 
HETATM   35  C28 UNL     1     -96.234 -14.089  42.732  1.00  0.00     0.011 A 
HETATM   36  C27 UNL     1     -97.287 -13.721  43.580  1.00  0.00     0.030 A 
BRANCH  34  37
HETATM   37  C3  UNL     1     -93.909 -14.852  42.372  1.00  0.00     0.309 C 
BRANCH  37  38
HETATM   38  N1  UNL     1     -93.745 -13.958  41.255  1.00  0.00     0.084 N 
HETATM   39  C1  UNL     1     -93.246 -14.621  40.075  1.00  0.00     0.309 C 
HETATM   40  C2  UNL     1     -92.802 -12.917  41.613  1.00  0.00     0.309 C 
ENDBRANCH  37  38
ENDBRANCH  34  37
ENDBRANCH  29  31
ENDBRANCH  18  29
ENDBRANCH   1  10
BRANCH   9  41
HETATM   41  N7  UNL     1     -97.096 -14.645  50.442  1.00  0.00    -0.374 N 
HETATM   42  C24 UNL     1     -97.114 -13.208  50.609  1.00  0.00     0.150 C 
HETATM   43  C25 UNL     1     -95.948 -15.251  49.817  1.00  0.00     0.150 C 
ENDBRANCH   9  41
TORSDOF 7
ENDMDL
MODEL 5
REMARK VINA RESULT: -8.924743104      1.693      2.328
REMARK  7 active torsions:
REMARK  status: ('A' for Active; 'I' for Inactive)
REMARK    1  A    between atoms: N1_2  and  C3_4 
REMARK    2  A    between atoms: C3_4  and  C4_5 
REMARK    3  A    between atoms: C7_8  and  N2_9 
REMARK    4  A    between atoms: N2_9  and  C8_11 
REMARK    5  A    between atoms: C11_16  and  C12_17 
REMARK    6  A    between atoms: C19_26  and  C20_27 
REMARK    7  A    between atoms: C23_35  and  N7_36 
ROOT
HETATM    1  C20 UNL     1     -99.391 -14.946  50.442  1.00  0.00     0.130 A 
HETATM    2  N4  UNL     1     -98.441 -15.733  50.981  1.00  0.00    -0.327 N 
ATOM      3  H4  UNL     1     -97.841 -16.368  50.454  1.00  0.00     0.168 HD
HETATM    4  C21 UNL     1     -98.397 -15.567  52.292  1.00  0.00     0.190 A 
HETATM    5  C22 UNL     1     -97.481 -16.273  53.150  1.00  0.00     0.137 C 
HETATM    6  N5  UNL     1     -96.729 -16.832  53.848  1.00  0.00    -0.188 NA
HETATM    7  N6  UNL     1     -99.324 -14.664  52.615  1.00  0.00    -0.318 N 
ATOM      8  H6  UNL     1     -99.523 -14.333  53.559  1.00  0.00     0.169 HD
HETATM    9  C23 UNL     1     -99.968 -14.253  51.477  1.00  0.00     0.136 A 
ENDROOT
BRANCH   1  10
HETATM   10  C19 UNL     1     -99.722 -14.854  49.011  1.00  0.00     0.179 A 
HETATM   11  O1  UNL     1    -100.809 -15.289  48.422  1.00  0.00    -0.288 OA
HETATM   12  C18 UNL     1    -100.801 -15.053  47.127  1.00  0.00     0.119 A 
HETATM   13  C11 UNL     1    -101.835 -15.411  46.257  1.00  0.00     0.012 C 
HETATM   14  C26 UNL     1     -99.608 -14.414  46.865  1.00  0.00     0.114 A 
HETATM   15  C10 UNL     1    -101.748 -15.503  44.889  1.00  0.00     0.032 C 
HETATM   16  C9  UNL     1    -100.748 -14.985  44.092  1.00  0.00     0.090 C 
HETATM   17  N3  UNL     1     -99.745 -14.149  44.443  1.00  0.00    -0.350 N 
HETATM   18  C8  UNL     1     -99.154 -13.968  45.638  1.00  0.00     0.135 C 
ATOM     19  H3  UNL     1     -99.382 -13.568  43.687  1.00  0.00     0.166 HD
HETATM   20  N8  UNL     1     -98.989 -14.315  48.030  1.00  0.00    -0.329 N 
ATOM     21  H8  UNL     1     -98.073 -13.884  48.162  1.00  0.00     0.168 HD
BRANCH  13  22
HETATM   22  C12 UNL     1    -103.103 -15.710  46.864  1.00  0.00    -0.023 A 
HETATM   23  C13 UNL     1    -104.049 -14.712  46.913  1.00  0.00     0.015 A 
HETATM   24  C14 UNL     1    -105.270 -14.988  47.494  1.00  0.00     0.043 A 
HETATM   25  C15 UNL     1    -105.512 -16.248  48.007  1.00  0.00     0.116 A 
HETATM   26  F1  UNL     1    -106.696 -16.528  48.575  1.00  0.00    -0.206 F 
HETATM   27  C16 UNL     1    -104.564 -17.256  47.962  1.00  0.00     0.043 A 
HETATM   28  C17 UNL     1    -103.347 -16.967  47.378  1.00  0.00     0.015 A 
ENDBRANCH  13  22
BRANCH  18  29
HETATM   29  N2  UNL     1     -98.054 -13.322  45.716  1.00  0.00    -0.341 N 
ATOM     30  H2  UNL     1     -97.970 -12.527  46.350  1.00  0.00     0.167 HD
BRANCH  29  31
HETATM   31  C7  UNL     1     -96.949 -13.714  44.918  1.00  0.00     0.033 A 
HETATM   32  C6  UNL     1     -97.092 -13.693  43.551  1.00  0.00     0.030 A 
HETATM   33  C5  UNL     1     -96.010 -14.076  42.782  1.00  0.00     0.011 A 
HETATM   34  C4  UNL     1     -94.808 -14.475  43.292  1.00  0.00    -0.030 A 
HETATM   35  C28 UNL     1     -94.675 -14.494  44.685  1.00  0.00     0.011 A 
HETATM   36  C27 UNL     1     -95.758 -14.109  45.486  1.00  0.00     0.030 A 
BRANCH  34  37
HETATM   37  C3  UNL     1     -93.652 -14.884  42.467  1.00  0.00     0.309 C 
BRANCH  37  38
HETATM   38  N1  UNL     1     -93.550 -14.171  41.220  1.00  0.00     0.084 N 
HETATM   39  C1  UNL     1     -93.166 -15.019  40.119  1.00  0.00     0.309 C 
HETATM   40  C2  UNL     1     -92.551 -13.128  41.348  1.00  0.00     0.309 C 
ENDBRANCH  37  38
ENDBRANCH  34  37
ENDBRANCH  29  31
ENDBRANCH  18  29
ENDBRANCH   1  10
BRANCH   9  41
HETATM   41  N7  UNL     1    -101.028 -13.309  51.460  1.00  0.00    -0.374 N 
HETATM   42  C24 UNL     1    -102.412 -13.730  51.435  1.00  0.00     0.150 C 
HETATM   43  C25 UNL     1    -100.738 -11.897  51.467  1.00  0.00     0.150 C 
ENDBRANCH   9  41
TORSDOF 7
ENDMDL
