MODEL 1
REMARK VINA RESULT: -5.918406216      0.000      0.000
REMARK  2 active torsions:
REMARK  status: ('A' for Active; 'I' for Inactive)
REMARK    1  A    between atoms: C2_2  and  C3_3 
REMARK       I    between atoms: C3_3  and  N1_5 
REMARK    2  A    between atoms: N1_5  and  N2_7 
ROOT
HETATM    1  C1  UNL     1     -14.262 -34.275  97.040  1.00  0.00     0.071 C 
HETATM    2  C2  UNL     1     -14.323 -32.790  96.807  1.00  0.00     0.204 C 
HETATM    3  N3  UNL     1     -14.717 -32.129  98.004  1.00  0.00    -0.095 NA
HETATM    4  N4  UNL     1     -15.427 -30.982  97.641  1.00  0.00    -0.253 N 
ATOM      5  H4  UNL     1     -15.493 -30.112  98.170  1.00  0.00     0.187 HD
HETATM    6  C4  UNL     1     -16.040 -31.267  96.388  1.00  0.00     0.333 C 
HETATM    7  O2  UNL     1     -16.969 -30.621  95.807  1.00  0.00    -0.246 OA
HETATM    8  N5  UNL     1     -15.404 -32.440  95.888  1.00  0.00    -0.309 N 
ATOM      9  H5  UNL     1     -15.658 -32.945  95.040  1.00  0.00     0.167 HD
ENDROOT
BRANCH   2  10
HETATM   10  C3  UNL     1     -13.017 -32.348  96.282  1.00  0.00     0.282 C 
HETATM   11  O1  UNL     1     -12.818 -32.411  95.050  1.00  0.00    -0.267 OA
HETATM   12  N1  UNL     1     -11.983 -31.858  97.125  1.00  0.00    -0.273 N 
ATOM     13  H1  UNL     1     -12.143 -31.805  98.130  1.00  0.00     0.189 HD
BRANCH  12  14
HETATM   14  N2  UNL     1     -10.753 -31.446  96.607  1.00  0.00    -0.343 N 
ATOM     15  H22 UNL     1      -9.916 -31.608  97.167  1.00  0.00     0.176 HD
ATOM     16  H21 UNL     1     -10.681 -30.994  95.695  1.00  0.00     0.176 HD
ENDBRANCH  12  14
ENDBRANCH   2  10
TORSDOF 2
ENDMDL
MODEL 2
REMARK VINA RESULT: -5.641094986      1.768      3.720
REMARK  2 active torsions:
REMARK  status: ('A' for Active; 'I' for Inactive)
REMARK    1  A    between atoms: C2_2  and  C3_3 
REMARK       I    between atoms: C3_3  and  N1_5 
REMARK    2  A    between atoms: N1_5  and  N2_7 
ROOT
HETATM    1  C1  UNL     1     -14.016 -34.317  96.812  1.00  0.00     0.071 C 
HETATM    2  C2  UNL     1     -13.727 -32.917  96.341  1.00  0.00     0.204 C 
HETATM    3  N3  UNL     1     -12.899 -32.958  95.184  1.00  0.00    -0.095 NA
HETATM    4  N4  UNL     1     -12.102 -31.811  95.193  1.00  0.00    -0.253 N 
ATOM      5  H4  UNL     1     -11.723 -31.324  94.380  1.00  0.00     0.187 HD
HETATM    6  C4  UNL     1     -11.922 -31.455  96.559  1.00  0.00     0.333 C 
HETATM    7  O2  UNL     1     -11.077 -30.642  97.051  1.00  0.00    -0.246 OA
HETATM    8  N5  UNL     1     -12.889 -32.197  97.297  1.00  0.00    -0.309 N 
ATOM      9  H5  UNL     1     -12.982 -32.220  98.313  1.00  0.00     0.167 HD
ENDROOT
BRANCH   2  10
HETATM   10  C3  UNL     1     -15.012 -32.223  96.133  1.00  0.00     0.282 C 
HETATM   11  O1  UNL     1     -15.864 -32.758  95.392  1.00  0.00    -0.267 OA
HETATM   12  N1  UNL     1     -15.311 -30.974  96.740  1.00  0.00    -0.273 N 
ATOM     13  H1  UNL     1     -14.617 -30.535  97.345  1.00  0.00     0.189 HD
BRANCH  12  14
HETATM   14  N2  UNL     1     -16.534 -30.333  96.529  1.00  0.00    -0.343 N 
ATOM     15  H22 UNL     1     -17.161 -30.712  95.819  1.00  0.00     0.176 HD
ATOM     16  H21 UNL     1     -16.804 -29.507  97.064  1.00  0.00     0.176 HD
ENDBRANCH  12  14
ENDBRANCH   2  10
TORSDOF 2
ENDMDL
MODEL 3
REMARK VINA RESULT: -5.366975142      2.075      3.107
REMARK  2 active torsions:
REMARK  status: ('A' for Active; 'I' for Inactive)
REMARK    1  A    between atoms: C2_2  and  C3_3 
REMARK       I    between atoms: C3_3  and  N1_5 
REMARK    2  A    between atoms: N1_5  and  N2_7 
ROOT
HETATM    1  C1  UNL     1     -15.318 -31.310  96.924  1.00  0.00     0.071 C 
HETATM    2  C2  UNL     1     -14.220 -32.331  96.802  1.00  0.00     0.204 C 
HETATM    3  N3  UNL     1     -14.189 -32.851  95.478  1.00  0.00    -0.095 NA
HETATM    4  N4  UNL     1     -13.741 -34.172  95.552  1.00  0.00    -0.253 N 
ATOM      5  H4  UNL     1     -13.229 -34.685  94.833  1.00  0.00     0.187 HD
HETATM    6  C4  UNL     1     -14.139 -34.662  96.827  1.00  0.00     0.333 C 
HETATM    7  O2  UNL     1     -14.169 -35.869  97.228  1.00  0.00    -0.246 OA
HETATM    8  N5  UNL     1     -14.510 -33.522  97.597  1.00  0.00    -0.309 N 
ATOM      9  H5  UNL     1     -14.906 -33.534  98.536  1.00  0.00     0.167 HD
ENDROOT
BRANCH   2  10
HETATM   10  C3  UNL     1     -12.954 -31.704  97.227  1.00  0.00     0.282 C 
HETATM   11  O1  UNL     1     -12.997 -30.805  98.095  1.00  0.00    -0.267 OA
HETATM   12  N1  UNL     1     -11.696 -32.083  96.687  1.00  0.00    -0.273 N 
ATOM     13  H1  UNL     1     -11.658 -32.815  95.979  1.00  0.00     0.189 HD
BRANCH  12  14
HETATM   14  N2  UNL     1     -10.509 -31.475  97.103  1.00  0.00    -0.343 N 
ATOM     15  H22 UNL     1      -9.705 -31.508  96.476  1.00  0.00     0.176 HD
ATOM     16  H21 UNL     1     -10.437 -31.007  98.007  1.00  0.00     0.176 HD
ENDBRANCH  12  14
ENDBRANCH   2  10
TORSDOF 2
ENDMDL
MODEL 4
REMARK VINA RESULT: -5.360232752      1.894      2.828
REMARK  2 active torsions:
REMARK  status: ('A' for Active; 'I' for Inactive)
REMARK    1  A    between atoms: C2_2  and  C3_3 
REMARK       I    between atoms: C3_3  and  N1_5 
REMARK    2  A    between atoms: N1_5  and  N2_7 
ROOT
HETATM    1  C1  UNL     1     -14.809 -31.415  97.385  1.00  0.00     0.071 C 
HETATM    2  C2  UNL     1     -14.236 -32.570  96.610  1.00  0.00     0.204 C 
HETATM    3  N3  UNL     1     -15.063 -32.856  95.487  1.00  0.00    -0.095 NA
HETATM    4  N4  UNL     1     -14.972 -34.227  95.233  1.00  0.00    -0.253 N 
ATOM      5  H4  UNL     1     -15.078 -34.689  94.330  1.00  0.00     0.187 HD
HETATM    6  C4  UNL     1     -14.704 -34.852  96.484  1.00  0.00     0.333 C 
HETATM    7  O2  UNL     1     -14.790 -36.087  96.775  1.00  0.00    -0.246 OA
HETATM    8  N5  UNL     1     -14.309 -33.812  97.375  1.00  0.00    -0.309 N 
ATOM      9  H5  UNL     1     -14.112 -33.917  98.370  1.00  0.00     0.167 HD
ENDROOT
BRANCH   2  10
HETATM   10  C3  UNL     1     -12.841 -32.245  96.257  1.00  0.00     0.282 C 
HETATM   11  O1  UNL     1     -12.491 -32.341  95.062  1.00  0.00    -0.267 OA
HETATM   12  N1  UNL     1     -11.887 -31.831  97.225  1.00  0.00    -0.273 N 
ATOM     13  H1  UNL     1     -12.170 -31.752  98.202  1.00  0.00     0.189 HD
BRANCH  12  14
HETATM   14  N2  UNL     1     -10.569 -31.528  96.870  1.00  0.00    -0.343 N 
ATOM     15  H22 UNL     1     -10.415 -30.879  96.100  1.00  0.00     0.176 HD
ATOM     16  H21 UNL     1      -9.776 -31.940  97.362  1.00  0.00     0.176 HD
ENDBRANCH  12  14
ENDBRANCH   2  10
TORSDOF 2
ENDMDL
MODEL 5
REMARK VINA RESULT: -5.340908736      1.799      3.895
REMARK  2 active torsions:
REMARK  status: ('A' for Active; 'I' for Inactive)
REMARK    1  A    between atoms: C2_2  and  C3_3 
REMARK       I    between atoms: C3_3  and  N1_5 
REMARK    2  A    between atoms: N1_5  and  N2_7 
ROOT
HETATM    1  C1  UNL     1     -14.085 -31.483  98.378  1.00  0.00     0.071 C 
HETATM    2  C2  UNL     1     -14.020 -31.931  96.942  1.00  0.00     0.204 C 
HETATM    3  N3  UNL     1     -13.626 -33.297  96.880  1.00  0.00    -0.095 NA
HETATM    4  N4  UNL     1     -12.914 -33.478  95.692  1.00  0.00    -0.253 N 
ATOM      5  H4  UNL     1     -12.846 -34.337  95.146  1.00  0.00     0.187 HD
HETATM    6  C4  UNL     1     -12.301 -32.228  95.395  1.00  0.00     0.333 C 
HETATM    7  O2  UNL     1     -11.370 -31.992  94.560  1.00  0.00    -0.246 OA
HETATM    8  N5  UNL     1     -12.938 -31.262  96.224  1.00  0.00    -0.309 N 
ATOM      9  H5  UNL     1     -12.685 -30.277  96.303  1.00  0.00     0.167 HD
ENDROOT
BRANCH   2  10
HETATM   10  C3  UNL     1     -15.326 -31.656  96.312  1.00  0.00     0.282 C 
HETATM   11  O1  UNL     1     -15.900 -32.584  95.704  1.00  0.00    -0.267 OA
HETATM   12  N1  UNL     1     -15.947 -30.380  96.370  1.00  0.00    -0.273 N 
ATOM     13  H1  UNL     1     -15.480 -29.621  96.865  1.00  0.00     0.189 HD
BRANCH  12  14
HETATM   14  N2  UNL     1     -17.183 -30.141  95.765  1.00  0.00    -0.343 N 
ATOM     15  H22 UNL     1     -17.697 -30.937  95.388  1.00  0.00     0.176 HD
ATOM     16  H21 UNL     1     -17.571 -29.200  95.697  1.00  0.00     0.176 HD
ENDBRANCH  12  14
ENDBRANCH   2  10
TORSDOF 2
ENDMDL
