MODEL 1
REMARK VINA RESULT: -5.629616007      0.000      0.000
REMARK  9 active torsions:
REMARK  status: ('A' for Active; 'I' for Inactive)
REMARK    1  A    between atoms: N1_1  and  C1_5 
REMARK    2  A    between atoms: C3_10  and  O1_11 
REMARK    3  A    between atoms: C4_15  and  N4_16 
REMARK    4  A    between atoms: N4_16  and  C5_18 
REMARK    5  A    between atoms: C5_18  and  C6_19 
REMARK    6  A    between atoms: C6_19  and  O2_20 
REMARK    7  A    between atoms: O2_20  and  C7_21 
REMARK    8  A    between atoms: C9_23  and  O3_24 
REMARK    9  A    between atoms: C10_26  and  N5_27 
ROOT
HETATM    1  C1  UNL     1      22.570  17.648   9.891  1.00  0.00     0.421 C 
HETATM    2  N2  UNL     1      21.887  17.309   8.684  1.00  0.00    -0.038 N 
ATOM      3  H21 UNL     1      22.459  16.684   8.115  1.00  0.00     0.280 HD
ATOM      4  H22 UNL     1      21.839  18.116   8.063  1.00  0.00     0.280 HD
HETATM    5  C2  UNL     1      20.569  16.747   8.883  1.00  0.00     0.287 C 
HETATM    6  C3  UNL     1      20.491  15.956  10.158  1.00  0.00     0.240 C 
HETATM    7  N3  UNL     1      20.928  16.663  11.314  1.00  0.00    -0.372 N 
ATOM      8  H3  UNL     1      20.760  16.323  12.260  1.00  0.00     0.158 HD
HETATM    9  C4  UNL     1      21.632  17.903  11.049  1.00  0.00     0.237 C 
ENDROOT
BRANCH   9  10
HETATM   10  N4  UNL     1      20.711  18.954  10.809  1.00  0.00    -0.377 N 
ATOM     11  H4  UNL     1      20.593  19.337   9.870  1.00  0.00     0.160 HD
BRANCH  10  12
HETATM   12  C5  UNL     1      19.962  19.461  11.887  1.00  0.00     0.083 C 
BRANCH  12  13
HETATM   13  C6  UNL     1      20.121  20.887  12.255  1.00  0.00     0.212 C 
BRANCH  13  14
HETATM   14  O2  UNL     1      20.349  21.120  13.580  1.00  0.00    -0.379 OA
BRANCH  14  15
HETATM   15  C7  UNL     1      19.837  22.317  14.043  1.00  0.00     0.157 C 
HETATM   16  C8  UNL     1      18.692  22.182  15.023  1.00  0.00     0.068 C 
HETATM   17  C9  UNL     1      19.305  23.317  15.809  1.00  0.00     0.153 C 
HETATM   18  C10 UNL     1      20.640  22.945  15.158  1.00  0.00     0.240 C 
BRANCH  17  19
HETATM   19  O3  UNL     1      19.278  23.092  17.193  1.00  0.00    -0.393 OA
ATOM     20  H3  UNL     1      20.123  23.232  17.603  1.00  0.00     0.210 HD
ENDBRANCH  17  19
BRANCH  18  21
HETATM   21  N5  UNL     1      21.341  21.914  15.905  1.00  0.00    -0.070 N 
ATOM     22  H53 UNL     1      21.244  20.995  15.474  1.00  0.00     0.274 HD
ATOM     23  H52 UNL     1      22.354  22.007  15.829  1.00  0.00     0.274 HD
ATOM     24  H51 UNL     1      21.029  21.916  16.876  1.00  0.00     0.274 HD
ENDBRANCH  18  21
ENDBRANCH  14  15
ENDBRANCH  13  14
ENDBRANCH  12  13
ENDBRANCH  10  12
ENDBRANCH   9  10
BRANCH   1  25
HETATM   25  N1  UNL     1      23.535  16.654  10.297  1.00  0.00    -0.046 N 
ATOM     26  H13 UNL     1      23.924  16.173   9.485  1.00  0.00     0.277 HD
ATOM     27  H12 UNL     1      24.382  17.095  10.652  1.00  0.00     0.277 HD
ATOM     28  H11 UNL     1      23.162  15.985  10.971  1.00  0.00     0.277 HD
ENDBRANCH   1  25
BRANCH   6  29
HETATM   29  O1  UNL     1      21.206  14.752  10.076  1.00  0.00    -0.375 OA
ATOM     30  H1  UNL     1      22.019  14.786  10.565  1.00  0.00     0.212 HD
ENDBRANCH   6  29
TORSDOF 9
ENDMDL
MODEL 2
REMARK VINA RESULT: -5.401524952      1.040      1.830
REMARK  9 active torsions:
REMARK  status: ('A' for Active; 'I' for Inactive)
REMARK    1  A    between atoms: N1_1  and  C1_5 
REMARK    2  A    between atoms: C3_10  and  O1_11 
REMARK    3  A    between atoms: C4_15  and  N4_16 
REMARK    4  A    between atoms: N4_16  and  C5_18 
REMARK    5  A    between atoms: C5_18  and  C6_19 
REMARK    6  A    between atoms: C6_19  and  O2_20 
REMARK    7  A    between atoms: O2_20  and  C7_21 
REMARK    8  A    between atoms: C9_23  and  O3_24 
REMARK    9  A    between atoms: C10_26  and  N5_27 
ROOT
HETATM    1  C1  UNL     1      20.145  16.735  10.777  1.00  0.00     0.421 C 
HETATM    2  N2  UNL     1      21.438  16.286  11.183  1.00  0.00    -0.038 N 
ATOM      3  H21 UNL     1      21.480  15.266  11.169  1.00  0.00     0.280 HD
ATOM      4  H22 UNL     1      21.575  16.453  12.180  1.00  0.00     0.280 HD
HETATM    5  C2  UNL     1      22.531  16.847  10.422  1.00  0.00     0.287 C 
HETATM    6  C3  UNL     1      22.132  17.121   8.999  1.00  0.00     0.240 C 
HETATM    7  N3  UNL     1      20.953  17.906   8.861  1.00  0.00    -0.372 N 
ATOM      8  H3  UNL     1      20.671  18.320   7.973  1.00  0.00     0.158 HD
HETATM    9  C4  UNL     1      20.180  18.075  10.076  1.00  0.00     0.237 C 
ENDROOT
BRANCH   9  10
HETATM   10  N4  UNL     1      20.725  19.114  10.872  1.00  0.00    -0.377 N 
ATOM     11  H4  UNL     1      21.646  19.501  10.660  1.00  0.00     0.160 HD
BRANCH  10  12
HETATM   12  C5  UNL     1      19.976  19.604  11.957  1.00  0.00     0.083 C 
BRANCH  12  13
HETATM   13  C6  UNL     1      20.141  21.023  12.351  1.00  0.00     0.212 C 
BRANCH  13  14
HETATM   14  O2  UNL     1      20.366  21.232  13.680  1.00  0.00    -0.379 OA
BRANCH  14  15
HETATM   15  C7  UNL     1      19.838  22.411  14.169  1.00  0.00     0.157 C 
HETATM   16  C8  UNL     1      18.675  22.242  15.122  1.00  0.00     0.068 C 
HETATM   17  C9  UNL     1      19.266  23.356  15.953  1.00  0.00     0.153 C 
HETATM   18  C10 UNL     1      20.616  23.011  15.317  1.00  0.00     0.240 C 
BRANCH  17  19
HETATM   19  O3  UNL     1      19.214  23.090  17.329  1.00  0.00    -0.393 OA
ATOM     20  H3  UNL     1      20.077  23.013  17.720  1.00  0.00     0.210 HD
ENDBRANCH  17  19
BRANCH  18  21
HETATM   21  N5  UNL     1      21.309  21.962  16.047  1.00  0.00    -0.070 N 
ATOM     22  H53 UNL     1      21.473  22.217  17.021  1.00  0.00     0.274 HD
ATOM     23  H52 UNL     1      20.715  21.148  16.205  1.00  0.00     0.274 HD
ATOM     24  H51 UNL     1      22.174  21.717  15.565  1.00  0.00     0.274 HD
ENDBRANCH  18  21
ENDBRANCH  14  15
ENDBRANCH  13  14
ENDBRANCH  12  13
ENDBRANCH  10  12
ENDBRANCH   9  10
BRANCH   1  25
HETATM   25  N1  UNL     1      19.458  15.794   9.925  1.00  0.00    -0.046 N 
ATOM     26  H13 UNL     1      19.323  16.180   8.991  1.00  0.00     0.277 HD
ATOM     27  H12 UNL     1      20.063  15.006   9.694  1.00  0.00     0.277 HD
ATOM     28  H11 UNL     1      18.573  15.470  10.316  1.00  0.00     0.277 HD
ENDBRANCH   1  25
BRANCH   6  29
HETATM   29  O1  UNL     1      21.968  15.939   8.262  1.00  0.00    -0.375 OA
ATOM     30  H1  UNL     1      21.546  16.096   7.426  1.00  0.00     0.212 HD
ENDBRANCH   6  29
TORSDOF 9
ENDMDL
MODEL 3
REMARK VINA RESULT: -5.375317359      4.438      7.043
REMARK  9 active torsions:
REMARK  status: ('A' for Active; 'I' for Inactive)
REMARK    1  A    between atoms: N1_1  and  C1_5 
REMARK    2  A    between atoms: C3_10  and  O1_11 
REMARK    3  A    between atoms: C4_15  and  N4_16 
REMARK    4  A    between atoms: N4_16  and  C5_18 
REMARK    5  A    between atoms: C5_18  and  C6_19 
REMARK    6  A    between atoms: C6_19  and  O2_20 
REMARK    7  A    between atoms: O2_20  and  C7_21 
REMARK    8  A    between atoms: C9_23  and  O3_24 
REMARK    9  A    between atoms: C10_26  and  N5_27 
ROOT
HETATM    1  C1  UNL     1      20.973  15.953   9.639  1.00  0.00     0.421 C 
HETATM    2  N2  UNL     1      20.300  16.909   8.820  1.00  0.00    -0.038 N 
ATOM      3  H21 UNL     1      19.305  16.690   8.762  1.00  0.00     0.280 HD
ATOM      4  H22 UNL     1      20.563  16.787   7.842  1.00  0.00     0.280 HD
HETATM    5  C2  UNL     1      20.492  18.283   9.226  1.00  0.00     0.287 C 
HETATM    6  C3  UNL     1      20.655  18.402  10.716  1.00  0.00     0.240 C 
HETATM    7  N3  UNL     1      21.663  17.558  11.264  1.00  0.00    -0.372 N 
ATOM      8  H3  UNL     1      22.008  17.666  12.217  1.00  0.00     0.158 HD
HETATM    9  C4  UNL     1      22.164  16.535  10.367  1.00  0.00     0.237 C 
ENDROOT
BRANCH   9  10
HETATM   10  N4  UNL     1      23.149  17.073   9.500  1.00  0.00    -0.377 N 
ATOM     11  H4  UNL     1      23.125  16.872   8.500  1.00  0.00     0.160 HD
BRANCH  10  12
HETATM   12  C5  UNL     1      24.159  17.888  10.042  1.00  0.00     0.083 C 
BRANCH  12  13
HETATM   13  C6  UNL     1      25.039  18.639   9.116  1.00  0.00     0.212 C 
BRANCH  13  14
HETATM   14  O2  UNL     1      26.202  19.094   9.666  1.00  0.00    -0.379 OA
BRANCH  14  15
HETATM   15  C7  UNL     1      27.209  19.331   8.750  1.00  0.00     0.157 C 
HETATM   16  C8  UNL     1      26.742  19.871   7.416  1.00  0.00     0.068 C 
HETATM   17  C9  UNL     1      27.938  20.793   7.433  1.00  0.00     0.153 C 
HETATM   18  C10 UNL     1      27.940  20.638   8.956  1.00  0.00     0.240 C 
BRANCH  17  19
HETATM   19  O3  UNL     1      27.626  22.092   7.005  1.00  0.00    -0.393 OA
ATOM     20  H3  UNL     1      27.105  22.570   7.638  1.00  0.00     0.210 HD
ENDBRANCH  17  19
BRANCH  18  21
HETATM   21  N5  UNL     1      27.062  21.600   9.602  1.00  0.00    -0.070 N 
ATOM     22  H53 UNL     1      26.112  21.243   9.706  1.00  0.00     0.274 HD
ATOM     23  H52 UNL     1      27.285  21.719  10.590  1.00  0.00     0.274 HD
ATOM     24  H51 UNL     1      27.084  22.485   9.095  1.00  0.00     0.274 HD
ENDBRANCH  18  21
ENDBRANCH  14  15
ENDBRANCH  13  14
ENDBRANCH  12  13
ENDBRANCH  10  12
ENDBRANCH   9  10
BRANCH   1  25
HETATM   25  N1  UNL     1      20.107  15.327  10.610  1.00  0.00    -0.046 N 
ATOM     26  H13 UNL     1      20.078  14.316  10.472  1.00  0.00     0.277 HD
ATOM     27  H12 UNL     1      20.524  15.357  11.540  1.00  0.00     0.277 HD
ATOM     28  H11 UNL     1      19.165  15.719  10.620  1.00  0.00     0.277 HD
ENDBRANCH   1  25
BRANCH   6  29
HETATM   29  O1  UNL     1      19.454  18.162  11.399  1.00  0.00    -0.375 OA
ATOM     30  H1  UNL     1      18.820  17.708  10.857  1.00  0.00     0.212 HD
ENDBRANCH   6  29
TORSDOF 9
ENDMDL
MODEL 4
REMARK VINA RESULT: -5.350750880      1.265      1.919
REMARK  9 active torsions:
REMARK  status: ('A' for Active; 'I' for Inactive)
REMARK    1  A    between atoms: N1_1  and  C1_5 
REMARK    2  A    between atoms: C3_10  and  O1_11 
REMARK    3  A    between atoms: C4_15  and  N4_16 
REMARK    4  A    between atoms: N4_16  and  C5_18 
REMARK    5  A    between atoms: C5_18  and  C6_19 
REMARK    6  A    between atoms: C6_19  and  O2_20 
REMARK    7  A    between atoms: O2_20  and  C7_21 
REMARK    8  A    between atoms: C9_23  and  O3_24 
REMARK    9  A    between atoms: C10_26  and  N5_27 
ROOT
HETATM    1  C1  UNL     1      20.348  17.083   9.902  1.00  0.00     0.421 C 
HETATM    2  N2  UNL     1      21.228  16.153  10.534  1.00  0.00    -0.038 N 
ATOM      3  H21 UNL     1      21.416  15.364   9.914  1.00  0.00     0.280 HD
ATOM      4  H22 UNL     1      20.749  15.669  11.293  1.00  0.00     0.280 HD
HETATM    5  C2  UNL     1      22.466  16.730  11.006  1.00  0.00     0.287 C 
HETATM    6  C3  UNL     1      22.914  17.871  10.135  1.00  0.00     0.240 C 
HETATM    7  N3  UNL     1      21.924  18.874   9.929  1.00  0.00    -0.372 N 
ATOM      8  H3  UNL     1      22.142  19.782   9.520  1.00  0.00     0.158 HD
HETATM    9  C4  UNL     1      20.583  18.510  10.343  1.00  0.00     0.237 C 
ENDROOT
BRANCH   9  10
HETATM   10  N4  UNL     1      20.425  18.704  11.739  1.00  0.00    -0.377 N 
ATOM     11  H4  UNL     1      20.946  18.133  12.404  1.00  0.00     0.160 HD
BRANCH  10  12
HETATM   12  C5  UNL     1      19.537  19.697  12.191  1.00  0.00     0.083 C 
BRANCH  12  13
HETATM   13  C6  UNL     1      20.063  21.058  12.446  1.00  0.00     0.212 C 
BRANCH  13  14
HETATM   14  O2  UNL     1      20.405  21.313  13.742  1.00  0.00    -0.379 OA
BRANCH  14  15
HETATM   15  C7  UNL     1      19.869  22.479  14.253  1.00  0.00     0.157 C 
HETATM   16  C8  UNL     1      18.683  22.285  15.173  1.00  0.00     0.068 C 
HETATM   17  C9  UNL     1      19.258  23.372  16.051  1.00  0.00     0.153 C 
HETATM   18  C10 UNL     1      20.621  23.042  15.437  1.00  0.00     0.240 C 
BRANCH  17  19
HETATM   19  O3  UNL     1      19.173  23.066  17.417  1.00  0.00    -0.393 OA
ATOM     20  H3  UNL     1      19.353  23.815  17.972  1.00  0.00     0.210 HD
ENDBRANCH  17  19
BRANCH  18  21
HETATM   21  N5  UNL     1      21.294  21.968  16.151  1.00  0.00    -0.070 N 
ATOM     22  H53 UNL     1      21.577  22.251  17.090  1.00  0.00     0.274 HD
ATOM     23  H52 UNL     1      20.652  21.219  16.410  1.00  0.00     0.274 HD
ATOM     24  H51 UNL     1      22.081  21.625  15.601  1.00  0.00     0.274 HD
ENDBRANCH  18  21
ENDBRANCH  14  15
ENDBRANCH  13  14
ENDBRANCH  12  13
ENDBRANCH  10  12
ENDBRANCH   9  10
BRANCH   1  25
HETATM   25  N1  UNL     1      20.409  17.036   8.461  1.00  0.00    -0.046 N 
ATOM     26  H13 UNL     1      19.725  16.376   8.090  1.00  0.00     0.277 HD
ATOM     27  H12 UNL     1      20.048  17.898   8.054  1.00  0.00     0.277 HD
ATOM     28  H11 UNL     1      21.343  16.828   8.106  1.00  0.00     0.277 HD
ENDBRANCH   1  25
BRANCH   6  29
HETATM   29  O1  UNL     1      23.368  17.431   8.883  1.00  0.00    -0.375 OA
ATOM     30  H1  UNL     1      22.865  16.693   8.560  1.00  0.00     0.212 HD
ENDBRANCH   6  29
TORSDOF 9
ENDMDL
MODEL 5
REMARK VINA RESULT: -5.252428716      4.180      6.504
REMARK  9 active torsions:
REMARK  status: ('A' for Active; 'I' for Inactive)
REMARK    1  A    between atoms: N1_1  and  C1_5 
REMARK    2  A    between atoms: C3_10  and  O1_11 
REMARK    3  A    between atoms: C4_15  and  N4_16 
REMARK    4  A    between atoms: N4_16  and  C5_18 
REMARK    5  A    between atoms: C5_18  and  C6_19 
REMARK    6  A    between atoms: C6_19  and  O2_20 
REMARK    7  A    between atoms: O2_20  and  C7_21 
REMARK    8  A    between atoms: C9_23  and  O3_24 
REMARK    9  A    between atoms: C10_26  and  N5_27 
ROOT
HETATM    1  C1  UNL     1      20.433  16.158   9.218  1.00  0.00     0.421 C 
HETATM    2  N2  UNL     1      20.223  17.470   8.696  1.00  0.00    -0.038 N 
ATOM      3  H21 UNL     1      19.232  17.625   8.511  1.00  0.00     0.280 HD
ATOM      4  H22 UNL     1      20.591  17.539   7.747  1.00  0.00     0.280 HD
HETATM    5  C2  UNL     1      20.755  18.532   9.520  1.00  0.00     0.287 C 
HETATM    6  C3  UNL     1      20.706  18.177  10.980  1.00  0.00     0.240 C 
HETATM    7  N3  UNL     1      21.307  16.927  11.300  1.00  0.00    -0.372 N 
ATOM      8  H3  UNL     1      21.510  16.647  12.259  1.00  0.00     0.158 HD
HETATM    9  C4  UNL     1      21.611  16.080  10.163  1.00  0.00     0.237 C 
ENDROOT
BRANCH   9  10
HETATM   10  N4  UNL     1      22.839  16.469   9.568  1.00  0.00    -0.377 N 
ATOM     11  H4  UNL     1      23.021  16.278   8.583  1.00  0.00     0.160 HD
BRANCH  10  12
HETATM   12  C5  UNL     1      23.800  17.122  10.360  1.00  0.00     0.083 C 
BRANCH  12  13
HETATM   13  C6  UNL     1      24.516  18.287   9.791  1.00  0.00     0.212 C 
BRANCH  13  14
HETATM   14  O2  UNL     1      25.476  18.827  10.597  1.00  0.00    -0.379 OA
BRANCH  14  15
HETATM   15  C7  UNL     1      26.712  18.965   9.996  1.00  0.00     0.157 C 
HETATM   16  C8  UNL     1      26.688  19.631   8.638  1.00  0.00     0.068 C 
HETATM   17  C9  UNL     1      27.940  20.373   9.041  1.00  0.00     0.153 C 
HETATM   18  C10 UNL     1      27.516  20.144  10.495  1.00  0.00     0.240 C 
BRANCH  17  19
HETATM   19  O3  UNL     1      27.916  21.723   8.659  1.00  0.00    -0.393 OA
ATOM     20  H3  UNL     1      27.451  22.270   9.281  1.00  0.00     0.210 HD
ENDBRANCH  17  19
BRANCH  18  21
HETATM   21  N5  UNL     1      26.622  21.187  10.971  1.00  0.00    -0.070 N 
ATOM     22  H53 UNL     1      25.796  20.803  11.430  1.00  0.00     0.274 HD
ATOM     23  H52 UNL     1      27.012  21.692  11.766  1.00  0.00     0.274 HD
ATOM     24  H51 UNL     1      26.377  21.812  10.203  1.00  0.00     0.274 HD
ENDBRANCH  18  21
ENDBRANCH  14  15
ENDBRANCH  13  14
ENDBRANCH  12  13
ENDBRANCH  10  12
ENDBRANCH   9  10
BRANCH   1  25
HETATM   25  N1  UNL     1      19.274  15.622   9.890  1.00  0.00    -0.046 N 
ATOM     26  H13 UNL     1      19.426  14.648  10.155  1.00  0.00     0.277 HD
ATOM     27  H12 UNL     1      19.169  16.034  10.816  1.00  0.00     0.277 HD
ATOM     28  H11 UNL     1      18.414  15.720   9.348  1.00  0.00     0.277 HD
ENDBRANCH   1  25
BRANCH   6  29
HETATM   29  O1  UNL     1      19.395  18.181  11.479  1.00  0.00    -0.375 OA
ATOM     30  H1  UNL     1      19.344  18.563  12.347  1.00  0.00     0.212 HD
ENDBRANCH   6  29
TORSDOF 9
ENDMDL
