MODEL 1
REMARK VINA RESULT: -6.673867739      0.000      0.000
REMARK  7 active torsions:
REMARK  status: ('A' for Active; 'I' for Inactive)
REMARK    1  A    between atoms: N1_5  and  C3_6 
REMARK    2  A    between atoms: C3_6  and  C4_7 
REMARK    3  A    between atoms: C4_7  and  O2_8 
REMARK    4  A    between atoms: C5_10  and  N2_11 
REMARK    5  A    between atoms: N2_11  and  C6_13 
REMARK    6  A    between atoms: C6_13  and  S3_15 
REMARK    7  A    between atoms: S3_15  and  C7_16 
ROOT
HETATM    1  O1  UNL     1      -2.877   5.999   8.597  1.00  0.00    -0.258 OA
HETATM    2  S1  UNL     1      -1.811   6.310   9.843  1.00  0.00     0.020 S 
HETATM    3  C1  UNL     1      -0.612   5.031  10.055  1.00  0.00     0.128 C 
HETATM    4  C2  UNL     1      -1.097   3.858  10.871  1.00  0.00     0.136 C 
HETATM    5  N1  UNL     1      -2.234   4.246  11.619  1.00  0.00    -0.369 N 
HETATM    6  C5  UNL     1      -2.115   5.486  12.301  1.00  0.00     0.196 C 
HETATM    7  C13 UNL     1      -2.730   6.515  11.381  1.00  0.00     0.155 C 
ENDROOT
BRANCH   6   8
HETATM    8  N2  UNL     1      -2.501   5.526  13.653  1.00  0.00    -0.353 N 
ATOM      9  H2  UNL     1      -1.997   4.962  14.338  1.00  0.00     0.163 HD
BRANCH   8  10
HETATM   10  C6  UNL     1      -3.593   6.349  14.078  1.00  0.00     0.136 C 
HETATM   11  S2  UNL     1      -3.306   7.961  14.257  1.00  0.00    -0.053 SA
BRANCH  10  12
HETATM   12  S3  UNL     1      -5.193   5.727  14.411  1.00  0.00    -0.096 SA
BRANCH  12  13
HETATM   13  C7  UNL     1      -5.316   4.540  15.743  1.00  0.00     0.054 C 
HETATM   14  C8  UNL     1      -4.939   3.166  15.224  1.00  0.00     0.015 C 
HETATM   15  C9  UNL     1      -4.958   2.139  16.341  1.00  0.00     0.001 C 
HETATM   16  C10 UNL     1      -6.118   2.312  17.263  1.00  0.00     0.000 C 
HETATM   17  C11 UNL     1      -7.201   3.214  16.720  1.00  0.00     0.001 C 
HETATM   18  C12 UNL     1      -6.680   4.583  16.342  1.00  0.00     0.015 C 
ENDBRANCH  12  13
ENDBRANCH  10  12
ENDBRANCH   8  10
ENDBRANCH   6   8
BRANCH   5  19
HETATM   19  C3  UNL     1      -3.171   3.305  11.986  1.00  0.00     0.086 C 
BRANCH  19  20
HETATM   20  C4  UNL     1      -4.238   2.972  10.941  1.00  0.00     0.208 C 
BRANCH  20  21
HETATM   21  O2  UNL     1      -5.450   3.556  11.197  1.00  0.00    -0.396 OA
ATOM     22  H2  UNL     1      -5.996   3.047  11.784  1.00  0.00     0.209 HD
ENDBRANCH  20  21
ENDBRANCH  19  20
ENDBRANCH   5  19
TORSDOF 7
ENDMDL
MODEL 2
REMARK VINA RESULT: -6.551457901      1.227      1.256
REMARK  7 active torsions:
REMARK  status: ('A' for Active; 'I' for Inactive)
REMARK    1  A    between atoms: N1_5  and  C3_6 
REMARK    2  A    between atoms: C3_6  and  C4_7 
REMARK    3  A    between atoms: C4_7  and  O2_8 
REMARK    4  A    between atoms: C5_10  and  N2_11 
REMARK    5  A    between atoms: N2_11  and  C6_13 
REMARK    6  A    between atoms: C6_13  and  S3_15 
REMARK    7  A    between atoms: S3_15  and  C7_16 
ROOT
HETATM    1  O1  UNL     1      -1.220   5.901   8.049  1.00  0.00    -0.258 OA
HETATM    2  S1  UNL     1      -1.169   6.344   9.658  1.00  0.00     0.020 S 
HETATM    3  C1  UNL     1      -0.509   5.077  10.696  1.00  0.00     0.128 C 
HETATM    4  C2  UNL     1      -1.513   4.027  11.103  1.00  0.00     0.136 C 
HETATM    5  N1  UNL     1      -2.822   4.529  10.908  1.00  0.00    -0.369 N 
HETATM    6  C5  UNL     1      -3.046   5.841  11.400  1.00  0.00     0.196 C 
HETATM    7  C13 UNL     1      -2.831   6.759  10.219  1.00  0.00     0.155 C 
ENDROOT
BRANCH   6   8
HETATM    8  N2  UNL     1      -4.198   6.058  12.178  1.00  0.00    -0.353 N 
ATOM      9  H2  UNL     1      -5.100   6.186  11.718  1.00  0.00     0.163 HD
BRANCH   8  10
HETATM   10  C6  UNL     1      -4.118   6.101  13.607  1.00  0.00     0.136 C 
HETATM   11  S2  UNL     1      -2.629   6.312  14.280  1.00  0.00    -0.053 SA
BRANCH  10  12
HETATM   12  S3  UNL     1      -5.510   5.941  14.653  1.00  0.00    -0.096 SA
BRANCH  12  13
HETATM   13  C7  UNL     1      -5.441   4.626  15.863  1.00  0.00     0.054 C 
HETATM   14  C8  UNL     1      -4.987   3.347  15.184  1.00  0.00     0.015 C 
HETATM   15  C9  UNL     1      -4.843   2.220  16.190  1.00  0.00     0.001 C 
HETATM   16  C10 UNL     1      -5.946   2.199  17.195  1.00  0.00     0.000 C 
HETATM   17  C11 UNL     1      -7.135   3.048  16.814  1.00  0.00     0.001 C 
HETATM   18  C12 UNL     1      -6.758   4.488  16.545  1.00  0.00     0.015 C 
ENDBRANCH  12  13
ENDBRANCH  10  12
ENDBRANCH   8  10
ENDBRANCH   6   8
BRANCH   5  19
HETATM   19  C3  UNL     1      -3.862   3.660  10.662  1.00  0.00     0.086 C 
BRANCH  19  20
HETATM   20  C4  UNL     1      -3.509   2.172  10.639  1.00  0.00     0.208 C 
BRANCH  20  21
HETATM   21  O2  UNL     1      -3.722   1.581   9.422  1.00  0.00    -0.396 OA
ATOM     22  H2  UNL     1      -3.109   1.864   8.753  1.00  0.00     0.209 HD
ENDBRANCH  20  21
ENDBRANCH  19  20
ENDBRANCH   5  19
TORSDOF 7
ENDMDL
MODEL 3
REMARK VINA RESULT: -6.520629047      1.267      1.710
REMARK  7 active torsions:
REMARK  status: ('A' for Active; 'I' for Inactive)
REMARK    1  A    between atoms: N1_5  and  C3_6 
REMARK    2  A    between atoms: C3_6  and  C4_7 
REMARK    3  A    between atoms: C4_7  and  O2_8 
REMARK    4  A    between atoms: C5_10  and  N2_11 
REMARK    5  A    between atoms: N2_11  and  C6_13 
REMARK    6  A    between atoms: C6_13  and  S3_15 
REMARK    7  A    between atoms: S3_15  and  C7_16 
ROOT
HETATM    1  O1  UNL     1      -1.332   5.984   8.031  1.00  0.00    -0.258 OA
HETATM    2  S1  UNL     1      -1.317   6.595   9.584  1.00  0.00     0.020 S 
HETATM    3  C1  UNL     1      -0.651   5.461  10.761  1.00  0.00     0.128 C 
HETATM    4  C2  UNL     1      -1.640   4.437  11.261  1.00  0.00     0.136 C 
HETATM    5  N1  UNL     1      -2.955   4.886  10.994  1.00  0.00    -0.369 N 
HETATM    6  C5  UNL     1      -3.214   6.238  11.341  1.00  0.00     0.196 C 
HETATM    7  C13 UNL     1      -2.998   7.030  10.072  1.00  0.00     0.155 C 
ENDROOT
BRANCH   6   8
HETATM    8  N2  UNL     1      -4.384   6.511  12.073  1.00  0.00    -0.353 N 
ATOM      9  H2  UNL     1      -5.288   6.502  11.601  1.00  0.00     0.163 HD
BRANCH   8  10
HETATM   10  C6  UNL     1      -4.318   6.800  13.474  1.00  0.00     0.136 C 
HETATM   11  S2  UNL     1      -2.913   7.434  14.056  1.00  0.00    -0.053 SA
BRANCH  10  12
HETATM   12  S3  UNL     1      -5.644   6.513  14.579  1.00  0.00    -0.096 SA
BRANCH  12  13
HETATM   13  C7  UNL     1      -5.877   4.822  15.108  1.00  0.00     0.054 C 
HETATM   14  C8  UNL     1      -6.687   4.806  16.390  1.00  0.00     0.015 C 
HETATM   15  C9  UNL     1      -6.972   3.385  16.837  1.00  0.00     0.001 C 
HETATM   16  C10 UNL     1      -5.797   2.481  16.669  1.00  0.00     0.000 C 
HETATM   17  C11 UNL     1      -4.495   3.210  16.434  1.00  0.00     0.001 C 
HETATM   18  C12 UNL     1      -4.558   4.142  15.245  1.00  0.00     0.015 C 
ENDBRANCH  12  13
ENDBRANCH  10  12
ENDBRANCH   8  10
ENDBRANCH   6   8
BRANCH   5  19
HETATM   19  C3  UNL     1      -3.973   3.974  10.826  1.00  0.00     0.086 C 
BRANCH  19  20
HETATM   20  C4  UNL     1      -3.563   2.500  10.810  1.00  0.00     0.208 C 
BRANCH  20  21
HETATM   21  O2  UNL     1      -3.878   1.861   9.641  1.00  0.00    -0.396 OA
ATOM     22  H2  UNL     1      -3.681   2.374   8.865  1.00  0.00     0.209 HD
ENDBRANCH  20  21
ENDBRANCH  19  20
ENDBRANCH   5  19
TORSDOF 7
ENDMDL
MODEL 4
REMARK VINA RESULT: -6.472975626      2.062      3.246
REMARK  7 active torsions:
REMARK  status: ('A' for Active; 'I' for Inactive)
REMARK    1  A    between atoms: N1_5  and  C3_6 
REMARK    2  A    between atoms: C3_6  and  C4_7 
REMARK    3  A    between atoms: C4_7  and  O2_8 
REMARK    4  A    between atoms: C5_10  and  N2_11 
REMARK    5  A    between atoms: N2_11  and  C6_13 
REMARK    6  A    between atoms: C6_13  and  S3_15 
REMARK    7  A    between atoms: S3_15  and  C7_16 
ROOT
HETATM    1  O1  UNL     1      -3.286   1.235   9.445  1.00  0.00    -0.258 OA
HETATM    2  S1  UNL     1      -2.944   1.748  10.996  1.00  0.00     0.020 S 
HETATM    3  C1  UNL     1      -4.338   2.474  11.800  1.00  0.00     0.128 C 
HETATM    4  C2  UNL     1      -4.561   3.927  11.457  1.00  0.00     0.136 C 
HETATM    5  N1  UNL     1      -3.372   4.468  10.913  1.00  0.00    -0.369 N 
HETATM    6  C5  UNL     1      -2.186   4.163  11.631  1.00  0.00     0.196 C 
HETATM    7  C13 UNL     1      -1.600   2.949  10.947  1.00  0.00     0.155 C 
ENDROOT
BRANCH   6   8
HETATM    8  N2  UNL     1      -1.306   5.223  11.916  1.00  0.00    -0.353 N 
ATOM      9  H2  UNL     1      -0.418   5.290  11.417  1.00  0.00     0.163 HD
BRANCH   8  10
HETATM   10  C6  UNL     1      -1.642   6.208  12.899  1.00  0.00     0.136 C 
HETATM   11  S2  UNL     1      -1.496   7.792  12.471  1.00  0.00    -0.053 SA
BRANCH  10  12
HETATM   12  S3  UNL     1      -2.192   5.809  14.511  1.00  0.00    -0.096 SA
BRANCH  12  13
HETATM   13  C7  UNL     1      -3.835   5.113  14.634  1.00  0.00     0.054 C 
HETATM   14  C8  UNL     1      -4.816   6.210  15.001  1.00  0.00     0.015 C 
HETATM   15  C9  UNL     1      -6.236   5.678  15.044  1.00  0.00     0.001 C 
HETATM   16  C10 UNL     1      -6.327   4.331  15.679  1.00  0.00     0.000 C 
HETATM   17  C11 UNL     1      -5.090   3.933  16.449  1.00  0.00     0.001 C 
HETATM   18  C12 UNL     1      -3.839   3.980  15.601  1.00  0.00     0.015 C 
ENDBRANCH  12  13
ENDBRANCH  10  12
ENDBRANCH   8  10
ENDBRANCH   6   8
BRANCH   5  19
HETATM   19  C3  UNL     1      -3.437   5.530  10.039  1.00  0.00     0.086 C 
BRANCH  19  20
HETATM   20  C4  UNL     1      -4.468   6.612  10.365  1.00  0.00     0.208 C 
BRANCH  20  21
HETATM   21  O2  UNL     1      -5.528   6.633   9.498  1.00  0.00    -0.396 OA
ATOM     22  H2  UNL     1      -6.295   7.069   9.850  1.00  0.00     0.209 HD
ENDBRANCH  20  21
ENDBRANCH  19  20
ENDBRANCH   5  19
TORSDOF 7
ENDMDL
MODEL 5
REMARK VINA RESULT: -6.364241115      3.429      5.991
REMARK  7 active torsions:
REMARK  status: ('A' for Active; 'I' for Inactive)
REMARK    1  A    between atoms: N1_5  and  C3_6 
REMARK    2  A    between atoms: C3_6  and  C4_7 
REMARK    3  A    between atoms: C4_7  and  O2_8 
REMARK    4  A    between atoms: C5_10  and  N2_11 
REMARK    5  A    between atoms: N2_11  and  C6_13 
REMARK    6  A    between atoms: C6_13  and  S3_15 
REMARK    7  A    between atoms: S3_15  and  C7_16 
ROOT
HETATM    1  O1  UNL     1      -2.878   3.710  15.811  1.00  0.00    -0.258 OA
HETATM    2  S1  UNL     1      -3.746   4.875  14.990  1.00  0.00     0.020 S 
HETATM    3  C1  UNL     1      -5.115   4.208  14.096  1.00  0.00     0.128 C 
HETATM    4  C2  UNL     1      -4.753   3.643  12.744  1.00  0.00     0.136 C 
HETATM    5  N1  UNL     1      -3.498   4.158  12.342  1.00  0.00    -0.369 N 
HETATM    6  C5  UNL     1      -3.338   5.559  12.505  1.00  0.00     0.196 C 
HETATM    7  C13 UNL     1      -2.655   5.736  13.841  1.00  0.00     0.155 C 
ENDROOT
BRANCH   6   8
HETATM    8  N2  UNL     1      -2.818   6.287  11.419  1.00  0.00    -0.353 N 
ATOM      9  H2  UNL     1      -2.267   5.806  10.707  1.00  0.00     0.163 HD
BRANCH   8  10
HETATM   10  C6  UNL     1      -3.052   7.694  11.302  1.00  0.00     0.136 C 
HETATM   11  S2  UNL     1      -1.772   8.648  10.896  1.00  0.00    -0.053 SA
BRANCH  10  12
HETATM   12  S3  UNL     1      -4.615   8.434  11.570  1.00  0.00    -0.096 SA
BRANCH  12  13
HETATM   13  C7  UNL     1      -5.541   8.871  10.105  1.00  0.00     0.054 C 
HETATM   14  C8  UNL     1      -6.907   9.389  10.513  1.00  0.00     0.015 C 
HETATM   15  C9  UNL     1      -7.702   9.842   9.303  1.00  0.00     0.001 C 
HETATM   16  C10 UNL     1      -7.553   8.921   8.138  1.00  0.00     0.000 C 
HETATM   17  C11 UNL     1      -6.954   7.580   8.493  1.00  0.00     0.001 C 
HETATM   18  C12 UNL     1      -5.612   7.708   9.178  1.00  0.00     0.015 C 
ENDBRANCH  12  13
ENDBRANCH  10  12
ENDBRANCH   8  10
ENDBRANCH   6   8
BRANCH   5  19
HETATM   19  C3  UNL     1      -2.699   3.433  11.485  1.00  0.00     0.086 C 
BRANCH  19  20
HETATM   20  C4  UNL     1      -3.298   2.134  10.940  1.00  0.00     0.208 C 
BRANCH  20  21
HETATM   21  O2  UNL     1      -3.826   2.264   9.684  1.00  0.00    -0.396 OA
ATOM     22  H2  UNL     1      -3.292   1.864   9.007  1.00  0.00     0.209 HD
ENDBRANCH  20  21
ENDBRANCH  19  20
ENDBRANCH   5  19
TORSDOF 7
ENDMDL
