MODEL 1
REMARK VINA RESULT: -8.120453333      0.000      0.000
REMARK  4 active torsions:
REMARK  status: ('A' for Active; 'I' for Inactive)
REMARK    1  A    between atoms: C2_2  and  C3_3 
REMARK    2  A    between atoms: C3_3  and  N1_4 
REMARK       I    between atoms: N1_4  and  C4_6 
REMARK    3  A    between atoms: C4_6  and  C5_8 
REMARK    4  A    between atoms: C5_8  and  N2_9 
ROOT
HETATM    1  C5  UNL     1      -4.532   5.093  14.060  1.00  0.00     0.116 C 
HETATM    2  C12 UNL     1      -5.556   6.186  14.093  1.00  0.00     0.041 C 
HETATM    3  C13 UNL     1      -5.158   7.555  13.765  1.00  0.00     0.003 C 
HETATM    4  C14 UNL     1      -3.833   8.012  14.276  1.00  0.00     0.000 C 
HETATM    5  C15 UNL     1      -2.806   6.937  14.375  1.00  0.00     0.003 C 
HETATM    6  C16 UNL     1      -3.306   5.597  14.759  1.00  0.00     0.041 C 
ENDROOT
BRANCH   1   7
HETATM    7  C4  UNL     1      -4.169   4.622  12.717  1.00  0.00     0.246 C 
HETATM    8  N1  UNL     1      -2.924   4.205  12.248  1.00  0.00    -0.359 N 
ATOM      9  H1  UNL     1      -2.119   4.209  12.875  1.00  0.00     0.162 HD
HETATM   10  O1  UNL     1      -5.127   4.586  11.857  1.00  0.00    -0.271 OA
BRANCH   8  11
HETATM   11  C3  UNL     1      -2.763   3.761  10.852  1.00  0.00     0.122 C 
BRANCH  11  12
HETATM   12  C2  UNL     1      -2.108   2.386  10.828  1.00  0.00     0.015 C 
HETATM   13  C1  UNL     1      -3.129   1.323  11.156  1.00  0.00     0.006 C 
ENDBRANCH  11  12
ENDBRANCH   8  11
ENDBRANCH   1   7
BRANCH   1  14
HETATM   14  N2  UNL     1      -5.067   3.991  14.847  1.00  0.00    -0.350 N 
HETATM   15  C6  UNL     1      -4.769   2.713  14.349  1.00  0.00     0.093 C 
HETATM   16  C7  UNL     1      -4.243   1.665  15.239  1.00  0.00     0.254 C 
HETATM   17  O2  UNL     1      -4.421   1.961  16.572  1.00  0.00    -0.235 OA
HETATM   18  O3  UNL     1      -5.737   1.921  16.796  1.00  0.00    -0.225 OA
HETATM   19  C8  UNL     1      -6.101   3.259  16.936  1.00  0.00     0.121 C 
HETATM   20  C9  UNL     1      -6.071   3.592  18.411  1.00  0.00     0.055 C 
HETATM   21  C10 UNL     1      -7.492   3.506  16.428  1.00  0.00     0.055 C 
HETATM   22  C11 UNL     1      -5.125   4.176  16.227  1.00  0.00     0.105 C 
ENDBRANCH   1  14
TORSDOF 4
ENDMDL
MODEL 2
REMARK VINA RESULT: -7.449482087      1.610      5.335
REMARK  4 active torsions:
REMARK  status: ('A' for Active; 'I' for Inactive)
REMARK    1  A    between atoms: C2_2  and  C3_3 
REMARK    2  A    between atoms: C3_3  and  N1_4 
REMARK       I    between atoms: N1_4  and  C4_6 
REMARK    3  A    between atoms: C4_6  and  C5_8 
REMARK    4  A    between atoms: C5_8  and  N2_9 
ROOT
HETATM    1  C5  UNL     1      -4.464   5.071  14.013  1.00  0.00     0.116 C 
HETATM    2  C12 UNL     1      -3.660   6.316  14.231  1.00  0.00     0.041 C 
HETATM    3  C13 UNL     1      -4.181   7.365  15.108  1.00  0.00     0.003 C 
HETATM    4  C14 UNL     1      -5.643   7.648  15.024  1.00  0.00     0.000 C 
HETATM    5  C15 UNL     1      -6.484   6.463  14.693  1.00  0.00     0.003 C 
HETATM    6  C16 UNL     1      -5.882   5.483  13.759  1.00  0.00     0.041 C 
ENDROOT
BRANCH   1   7
HETATM    7  C4  UNL     1      -4.427   4.105  15.119  1.00  0.00     0.246 C 
HETATM    8  N1  UNL     1      -5.384   3.156  15.478  1.00  0.00    -0.359 N 
ATOM      9  H1  UNL     1      -6.245   3.076  14.939  1.00  0.00     0.162 HD
HETATM   10  O1  UNL     1      -3.372   4.137  15.856  1.00  0.00    -0.271 OA
BRANCH   8  11
HETATM   11  C3  UNL     1      -5.157   2.268  16.633  1.00  0.00     0.122 C 
BRANCH  11  12
HETATM   12  C2  UNL     1      -6.230   2.519  17.685  1.00  0.00     0.015 C 
HETATM   13  C1  UNL     1      -7.505   2.979  17.021  1.00  0.00     0.006 C 
ENDBRANCH  11  12
ENDBRANCH   8  11
ENDBRANCH   1   7
BRANCH   1  14
HETATM   14  N2  UNL     1      -3.960   4.453  12.795  1.00  0.00    -0.350 N 
HETATM   15  C6  UNL     1      -4.581   3.241  12.449  1.00  0.00     0.093 C 
HETATM   16  C7  UNL     1      -5.060   3.009  11.077  1.00  0.00     0.254 C 
HETATM   17  O2  UNL     1      -4.532   3.901  10.171  1.00  0.00    -0.235 OA
HETATM   18  O3  UNL     1      -3.226   3.629  10.090  1.00  0.00    -0.225 OA
HETATM   19  C8  UNL     1      -2.615   4.682  10.769  1.00  0.00     0.121 C 
HETATM   20  C9  UNL     1      -2.247   5.735   9.748  1.00  0.00     0.055 C 
HETATM   21  C10 UNL     1      -1.357   4.236  11.456  1.00  0.00     0.055 C 
HETATM   22  C11 UNL     1      -3.555   5.313  11.775  1.00  0.00     0.105 C 
ENDBRANCH   1  14
TORSDOF 4
ENDMDL
MODEL 3
REMARK VINA RESULT: -7.360712591      2.230      5.617
REMARK  4 active torsions:
REMARK  status: ('A' for Active; 'I' for Inactive)
REMARK    1  A    between atoms: C2_2  and  C3_3 
REMARK    2  A    between atoms: C3_3  and  N1_4 
REMARK       I    between atoms: N1_4  and  C4_6 
REMARK    3  A    between atoms: C4_6  and  C5_8 
REMARK    4  A    between atoms: C5_8  and  N2_9 
ROOT
HETATM    1  C5  UNL     1      -4.293   5.160  13.996  1.00  0.00     0.116 C 
HETATM    2  C12 UNL     1      -5.641   5.750  13.713  1.00  0.00     0.041 C 
HETATM    3  C13 UNL     1      -6.508   6.133  14.828  1.00  0.00     0.003 C 
HETATM    4  C14 UNL     1      -6.530   5.222  16.008  1.00  0.00     0.000 C 
HETATM    5  C15 UNL     1      -5.243   4.517  16.269  1.00  0.00     0.003 C 
HETATM    6  C16 UNL     1      -4.463   4.130  15.070  1.00  0.00     0.041 C 
ENDROOT
BRANCH   1   7
HETATM    7  C4  UNL     1      -3.266   6.128  14.406  1.00  0.00     0.246 C 
HETATM    8  N1  UNL     1      -3.273   7.516  14.266  1.00  0.00    -0.359 N 
ATOM      9  H1  UNL     1      -4.070   7.976  13.827  1.00  0.00     0.162 HD
HETATM   10  O1  UNL     1      -2.221   5.632  14.969  1.00  0.00    -0.271 OA
BRANCH   8  11
HETATM   11  C3  UNL     1      -2.136   8.319  14.749  1.00  0.00     0.122 C 
BRANCH  11  12
HETATM   12  C2  UNL     1      -2.630   9.699  15.165  1.00  0.00     0.015 C 
HETATM   13  C1  UNL     1      -1.461  10.566  15.566  1.00  0.00     0.006 C 
ENDBRANCH  11  12
ENDBRANCH   8  11
ENDBRANCH   1   7
BRANCH   1  14
HETATM   14  N2  UNL     1      -3.873   4.470  12.785  1.00  0.00    -0.350 N 
HETATM   15  C6  UNL     1      -4.577   3.287  12.507  1.00  0.00     0.093 C 
HETATM   16  C7  UNL     1      -5.121   3.035  11.163  1.00  0.00     0.254 C 
HETATM   17  O2  UNL     1      -4.576   3.861  10.206  1.00  0.00    -0.235 OA
HETATM   18  O3  UNL     1      -3.293   3.509  10.088  1.00  0.00    -0.225 OA
HETATM   19  C8  UNL     1      -2.595   4.546  10.704  1.00  0.00     0.121 C 
HETATM   20  C9  UNL     1      -2.205   5.538   9.632  1.00  0.00     0.055 C 
HETATM   21  C10 UNL     1      -1.341   4.050  11.362  1.00  0.00     0.055 C 
HETATM   22  C11 UNL     1      -3.458   5.267  11.720  1.00  0.00     0.105 C 
ENDBRANCH   1  14
TORSDOF 4
ENDMDL
MODEL 4
REMARK VINA RESULT: -7.302194176      2.182      4.933
REMARK  4 active torsions:
REMARK  status: ('A' for Active; 'I' for Inactive)
REMARK    1  A    between atoms: C2_2  and  C3_3 
REMARK    2  A    between atoms: C3_3  and  N1_4 
REMARK       I    between atoms: N1_4  and  C4_6 
REMARK    3  A    between atoms: C4_6  and  C5_8 
REMARK    4  A    between atoms: C5_8  and  N2_9 
ROOT
HETATM    1  C5  UNL     1      -4.625   4.974  14.141  1.00  0.00     0.116 C 
HETATM    2  C12 UNL     1      -3.845   4.561  15.351  1.00  0.00     0.041 C 
HETATM    3  C13 UNL     1      -4.480   3.716  16.363  1.00  0.00     0.003 C 
HETATM    4  C14 UNL     1      -5.906   4.009  16.687  1.00  0.00     0.000 C 
HETATM    5  C15 UNL     1      -6.704   4.535  15.543  1.00  0.00     0.003 C 
HETATM    6  C16 UNL     1      -5.979   5.420  14.602  1.00  0.00     0.041 C 
ENDROOT
BRANCH   1   7
HETATM    7  C4  UNL     1      -4.777   3.933  13.115  1.00  0.00     0.246 C 
HETATM    8  N1  UNL     1      -4.050   2.753  12.960  1.00  0.00    -0.359 N 
ATOM      9  H1  UNL     1      -3.300   2.530  13.614  1.00  0.00     0.162 HD
HETATM   10  O1  UNL     1      -5.702   4.134  12.244  1.00  0.00    -0.271 OA
BRANCH   8  11
HETATM   11  C3  UNL     1      -4.359   1.827  11.856  1.00  0.00     0.122 C 
BRANCH  11  12
HETATM   12  C2  UNL     1      -3.072   1.446  11.135  1.00  0.00     0.015 C 
HETATM   13  C1  UNL     1      -2.163   2.648  11.036  1.00  0.00     0.006 C 
ENDBRANCH  11  12
ENDBRANCH   8  11
ENDBRANCH   1   7
BRANCH   1  14
HETATM   14  N2  UNL     1      -3.947   6.133  13.578  1.00  0.00    -0.350 N 
HETATM   15  C6  UNL     1      -4.348   7.368  14.115  1.00  0.00     0.093 C 
HETATM   16  C7  UNL     1      -3.348   8.353  14.556  1.00  0.00     0.254 C 
HETATM   17  O2  UNL     1      -2.088   8.086  14.071  1.00  0.00    -0.235 OA
HETATM   18  O3  UNL     1      -2.143   8.276  12.749  1.00  0.00    -0.225 OA
HETATM   19  C8  UNL     1      -2.107   6.989  12.218  1.00  0.00     0.121 C 
HETATM   20  C9  UNL     1      -0.665   6.662  11.901  1.00  0.00     0.055 C 
HETATM   21  C10 UNL     1      -2.899   6.897  10.946  1.00  0.00     0.055 C 
HETATM   22  C11 UNL     1      -2.613   5.964  13.212  1.00  0.00     0.105 C 
ENDBRANCH   1  14
TORSDOF 4
ENDMDL
MODEL 5
REMARK VINA RESULT: -7.141353785      1.925      4.965
REMARK  4 active torsions:
REMARK  status: ('A' for Active; 'I' for Inactive)
REMARK    1  A    between atoms: C2_2  and  C3_3 
REMARK    2  A    between atoms: C3_3  and  N1_4 
REMARK       I    between atoms: N1_4  and  C4_6 
REMARK    3  A    between atoms: C4_6  and  C5_8 
REMARK    4  A    between atoms: C5_8  and  N2_9 
ROOT
HETATM    1  C5  UNL     1      -3.601   5.534  12.780  1.00  0.00     0.116 C 
HETATM    2  C12 UNL     1      -2.230   5.854  13.293  1.00  0.00     0.041 C 
HETATM    3  C13 UNL     1      -2.013   7.090  14.045  1.00  0.00     0.003 C 
HETATM    4  C14 UNL     1      -2.730   8.306  13.562  1.00  0.00     0.000 C 
HETATM    5  C15 UNL     1      -4.054   8.035  12.935  1.00  0.00     0.003 C 
HETATM    6  C16 UNL     1      -4.155   6.778  12.156  1.00  0.00     0.041 C 
ENDROOT
BRANCH   1   7
HETATM    7  C4  UNL     1      -4.542   5.035  13.792  1.00  0.00     0.246 C 
HETATM    8  N1  UNL     1      -4.272   4.585  15.084  1.00  0.00    -0.359 N 
ATOM      9  H1  UNL     1      -3.312   4.576  15.427  1.00  0.00     0.162 HD
HETATM   10  O1  UNL     1      -5.781   5.009  13.442  1.00  0.00    -0.271 OA
BRANCH   8  11
HETATM   11  C3  UNL     1      -5.367   4.122  15.956  1.00  0.00     0.122 C 
BRANCH  11  12
HETATM   12  C2  UNL     1      -5.172   2.644  16.274  1.00  0.00     0.015 C 
HETATM   13  C1  UNL     1      -6.102   2.230  17.388  1.00  0.00     0.006 C 
ENDBRANCH  11  12
ENDBRANCH   8  11
ENDBRANCH   1   7
BRANCH   1  14
HETATM   14  N2  UNL     1      -3.435   4.547  11.723  1.00  0.00    -0.350 N 
HETATM   15  C6  UNL     1      -2.695   4.990  10.615  1.00  0.00     0.093 C 
HETATM   16  C7  UNL     1      -1.604   4.169  10.065  1.00  0.00     0.254 C 
HETATM   17  O2  UNL     1      -1.647   2.865  10.503  1.00  0.00    -0.235 OA
HETATM   18  O3  UNL     1      -2.742   2.320   9.964  1.00  0.00    -0.225 OA
HETATM   19  C8  UNL     1      -3.632   2.212  11.031  1.00  0.00     0.121 C 
HETATM   20  C9  UNL     1      -3.484   0.825  11.615  1.00  0.00     0.055 C 
HETATM   21  C10 UNL     1      -5.053   2.382  10.581  1.00  0.00     0.055 C 
HETATM   22  C11 UNL     1      -3.315   3.216  12.121  1.00  0.00     0.105 C 
ENDBRANCH   1  14
TORSDOF 4
ENDMDL
