MODEL 1
REMARK VINA RESULT: -6.863758857      0.000      0.000
REMARK  7 active torsions:
REMARK  status: ('A' for Active; 'I' for Inactive)
REMARK    1  A    between atoms: C2_2  and  C3_3 
REMARK    2  A    between atoms: N1_12  and  C11_13 
REMARK    3  A    between atoms: C11_13  and  C12_14 
REMARK    4  A    between atoms: C12_14  and  O2_15 
REMARK    5  A    between atoms: C12_14  and  C13_17 
REMARK    6  A    between atoms: C13_17  and  N2_18 
REMARK    7  A    between atoms: N2_18  and  C14_21 
ROOT
HETATM    1  C3  UNL     1      -4.667   4.411  15.949  1.00  0.00     0.015 C 
HETATM    2  C4  UNL     1      -6.044   5.017  16.285  1.00  0.00     0.013 C 
HETATM    3  C5  UNL     1      -6.344   5.742  14.985  1.00  0.00    -0.010 C 
HETATM    4  C6  UNL     1      -5.889   4.671  13.998  1.00  0.00     0.013 C 
HETATM    5  C7  UNL     1      -4.433   4.629  14.496  1.00  0.00     0.038 C 
HETATM    6  C8  UNL     1      -4.068   6.078  14.279  1.00  0.00     0.148 C 
HETATM    7  C9  UNL     1      -5.291   6.794  14.792  1.00  0.00     0.053 C 
HETATM    8  O1  UNL     1      -2.900   6.465  14.863  1.00  0.00    -0.351 OA
HETATM    9  C10 UNL     1      -1.915   5.973  14.005  1.00  0.00     0.297 C 
HETATM   10  N1  UNL     1      -2.424   6.195  12.670  1.00  0.00    -0.326 N 
HETATM   11  C18 UNL     1      -3.825   6.370  12.840  1.00  0.00     0.257 C 
HETATM   12  O3  UNL     1      -4.626   6.697  11.948  1.00  0.00    -0.270 OA
ENDROOT
BRANCH  10  13
HETATM   13  C11 UNL     1      -1.652   6.222  11.451  1.00  0.00     0.161 C 
BRANCH  13  14
HETATM   14  C12 UNL     1      -1.040   4.880  11.125  1.00  0.00     0.161 C 
BRANCH  14  15
HETATM   15  O2  UNL     1      -0.154   5.102  10.073  1.00  0.00    -0.392 OA
ATOM     16  H2  UNL     1      -0.688   5.204   9.294  1.00  0.00     0.210 HD
ENDBRANCH  14  15
BRANCH  14  17
HETATM   17  C13 UNL     1      -2.083   3.867  10.720  1.00  0.00     0.266 C 
BRANCH  17  18
HETATM   18  N2  UNL     1      -2.400   2.935  11.750  1.00  0.00    -0.065 N 
ATOM     19  H22 UNL     1      -1.628   2.297  11.939  1.00  0.00     0.278 HD
ATOM     20  H21 UNL     1      -2.453   3.382  12.665  1.00  0.00     0.278 HD
BRANCH  18  21
HETATM   21  C14 UNL     1      -3.624   2.225  11.420  1.00  0.00     0.115 C 
HETATM   22  C15 UNL     1      -4.016   1.442  12.653  1.00  0.00     0.045 C 
HETATM   23  C16 UNL     1      -3.235   1.221  10.328  1.00  0.00     0.045 C 
HETATM   24  C17 UNL     1      -4.728   3.092  10.922  1.00  0.00     0.045 C 
ENDBRANCH  18  21
ENDBRANCH  17  18
ENDBRANCH  14  17
ENDBRANCH  13  14
ENDBRANCH  10  13
BRANCH   1  25
HETATM   25  C2  UNL     1      -4.618   2.992  16.388  1.00  0.00    -0.032 C 
HETATM   26  C1  UNL     1      -5.590   2.333  16.966  1.00  0.00     0.007 C 
ENDBRANCH   1  25
TORSDOF 7
ENDMDL
MODEL 2
REMARK VINA RESULT: -6.810458053      2.095      4.562
REMARK  7 active torsions:
REMARK  status: ('A' for Active; 'I' for Inactive)
REMARK    1  A    between atoms: C2_2  and  C3_3 
REMARK    2  A    between atoms: N1_12  and  C11_13 
REMARK    3  A    between atoms: C11_13  and  C12_14 
REMARK    4  A    between atoms: C12_14  and  O2_15 
REMARK    5  A    between atoms: C12_14  and  C13_17 
REMARK    6  A    between atoms: C13_17  and  N2_18 
REMARK    7  A    between atoms: N2_18  and  C14_21 
ROOT
HETATM    1  C3  UNL     1      -4.458   7.784  12.002  1.00  0.00     0.015 C 
HETATM    2  C4  UNL     1      -3.200   8.675  11.984  1.00  0.00     0.013 C 
HETATM    3  C5  UNL     1      -2.312   7.908  12.948  1.00  0.00    -0.010 C 
HETATM    4  C6  UNL     1      -2.591   6.490  12.459  1.00  0.00     0.013 C 
HETATM    5  C7  UNL     1      -4.104   6.539  12.737  1.00  0.00     0.038 C 
HETATM    6  C8  UNL     1      -4.062   6.849  14.215  1.00  0.00     0.148 C 
HETATM    7  C9  UNL     1      -2.986   7.902  14.288  1.00  0.00     0.053 C 
HETATM    8  O1  UNL     1      -5.256   7.222  14.753  1.00  0.00    -0.351 OA
HETATM    9  C10 UNL     1      -5.946   6.019  14.912  1.00  0.00     0.297 C 
HETATM   10  N1  UNL     1      -4.957   5.068  15.370  1.00  0.00    -0.326 N 
HETATM   11  C18 UNL     1      -3.706   5.645  15.014  1.00  0.00     0.257 C 
HETATM   12  O3  UNL     1      -2.589   5.200  15.329  1.00  0.00    -0.270 OA
ENDROOT
BRANCH  10  13
HETATM   13  C11 UNL     1      -5.217   3.815  16.036  1.00  0.00     0.161 C 
BRANCH  13  14
HETATM   14  C12 UNL     1      -4.708   2.627  15.254  1.00  0.00     0.161 C 
BRANCH  14  15
HETATM   15  O2  UNL     1      -3.487   2.279  15.826  1.00  0.00    -0.392 OA
ATOM     16  H2  UNL     1      -3.324   1.377  15.573  1.00  0.00     0.210 HD
ENDBRANCH  14  15
BRANCH  14  17
HETATM   17  C13 UNL     1      -4.522   2.952  13.792  1.00  0.00     0.266 C 
BRANCH  17  18
HETATM   18  N2  UNL     1      -3.802   1.953  13.075  1.00  0.00    -0.065 N 
ATOM     19  H22 UNL     1      -2.833   1.886  13.383  1.00  0.00     0.278 HD
ATOM     20  H21 UNL     1      -4.105   1.012  13.324  1.00  0.00     0.278 HD
BRANCH  18  21
HETATM   21  C14 UNL     1      -3.903   2.196  11.645  1.00  0.00     0.115 C 
HETATM   22  C15 UNL     1      -4.138   0.851  10.994  1.00  0.00     0.045 C 
HETATM   23  C16 UNL     1      -2.517   2.692  11.214  1.00  0.00     0.045 C 
HETATM   24  C17 UNL     1      -4.930   3.203  11.259  1.00  0.00     0.045 C 
ENDBRANCH  18  21
ENDBRANCH  17  18
ENDBRANCH  14  17
ENDBRANCH  13  14
ENDBRANCH  10  13
BRANCH   1  25
HETATM   25  C2  UNL     1      -4.950   7.576  10.615  1.00  0.00    -0.032 C 
HETATM   26  C1  UNL     1      -5.799   8.342   9.979  1.00  0.00     0.007 C 
ENDBRANCH   1  25
TORSDOF 7
ENDMDL
MODEL 3
REMARK VINA RESULT: -6.733760352      2.272      4.622
REMARK  7 active torsions:
REMARK  status: ('A' for Active; 'I' for Inactive)
REMARK    1  A    between atoms: C2_2  and  C3_3 
REMARK    2  A    between atoms: N1_12  and  C11_13 
REMARK    3  A    between atoms: C11_13  and  C12_14 
REMARK    4  A    between atoms: C12_14  and  O2_15 
REMARK    5  A    between atoms: C12_14  and  C13_17 
REMARK    6  A    between atoms: C13_17  and  N2_18 
REMARK    7  A    between atoms: N2_18  and  C14_21 
ROOT
HETATM    1  C3  UNL     1      -4.415   8.268  12.073  1.00  0.00     0.015 C 
HETATM    2  C4  UNL     1      -3.265   9.288  11.970  1.00  0.00     0.013 C 
HETATM    3  C5  UNL     1      -2.163   8.524  12.682  1.00  0.00    -0.010 C 
HETATM    4  C6  UNL     1      -2.389   7.144  12.071  1.00  0.00     0.013 C 
HETATM    5  C7  UNL     1      -3.833   6.998  12.586  1.00  0.00     0.038 C 
HETATM    6  C8  UNL     1      -3.573   7.151  14.065  1.00  0.00     0.148 C 
HETATM    7  C9  UNL     1      -2.600   8.302  14.100  1.00  0.00     0.053 C 
HETATM    8  O1  UNL     1      -4.689   7.332  14.824  1.00  0.00    -0.351 OA
HETATM    9  C10 UNL     1      -5.230   6.050  14.940  1.00  0.00     0.297 C 
HETATM   10  N1  UNL     1      -4.097   5.171  15.118  1.00  0.00    -0.326 N 
HETATM   11  C18 UNL     1      -2.981   5.915  14.646  1.00  0.00     0.257 C 
HETATM   12  O3  UNL     1      -1.791   5.564  14.726  1.00  0.00    -0.270 OA
ENDROOT
BRANCH  10  13
HETATM   13  C11 UNL     1      -4.127   3.832  15.658  1.00  0.00     0.161 C 
BRANCH  13  14
HETATM   14  C12 UNL     1      -4.846   2.860  14.752  1.00  0.00     0.161 C 
BRANCH  14  15
HETATM   15  O2  UNL     1      -4.696   1.604  15.334  1.00  0.00    -0.392 OA
ATOM     16  H2  UNL     1      -4.482   1.758  16.247  1.00  0.00     0.210 HD
ENDBRANCH  14  15
BRANCH  14  17
HETATM   17  C13 UNL     1      -4.273   2.859  13.356  1.00  0.00     0.266 C 
BRANCH  17  18
HETATM   18  N2  UNL     1      -3.822   1.577  12.929  1.00  0.00    -0.065 N 
ATOM     19  H22 UNL     1      -3.062   1.225  13.511  1.00  0.00     0.278 HD
ATOM     20  H21 UNL     1      -4.508   0.847  13.121  1.00  0.00     0.278 HD
BRANCH  18  21
HETATM   21  C14 UNL     1      -3.454   1.620  11.523  1.00  0.00     0.115 C 
HETATM   22  C15 UNL     1      -4.706   1.994  10.760  1.00  0.00     0.045 C 
HETATM   23  C16 UNL     1      -3.087   0.179  11.150  1.00  0.00     0.045 C 
HETATM   24  C17 UNL     1      -2.308   2.520  11.212  1.00  0.00     0.045 C 
ENDBRANCH  18  21
ENDBRANCH  17  18
ENDBRANCH  14  17
ENDBRANCH  13  14
ENDBRANCH  10  13
BRANCH   1  25
HETATM   25  C2  UNL     1      -5.112   8.156  10.764  1.00  0.00    -0.032 C 
HETATM   26  C1  UNL     1      -6.195   8.800  10.414  1.00  0.00     0.007 C 
ENDBRANCH   1  25
TORSDOF 7
ENDMDL
MODEL 4
REMARK VINA RESULT: -6.709596558      2.724      5.564
REMARK  7 active torsions:
REMARK  status: ('A' for Active; 'I' for Inactive)
REMARK    1  A    between atoms: C2_2  and  C3_3 
REMARK    2  A    between atoms: N1_12  and  C11_13 
REMARK    3  A    between atoms: C11_13  and  C12_14 
REMARK    4  A    between atoms: C12_14  and  O2_15 
REMARK    5  A    between atoms: C12_14  and  C13_17 
REMARK    6  A    between atoms: C13_17  and  N2_18 
REMARK    7  A    between atoms: N2_18  and  C14_21 
ROOT
HETATM    1  C3  UNL     1      -1.853   8.885  14.085  1.00  0.00     0.015 C 
HETATM    2  C4  UNL     1      -1.312   9.524  12.790  1.00  0.00     0.013 C 
HETATM    3  C5  UNL     1      -2.116   8.757  11.755  1.00  0.00    -0.010 C 
HETATM    4  C6  UNL     1      -3.480   8.783  12.438  1.00  0.00     0.013 C 
HETATM    5  C7  UNL     1      -3.018   8.041  13.705  1.00  0.00     0.038 C 
HETATM    6  C8  UNL     1      -2.504   6.775  13.061  1.00  0.00     0.148 C 
HETATM    7  C9  UNL     1      -1.749   7.307  11.870  1.00  0.00     0.053 C 
HETATM    8  O1  UNL     1      -1.770   5.975  13.884  1.00  0.00    -0.351 OA
HETATM    9  C10 UNL     1      -2.728   5.322  14.663  1.00  0.00     0.297 C 
HETATM   10  N1  UNL     1      -3.809   5.008  13.756  1.00  0.00    -0.326 N 
HETATM   11  C18 UNL     1      -3.620   5.881  12.649  1.00  0.00     0.257 C 
HETATM   12  O3  UNL     1      -4.271   5.858  11.590  1.00  0.00    -0.270 OA
ENDROOT
BRANCH  10  13
HETATM   13  C11 UNL     1      -4.842   4.022  13.962  1.00  0.00     0.161 C 
BRANCH  13  14
HETATM   14  C12 UNL     1      -4.327   2.782  14.655  1.00  0.00     0.161 C 
BRANCH  14  15
HETATM   15  O2  UNL     1      -4.431   1.748  13.728  1.00  0.00    -0.392 OA
ATOM     16  H2  UNL     1      -4.937   1.063  14.150  1.00  0.00     0.210 HD
ENDBRANCH  14  15
BRANCH  14  17
HETATM   17  C13 UNL     1      -5.126   2.453  15.892  1.00  0.00     0.266 C 
BRANCH  17  18
HETATM   18  N2  UNL     1      -4.994   3.422  16.928  1.00  0.00    -0.065 N 
ATOM     19  H22 UNL     1      -4.415   3.082  17.696  1.00  0.00     0.278 HD
ATOM     20  H21 UNL     1      -4.415   4.210  16.642  1.00  0.00     0.278 HD
BRANCH  18  21
HETATM   21  C14 UNL     1      -6.307   3.848  17.383  1.00  0.00     0.115 C 
HETATM   22  C15 UNL     1      -6.227   3.960  18.890  1.00  0.00     0.045 C 
HETATM   23  C16 UNL     1      -7.254   2.690  17.046  1.00  0.00     0.045 C 
HETATM   24  C17 UNL     1      -6.807   5.098  16.745  1.00  0.00     0.045 C 
ENDBRANCH  18  21
ENDBRANCH  17  18
ENDBRANCH  14  17
ENDBRANCH  13  14
ENDBRANCH  10  13
BRANCH   1  25
HETATM   25  C2  UNL     1      -2.146   9.944  15.087  1.00  0.00    -0.032 C 
HETATM   26  C1  UNL     1      -1.288  10.809  15.562  1.00  0.00     0.007 C 
ENDBRANCH   1  25
TORSDOF 7
ENDMDL
MODEL 5
REMARK VINA RESULT: -6.644124612      2.341      4.888
REMARK  7 active torsions:
REMARK  status: ('A' for Active; 'I' for Inactive)
REMARK    1  A    between atoms: C2_2  and  C3_3 
REMARK    2  A    between atoms: N1_12  and  C11_13 
REMARK    3  A    between atoms: C11_13  and  C12_14 
REMARK    4  A    between atoms: C12_14  and  O2_15 
REMARK    5  A    between atoms: C12_14  and  C13_17 
REMARK    6  A    between atoms: C13_17  and  N2_18 
REMARK    7  A    between atoms: N2_18  and  C14_21 
ROOT
HETATM    1  C3  UNL     1      -2.353   8.631  12.971  1.00  0.00     0.015 C 
HETATM    2  C4  UNL     1      -2.620   9.889  12.119  1.00  0.00     0.013 C 
HETATM    3  C5  UNL     1      -3.479   9.291  11.019  1.00  0.00    -0.010 C 
HETATM    4  C6  UNL     1      -4.378   8.398  11.868  1.00  0.00     0.013 C 
HETATM    5  C7  UNL     1      -3.229   7.550  12.445  1.00  0.00     0.038 C 
HETATM    6  C8  UNL     1      -2.640   7.040  11.151  1.00  0.00     0.148 C 
HETATM    7  C9  UNL     1      -2.649   8.276  10.289  1.00  0.00     0.053 C 
HETATM    8  O1  UNL     1      -1.420   6.446  11.276  1.00  0.00    -0.351 OA
HETATM    9  C10 UNL     1      -1.714   5.174  11.772  1.00  0.00     0.297 C 
HETATM   10  N1  UNL     1      -2.904   4.753  11.068  1.00  0.00    -0.326 N 
HETATM   11  C18 UNL     1      -3.472   5.955  10.563  1.00  0.00     0.257 C 
HETATM   12  O3  UNL     1      -4.451   6.027   9.800  1.00  0.00    -0.270 OA
ENDROOT
BRANCH  10  13
HETATM   13  C11 UNL     1      -3.384   3.399  10.931  1.00  0.00     0.161 C 
BRANCH  13  14
HETATM   14  C12 UNL     1      -4.687   3.171  11.660  1.00  0.00     0.161 C 
BRANCH  14  15
HETATM   15  O2  UNL     1      -5.699   3.494  10.760  1.00  0.00    -0.392 OA
ATOM     16  H2  UNL     1      -5.767   4.442  10.766  1.00  0.00     0.210 HD
ENDBRANCH  14  15
BRANCH  14  17
HETATM   17  C13 UNL     1      -4.800   4.028  12.897  1.00  0.00     0.266 C 
BRANCH  17  18
HETATM   18  N2  UNL     1      -4.348   3.378  14.082  1.00  0.00    -0.065 N 
ATOM     19  H22 UNL     1      -4.763   2.452  14.191  1.00  0.00     0.278 HD
ATOM     20  H21 UNL     1      -3.370   3.097  14.015  1.00  0.00     0.278 HD
BRANCH  18  21
HETATM   21  C14 UNL     1      -4.593   4.223  15.239  1.00  0.00     0.115 C 
HETATM   22  C15 UNL     1      -5.865   4.990  14.953  1.00  0.00     0.045 C 
HETATM   23  C16 UNL     1      -3.434   5.226  15.267  1.00  0.00     0.045 C 
HETATM   24  C17 UNL     1      -4.648   3.494  16.537  1.00  0.00     0.045 C 
ENDBRANCH  18  21
ENDBRANCH  17  18
ENDBRANCH  14  17
ENDBRANCH  13  14
ENDBRANCH  10  13
BRANCH   1  25
HETATM   25  C2  UNL     1      -2.540   8.947  14.411  1.00  0.00    -0.032 C 
HETATM   26  C1  UNL     1      -2.131  10.030  15.019  1.00  0.00     0.007 C 
ENDBRANCH   1  25
TORSDOF 7
ENDMDL
