MODEL 1
REMARK VINA RESULT: -7.372878241      0.000      0.000
REMARK  8 active torsions:
REMARK  status: ('A' for Active; 'I' for Inactive)
REMARK    1  A    between atoms: O1_2  and  C2_3 
REMARK    2  A    between atoms: C7_8  and  O2_9 
REMARK    3  A    between atoms: O2_9  and  C8_10 
REMARK    4  A    between atoms: C9_12  and  C10_13 
REMARK    5  A    between atoms: C10_13  and  O4_14 
REMARK    6  A    between atoms: C11_16  and  O5_17 
REMARK    7  A    between atoms: C12_19  and  O6_20 
REMARK    8  A    between atoms: C13_22  and  N1_23 
ROOT
HETATM    1  C2  UNL     1      -3.164   7.318  13.316  1.00  0.00     0.083 A 
HETATM    2  C3  UNL     1      -4.014   6.588  14.117  1.00  0.00    -0.019 A 
HETATM    3  C4  UNL     1      -4.708   7.311  15.202  1.00  0.00     0.052 C 
HETATM    4  C5  UNL     1      -4.178   5.234  13.883  1.00  0.00    -0.017 A 
HETATM    5  C6  UNL     1      -5.109   4.507  14.799  1.00  0.00     0.052 C 
HETATM    6  C7  UNL     1      -3.511   4.576  12.862  1.00  0.00     0.112 A 
HETATM    7  C13 UNL     1      -2.667   5.309  12.071  1.00  0.00     0.145 A 
HETATM    8  C14 UNL     1      -2.495   6.676  12.299  1.00  0.00     0.008 A 
HETATM    9  C15 UNL     1      -1.572   7.434  11.421  1.00  0.00     0.054 C 
ENDROOT
BRANCH   6  10
HETATM   10  O2  UNL     1      -3.677   3.251  12.640  1.00  0.00    -0.315 OA
BRANCH  10  11
HETATM   11  C8  UNL     1      -4.742   2.509  12.212  1.00  0.00     0.298 C 
HETATM   12  O3  UNL     1      -4.430   1.156  12.581  1.00  0.00    -0.348 OA
HETATM   13  C9  UNL     1      -3.500   0.740  11.632  1.00  0.00     0.179 C 
HETATM   14  C11 UNL     1      -3.908   1.406  10.331  1.00  0.00     0.182 C 
HETATM   15  C12 UNL     1      -5.013   2.388  10.761  1.00  0.00     0.205 C 
BRANCH  13  16
HETATM   16  C10 UNL     1      -3.483  -0.755  11.490  1.00  0.00     0.198 C 
BRANCH  16  17
HETATM   17  O4  UNL     1      -2.164  -1.155  11.298  1.00  0.00    -0.398 OA
ATOM     18  H4  UNL     1      -2.173  -2.028  10.925  1.00  0.00     0.209 HD
ENDBRANCH  16  17
ENDBRANCH  13  16
BRANCH  14  19
HETATM   19  O5  UNL     1      -2.790   2.086   9.857  1.00  0.00    -0.390 OA
ATOM     20  H5  UNL     1      -3.109   2.832   9.362  1.00  0.00     0.210 HD
ENDBRANCH  14  19
BRANCH  15  21
HETATM   21  O6  UNL     1      -4.964   3.505   9.995  1.00  0.00    -0.388 OA
ATOM     22  H6  UNL     1      -5.390   3.494   9.145  1.00  0.00     0.210 HD
ENDBRANCH  15  21
ENDBRANCH  10  11
ENDBRANCH   6  10
BRANCH   7  23
HETATM   23  N1  UNL     1      -1.908   4.748  10.980  1.00  0.00    -0.112 N 
HETATM   24  O7  UNL     1      -0.828   4.164  11.202  1.00  0.00    -0.532 OA
HETATM   25  O8  UNL     1      -2.339   4.845   9.706  1.00  0.00    -0.532 OA
ENDBRANCH   7  23
BRANCH   1  26
HETATM   26  O1  UNL     1      -2.953   8.689  13.495  1.00  0.00    -0.355 OA
HETATM   27  C1  UNL     1      -1.958   9.231  14.333  1.00  0.00     0.210 C 
ENDBRANCH   1  26
TORSDOF 8
ENDMDL
MODEL 2
REMARK VINA RESULT: -7.019763707      1.495      2.937
REMARK  8 active torsions:
REMARK  status: ('A' for Active; 'I' for Inactive)
REMARK    1  A    between atoms: O1_2  and  C2_3 
REMARK    2  A    between atoms: C7_8  and  O2_9 
REMARK    3  A    between atoms: O2_9  and  C8_10 
REMARK    4  A    between atoms: C9_12  and  C10_13 
REMARK    5  A    between atoms: C10_13  and  O4_14 
REMARK    6  A    between atoms: C11_16  and  O5_17 
REMARK    7  A    between atoms: C12_19  and  O6_20 
REMARK    8  A    between atoms: C13_22  and  N1_23 
ROOT
HETATM    1  C2  UNL     1      -2.959   7.516  13.416  1.00  0.00     0.083 A 
HETATM    2  C3  UNL     1      -2.214   6.846  12.472  1.00  0.00    -0.019 A 
HETATM    3  C4  UNL     1      -1.197   7.624  11.736  1.00  0.00     0.052 C 
HETATM    4  C5  UNL     1      -2.445   5.500  12.249  1.00  0.00    -0.017 A 
HETATM    5  C6  UNL     1      -1.604   4.844  11.203  1.00  0.00     0.052 C 
HETATM    6  C7  UNL     1      -3.410   4.792  12.948  1.00  0.00     0.112 A 
HETATM    7  C13 UNL     1      -4.147   5.466  13.885  1.00  0.00     0.145 A 
HETATM    8  C14 UNL     1      -3.921   6.825  14.117  1.00  0.00     0.008 A 
HETATM    9  C15 UNL     1      -4.740   7.518  15.139  1.00  0.00     0.054 C 
ENDROOT
BRANCH   6  10
HETATM   10  O2  UNL     1      -3.629   3.475  12.725  1.00  0.00    -0.315 OA
BRANCH  10  11
HETATM   11  C8  UNL     1      -4.734   2.772  12.334  1.00  0.00     0.298 C 
HETATM   12  O3  UNL     1      -4.477   1.416  12.732  1.00  0.00    -0.348 OA
HETATM   13  C9  UNL     1      -3.585   0.935  11.777  1.00  0.00     0.179 C 
HETATM   14  C11 UNL     1      -3.986   1.587  10.467  1.00  0.00     0.182 C 
HETATM   15  C12 UNL     1      -5.037   2.628  10.892  1.00  0.00     0.205 C 
BRANCH  13  16
HETATM   16  C10 UNL     1      -3.638  -0.562  11.673  1.00  0.00     0.198 C 
BRANCH  16  17
HETATM   17  O4  UNL     1      -2.378  -1.013  11.290  1.00  0.00    -0.398 OA
ATOM     18  H4  UNL     1      -1.736  -0.619  11.869  1.00  0.00     0.209 HD
ENDBRANCH  16  17
ENDBRANCH  13  16
BRANCH  14  19
HETATM   19  O5  UNL     1      -2.847   2.204   9.957  1.00  0.00    -0.390 OA
ATOM     20  H5  UNL     1      -2.812   1.996   9.030  1.00  0.00     0.210 HD
ENDBRANCH  14  19
BRANCH  15  21
HETATM   21  O6  UNL     1      -4.952   3.723  10.097  1.00  0.00    -0.388 OA
ATOM     22  H6  UNL     1      -4.092   4.061   9.877  1.00  0.00     0.210 HD
ENDBRANCH  15  21
ENDBRANCH  10  11
ENDBRANCH   6  10
BRANCH   7  23
HETATM   23  N1  UNL     1      -5.185   4.852  14.677  1.00  0.00    -0.112 N 
HETATM   24  O7  UNL     1      -6.380   4.968  14.341  1.00  0.00    -0.532 OA
HETATM   25  O8  UNL     1      -4.892   4.151  15.790  1.00  0.00    -0.532 OA
ENDBRANCH   7  23
BRANCH   1  26
HETATM   26  O1  UNL     1      -2.777   8.875  13.693  1.00  0.00    -0.355 OA
HETATM   27  C1  UNL     1      -1.856   9.371  14.636  1.00  0.00     0.210 C 
ENDBRANCH   1  26
TORSDOF 8
ENDMDL
MODEL 3
REMARK VINA RESULT: -6.870689523      2.101      3.771
REMARK  8 active torsions:
REMARK  status: ('A' for Active; 'I' for Inactive)
REMARK    1  A    between atoms: O1_2  and  C2_3 
REMARK    2  A    between atoms: C7_8  and  O2_9 
REMARK    3  A    between atoms: O2_9  and  C8_10 
REMARK    4  A    between atoms: C9_12  and  C10_13 
REMARK    5  A    between atoms: C10_13  and  O4_14 
REMARK    6  A    between atoms: C11_16  and  O5_17 
REMARK    7  A    between atoms: C12_19  and  O6_20 
REMARK    8  A    between atoms: C13_22  and  N1_23 
ROOT
HETATM    1  C2  UNL     1      -2.083   7.587  11.531  1.00  0.00     0.083 A 
HETATM    2  C3  UNL     1      -2.695   7.898  12.724  1.00  0.00    -0.019 A 
HETATM    3  C4  UNL     1      -2.686   9.315  13.141  1.00  0.00     0.052 C 
HETATM    4  C5  UNL     1      -3.278   6.892  13.475  1.00  0.00    -0.017 A 
HETATM    5  C6  UNL     1      -3.914   7.304  14.763  1.00  0.00     0.052 C 
HETATM    6  C7  UNL     1      -3.269   5.568  13.067  1.00  0.00     0.112 A 
HETATM    7  C13 UNL     1      -2.658   5.268  11.878  1.00  0.00     0.145 A 
HETATM    8  C14 UNL     1      -2.067   6.276  11.113  1.00  0.00     0.008 A 
HETATM    9  C15 UNL     1      -1.416   5.910   9.834  1.00  0.00     0.054 C 
ENDROOT
BRANCH   6  10
HETATM   10  O2  UNL     1      -3.842   4.590  13.806  1.00  0.00    -0.315 OA
BRANCH  10  11
HETATM   11  C8  UNL     1      -4.931   3.789  13.601  1.00  0.00     0.298 C 
HETATM   12  O3  UNL     1      -5.910   4.237  14.553  1.00  0.00    -0.348 OA
HETATM   13  C9  UNL     1      -5.491   3.699  15.766  1.00  0.00     0.179 C 
HETATM   14  C11 UNL     1      -4.890   2.346  15.435  1.00  0.00     0.182 C 
HETATM   15  C12 UNL     1      -4.840   2.342  13.896  1.00  0.00     0.205 C 
BRANCH  13  16
HETATM   16  C10 UNL     1      -6.630   3.562  16.735  1.00  0.00     0.198 C 
BRANCH  16  17
HETATM   17  O4  UNL     1      -7.120   2.263  16.642  1.00  0.00    -0.398 OA
ATOM     18  H4  UNL     1      -6.601   1.710  17.214  1.00  0.00     0.209 HD
ENDBRANCH  16  17
ENDBRANCH  13  16
BRANCH  14  19
HETATM   19  O5  UNL     1      -3.608   2.329  15.979  1.00  0.00    -0.390 OA
ATOM     20  H5  UNL     1      -3.315   1.425  15.965  1.00  0.00     0.210 HD
ENDBRANCH  14  19
BRANCH  15  21
HETATM   21  O6  UNL     1      -3.749   1.658  13.471  1.00  0.00    -0.388 OA
ATOM     22  H6  UNL     1      -3.270   1.128  14.097  1.00  0.00     0.210 HD
ENDBRANCH  15  21
ENDBRANCH  10  11
ENDBRANCH   6  10
BRANCH   7  23
HETATM   23  N1  UNL     1      -2.572   3.932  11.341  1.00  0.00    -0.112 N 
HETATM   24  O7  UNL     1      -1.657   3.167  11.706  1.00  0.00    -0.532 OA
HETATM   25  O8  UNL     1      -3.464   3.484  10.435  1.00  0.00    -0.532 OA
ENDBRANCH   7  23
BRANCH   1  26
HETATM   26  O1  UNL     1      -1.477   8.554  10.722  1.00  0.00    -0.355 OA
HETATM   27  C1  UNL     1      -0.123   8.930  10.822  1.00  0.00     0.210 C 
ENDBRANCH   1  26
TORSDOF 8
ENDMDL
MODEL 4
REMARK VINA RESULT: -6.773032780      2.597      4.663
REMARK  8 active torsions:
REMARK  status: ('A' for Active; 'I' for Inactive)
REMARK    1  A    between atoms: O1_2  and  C2_3 
REMARK    2  A    between atoms: C7_8  and  O2_9 
REMARK    3  A    between atoms: O2_9  and  C8_10 
REMARK    4  A    between atoms: C9_12  and  C10_13 
REMARK    5  A    between atoms: C10_13  and  O4_14 
REMARK    6  A    between atoms: C11_16  and  O5_17 
REMARK    7  A    between atoms: C12_19  and  O6_20 
REMARK    8  A    between atoms: C13_22  and  N1_23 
ROOT
HETATM    1  C2  UNL     1      -6.487   4.857  16.157  1.00  0.00     0.083 A 
HETATM    2  C3  UNL     1      -6.145   5.849  15.266  1.00  0.00    -0.019 A 
HETATM    3  C4  UNL     1      -6.803   7.161  15.427  1.00  0.00     0.052 C 
HETATM    4  C5  UNL     1      -5.220   5.583  14.271  1.00  0.00    -0.017 A 
HETATM    5  C6  UNL     1      -4.905   6.705  13.336  1.00  0.00     0.052 C 
HETATM    6  C7  UNL     1      -4.618   4.342  14.136  1.00  0.00     0.112 A 
HETATM    7  C13 UNL     1      -4.965   3.362  15.027  1.00  0.00     0.145 A 
HETATM    8  C14 UNL     1      -5.898   3.620  16.034  1.00  0.00     0.008 A 
HETATM    9  C15 UNL     1      -6.247   2.532  16.978  1.00  0.00     0.054 C 
ENDROOT
BRANCH   6  10
HETATM   10  O2  UNL     1      -3.714   4.090  13.161  1.00  0.00    -0.315 OA
BRANCH  10  11
HETATM   11  C8  UNL     1      -3.647   3.140  12.181  1.00  0.00     0.298 C 
HETATM   12  O3  UNL     1      -2.317   3.242  11.649  1.00  0.00    -0.348 OA
HETATM   13  C9  UNL     1      -2.352   4.370  10.833  1.00  0.00     0.179 C 
HETATM   14  C11 UNL     1      -3.736   4.390  10.212  1.00  0.00     0.182 C 
HETATM   15  C12 UNL     1      -4.486   3.279  10.969  1.00  0.00     0.205 C 
BRANCH  13  16
HETATM   16  C10 UNL     1      -1.287   4.323   9.775  1.00  0.00     0.198 C 
BRANCH  16  17
HETATM   17  O4  UNL     1      -1.654   5.196   8.755  1.00  0.00    -0.398 OA
ATOM     18  H4  UNL     1      -1.123   4.996   7.993  1.00  0.00     0.209 HD
ENDBRANCH  16  17
ENDBRANCH  13  16
BRANCH  14  19
HETATM   19  O5  UNL     1      -4.284   5.640  10.485  1.00  0.00    -0.390 OA
ATOM     20  H5  UNL     1      -4.877   5.527  11.219  1.00  0.00     0.210 HD
ENDBRANCH  14  19
BRANCH  15  21
HETATM   21  O6  UNL     1      -5.791   3.618  11.116  1.00  0.00    -0.388 OA
ATOM     22  H6  UNL     1      -6.042   4.526  10.996  1.00  0.00     0.210 HD
ENDBRANCH  15  21
ENDBRANCH  10  11
ENDBRANCH   6  10
BRANCH   7  23
HETATM   23  N1  UNL     1      -4.420   2.026  14.995  1.00  0.00    -0.112 N 
HETATM   24  O7  UNL     1      -3.543   1.688  15.815  1.00  0.00    -0.532 OA
HETATM   25  O8  UNL     1      -4.835   1.123  14.084  1.00  0.00    -0.532 OA
ENDBRANCH   7  23
BRANCH   1  26
HETATM   26  O1  UNL     1      -7.412   5.058  17.187  1.00  0.00    -0.355 OA
HETATM   27  C1  UNL     1      -7.059   5.292  18.530  1.00  0.00     0.210 C 
ENDBRANCH   1  26
TORSDOF 8
ENDMDL
MODEL 5
REMARK VINA RESULT: -6.710871593      1.228      1.595
REMARK  8 active torsions:
REMARK  status: ('A' for Active; 'I' for Inactive)
REMARK    1  A    between atoms: O1_2  and  C2_3 
REMARK    2  A    between atoms: C7_8  and  O2_9 
REMARK    3  A    between atoms: O2_9  and  C8_10 
REMARK    4  A    between atoms: C9_12  and  C10_13 
REMARK    5  A    between atoms: C10_13  and  O4_14 
REMARK    6  A    between atoms: C11_16  and  O5_17 
REMARK    7  A    between atoms: C12_19  and  O6_20 
REMARK    8  A    between atoms: C13_22  and  N1_23 
ROOT
HETATM    1  C2  UNL     1      -1.493   8.002  12.272  1.00  0.00     0.083 A 
HETATM    2  C3  UNL     1      -2.239   7.605  13.359  1.00  0.00    -0.019 A 
HETATM    3  C4  UNL     1      -2.463   8.601  14.427  1.00  0.00     0.052 C 
HETATM    4  C5  UNL     1      -2.737   6.315  13.411  1.00  0.00    -0.017 A 
HETATM    5  C6  UNL     1      -3.529   5.954  14.625  1.00  0.00     0.052 C 
HETATM    6  C7  UNL     1      -2.509   5.395  12.399  1.00  0.00     0.112 A 
HETATM    7  C13 UNL     1      -1.765   5.799  11.322  1.00  0.00     0.145 A 
HETATM    8  C14 UNL     1      -1.259   7.099  11.261  1.00  0.00     0.008 A 
HETATM    9  C15 UNL     1      -0.458   7.496  10.079  1.00  0.00     0.054 C 
ENDROOT
BRANCH   6  10
HETATM   10  O2  UNL     1      -3.000   4.135  12.457  1.00  0.00    -0.315 OA
BRANCH  10  11
HETATM   11  C8  UNL     1      -4.268   3.630  12.391  1.00  0.00     0.298 C 
HETATM   12  O3  UNL     1      -4.182   2.321  12.979  1.00  0.00    -0.348 OA
HETATM   13  C9  UNL     1      -3.599   1.532  11.991  1.00  0.00     0.179 C 
HETATM   14  C11 UNL     1      -4.132   2.057  10.671  1.00  0.00     0.182 C 
HETATM   15  C12 UNL     1      -4.874   3.346  11.070  1.00  0.00     0.205 C 
BRANCH  13  16
HETATM   16  C10 UNL     1      -3.938   0.080  12.169  1.00  0.00     0.198 C 
BRANCH  16  17
HETATM   17  O4  UNL     1      -3.115  -0.662  11.327  1.00  0.00    -0.398 OA
ATOM     18  H4  UNL     1      -3.599  -1.429  11.045  1.00  0.00     0.209 HD
ENDBRANCH  16  17
ENDBRANCH  13  16
BRANCH  14  19
HETATM   19  O5  UNL     1      -3.026   2.343   9.874  1.00  0.00    -0.390 OA
ATOM     20  H5  UNL     1      -3.023   3.282   9.732  1.00  0.00     0.210 HD
ENDBRANCH  14  19
BRANCH  15  21
HETATM   21  O6  UNL     1      -4.756   4.272  10.087  1.00  0.00    -0.388 OA
ATOM     22  H6  UNL     1      -5.128   4.081   9.234  1.00  0.00     0.210 HD
ENDBRANCH  15  21
ENDBRANCH  10  11
ENDBRANCH   6  10
BRANCH   7  23
HETATM   23  N1  UNL     1      -1.449   4.941  10.205  1.00  0.00    -0.112 N 
HETATM   24  O7  UNL     1      -0.520   4.114  10.294  1.00  0.00    -0.532 OA
HETATM   25  O8  UNL     1      -2.138   5.018   9.049  1.00  0.00    -0.532 OA
ENDBRANCH   7  23
BRANCH   1  26
HETATM   26  O1  UNL     1      -0.962   9.290  12.154  1.00  0.00    -0.355 OA
HETATM   27  C1  UNL     1       0.353   9.638  12.521  1.00  0.00     0.210 C 
ENDBRANCH   1  26
TORSDOF 8
ENDMDL
