MODEL 1
REMARK VINA RESULT: -7.254304246      0.000      0.000
REMARK  6 active torsions:
REMARK  status: ('A' for Active; 'I' for Inactive)
REMARK    1  A    between atoms: C5_9  and  C6_10 
REMARK    2  A    between atoms: C6_10  and  N3_11 
REMARK       I    between atoms: N3_11  and  C7_13 
REMARK       I    between atoms: C7_13  and  N4_15 
REMARK    3  A    between atoms: C12_20  and  C13_21 
REMARK    4  A    between atoms: C13_21  and  O2_22 
REMARK    5  A    between atoms: C13_21  and  C14_24 
REMARK    6  A    between atoms: C14_24  and  C15_25 
ROOT
HETATM    1  N3  UNL     1      -4.466   5.638  14.325  1.00  0.00    -0.318 N 
ATOM      2  H3  UNL     1      -5.309   5.792  13.773  1.00  0.00     0.170 HD
HETATM    3  C7  UNL     1      -3.184   5.754  13.670  1.00  0.00     0.322 C 
HETATM    4  O1  UNL     1      -2.135   5.547  14.375  1.00  0.00    -0.247 OA
HETATM    5  N4  UNL     1      -3.081   6.083  12.293  1.00  0.00    -0.323 N 
HETATM    6  C8  UNL     1      -4.270   6.299  11.537  1.00  0.00     0.128 C 
HETATM    7  C9  UNL     1      -4.129   6.319  10.059  1.00  0.00     0.020 C 
HETATM    8  C10 UNL     1      -2.823   6.810   9.558  1.00  0.00     0.004 C 
HETATM    9  C11 UNL     1      -1.854   7.198  10.639  1.00  0.00     0.032 C 
HETATM   10  C12 UNL     1      -1.701   6.179  11.743  1.00  0.00     0.145 C 
ENDROOT
BRANCH  10  11
HETATM   11  C13 UNL     1      -1.204   4.853  11.346  1.00  0.00     0.062 C 
BRANCH  11  12
HETATM   12  O2  UNL     1      -0.211   4.289  12.149  1.00  0.00    -0.363 OA
ATOM     13  H2  UNL     1      -0.133   3.342  12.130  1.00  0.00     0.217 HD
ENDBRANCH  11  12
BRANCH  11  14
HETATM   14  C14 UNL     1      -2.008   3.839  10.689  1.00  0.00     0.012 C 
BRANCH  14  15
HETATM   15  C15 UNL     1      -2.602   2.688  11.396  1.00  0.00     0.016 C 
HETATM   16  C16 UNL     1      -4.058   2.707  11.759  1.00  0.00     0.045 C 
HETATM   17  C17 UNL     1      -4.138   1.238  11.326  1.00  0.00     0.171 C 
HETATM   18  F1  UNL     1      -3.924   0.374  12.389  1.00  0.00    -0.249 F 
HETATM   19  C18 UNL     1      -2.920   1.493  10.476  1.00  0.00     0.045 C 
ENDBRANCH  14  15
ENDBRANCH  11  14
ENDBRANCH  10  11
BRANCH   1  20
HETATM   20  C6  UNL     1      -4.604   5.324  15.689  1.00  0.00     0.108 C 
BRANCH  20  21
HETATM   21  C5  UNL     1      -5.490   4.248  16.105  1.00  0.00     0.027 A 
HETATM   22  C2  UNL     1      -6.700   4.513  16.791  1.00  0.00     0.035 A 
HETATM   23  C1  UNL     1      -7.195   5.880  17.099  1.00  0.00     0.070 C 
HETATM   24  N1  UNL     1      -7.260   3.332  17.079  1.00  0.00    -0.304 N 
HETATM   25  N2  UNL     1      -6.513   2.343  16.637  1.00  0.00    -0.304 N 
ATOM     26  H1  UNL     1      -8.145   3.215  17.573  1.00  0.00     0.186 HD
HETATM   27  C3  UNL     1      -5.402   2.889  16.028  1.00  0.00     0.035 A 
ATOM     28  H2  UNL     1      -6.718   1.349  16.730  1.00  0.00     0.186 HD
HETATM   29  C4  UNL     1      -4.290   2.085  15.437  1.00  0.00     0.070 C 
ENDBRANCH  20  21
ENDBRANCH   1  20
TORSDOF 6
ENDMDL
MODEL 2
REMARK VINA RESULT: -6.946533648      0.197      1.617
REMARK  6 active torsions:
REMARK  status: ('A' for Active; 'I' for Inactive)
REMARK    1  A    between atoms: C5_9  and  C6_10 
REMARK    2  A    between atoms: C6_10  and  N3_11 
REMARK       I    between atoms: N3_11  and  C7_13 
REMARK       I    between atoms: C7_13  and  N4_15 
REMARK    3  A    between atoms: C12_20  and  C13_21 
REMARK    4  A    between atoms: C13_21  and  O2_22 
REMARK    5  A    between atoms: C13_21  and  C14_24 
REMARK    6  A    between atoms: C14_24  and  C15_25 
ROOT
HETATM    1  N3  UNL     1      -4.391   5.528  14.502  1.00  0.00    -0.318 N 
ATOM      2  H3  UNL     1      -5.263   5.658  13.990  1.00  0.00     0.170 HD
HETATM    3  C7  UNL     1      -3.144   5.735  13.803  1.00  0.00     0.322 C 
HETATM    4  O1  UNL     1      -2.058   5.557  14.457  1.00  0.00    -0.247 OA
HETATM    5  N4  UNL     1      -3.115   6.121  12.436  1.00  0.00    -0.323 N 
HETATM    6  C8  UNL     1      -4.344   6.304  11.737  1.00  0.00     0.128 C 
HETATM    7  C9  UNL     1      -4.264   6.387  10.257  1.00  0.00     0.020 C 
HETATM    8  C10 UNL     1      -3.006   6.964   9.725  1.00  0.00     0.004 C 
HETATM    9  C11 UNL     1      -2.015   7.361  10.782  1.00  0.00     0.032 C 
HETATM   10  C12 UNL     1      -1.765   6.310  11.838  1.00  0.00     0.145 C 
ENDROOT
BRANCH  10  11
HETATM   11  C13 UNL     1      -1.218   5.028  11.368  1.00  0.00     0.062 C 
BRANCH  11  12
HETATM   12  O2  UNL     1      -0.177   4.478  12.119  1.00  0.00    -0.363 OA
ATOM     13  H2  UNL     1      -0.406   3.777  12.718  1.00  0.00     0.217 HD
ENDBRANCH  11  12
BRANCH  11  14
HETATM   14  C14 UNL     1      -1.993   4.006  10.689  1.00  0.00     0.012 C 
BRANCH  14  15
HETATM   15  C15 UNL     1      -2.485   2.783  11.353  1.00  0.00     0.016 C 
HETATM   16  C16 UNL     1      -3.907   2.715  11.829  1.00  0.00     0.045 C 
HETATM   17  C17 UNL     1      -3.967   1.278  11.296  1.00  0.00     0.171 C 
HETATM   18  F1  UNL     1      -3.637   0.350  12.271  1.00  0.00    -0.249 F 
HETATM   19  C18 UNL     1      -2.832   1.644  10.375  1.00  0.00     0.045 C 
ENDBRANCH  14  15
ENDBRANCH  11  14
ENDBRANCH  10  11
BRANCH   1  20
HETATM   20  C6  UNL     1      -4.457   5.156  15.856  1.00  0.00     0.108 C 
BRANCH  20  21
HETATM   21  C5  UNL     1      -5.518   4.275  16.321  1.00  0.00     0.027 A 
HETATM   22  C2  UNL     1      -5.425   2.870  16.177  1.00  0.00     0.035 A 
HETATM   23  C1  UNL     1      -4.246   2.172  15.601  1.00  0.00     0.070 C 
HETATM   24  N1  UNL     1      -6.563   2.346  16.647  1.00  0.00    -0.304 N 
HETATM   25  N2  UNL     1      -7.369   3.294  17.075  1.00  0.00    -0.304 N 
ATOM     26  H1  UNL     1      -6.776   1.349  16.671  1.00  0.00     0.186 HD
HETATM   27  C3  UNL     1      -6.740   4.506  16.880  1.00  0.00     0.035 A 
ATOM     28  H2  UNL     1      -8.295   3.156  17.479  1.00  0.00     0.186 HD
HETATM   29  C4  UNL     1      -7.354   5.830  17.200  1.00  0.00     0.070 C 
ENDBRANCH  20  21
ENDBRANCH   1  20
TORSDOF 6
ENDMDL
MODEL 3
REMARK VINA RESULT: -6.915759582      2.783      4.125
REMARK  6 active torsions:
REMARK  status: ('A' for Active; 'I' for Inactive)
REMARK    1  A    between atoms: C5_9  and  C6_10 
REMARK    2  A    between atoms: C6_10  and  N3_11 
REMARK       I    between atoms: N3_11  and  C7_13 
REMARK       I    between atoms: C7_13  and  N4_15 
REMARK    3  A    between atoms: C12_20  and  C13_21 
REMARK    4  A    between atoms: C13_21  and  O2_22 
REMARK    5  A    between atoms: C13_21  and  C14_24 
REMARK    6  A    between atoms: C14_24  and  C15_25 
ROOT
HETATM    1  N3  UNL     1      -4.494   5.276  14.093  1.00  0.00    -0.318 N 
ATOM      2  H3  UNL     1      -3.834   5.744  14.715  1.00  0.00     0.170 HD
HETATM    3  C7  UNL     1      -4.122   5.086  12.711  1.00  0.00     0.322 C 
HETATM    4  O1  UNL     1      -4.965   4.506  11.942  1.00  0.00    -0.247 OA
HETATM    5  N4  UNL     1      -2.866   5.524  12.213  1.00  0.00    -0.323 N 
HETATM    6  C8  UNL     1      -1.954   6.173  13.096  1.00  0.00     0.128 C 
HETATM    7  C9  UNL     1      -0.814   6.890  12.471  1.00  0.00     0.020 C 
HETATM    8  C10 UNL     1      -0.338   6.319  11.188  1.00  0.00     0.004 C 
HETATM    9  C11 UNL     1      -1.101   5.108  10.731  1.00  0.00     0.032 C 
HETATM   10  C12 UNL     1      -2.603   5.258  10.772  1.00  0.00     0.145 C 
ENDROOT
BRANCH  10  11
HETATM   11  C13 UNL     1      -3.178   6.321   9.933  1.00  0.00     0.062 C 
BRANCH  11  12
HETATM   12  O2  UNL     1      -3.943   5.910   8.839  1.00  0.00    -0.363 OA
ATOM     13  H2  UNL     1      -3.820   6.389   8.028  1.00  0.00     0.217 HD
ENDBRANCH  11  12
BRANCH  11  14
HETATM   14  C14 UNL     1      -3.594   7.621  10.426  1.00  0.00     0.012 C 
BRANCH  14  15
HETATM   15  C15 UNL     1      -5.007   8.023  10.567  1.00  0.00     0.016 C 
HETATM   16  C16 UNL     1      -5.531   8.441  11.910  1.00  0.00     0.045 C 
HETATM   17  C17 UNL     1      -6.294   9.572  11.208  1.00  0.00     0.171 C 
HETATM   18  F1  UNL     1      -7.582   9.192  10.866  1.00  0.00    -0.249 F 
HETATM   19  C18 UNL     1      -5.293   9.459  10.087  1.00  0.00     0.045 C 
ENDBRANCH  14  15
ENDBRANCH  11  14
ENDBRANCH  10  11
BRANCH   1  20
HETATM   20  C6  UNL     1      -5.723   4.846  14.623  1.00  0.00     0.108 C 
BRANCH  20  21
HETATM   21  C5  UNL     1      -5.753   3.892  15.721  1.00  0.00     0.027 A 
HETATM   22  C2  UNL     1      -6.384   4.203  16.949  1.00  0.00     0.035 A 
HETATM   23  C1  UNL     1      -7.103   5.476  17.213  1.00  0.00     0.070 C 
HETATM   24  N1  UNL     1      -6.201   3.158  17.765  1.00  0.00    -0.304 N 
HETATM   25  N2  UNL     1      -5.509   2.214  17.164  1.00  0.00    -0.304 N 
ATOM     26  H1  UNL     1      -6.549   3.101  18.722  1.00  0.00     0.186 HD
HETATM   27  C3  UNL     1      -5.216   2.649  15.888  1.00  0.00     0.035 A 
ATOM     28  H2  UNL     1      -5.237   1.319  17.569  1.00  0.00     0.186 HD
HETATM   29  C4  UNL     1      -4.402   1.874  14.903  1.00  0.00     0.070 C 
ENDBRANCH  20  21
ENDBRANCH   1  20
TORSDOF 6
ENDMDL
MODEL 4
REMARK VINA RESULT: -6.869203706      3.031      7.102
REMARK  6 active torsions:
REMARK  status: ('A' for Active; 'I' for Inactive)
REMARK    1  A    between atoms: C5_9  and  C6_10 
REMARK    2  A    between atoms: C6_10  and  N3_11 
REMARK       I    between atoms: N3_11  and  C7_13 
REMARK       I    between atoms: C7_13  and  N4_15 
REMARK    3  A    between atoms: C12_20  and  C13_21 
REMARK    4  A    between atoms: C13_21  and  O2_22 
REMARK    5  A    between atoms: C13_21  and  C14_24 
REMARK    6  A    between atoms: C14_24  and  C15_25 
ROOT
HETATM    1  N3  UNL     1      -2.898   6.957   9.973  1.00  0.00    -0.318 N 
ATOM      2  H3  UNL     1      -2.295   7.718  10.285  1.00  0.00     0.170 HD
HETATM    3  C7  UNL     1      -3.809   6.366  10.924  1.00  0.00     0.322 C 
HETATM    4  O1  UNL     1      -4.553   5.405  10.518  1.00  0.00    -0.247 OA
HETATM    5  N4  UNL     1      -3.884   6.826  12.265  1.00  0.00    -0.323 N 
HETATM    6  C8  UNL     1      -3.037   7.893  12.685  1.00  0.00     0.128 C 
HETATM    7  C9  UNL     1      -2.920   8.118  14.147  1.00  0.00     0.020 C 
HETATM    8  C10 UNL     1      -4.122   7.761  14.938  1.00  0.00     0.004 C 
HETATM    9  C11 UNL     1      -5.260   7.220  14.120  1.00  0.00     0.032 C 
HETATM   10  C12 UNL     1      -4.872   6.137  13.141  1.00  0.00     0.145 C 
ENDROOT
BRANCH  10  11
HETATM   11  C13 UNL     1      -4.294   4.912  13.714  1.00  0.00     0.062 C 
BRANCH  11  12
HETATM   12  O2  UNL     1      -3.094   4.464  13.157  1.00  0.00    -0.363 OA
ATOM     13  H2  UNL     1      -2.822   3.583  13.382  1.00  0.00     0.217 HD
ENDBRANCH  11  12
BRANCH  11  14
HETATM   14  C14 UNL     1      -4.426   4.516  15.104  1.00  0.00     0.012 C 
BRANCH  14  15
HETATM   15  C15 UNL     1      -5.577   3.753  15.627  1.00  0.00     0.016 C 
HETATM   16  C16 UNL     1      -5.413   2.908  16.856  1.00  0.00     0.045 C 
HETATM   17  C17 UNL     1      -6.780   3.417  17.330  1.00  0.00     0.171 C 
HETATM   18  F1  UNL     1      -7.810   2.576  16.937  1.00  0.00    -0.249 F 
HETATM   19  C18 UNL     1      -6.572   4.609  16.433  1.00  0.00     0.045 C 
ENDBRANCH  14  15
ENDBRANCH  11  14
ENDBRANCH  10  11
BRANCH   1  20
HETATM   20  C6  UNL     1      -2.805   6.534   8.635  1.00  0.00     0.108 C 
BRANCH  20  21
HETATM   21  C5  UNL     1      -1.548   6.012   8.120  1.00  0.00     0.027 A 
HETATM   22  C2  UNL     1      -0.991   6.495   6.911  1.00  0.00     0.035 A 
HETATM   23  C1  UNL     1      -1.589   7.588   6.101  1.00  0.00     0.070 C 
HETATM   24  N1  UNL     1       0.125   5.793   6.680  1.00  0.00    -0.304 N 
HETATM   25  N2  UNL     1       0.323   4.908   7.633  1.00  0.00    -0.304 N 
ATOM     26  H1  UNL     1       0.737   5.926   5.875  1.00  0.00     0.186 HD
HETATM   27  C3  UNL     1      -0.709   5.024   8.542  1.00  0.00     0.035 A 
ATOM     28  H2  UNL     1       1.101   4.252   7.690  1.00  0.00     0.186 HD
HETATM   29  C4  UNL     1      -0.865   4.157   9.748  1.00  0.00     0.070 C 
ENDBRANCH  20  21
ENDBRANCH   1  20
TORSDOF 6
ENDMDL
MODEL 5
REMARK VINA RESULT: -6.832369326      3.809      7.246
REMARK  6 active torsions:
REMARK  status: ('A' for Active; 'I' for Inactive)
REMARK    1  A    between atoms: C5_9  and  C6_10 
REMARK    2  A    between atoms: C6_10  and  N3_11 
REMARK       I    between atoms: N3_11  and  C7_13 
REMARK       I    between atoms: C7_13  and  N4_15 
REMARK    3  A    between atoms: C12_20  and  C13_21 
REMARK    4  A    between atoms: C13_21  and  O2_22 
REMARK    5  A    between atoms: C13_21  and  C14_24 
REMARK    6  A    between atoms: C14_24  and  C15_25 
ROOT
HETATM    1  N3  UNL     1      -5.355   8.137  10.196  1.00  0.00    -0.318 N 
ATOM      2  H3  UNL     1      -4.514   7.913   9.665  1.00  0.00     0.170 HD
HETATM    3  C7  UNL     1      -5.353   7.903  11.620  1.00  0.00     0.322 C 
HETATM    4  O1  UNL     1      -6.421   8.179  12.271  1.00  0.00    -0.247 OA
HETATM    5  N4  UNL     1      -4.211   7.382  12.286  1.00  0.00    -0.323 N 
HETATM    6  C8  UNL     1      -3.042   7.078  11.529  1.00  0.00     0.128 C 
HETATM    7  C9  UNL     1      -2.009   6.249  12.199  1.00  0.00     0.020 C 
HETATM    8  C10 UNL     1      -1.929   6.411  13.671  1.00  0.00     0.004 C 
HETATM    9  C11 UNL     1      -2.920   7.387  14.239  1.00  0.00     0.032 C 
HETATM   10  C12 UNL     1      -4.338   7.196  13.758  1.00  0.00     0.145 C 
ENDROOT
BRANCH  10  11
HETATM   11  C13 UNL     1      -4.967   5.903  14.068  1.00  0.00     0.062 C 
BRANCH  11  12
HETATM   12  O2  UNL     1      -5.162   5.028  12.997  1.00  0.00    -0.363 OA
ATOM     13  H2  UNL     1      -5.327   4.118  13.214  1.00  0.00     0.217 HD
ENDBRANCH  11  12
BRANCH  11  14
HETATM   14  C14 UNL     1      -4.807   5.193  15.323  1.00  0.00     0.012 C 
BRANCH  14  15
HETATM   15  C15 UNL     1      -5.770   4.190  15.819  1.00  0.00     0.016 C 
HETATM   16  C16 UNL     1      -5.372   3.260  16.927  1.00  0.00     0.045 C 
HETATM   17  C17 UNL     1      -6.762   3.469  17.539  1.00  0.00     0.171 C 
HETATM   18  F1  UNL     1      -7.665   2.509  17.110  1.00  0.00    -0.249 F 
HETATM   19  C18 UNL     1      -6.826   4.769  16.779  1.00  0.00     0.045 C 
ENDBRANCH  14  15
ENDBRANCH  11  14
ENDBRANCH  10  11
BRANCH   1  20
HETATM   20  C6  UNL     1      -6.463   8.661   9.507  1.00  0.00     0.108 C 
BRANCH  20  21
HETATM   21  C5  UNL     1      -6.372   8.942   8.082  1.00  0.00     0.027 A 
HETATM   22  C2  UNL     1      -7.393   9.651   7.405  1.00  0.00     0.035 A 
HETATM   23  C1  UNL     1      -8.598  10.208   8.072  1.00  0.00     0.070 C 
HETATM   24  N1  UNL     1      -7.049   9.706   6.113  1.00  0.00    -0.304 N 
HETATM   25  N2  UNL     1      -5.902   9.093   5.911  1.00  0.00    -0.304 N 
ATOM     26  H1  UNL     1      -7.600  10.159   5.384  1.00  0.00     0.186 HD
HETATM   27  C3  UNL     1      -5.461   8.607   7.124  1.00  0.00     0.035 A 
ATOM     28  H2  UNL     1      -5.424   8.995   5.016  1.00  0.00     0.186 HD
HETATM   29  C4  UNL     1      -4.210   7.809   7.304  1.00  0.00     0.070 C 
ENDBRANCH  20  21
ENDBRANCH   1  20
TORSDOF 6
ENDMDL
