MODEL 1
REMARK VINA RESULT: -9.101687146      0.000      0.000
REMARK  6 active torsions:
REMARK  status: ('A' for Active; 'I' for Inactive)
REMARK    1  A    between atoms: C2_2  and  C3_3 
REMARK    2  A    between atoms: C3_3  and  N1_4 
REMARK       I    between atoms: N1_4  and  C4_6 
REMARK    3  A    between atoms: C4_6  and  C5_8 
REMARK    4  A    between atoms: C8_11  and  C9_12 
REMARK    5  A    between atoms: C9_12  and  N2_13 
REMARK    6  A    between atoms: C9_12  and  C10_17 
ROOT
HETATM    1  N1  UNL     1      -5.319   7.645  12.594  1.00  0.00    -0.336 N 
ATOM      2  H1  UNL     1      -6.109   7.048  12.839  1.00  0.00     0.168 HD
HETATM    3  C4  UNL     1      -4.339   7.762  13.581  1.00  0.00     0.225 C 
HETATM    4  O1  UNL     1      -3.305   8.444  13.429  1.00  0.00    -0.273 OA
ENDROOT
BRANCH   3   5
HETATM    5  C5  UNL     1      -4.534   7.031  14.899  1.00  0.00     0.078 C 
HETATM    6  C6  UNL     1      -5.995   6.761  15.043  1.00  0.00     0.014 C 
HETATM    7  C7  UNL     1      -6.268   5.537  15.913  1.00  0.00     0.008 C 
HETATM    8  C8  UNL     1      -5.701   4.289  15.297  1.00  0.00     0.027 C 
HETATM    9  C11 UNL     1      -4.665   4.680  14.291  1.00  0.00     0.008 C 
HETATM   10  C12 UNL     1      -3.734   5.737  14.866  1.00  0.00     0.014 C 
BRANCH   8  11
HETATM   11  C9  UNL     1      -5.201   3.393  16.380  1.00  0.00     0.287 C 
BRANCH  11  12
HETATM   12  N2  UNL     1      -4.115   2.543  15.972  1.00  0.00    -0.065 N 
ATOM     13  H23 UNL     1      -4.469   1.675  15.570  1.00  0.00     0.275 HD
ATOM     14  H22 UNL     1      -3.643   2.929  15.155  1.00  0.00     0.275 HD
ATOM     15  H21 UNL     1      -3.445   2.347  16.716  1.00  0.00     0.275 HD
ENDBRANCH  11  12
BRANCH  11  16
HETATM   16  C10 UNL     1      -6.323   2.548  16.854  1.00  0.00     0.204 C 
HETATM   17  O2  UNL     1      -7.538   2.858  16.778  1.00  0.00    -0.646 OA
HETATM   18  O3  UNL     1      -6.030   1.322  17.428  1.00  0.00    -0.646 OA
ENDBRANCH  11  16
ENDBRANCH   8  11
ENDBRANCH   3   5
BRANCH   1  19
HETATM   19  C3  UNL     1      -5.383   8.226  11.311  1.00  0.00     0.098 C 
BRANCH  19  20
HETATM   20  C2  UNL     1      -6.602   8.950  10.938  1.00  0.00    -0.043 C 
HETATM   21  C1  UNL     1      -7.640   9.417  11.865  1.00  0.00     0.050 C 
HETATM   22  C13 UNL     1      -6.792   9.253   9.621  1.00  0.00    -0.049 C 
HETATM   23  C14 UNL     1      -6.050   9.006   8.355  1.00  0.00     0.111 C 
HETATM   24  C18 UNL     1      -7.814   9.965   8.813  1.00  0.00     0.093 C 
HETATM   25  C15 UNL     1      -5.319  10.242   7.981  1.00  0.00    -0.016 C 
HETATM   26  C19 UNL     1      -7.419   9.034   7.657  1.00  0.00     0.261 C 
HETATM   27  C16 UNL     1      -5.968  11.397   8.095  1.00  0.00    -0.029 C 
HETATM   28  C17 UNL     1      -7.364  11.369   8.582  1.00  0.00     0.042 C 
HETATM   29  F1  UNL     1      -8.068   7.829   7.683  1.00  0.00    -0.204 F 
HETATM   30  F2  UNL     1      -7.405   9.676   6.441  1.00  0.00    -0.204 F 
ENDBRANCH  19  20
ENDBRANCH   1  19
TORSDOF 6
ENDMDL
MODEL 2
REMARK VINA RESULT: -8.787279097      3.721      5.086
REMARK  6 active torsions:
REMARK  status: ('A' for Active; 'I' for Inactive)
REMARK    1  A    between atoms: C2_2  and  C3_3 
REMARK    2  A    between atoms: C3_3  and  N1_4 
REMARK       I    between atoms: N1_4  and  C4_6 
REMARK    3  A    between atoms: C4_6  and  C5_8 
REMARK    4  A    between atoms: C8_11  and  C9_12 
REMARK    5  A    between atoms: C9_12  and  N2_13 
REMARK    6  A    between atoms: C9_12  and  C10_17 
ROOT
HETATM    1  N1  UNL     1      -3.265   7.590  12.811  1.00  0.00    -0.336 N 
ATOM      2  H1  UNL     1      -2.518   7.270  13.428  1.00  0.00     0.168 HD
HETATM    3  C4  UNL     1      -4.554   7.470  13.332  1.00  0.00     0.225 C 
HETATM    4  O1  UNL     1      -5.571   7.831  12.706  1.00  0.00    -0.273 OA
ENDROOT
BRANCH   3   5
HETATM    5  C5  UNL     1      -4.732   6.878  14.720  1.00  0.00     0.078 C 
HETATM    6  C6  UNL     1      -6.188   6.608  14.902  1.00  0.00     0.014 C 
HETATM    7  C7  UNL     1      -6.440   5.478  15.897  1.00  0.00     0.008 C 
HETATM    8  C8  UNL     1      -5.862   4.180  15.411  1.00  0.00     0.027 C 
HETATM    9  C11 UNL     1      -4.838   4.475  14.361  1.00  0.00     0.008 C 
HETATM   10  C12 UNL     1      -3.916   5.596  14.816  1.00  0.00     0.014 C 
BRANCH   8  11
HETATM   11  C9  UNL     1      -5.345   3.406  16.576  1.00  0.00     0.287 C 
BRANCH  11  12
HETATM   12  N2  UNL     1      -4.113   2.713  16.311  1.00  0.00    -0.065 N 
ATOM     13  H23 UNL     1      -3.448   3.328  15.842  1.00  0.00     0.275 HD
ATOM     14  H22 UNL     1      -3.604   2.539  17.177  1.00  0.00     0.275 HD
ATOM     15  H21 UNL     1      -4.235   1.847  15.784  1.00  0.00     0.275 HD
ENDBRANCH  11  12
BRANCH  11  16
HETATM   16  C10 UNL     1      -6.373   2.422  16.988  1.00  0.00     0.204 C 
HETATM   17  O2  UNL     1      -7.613   2.619  16.951  1.00  0.00    -0.646 OA
HETATM   18  O3  UNL     1      -5.956   1.186  17.453  1.00  0.00    -0.646 OA
ENDBRANCH  11  16
ENDBRANCH   8  11
ENDBRANCH   3   5
BRANCH   1  19
HETATM   19  C3  UNL     1      -2.837   8.085  11.562  1.00  0.00     0.098 C 
BRANCH  19  20
HETATM   20  C2  UNL     1      -2.828   7.167  10.419  1.00  0.00    -0.043 C 
HETATM   21  C1  UNL     1      -3.434   7.423   9.107  1.00  0.00     0.050 C 
HETATM   22  C13 UNL     1      -2.177   5.975  10.558  1.00  0.00    -0.049 C 
HETATM   23  C14 UNL     1      -1.435   5.288  11.650  1.00  0.00     0.111 C 
HETATM   24  C18 UNL     1      -1.891   4.794   9.704  1.00  0.00     0.093 C 
HETATM   25  C15 UNL     1       0.021   5.445  11.410  1.00  0.00    -0.016 C 
HETATM   26  C19 UNL     1      -1.884   3.970  11.001  1.00  0.00     0.261 C 
HETATM   27  C16 UNL     1       0.461   5.270  10.168  1.00  0.00    -0.029 C 
HETATM   28  C17 UNL     1      -0.525   4.932   9.119  1.00  0.00     0.042 C 
HETATM   29  F1  UNL     1      -3.131   3.566  11.394  1.00  0.00    -0.204 F 
HETATM   30  F2  UNL     1      -0.915   2.995  11.003  1.00  0.00    -0.204 F 
ENDBRANCH  19  20
ENDBRANCH   1  19
TORSDOF 6
ENDMDL
MODEL 3
REMARK VINA RESULT: -8.669950641      1.606      2.398
REMARK  6 active torsions:
REMARK  status: ('A' for Active; 'I' for Inactive)
REMARK    1  A    between atoms: C2_2  and  C3_3 
REMARK    2  A    between atoms: C3_3  and  N1_4 
REMARK       I    between atoms: N1_4  and  C4_6 
REMARK    3  A    between atoms: C4_6  and  C5_8 
REMARK    4  A    between atoms: C8_11  and  C9_12 
REMARK    5  A    between atoms: C9_12  and  N2_13 
REMARK    6  A    between atoms: C9_12  and  C10_17 
ROOT
HETATM    1  N1  UNL     1      -3.507   8.173  13.180  1.00  0.00    -0.336 N 
ATOM      2  H1  UNL     1      -2.695   8.018  13.777  1.00  0.00     0.168 HD
HETATM    3  C4  UNL     1      -4.686   7.568  13.618  1.00  0.00     0.225 C 
HETATM    4  O1  UNL     1      -5.768   7.675  13.006  1.00  0.00    -0.273 OA
ENDROOT
BRANCH   3   5
HETATM    5  C5  UNL     1      -4.657   6.743  14.894  1.00  0.00     0.078 C 
HETATM    6  C6  UNL     1      -6.057   6.305  15.170  1.00  0.00     0.014 C 
HETATM    7  C7  UNL     1      -6.103   5.009  15.975  1.00  0.00     0.008 C 
HETATM    8  C8  UNL     1      -5.481   3.870  15.218  1.00  0.00     0.027 C 
HETATM    9  C11 UNL     1      -4.610   4.431  14.139  1.00  0.00     0.008 C 
HETATM   10  C12 UNL     1      -3.735   5.550  14.687  1.00  0.00     0.014 C 
BRANCH   8  11
HETATM   11  C9  UNL     1      -4.774   2.973  16.176  1.00  0.00     0.287 C 
BRANCH  11  12
HETATM   12  N2  UNL     1      -4.130   1.850  15.550  1.00  0.00    -0.065 N 
ATOM     13  H23 UNL     1      -4.095   1.973  14.538  1.00  0.00     0.275 HD
ATOM     14  H22 UNL     1      -3.131   1.846  15.757  1.00  0.00     0.275 HD
ATOM     15  H21 UNL     1      -4.549   0.950  15.788  1.00  0.00     0.275 HD
ENDBRANCH  11  12
BRANCH  11  16
HETATM   16  C10 UNL     1      -5.752   2.474  17.171  1.00  0.00     0.204 C 
HETATM   17  O2  UNL     1      -5.638   2.600  18.416  1.00  0.00    -0.646 OA
HETATM   18  O3  UNL     1      -6.883   1.817  16.716  1.00  0.00    -0.646 OA
ENDBRANCH  11  16
ENDBRANCH   8  11
ENDBRANCH   3   5
BRANCH   1  19
HETATM   19  C3  UNL     1      -3.268   8.965  12.039  1.00  0.00     0.098 C 
BRANCH  19  20
HETATM   20  C2  UNL     1      -3.823   8.519  10.757  1.00  0.00    -0.043 C 
HETATM   21  C1  UNL     1      -3.482   7.271  10.062  1.00  0.00     0.050 C 
HETATM   22  C13 UNL     1      -4.763   9.304  10.155  1.00  0.00    -0.049 C 
HETATM   23  C14 UNL     1      -5.413  10.608  10.458  1.00  0.00     0.111 C 
HETATM   24  C18 UNL     1      -5.588   9.249   8.922  1.00  0.00     0.093 C 
HETATM   25  C15 UNL     1      -6.762  10.351  11.020  1.00  0.00    -0.016 C 
HETATM   26  C19 UNL     1      -5.556  10.785   8.939  1.00  0.00     0.261 C 
HETATM   27  C16 UNL     1      -7.505   9.420  10.429  1.00  0.00    -0.029 C 
HETATM   28  C17 UNL     1      -6.939   8.712   9.261  1.00  0.00     0.042 C 
HETATM   29  F1  UNL     1      -4.442  11.311   8.344  1.00  0.00    -0.204 F 
HETATM   30  F2  UNL     1      -6.754  11.343   8.559  1.00  0.00    -0.204 F 
ENDBRANCH  19  20
ENDBRANCH   1  19
TORSDOF 6
ENDMDL
MODEL 4
REMARK VINA RESULT: -8.649895323      1.569      1.915
REMARK  6 active torsions:
REMARK  status: ('A' for Active; 'I' for Inactive)
REMARK    1  A    between atoms: C2_2  and  C3_3 
REMARK    2  A    between atoms: C3_3  and  N1_4 
REMARK       I    between atoms: N1_4  and  C4_6 
REMARK    3  A    between atoms: C4_6  and  C5_8 
REMARK    4  A    between atoms: C8_11  and  C9_12 
REMARK    5  A    between atoms: C9_12  and  N2_13 
REMARK    6  A    between atoms: C9_12  and  C10_17 
ROOT
HETATM    1  N1  UNL     1      -3.754   7.619  12.373  1.00  0.00    -0.336 N 
ATOM      2  H1  UNL     1      -2.873   7.302  12.780  1.00  0.00     0.168 HD
HETATM    3  C4  UNL     1      -4.884   7.392  13.161  1.00  0.00     0.225 C 
HETATM    4  O1  UNL     1      -6.031   7.735  12.809  1.00  0.00    -0.273 OA
ENDROOT
BRANCH   3   5
HETATM    5  C5  UNL     1      -4.715   6.701  14.503  1.00  0.00     0.078 C 
HETATM    6  C6  UNL     1      -6.081   6.366  15.002  1.00  0.00     0.014 C 
HETATM    7  C7  UNL     1      -6.068   5.163  15.941  1.00  0.00     0.008 C 
HETATM    8  C8  UNL     1      -5.597   3.922  15.237  1.00  0.00     0.027 C 
HETATM    9  C11 UNL     1      -4.857   4.325  14.001  1.00  0.00     0.008 C 
HETATM   10  C12 UNL     1      -3.875   5.447  14.308  1.00  0.00     0.014 C 
BRANCH   8  11
HETATM   11  C9  UNL     1      -4.802   3.091  16.187  1.00  0.00     0.287 C 
BRANCH  11  12
HETATM   12  N2  UNL     1      -4.089   2.013  15.557  1.00  0.00    -0.065 N 
ATOM     13  H23 UNL     1      -4.734   1.285  15.251  1.00  0.00     0.275 HD
ATOM     14  H22 UNL     1      -3.720   2.306  14.653  1.00  0.00     0.275 HD
ATOM     15  H21 UNL     1      -3.349   1.617  16.136  1.00  0.00     0.275 HD
ENDBRANCH  11  12
BRANCH  11  16
HETATM   16  C10 UNL     1      -5.717   2.531  17.210  1.00  0.00     0.204 C 
HETATM   17  O2  UNL     1      -5.543   2.612  18.451  1.00  0.00    -0.646 OA
HETATM   18  O3  UNL     1      -6.855   1.866  16.785  1.00  0.00    -0.646 OA
ENDBRANCH  11  16
ENDBRANCH   8  11
ENDBRANCH   3   5
BRANCH   1  19
HETATM   19  C3  UNL     1      -3.643   8.218  11.102  1.00  0.00     0.098 C 
BRANCH  19  20
HETATM   20  C2  UNL     1      -4.218   9.554  10.914  1.00  0.00    -0.043 C 
HETATM   21  C1  UNL     1      -3.608  10.819  11.344  1.00  0.00     0.050 C 
HETATM   22  C13 UNL     1      -5.410   9.655  10.256  1.00  0.00    -0.049 C 
HETATM   23  C14 UNL     1      -6.375   8.698   9.651  1.00  0.00     0.111 C 
HETATM   24  C18 UNL     1      -6.318  10.748   9.827  1.00  0.00     0.093 C 
HETATM   25  C15 UNL     1      -6.175   8.684   8.181  1.00  0.00    -0.016 C 
HETATM   26  C19 UNL     1      -7.462   9.734   9.973  1.00  0.00     0.261 C 
HETATM   27  C16 UNL     1      -6.012   9.855   7.573  1.00  0.00    -0.029 C 
HETATM   28  C17 UNL     1      -6.042  11.081   8.398  1.00  0.00     0.042 C 
HETATM   29  F1  UNL     1      -7.944   9.639  11.251  1.00  0.00    -0.204 F 
HETATM   30  F2  UNL     1      -8.412   9.862   8.988  1.00  0.00    -0.204 F 
ENDBRANCH  19  20
ENDBRANCH   1  19
TORSDOF 6
ENDMDL
MODEL 5
REMARK VINA RESULT: -8.623473582      3.612      4.978
REMARK  6 active torsions:
REMARK  status: ('A' for Active; 'I' for Inactive)
REMARK    1  A    between atoms: C2_2  and  C3_3 
REMARK    2  A    between atoms: C3_3  and  N1_4 
REMARK       I    between atoms: N1_4  and  C4_6 
REMARK    3  A    between atoms: C4_6  and  C5_8 
REMARK    4  A    between atoms: C8_11  and  C9_12 
REMARK    5  A    between atoms: C9_12  and  N2_13 
REMARK    6  A    between atoms: C9_12  and  C10_17 
ROOT
HETATM    1  N1  UNL     1      -3.413   7.796  12.656  1.00  0.00    -0.336 N 
ATOM      2  H1  UNL     1      -2.595   7.532  13.206  1.00  0.00     0.168 HD
HETATM    3  C4  UNL     1      -4.642   7.486  13.240  1.00  0.00     0.225 C 
HETATM    4  O1  UNL     1      -5.734   7.758  12.700  1.00  0.00    -0.273 OA
ENDROOT
BRANCH   3   5
HETATM    5  C5  UNL     1      -4.658   6.788  14.591  1.00  0.00     0.078 C 
HETATM    6  C6  UNL     1      -6.069   6.386  14.864  1.00  0.00     0.014 C 
HETATM    7  C7  UNL     1      -6.149   5.175  15.789  1.00  0.00     0.008 C 
HETATM    8  C8  UNL     1      -5.514   3.965  15.165  1.00  0.00     0.027 C 
HETATM    9  C11 UNL     1      -4.606   4.415  14.064  1.00  0.00     0.008 C 
HETATM   10  C12 UNL     1      -3.740   5.576  14.528  1.00  0.00     0.014 C 
BRANCH   8  11
HETATM   11  C9  UNL     1      -4.843   3.161  16.227  1.00  0.00     0.287 C 
BRANCH  11  12
HETATM   12  N2  UNL     1      -3.988   2.124  15.716  1.00  0.00    -0.065 N 
ATOM     13  H23 UNL     1      -4.540   1.328  15.397  1.00  0.00     0.275 HD
ATOM     14  H22 UNL     1      -3.570   2.407  14.830  1.00  0.00     0.275 HD
ATOM     15  H21 UNL     1      -3.269   1.823  16.374  1.00  0.00     0.275 HD
ENDBRANCH  11  12
BRANCH  11  16
HETATM   16  C10 UNL     1      -5.882   2.548  17.088  1.00  0.00     0.204 C 
HETATM   17  O2  UNL     1      -6.945   2.026  16.670  1.00  0.00    -0.646 OA
HETATM   18  O3  UNL     1      -5.685   2.541  18.459  1.00  0.00    -0.646 OA
ENDBRANCH  11  16
ENDBRANCH   8  11
ENDBRANCH   3   5
BRANCH   1  19
HETATM   19  C3  UNL     1      -3.130   8.419  11.424  1.00  0.00     0.098 C 
BRANCH  19  20
HETATM   20  C2  UNL     1      -1.799   8.224  10.840  1.00  0.00    -0.043 C 
HETATM   21  C1  UNL     1      -0.748   9.244  10.741  1.00  0.00     0.050 C 
HETATM   22  C13 UNL     1      -1.479   6.984  10.367  1.00  0.00    -0.049 C 
HETATM   23  C14 UNL     1      -2.179   5.676  10.253  1.00  0.00     0.111 C 
HETATM   24  C18 UNL     1      -0.296   6.337   9.746  1.00  0.00     0.093 C 
HETATM   25  C15 UNL     1      -1.719   4.790  11.351  1.00  0.00    -0.016 C 
HETATM   26  C19 UNL     1      -1.291   5.414   9.027  1.00  0.00     0.261 C 
HETATM   27  C16 UNL     1      -0.416   4.765  11.614  1.00  0.00    -0.029 C 
HETATM   28  C17 UNL     1       0.478   5.616  10.799  1.00  0.00     0.042 C 
HETATM   29  F1  UNL     1      -1.789   5.949   7.869  1.00  0.00    -0.204 F 
HETATM   30  F2  UNL     1      -0.842   4.117   8.938  1.00  0.00    -0.204 F 
ENDBRANCH  19  20
ENDBRANCH   1  19
TORSDOF 6
ENDMDL
