MODEL 1
REMARK VINA RESULT: -6.273927847      0.000      0.000
REMARK  10 active torsions:
REMARK  status: ('A' for Active; 'I' for Inactive)
REMARK    1  A    between atoms: C2_2  and  C3_3 
REMARK    2  A    between atoms: C3_3  and  O1_4 
REMARK    3  A    between atoms: O1_4  and  C4_5 
REMARK    4  A    between atoms: C7_8  and  C8_9 
REMARK    5  A    between atoms: C8_9  and  C9_10 
REMARK    6  A    between atoms: C12_15  and  C13_16 
REMARK    7  A    between atoms: C13_16  and  C14_17 
REMARK    8  A    between atoms: C14_17  and  N2_18 
REMARK    9  A    between atoms: C14_17  and  C15_22 
REMARK   10  A    between atoms: C15_22  and  O2_23 
ROOT
HETATM    1  C9  UNL     1      43.348  -0.188  23.225  1.00  0.00    -0.008 A 
HETATM    2  C10 UNL     1      42.760  -1.396  23.607  1.00  0.00     0.030 A 
HETATM    3  C11 UNL     1      41.596  -1.031  24.251  1.00  0.00     0.089 A 
HETATM    4  N1  UNL     1      41.493   0.310  24.256  1.00  0.00    -0.365 N 
ATOM      5  H1  UNL     1      40.723   0.835  24.672  1.00  0.00     0.165 HD
HETATM    6  C12 UNL     1      42.553   0.859  23.633  1.00  0.00     0.040 A 
ENDROOT
BRANCH   1   7
HETATM    7  C8  UNL     1      44.495  -0.099  22.572  1.00  0.00     0.025 C 
BRANCH   7   8
HETATM    8  C7  UNL     1      44.593  -0.420  21.161  1.00  0.00    -0.035 A 
HETATM    9  C6  UNL     1      43.745   0.141  20.212  1.00  0.00     0.014 A 
HETATM   10  C5  UNL     1      43.835  -0.162  18.869  1.00  0.00     0.037 A 
HETATM   11  C4  UNL     1      44.794  -1.047  18.457  1.00  0.00     0.069 A 
HETATM   12  C17 UNL     1      45.658  -1.629  19.360  1.00  0.00     0.037 A 
HETATM   13  C16 UNL     1      45.538  -1.303  20.701  1.00  0.00     0.014 A 
BRANCH  11  14
HETATM   14  O1  UNL     1      44.934  -1.391  17.119  1.00  0.00    -0.348 OA
BRANCH  14  15
HETATM   15  C3  UNL     1      44.607  -0.541  16.053  1.00  0.00     0.202 C 
BRANCH  15  16
HETATM   16  C2  UNL     1      45.810   0.209  15.641  1.00  0.00    -0.011 C 
HETATM   17  C1  UNL     1      45.966   1.509  15.944  1.00  0.00     0.009 C 
ENDBRANCH  15  16
ENDBRANCH  14  15
ENDBRANCH  11  14
ENDBRANCH   7   8
ENDBRANCH   1   7
BRANCH   6  18
HETATM   18  C13 UNL     1      42.792   2.147  23.445  1.00  0.00     0.038 C 
BRANCH  18  19
HETATM   19  C14 UNL     1      42.297   2.900  22.279  1.00  0.00     0.231 C 
BRANCH  19  20
HETATM   20  N2  UNL     1      41.252   3.847  22.692  1.00  0.00    -0.070 N 
ATOM     21  H23 UNL     1      40.345   3.393  22.793  1.00  0.00     0.275 HD
ATOM     22  H22 UNL     1      41.376   4.154  23.657  1.00  0.00     0.275 HD
ATOM     23  H21 UNL     1      41.214   4.634  22.044  1.00  0.00     0.275 HD
ENDBRANCH  19  20
BRANCH  19  24
HETATM   24  C15 UNL     1      43.390   3.664  21.579  1.00  0.00     0.201 C 
BRANCH  24  25
HETATM   25  O2  UNL     1      43.237   5.014  21.910  1.00  0.00    -0.399 OA
ATOM     26  H2  UNL     1      43.625   5.526  21.209  1.00  0.00     0.209 HD
ENDBRANCH  24  25
ENDBRANCH  19  24
ENDBRANCH  18  19
ENDBRANCH   6  18
TORSDOF 10
ENDMDL
MODEL 2
REMARK VINA RESULT: -6.224604013      2.826      4.078
REMARK  10 active torsions:
REMARK  status: ('A' for Active; 'I' for Inactive)
REMARK    1  A    between atoms: C2_2  and  C3_3 
REMARK    2  A    between atoms: C3_3  and  O1_4 
REMARK    3  A    between atoms: O1_4  and  C4_5 
REMARK    4  A    between atoms: C7_8  and  C8_9 
REMARK    5  A    between atoms: C8_9  and  C9_10 
REMARK    6  A    between atoms: C12_15  and  C13_16 
REMARK    7  A    between atoms: C13_16  and  C14_17 
REMARK    8  A    between atoms: C14_17  and  N2_18 
REMARK    9  A    between atoms: C14_17  and  C15_22 
REMARK   10  A    between atoms: C15_22  and  O2_23 
ROOT
HETATM    1  C9  UNL     1      42.883   0.381  24.121  1.00  0.00    -0.008 A 
HETATM    2  C10 UNL     1      43.697   0.861  25.149  1.00  0.00     0.030 A 
HETATM    3  C11 UNL     1      43.896   2.192  24.847  1.00  0.00     0.089 A 
HETATM    4  N1  UNL     1      43.243   2.492  23.710  1.00  0.00    -0.365 N 
ATOM      5  H1  UNL     1      43.230   3.412  23.269  1.00  0.00     0.165 HD
HETATM    6  C12 UNL     1      42.609   1.401  23.238  1.00  0.00     0.040 A 
ENDROOT
BRANCH   1   7
HETATM    7  C8  UNL     1      42.457  -0.868  24.039  1.00  0.00     0.025 C 
BRANCH   7   8
HETATM    8  C7  UNL     1      43.240  -1.898  23.382  1.00  0.00    -0.035 A 
HETATM    9  C6  UNL     1      44.489  -2.290  23.851  1.00  0.00     0.014 A 
HETATM   10  C5  UNL     1      45.238  -3.269  23.228  1.00  0.00     0.037 A 
HETATM   11  C4  UNL     1      44.730  -3.874  22.110  1.00  0.00     0.069 A 
HETATM   12  C17 UNL     1      43.496  -3.518  21.608  1.00  0.00     0.037 A 
HETATM   13  C16 UNL     1      42.773  -2.531  22.258  1.00  0.00     0.014 A 
BRANCH  11  14
HETATM   14  O1  UNL     1      45.435  -4.864  21.441  1.00  0.00    -0.348 OA
BRANCH  14  15
HETATM   15  C3  UNL     1      46.568  -4.623  20.651  1.00  0.00     0.202 C 
BRANCH  15  16
HETATM   16  C2  UNL     1      46.178  -4.618  19.227  1.00  0.00    -0.011 C 
HETATM   17  C1  UNL     1      45.876  -3.476  18.585  1.00  0.00     0.009 C 
ENDBRANCH  15  16
ENDBRANCH  14  15
ENDBRANCH  11  14
ENDBRANCH   7   8
ENDBRANCH   1   7
BRANCH   6  18
HETATM   18  C13 UNL     1      41.869   1.316  22.145  1.00  0.00     0.038 C 
BRANCH  18  19
HETATM   19  C14 UNL     1      42.414   1.471  20.784  1.00  0.00     0.231 C 
BRANCH  19  20
HETATM   20  N2  UNL     1      43.015   2.802  20.625  1.00  0.00    -0.070 N 
ATOM     21  H23 UNL     1      42.372   3.460  20.184  1.00  0.00     0.275 HD
ATOM     22  H22 UNL     1      43.127   3.278  21.520  1.00  0.00     0.275 HD
ATOM     23  H21 UNL     1      43.897   2.733  20.117  1.00  0.00     0.275 HD
ENDBRANCH  19  20
BRANCH  19  24
HETATM   24  C15 UNL     1      43.453   0.431  20.456  1.00  0.00     0.201 C 
BRANCH  24  25
HETATM   25  O2  UNL     1      43.069  -0.183  19.260  1.00  0.00    -0.399 OA
ATOM     26  H2  UNL     1      42.990  -1.115  19.430  1.00  0.00     0.209 HD
ENDBRANCH  24  25
ENDBRANCH  19  24
ENDBRANCH  18  19
ENDBRANCH   6  18
TORSDOF 10
ENDMDL
MODEL 3
REMARK VINA RESULT: -6.199835081      3.038      3.934
REMARK  10 active torsions:
REMARK  status: ('A' for Active; 'I' for Inactive)
REMARK    1  A    between atoms: C2_2  and  C3_3 
REMARK    2  A    between atoms: C3_3  and  O1_4 
REMARK    3  A    between atoms: O1_4  and  C4_5 
REMARK    4  A    between atoms: C7_8  and  C8_9 
REMARK    5  A    between atoms: C8_9  and  C9_10 
REMARK    6  A    between atoms: C12_15  and  C13_16 
REMARK    7  A    between atoms: C13_16  and  C14_17 
REMARK    8  A    between atoms: C14_17  and  N2_18 
REMARK    9  A    between atoms: C14_17  and  C15_22 
REMARK   10  A    between atoms: C15_22  and  O2_23 
ROOT
HETATM    1  C9  UNL     1      43.508   0.159  23.928  1.00  0.00    -0.008 A 
HETATM    2  C10 UNL     1      43.863   0.630  25.194  1.00  0.00     0.030 A 
HETATM    3  C11 UNL     1      44.371   1.891  24.969  1.00  0.00     0.089 A 
HETATM    4  N1  UNL     1      44.326   2.161  23.652  1.00  0.00    -0.365 N 
ATOM      5  H1  UNL     1      44.644   3.030  23.223  1.00  0.00     0.165 HD
HETATM    6  C12 UNL     1      43.800   1.117  22.983  1.00  0.00     0.040 A 
ENDROOT
BRANCH   1   7
HETATM    7  C8  UNL     1      42.975  -1.031  23.705  1.00  0.00     0.025 C 
BRANCH   7   8
HETATM    8  C7  UNL     1      43.725  -2.093  23.062  1.00  0.00    -0.035 A 
HETATM    9  C6  UNL     1      45.038  -2.388  23.410  1.00  0.00     0.014 A 
HETATM   10  C5  UNL     1      45.755  -3.398  22.800  1.00  0.00     0.037 A 
HETATM   11  C4  UNL     1      45.150  -4.133  21.817  1.00  0.00     0.069 A 
HETATM   12  C17 UNL     1      43.850  -3.877  21.437  1.00  0.00     0.037 A 
HETATM   13  C16 UNL     1      43.160  -2.856  22.070  1.00  0.00     0.014 A 
BRANCH  11  14
HETATM   14  O1  UNL     1      45.819  -5.161  21.167  1.00  0.00    -0.348 OA
BRANCH  14  15
HETATM   15  C3  UNL     1      46.827  -4.959  20.213  1.00  0.00     0.202 C 
BRANCH  15  16
HETATM   16  C2  UNL     1      46.240  -5.035  18.860  1.00  0.00    -0.011 C 
HETATM   17  C1  UNL     1      46.000  -3.928  18.136  1.00  0.00     0.009 C 
ENDBRANCH  15  16
ENDBRANCH  14  15
ENDBRANCH  11  14
ENDBRANCH   7   8
ENDBRANCH   1   7
BRANCH   6  18
HETATM   18  C13 UNL     1      43.599   1.021  21.679  1.00  0.00     0.038 C 
BRANCH  18  19
HETATM   19  C14 UNL     1      42.635   1.860  20.944  1.00  0.00     0.231 C 
BRANCH  19  20
HETATM   20  N2  UNL     1      42.260   1.214  19.679  1.00  0.00    -0.070 N 
ATOM     21  H23 UNL     1      42.026   0.230  19.809  1.00  0.00     0.275 HD
ATOM     22  H22 UNL     1      41.355   1.541  19.340  1.00  0.00     0.275 HD
ATOM     23  H21 UNL     1      42.997   1.342  18.985  1.00  0.00     0.275 HD
ENDBRANCH  19  20
BRANCH  19  24
HETATM   24  C15 UNL     1      41.384   2.131  21.736  1.00  0.00     0.201 C 
BRANCH  24  25
HETATM   25  O2  UNL     1      41.587   3.316  22.450  1.00  0.00    -0.399 OA
ATOM     26  H2  UNL     1      41.187   4.021  21.954  1.00  0.00     0.209 HD
ENDBRANCH  24  25
ENDBRANCH  19  24
ENDBRANCH  18  19
ENDBRANCH   6  18
TORSDOF 10
ENDMDL
MODEL 4
REMARK VINA RESULT: -6.121363190      1.178      1.604
REMARK  10 active torsions:
REMARK  status: ('A' for Active; 'I' for Inactive)
REMARK    1  A    between atoms: C2_2  and  C3_3 
REMARK    2  A    between atoms: C3_3  and  O1_4 
REMARK    3  A    between atoms: O1_4  and  C4_5 
REMARK    4  A    between atoms: C7_8  and  C8_9 
REMARK    5  A    between atoms: C8_9  and  C9_10 
REMARK    6  A    between atoms: C12_15  and  C13_16 
REMARK    7  A    between atoms: C13_16  and  C14_17 
REMARK    8  A    between atoms: C14_17  and  N2_18 
REMARK    9  A    between atoms: C14_17  and  C15_22 
REMARK   10  A    between atoms: C15_22  and  O2_23 
ROOT
HETATM    1  C9  UNL     1      43.163  -0.206  22.452  1.00  0.00    -0.008 A 
HETATM    2  C10 UNL     1      43.128  -1.257  23.373  1.00  0.00     0.030 A 
HETATM    3  C11 UNL     1      41.947  -1.081  24.061  1.00  0.00     0.089 A 
HETATM    4  N1  UNL     1      41.312   0.005  23.586  1.00  0.00    -0.365 N 
ATOM      5  H1  UNL     1      40.416   0.354  23.927  1.00  0.00     0.165 HD
HETATM    6  C12 UNL     1      42.032   0.566  22.595  1.00  0.00     0.040 A 
ENDROOT
BRANCH   1   7
HETATM    7  C8  UNL     1      44.145  -0.013  21.588  1.00  0.00     0.025 C 
BRANCH   7   8
HETATM    8  C7  UNL     1      44.075  -0.519  20.231  1.00  0.00    -0.035 A 
HETATM    9  C6  UNL     1      44.482  -1.807  19.898  1.00  0.00     0.014 A 
HETATM   10  C5  UNL     1      44.416  -2.292  18.607  1.00  0.00     0.037 A 
HETATM   11  C4  UNL     1      43.934  -1.475  17.621  1.00  0.00     0.069 A 
HETATM   12  C17 UNL     1      43.520  -0.190  17.902  1.00  0.00     0.037 A 
HETATM   13  C16 UNL     1      43.600   0.264  19.209  1.00  0.00     0.014 A 
BRANCH  11  14
HETATM   14  O1  UNL     1      43.845  -1.906  16.305  1.00  0.00    -0.348 OA
BRANCH  14  15
HETATM   15  C3  UNL     1      44.945  -2.312  15.536  1.00  0.00     0.202 C 
BRANCH  15  16
HETATM   16  C2  UNL     1      45.709  -1.123  15.111  1.00  0.00    -0.011 C 
HETATM   17  C1  UNL     1      45.145  -0.154  14.369  1.00  0.00     0.009 C 
ENDBRANCH  15  16
ENDBRANCH  14  15
ENDBRANCH  11  14
ENDBRANCH   7   8
ENDBRANCH   1   7
BRANCH   6  18
HETATM   18  C13 UNL     1      41.723   1.644  21.893  1.00  0.00     0.038 C 
BRANCH  18  19
HETATM   19  C14 UNL     1      42.058   3.013  22.323  1.00  0.00     0.231 C 
BRANCH  19  20
HETATM   20  N2  UNL     1      42.366   3.035  23.760  1.00  0.00    -0.070 N 
ATOM     21  H23 UNL     1      41.787   3.707  24.263  1.00  0.00     0.275 HD
ATOM     22  H22 UNL     1      42.051   2.185  24.229  1.00  0.00     0.275 HD
ATOM     23  H21 UNL     1      43.361   3.205  23.905  1.00  0.00     0.275 HD
ENDBRANCH  19  20
BRANCH  19  24
HETATM   24  C15 UNL     1      43.231   3.584  21.571  1.00  0.00     0.201 C 
BRANCH  24  25
HETATM   25  O2  UNL     1      43.341   4.933  21.925  1.00  0.00    -0.399 OA
ATOM     26  H2  UNL     1      43.608   5.411  21.149  1.00  0.00     0.209 HD
ENDBRANCH  24  25
ENDBRANCH  19  24
ENDBRANCH  18  19
ENDBRANCH   6  18
TORSDOF 10
ENDMDL
MODEL 5
REMARK VINA RESULT: -6.101506100      1.520      1.939
REMARK  10 active torsions:
REMARK  status: ('A' for Active; 'I' for Inactive)
REMARK    1  A    between atoms: C2_2  and  C3_3 
REMARK    2  A    between atoms: C3_3  and  O1_4 
REMARK    3  A    between atoms: O1_4  and  C4_5 
REMARK    4  A    between atoms: C7_8  and  C8_9 
REMARK    5  A    between atoms: C8_9  and  C9_10 
REMARK    6  A    between atoms: C12_15  and  C13_16 
REMARK    7  A    between atoms: C13_16  and  C14_17 
REMARK    8  A    between atoms: C14_17  and  N2_18 
REMARK    9  A    between atoms: C14_17  and  C15_22 
REMARK   10  A    between atoms: C15_22  and  O2_23 
ROOT
HETATM    1  C9  UNL     1      43.176  -0.270  22.435  1.00  0.00    -0.008 A 
HETATM    2  C10 UNL     1      43.126  -1.352  23.319  1.00  0.00     0.030 A 
HETATM    3  C11 UNL     1      41.954  -1.175  24.023  1.00  0.00     0.089 A 
HETATM    4  N1  UNL     1      41.339  -0.060  23.591  1.00  0.00    -0.365 N 
ATOM      5  H1  UNL     1      40.454   0.296  23.950  1.00  0.00     0.165 HD
HETATM    6  C12 UNL     1      42.064   0.520  22.615  1.00  0.00     0.040 A 
ENDROOT
BRANCH   1   7
HETATM    7  C8  UNL     1      44.157  -0.068  21.571  1.00  0.00     0.025 C 
BRANCH   7   8
HETATM    8  C7  UNL     1      44.084  -0.561  20.209  1.00  0.00    -0.035 A 
HETATM    9  C6  UNL     1      43.585   0.213  19.167  1.00  0.00     0.014 A 
HETATM   10  C5  UNL     1      43.514  -0.253  17.869  1.00  0.00     0.037 A 
HETATM   11  C4  UNL     1      43.952  -1.522  17.601  1.00  0.00     0.069 A 
HETATM   12  C17 UNL     1      44.454  -2.326  18.601  1.00  0.00     0.037 A 
HETATM   13  C16 UNL     1      44.510  -1.827  19.892  1.00  0.00     0.014 A 
BRANCH  11  14
HETATM   14  O1  UNL     1      43.906  -2.046  16.316  1.00  0.00    -0.348 OA
BRANCH  14  15
HETATM   15  C3  UNL     1      45.014  -2.123  15.461  1.00  0.00     0.202 C 
BRANCH  15  16
HETATM   16  C2  UNL     1      45.071  -3.469  14.856  1.00  0.00    -0.011 C 
HETATM   17  C1  UNL     1      45.047  -4.580  15.612  1.00  0.00     0.009 C 
ENDBRANCH  15  16
ENDBRANCH  14  15
ENDBRANCH  11  14
ENDBRANCH   7   8
ENDBRANCH   1   7
BRANCH   6  18
HETATM   18  C13 UNL     1      41.773   1.629  21.953  1.00  0.00     0.038 C 
BRANCH  18  19
HETATM   19  C14 UNL     1      42.137   2.975  22.430  1.00  0.00     0.231 C 
BRANCH  19  20
HETATM   20  N2  UNL     1      42.487   2.932  23.857  1.00  0.00    -0.070 N 
ATOM     21  H23 UNL     1      43.153   3.662  24.107  1.00  0.00     0.275 HD
ATOM     22  H22 UNL     1      41.709   3.228  24.448  1.00  0.00     0.275 HD
ATOM     23  H21 UNL     1      42.826   2.004  24.109  1.00  0.00     0.275 HD
ENDBRANCH  19  20
BRANCH  19  24
HETATM   24  C15 UNL     1      43.295   3.564  21.669  1.00  0.00     0.201 C 
BRANCH  24  25
HETATM   25  O2  UNL     1      43.206   4.955  21.779  1.00  0.00    -0.399 OA
ATOM     26  H2  UNL     1      43.011   5.158  22.687  1.00  0.00     0.209 HD
ENDBRANCH  24  25
ENDBRANCH  19  24
ENDBRANCH  18  19
ENDBRANCH   6  18
TORSDOF 10
ENDMDL
