MODEL 1
REMARK VINA RESULT: -7.436967560      0.000      0.000
REMARK  5 active torsions:
REMARK  status: ('A' for Active; 'I' for Inactive)
REMARK    1  A    between atoms: C1_4  and  C2_6 
REMARK    2  A    between atoms: C8_12  and  O1_13 
REMARK    3  A    between atoms: O1_13  and  S1_14 
REMARK    4  A    between atoms: S1_14  and  C9_17 
REMARK    5  A    between atoms: C9_17  and  C10_18 
ROOT
HETATM    1  C2  UNL     1      91.871 100.007 -44.817  1.00  0.00     0.019 C 
HETATM    2  C3  UNL     1      92.579 100.410 -43.524  1.00  0.00     0.021 C 
HETATM    3  C4  UNL     1      91.784  99.844 -42.372  1.00  0.00    -0.010 C 
HETATM    4  C5  UNL     1      90.375 100.370 -42.372  1.00  0.00     0.009 C 
HETATM    5  C6  UNL     1      89.727  99.934 -43.648  1.00  0.00    -0.010 C 
HETATM    6  C7  UNL     1      89.742  98.459 -43.838  1.00  0.00     0.044 C 
HETATM    7  C8  UNL     1      91.166  97.878 -43.766  1.00  0.00     0.082 C 
HETATM    8  C16 UNL     1      91.720  98.328 -42.432  1.00  0.00     0.044 C 
HETATM    9  C17 UNL     1      91.944  98.497 -44.872  1.00  0.00     0.056 C 
HETATM   10  C18 UNL     1      90.491 100.545 -44.809  1.00  0.00     0.021 C 
ENDROOT
BRANCH   7  11
HETATM   11  O1  UNL     1      90.992  96.534 -43.839  1.00  0.00    -0.264 OA
BRANCH  11  12
HETATM   12  S1  UNL     1      91.254  95.773 -45.263  1.00  0.00     0.270 S 
HETATM   13  O2  UNL     1      92.668  95.841 -45.768  1.00  0.00    -0.198 OA
HETATM   14  O3  UNL     1      90.304  96.216 -46.354  1.00  0.00    -0.198 OA
BRANCH  12  15
HETATM   15  C9  UNL     1      90.889  94.027 -45.014  1.00  0.00     0.209 C 
BRANCH  15  16
HETATM   16  C10 UNL     1      91.837  93.396 -44.099  1.00  0.00    -0.042 A 
HETATM   17  C11 UNL     1      92.559  92.304 -44.535  1.00  0.00     0.010 A 
HETATM   18  C12 UNL     1      93.472  91.641 -43.757  1.00  0.00     0.024 A 
HETATM   19  C13 UNL     1      93.691  92.086 -42.458  1.00  0.00     0.034 A 
HETATM   20 CL1  UNL     1      94.855  91.245 -41.459  1.00  0.00    -0.084 Cl
HETATM   21  C14 UNL     1      92.991  93.172 -41.986  1.00  0.00     0.024 A 
HETATM   22  C15 UNL     1      92.083  93.807 -42.801  1.00  0.00     0.010 A 
ENDBRANCH  15  16
ENDBRANCH  12  15
ENDBRANCH  11  12
ENDBRANCH   7  11
BRANCH   1  23
HETATM   23  C1  UNL     1      92.611 100.528 -45.988  1.00  0.00     0.095 C 
HETATM   24  N1  UNL     1      93.182 101.672 -45.933  1.00  0.00    -0.390 N 
ATOM     25  H12 UNL     1      93.693 102.031 -46.740  1.00  0.00     0.157 HD
ATOM     26  H11 UNL     1      93.132 102.238 -45.087  1.00  0.00     0.157 HD
HETATM   27  N2  UNL     1      92.680  99.741 -47.164  1.00  0.00    -0.087 NA
ENDBRANCH   1  23
TORSDOF 5
ENDMDL
MODEL 2
REMARK VINA RESULT: -7.221723541      1.910      2.627
REMARK  5 active torsions:
REMARK  status: ('A' for Active; 'I' for Inactive)
REMARK    1  A    between atoms: C1_4  and  C2_6 
REMARK    2  A    between atoms: C8_12  and  O1_13 
REMARK    3  A    between atoms: O1_13  and  S1_14 
REMARK    4  A    between atoms: S1_14  and  C9_17 
REMARK    5  A    between atoms: C9_17  and  C10_18 
ROOT
HETATM    1  C2  UNL     1      89.367  99.878 -43.476  1.00  0.00     0.019 C 
HETATM    2  C3  UNL     1      89.986 100.539 -44.708  1.00  0.00     0.021 C 
HETATM    3  C4  UNL     1      91.440 100.141 -44.759  1.00  0.00    -0.010 C 
HETATM    4  C5  UNL     1      92.170 100.580 -43.518  1.00  0.00     0.009 C 
HETATM    5  C6  UNL     1      91.536  99.891 -42.351  1.00  0.00    -0.010 C 
HETATM    6  C7  UNL     1      91.541  98.409 -42.472  1.00  0.00     0.044 C 
HETATM    7  C8  UNL     1      90.869  97.930 -43.772  1.00  0.00     0.082 C 
HETATM    8  C16 UNL     1      91.601  98.637 -44.891  1.00  0.00     0.044 C 
HETATM    9  C17 UNL     1      89.455  98.387 -43.725  1.00  0.00     0.056 C 
HETATM   10  C18 UNL     1      90.085 100.331 -42.263  1.00  0.00     0.021 C 
ENDROOT
BRANCH   7  11
HETATM   11  O1  UNL     1      91.060  96.587 -43.781  1.00  0.00    -0.264 OA
BRANCH  11  12
HETATM   12  S1  UNL     1      91.257  95.818 -45.212  1.00  0.00     0.270 S 
HETATM   13  O2  UNL     1      92.653  95.861 -45.769  1.00  0.00    -0.198 OA
HETATM   14  O3  UNL     1      90.276  96.277 -46.268  1.00  0.00    -0.198 OA
BRANCH  12  15
HETATM   15  C9  UNL     1      90.870  94.080 -44.946  1.00  0.00     0.209 C 
BRANCH  15  16
HETATM   16  C10 UNL     1      91.829  93.438 -44.049  1.00  0.00    -0.042 A 
HETATM   17  C11 UNL     1      92.557  92.361 -44.512  1.00  0.00     0.010 A 
HETATM   18  C12 UNL     1      93.480  91.690 -43.754  1.00  0.00     0.024 A 
HETATM   19  C13 UNL     1      93.702  92.110 -42.446  1.00  0.00     0.034 A 
HETATM   20 CL1  UNL     1      94.879  91.258 -41.472  1.00  0.00    -0.084 Cl
HETATM   21  C14 UNL     1      92.996  93.180 -41.948  1.00  0.00     0.024 A 
HETATM   22  C15 UNL     1      92.078  93.825 -42.745  1.00  0.00     0.010 A 
ENDBRANCH  15  16
ENDBRANCH  12  15
ENDBRANCH  11  12
ENDBRANCH   7  11
BRANCH   1  23
HETATM   23  C1  UNL     1      87.933 100.226 -43.377  1.00  0.00     0.095 C 
HETATM   24  N1  UNL     1      87.383 100.375 -42.231  1.00  0.00    -0.390 N 
ATOM     25  H12 UNL     1      86.394 100.615 -42.163  1.00  0.00     0.157 HD
ATOM     26  H11 UNL     1      87.924 100.255 -41.375  1.00  0.00     0.157 HD
HETATM   27  N2  UNL     1      87.181 100.393 -44.567  1.00  0.00    -0.087 NA
ENDBRANCH   1  23
TORSDOF 5
ENDMDL
MODEL 3
REMARK VINA RESULT: -6.889277785      1.640      2.474
REMARK  5 active torsions:
REMARK  status: ('A' for Active; 'I' for Inactive)
REMARK    1  A    between atoms: C1_4  and  C2_6 
REMARK    2  A    between atoms: C8_12  and  O1_13 
REMARK    3  A    between atoms: O1_13  and  S1_14 
REMARK    4  A    between atoms: S1_14  and  C9_17 
REMARK    5  A    between atoms: C9_17  and  C10_18 
ROOT
HETATM    1  C2  UNL     1      91.572 100.050 -42.607  1.00  0.00     0.019 C 
HETATM    2  C3  UNL     1      90.124 100.521 -42.744  1.00  0.00     0.021 C 
HETATM    3  C4  UNL     1      89.573  99.940 -44.023  1.00  0.00    -0.010 C 
HETATM    4  C5  UNL     1      90.375 100.389 -45.215  1.00  0.00     0.009 C 
HETATM    5  C6  UNL     1      91.772  99.888 -45.037  1.00  0.00    -0.010 C 
HETATM    6  C7  UNL     1      91.850  98.412 -44.872  1.00  0.00     0.044 C 
HETATM    7  C8  UNL     1      90.977  97.911 -43.707  1.00  0.00     0.082 C 
HETATM    8  C16 UNL     1      89.583  98.422 -43.995  1.00  0.00     0.044 C 
HETATM    9  C17 UNL     1      91.502  98.545 -42.468  1.00  0.00     0.056 C 
HETATM   10  C18 UNL     1      92.351 100.512 -43.779  1.00  0.00     0.021 C 
ENDROOT
BRANCH   7  11
HETATM   11  O1  UNL     1      91.067  96.559 -43.768  1.00  0.00    -0.264 OA
BRANCH  11  12
HETATM   12  S1  UNL     1      91.274  95.838 -45.222  1.00  0.00     0.270 S 
HETATM   13  O2  UNL     1      92.674  95.902 -45.768  1.00  0.00    -0.198 OA
HETATM   14  O3  UNL     1      90.300  96.329 -46.269  1.00  0.00    -0.198 OA
BRANCH  12  15
HETATM   15  C9  UNL     1      90.890  94.091 -45.015  1.00  0.00     0.209 C 
BRANCH  15  16
HETATM   16  C10 UNL     1      91.824  93.431 -44.106  1.00  0.00    -0.042 A 
HETATM   17  C11 UNL     1      92.550  92.350 -44.566  1.00  0.00     0.010 A 
HETATM   18  C12 UNL     1      93.452  91.662 -43.796  1.00  0.00     0.024 A 
HETATM   19  C13 UNL     1      93.652  92.067 -42.480  1.00  0.00     0.034 A 
HETATM   20 CL1  UNL     1      94.800  91.192 -41.492  1.00  0.00    -0.084 Cl
HETATM   21  C14 UNL     1      92.947  93.139 -41.986  1.00  0.00     0.024 A 
HETATM   22  C15 UNL     1      92.052  93.801 -42.794  1.00  0.00     0.010 A 
ENDBRANCH  15  16
ENDBRANCH  12  15
ENDBRANCH  11  12
ENDBRANCH   7  11
BRANCH   1  23
HETATM   23  C1  UNL     1      92.166 100.582 -41.362  1.00  0.00     0.095 C 
HETATM   24  N1  UNL     1      92.564  99.784 -40.444  1.00  0.00    -0.390 N 
ATOM     25  H12 UNL     1      92.974 100.151 -39.585  1.00  0.00     0.157 HD
ATOM     26  H11 UNL     1      92.474  98.775 -40.558  1.00  0.00     0.157 HD
HETATM   27  N2  UNL     1      92.291 101.985 -41.203  1.00  0.00    -0.087 NA
ENDBRANCH   1  23
TORSDOF 5
ENDMDL
MODEL 4
REMARK VINA RESULT: -6.883008578      2.019      2.884
REMARK  5 active torsions:
REMARK  status: ('A' for Active; 'I' for Inactive)
REMARK    1  A    between atoms: C1_4  and  C2_6 
REMARK    2  A    between atoms: C8_12  and  O1_13 
REMARK    3  A    between atoms: O1_13  and  S1_14 
REMARK    4  A    between atoms: S1_14  and  C9_17 
REMARK    5  A    between atoms: C9_17  and  C10_18 
ROOT
HETATM    1  C2  UNL     1      91.416  98.365 -42.849  1.00  0.00     0.019 C 
HETATM    2  C3  UNL     1      90.094  99.083 -42.573  1.00  0.00     0.021 C 
HETATM    3  C4  UNL     1      89.427  99.339 -43.901  1.00  0.00    -0.010 C 
HETATM    4  C5  UNL     1      90.295 100.184 -44.794  1.00  0.00     0.009 C 
HETATM    5  C6  UNL     1      91.561  99.428 -45.044  1.00  0.00    -0.010 C 
HETATM    6  C7  UNL     1      91.334  98.086 -45.643  1.00  0.00     0.044 C 
HETATM    7  C8  UNL     1      90.385  97.223 -44.791  1.00  0.00     0.082 C 
HETATM    8  C16 UNL     1      89.124  98.042 -44.632  1.00  0.00     0.044 C 
HETATM    9  C17 UNL     1      91.038  97.036 -43.467  1.00  0.00     0.056 C 
HETATM   10  C18 UNL     1      92.264  99.215 -43.715  1.00  0.00     0.021 C 
ENDROOT
BRANCH   7  11
HETATM   11  O1  UNL     1      90.195  96.097 -45.524  1.00  0.00    -0.264 OA
BRANCH  11  12
HETATM   12  S1  UNL     1      91.241  94.851 -45.359  1.00  0.00     0.270 S 
HETATM   13  O2  UNL     1      92.678  95.250 -45.160  1.00  0.00    -0.198 OA
HETATM   14  O3  UNL     1      91.146  93.846 -46.486  1.00  0.00    -0.198 OA
BRANCH  12  15
HETATM   15  C9  UNL     1      90.761  93.937 -43.884  1.00  0.00     0.209 C 
BRANCH  15  16
HETATM   16  C10 UNL     1      91.870  93.158 -43.339  1.00  0.00    -0.042 A 
HETATM   17  C11 UNL     1      92.355  93.475 -42.086  1.00  0.00     0.010 A 
HETATM   18  C12 UNL     1      93.390  92.808 -41.484  1.00  0.00     0.024 A 
HETATM   19  C13 UNL     1      93.990  91.754 -42.165  1.00  0.00     0.034 A 
HETATM   20 CL1  UNL     1      95.313  90.898 -41.403  1.00  0.00    -0.084 Cl
HETATM   21  C14 UNL     1      93.536  91.408 -43.415  1.00  0.00     0.024 A 
HETATM   22  C15 UNL     1      92.493  92.105 -43.982  1.00  0.00     0.010 A 
ENDBRANCH  15  16
ENDBRANCH  12  15
ENDBRANCH  11  12
ENDBRANCH   7  11
BRANCH   1  23
HETATM   23  C1  UNL     1      92.116  98.078 -41.578  1.00  0.00     0.095 C 
HETATM   24  N1  UNL     1      92.557  99.036 -40.853  1.00  0.00    -0.390 N 
ATOM     25  H12 UNL     1      93.040  98.838 -39.977  1.00  0.00     0.157 HD
ATOM     26  H11 UNL     1      92.436 100.006 -41.143  1.00  0.00     0.157 HD
HETATM   27  N2  UNL     1      92.285  96.730 -41.175  1.00  0.00    -0.087 NA
ENDBRANCH   1  23
TORSDOF 5
ENDMDL
MODEL 5
REMARK VINA RESULT: -6.798437192      2.417      3.159
REMARK  5 active torsions:
REMARK  status: ('A' for Active; 'I' for Inactive)
REMARK    1  A    between atoms: C1_4  and  C2_6 
REMARK    2  A    between atoms: C8_12  and  O1_13 
REMARK    3  A    between atoms: O1_13  and  S1_14 
REMARK    4  A    between atoms: S1_14  and  C9_17 
REMARK    5  A    between atoms: C9_17  and  C10_18 
ROOT
HETATM    1  C2  UNL     1      87.923  99.346 -44.047  1.00  0.00     0.019 C 
HETATM    2  C3  UNL     1      88.468 100.240 -45.161  1.00  0.00     0.021 C 
HETATM    3  C4  UNL     1      89.948 100.412 -44.928  1.00  0.00    -0.010 C 
HETATM    4  C5  UNL     1      90.219 101.038 -43.586  1.00  0.00     0.009 C 
HETATM    5  C6  UNL     1      89.684 100.115 -42.538  1.00  0.00    -0.010 C 
HETATM    6  C7  UNL     1      90.261  98.747 -42.610  1.00  0.00     0.044 C 
HETATM    7  C8  UNL     1      90.068  98.107 -43.998  1.00  0.00     0.082 C 
HETATM    8  C16 UNL     1      90.678  99.081 -44.981  1.00  0.00     0.044 C 
HETATM    9  C17 UNL     1      88.603  98.005 -44.229  1.00  0.00     0.056 C 
HETATM   10  C18 UNL     1      88.184  99.982 -42.736  1.00  0.00     0.021 C 
ENDROOT
BRANCH   7  11
HETATM   11  O1  UNL     1      90.744  96.932 -43.930  1.00  0.00    -0.264 OA
BRANCH  11  12
HETATM   12  S1  UNL     1      91.108  96.140 -45.314  1.00  0.00     0.270 S 
HETATM   13  O2  UNL     1      92.557  96.197 -45.714  1.00  0.00    -0.198 OA
HETATM   14  O3  UNL     1      90.243  96.561 -46.481  1.00  0.00    -0.198 OA
BRANCH  12  15
HETATM   15  C9  UNL     1      90.722  94.401 -45.056  1.00  0.00     0.209 C 
BRANCH  15  16
HETATM   16  C10 UNL     1      91.645  93.771 -44.114  1.00  0.00    -0.042 A 
HETATM   17  C11 UNL     1      92.427  92.720 -44.549  1.00  0.00     0.010 A 
HETATM   18  C12 UNL     1      93.323  92.062 -43.748  1.00  0.00     0.024 A 
HETATM   19  C13 UNL     1      93.459  92.467 -42.425  1.00  0.00     0.034 A 
HETATM   20 CL1  UNL     1      94.600  91.631 -41.396  1.00  0.00    -0.084 Cl
HETATM   21  C14 UNL     1      92.697  93.510 -41.953  1.00  0.00     0.024 A 
HETATM   22  C15 UNL     1      91.809  94.143 -42.793  1.00  0.00     0.010 A 
ENDBRANCH  15  16
ENDBRANCH  12  15
ENDBRANCH  11  12
ENDBRANCH   7  11
BRANCH   1  23
HETATM   23  C1  UNL     1      86.471  99.132 -44.228  1.00  0.00     0.095 C 
HETATM   24  N1  UNL     1      85.815  98.417 -43.394  1.00  0.00    -0.390 N 
ATOM     25  H12 UNL     1      84.813  98.270 -43.519  1.00  0.00     0.157 HD
ATOM     26  H11 UNL     1      86.283  97.985 -42.598  1.00  0.00     0.157 HD
HETATM   27  N2  UNL     1      85.819  99.733 -45.334  1.00  0.00    -0.087 NA
ENDBRANCH   1  23
TORSDOF 5
ENDMDL
