MODEL 1
REMARK VINA RESULT: -8.886110617      0.000      0.000
REMARK  5 active torsions:
REMARK  status: ('A' for Active; 'I' for Inactive)
REMARK    1  A    between atoms: C2_2  and  C4_4 
REMARK    2  A    between atoms: C5_5  and  C6_6 
REMARK    3  A    between atoms: C7_7  and  C8_8 
REMARK    4  A    between atoms: C11_11  and  O1_12 
REMARK    5  A    between atoms: C22_24  and  O2_25 
ROOT
HETATM    1  C8  UNL     1      22.294 -19.542 -23.548  1.00  0.00     0.008 C 
HETATM    2  C9  UNL     1      22.088 -18.497 -24.659  1.00  0.00     0.019 C 
HETATM    3  C10 UNL     1      20.949 -18.831 -25.553  1.00  0.00     0.033 C 
HETATM    4  C11 UNL     1      19.618 -18.863 -24.853  1.00  0.00     0.118 C 
HETATM    5  C12 UNL     1      19.919 -18.713 -23.360  1.00  0.00     0.038 C 
HETATM    6  C13 UNL     1      20.935 -19.748 -22.913  1.00  0.00     0.011 C 
HETATM    7  C14 UNL     1      20.947 -19.920 -21.445  1.00  0.00    -0.035 C 
HETATM    8  C15 UNL     1      20.662 -18.685 -20.643  1.00  0.00     0.016 C 
HETATM    9  C16 UNL     1      19.830 -20.911 -21.092  1.00  0.00     0.010 C 
HETATM   10  C17 UNL     1      20.272 -21.955 -20.122  1.00  0.00     0.001 C 
HETATM   11  C18 UNL     1      21.042 -21.425 -18.948  1.00  0.00     0.000 C 
HETATM   12  C19 UNL     1      22.236 -20.679 -19.443  1.00  0.00     0.005 C 
HETATM   13  C20 UNL     1      22.240 -20.522 -20.953  1.00  0.00    -0.004 C 
HETATM   14  C21 UNL     1      23.422 -19.645 -21.304  1.00  0.00     0.038 C 
HETATM   15  C22 UNL     1      23.253 -18.929 -22.599  1.00  0.00     0.131 C 
ENDROOT
BRANCH   1  16
HETATM   16  C7  UNL     1      22.765 -20.752 -24.255  1.00  0.00    -0.014 C 
HETATM   17  C6  UNL     1      22.253 -21.947 -24.228  1.00  0.00    -0.003 C 
BRANCH  17  18
HETATM   18  C5  UNL     1      22.797 -23.081 -24.966  1.00  0.00     0.000 C 
HETATM   19  C4  UNL     1      22.806 -23.143 -26.279  1.00  0.00     0.006 C 
BRANCH  19  20
HETATM   20  C2  UNL     1      23.363 -24.298 -26.945  1.00  0.00    -0.071 C 
HETATM   21  C1  UNL     1      22.776 -24.844 -28.008  1.00  0.00     0.018 C 
HETATM   22  C3  UNL     1      24.628 -24.912 -26.445  1.00  0.00     0.047 C 
ENDBRANCH  19  20
ENDBRANCH  17  18
ENDBRANCH   1  16
BRANCH  15  23
HETATM   23  O2  UNL     1      24.454 -18.671 -23.253  1.00  0.00    -0.394 OA
ATOM     24  H2  UNL     1      25.155 -18.605 -22.615  1.00  0.00     0.210 HD
ENDBRANCH  15  23
BRANCH   4  25
HETATM   25  O1  UNL     1      18.903 -17.701 -25.200  1.00  0.00    -0.396 OA
ATOM     26  H1  UNL     1      18.469 -17.852 -26.031  1.00  0.00     0.210 HD
ENDBRANCH   4  25
TORSDOF 5
ENDMDL
MODEL 2
REMARK VINA RESULT: -6.973254704      2.051      3.890
REMARK  5 active torsions:
REMARK  status: ('A' for Active; 'I' for Inactive)
REMARK    1  A    between atoms: C2_2  and  C4_4 
REMARK    2  A    between atoms: C5_5  and  C6_6 
REMARK    3  A    between atoms: C7_7  and  C8_8 
REMARK    4  A    between atoms: C11_11  and  O1_12 
REMARK    5  A    between atoms: C22_24  and  O2_25 
ROOT
HETATM    1  C8  UNL     1      21.200 -20.735 -22.136  1.00  0.00     0.008 C 
HETATM    2  C9  UNL     1      19.943 -21.545 -21.777  1.00  0.00     0.019 C 
HETATM    3  C10 UNL     1      20.229 -22.658 -20.836  1.00  0.00     0.033 C 
HETATM    4  C11 UNL     1      20.745 -22.203 -19.498  1.00  0.00     0.118 C 
HETATM    5  C12 UNL     1      20.981 -20.695 -19.624  1.00  0.00     0.038 C 
HETATM    6  C13 UNL     1      21.865 -20.392 -20.820  1.00  0.00     0.011 C 
HETATM    7  C14 UNL     1      22.455 -19.038 -20.747  1.00  0.00    -0.035 C 
HETATM    8  C15 UNL     1      21.599 -17.989 -20.100  1.00  0.00     0.016 C 
HETATM    9  C16 UNL     1      23.717 -19.136 -19.880  1.00  0.00     0.010 C 
HETATM   10  C17 UNL     1      24.883 -18.423 -20.479  1.00  0.00     0.001 C 
HETATM   11  C18 UNL     1      24.573 -17.048 -20.993  1.00  0.00     0.000 C 
HETATM   12  C19 UNL     1      23.481 -17.139 -22.006  1.00  0.00     0.005 C 
HETATM   13  C20 UNL     1      22.889 -18.533 -22.101  1.00  0.00    -0.004 C 
HETATM   14  C21 UNL     1      21.719 -18.454 -23.057  1.00  0.00     0.038 C 
HETATM   15  C22 UNL     1      20.707 -19.522 -22.831  1.00  0.00     0.131 C 
ENDROOT
BRANCH   1  16
HETATM   16  C7  UNL     1      22.022 -21.658 -22.948  1.00  0.00    -0.014 C 
HETATM   17  C6  UNL     1      21.616 -22.570 -23.781  1.00  0.00    -0.003 C 
BRANCH  17  18
HETATM   18  C5  UNL     1      22.513 -23.436 -24.537  1.00  0.00     0.000 C 
HETATM   19  C4  UNL     1      23.003 -23.107 -25.712  1.00  0.00     0.006 C 
BRANCH  19  20
HETATM   20  C2  UNL     1      23.888 -24.014 -26.407  1.00  0.00    -0.071 C 
HETATM   21  C1  UNL     1      24.339 -23.752 -27.631  1.00  0.00     0.018 C 
HETATM   22  C3  UNL     1      24.320 -25.285 -25.753  1.00  0.00     0.047 C 
ENDBRANCH  19  20
ENDBRANCH  17  18
ENDBRANCH   1  16
BRANCH  15  23
HETATM   23  O2  UNL     1      20.021 -19.893 -23.984  1.00  0.00    -0.394 OA
ATOM     24  H2  UNL     1      20.608 -20.359 -24.568  1.00  0.00     0.210 HD
ENDBRANCH  15  23
BRANCH   4  25
HETATM   25  O1  UNL     1      19.710 -22.332 -18.553  1.00  0.00    -0.396 OA
ATOM     26  H1  UNL     1      19.036 -21.693 -18.755  1.00  0.00     0.210 HD
ENDBRANCH   4  25
TORSDOF 5
ENDMDL
MODEL 3
REMARK VINA RESULT: -5.867941772      2.272      6.229
REMARK  5 active torsions:
REMARK  status: ('A' for Active; 'I' for Inactive)
REMARK    1  A    between atoms: C2_2  and  C4_4 
REMARK    2  A    between atoms: C5_5  and  C6_6 
REMARK    3  A    between atoms: C7_7  and  C8_8 
REMARK    4  A    between atoms: C11_11  and  O1_12 
REMARK    5  A    between atoms: C22_24  and  O2_25 
ROOT
HETATM    1  C8  UNL     1      21.646 -21.413 -24.256  1.00  0.00     0.008 C 
HETATM    2  C9  UNL     1      20.370 -20.553 -24.205  1.00  0.00     0.019 C 
HETATM    3  C10 UNL     1      20.512 -19.277 -24.952  1.00  0.00     0.033 C 
HETATM    4  C11 UNL     1      20.751 -19.460 -26.425  1.00  0.00     0.118 C 
HETATM    5  C12 UNL     1      20.956 -20.962 -26.640  1.00  0.00     0.038 C 
HETATM    6  C13 UNL     1      22.038 -21.490 -25.716  1.00  0.00     0.011 C 
HETATM    7  C14 UNL     1      22.559 -22.800 -26.159  1.00  0.00    -0.035 C 
HETATM    8  C15 UNL     1      21.562 -23.707 -26.819  1.00  0.00     0.016 C 
HETATM    9  C16 UNL     1      23.637 -22.530 -27.216  1.00  0.00     0.010 C 
HETATM   10  C17 UNL     1      24.872 -23.341 -27.000  1.00  0.00     0.001 C 
HETATM   11  C18 UNL     1      24.618 -24.791 -26.710  1.00  0.00     0.000 C 
HETATM   12  C19 UNL     1      23.740 -24.905 -25.509  1.00  0.00     0.005 C 
HETATM   13  C20 UNL     1      23.224 -23.558 -25.036  1.00  0.00    -0.004 C 
HETATM   14  C21 UNL     1      22.253 -23.827 -23.907  1.00  0.00     0.038 C 
HETATM   15  C22 UNL     1      21.252 -22.740 -23.726  1.00  0.00     0.131 C 
ENDROOT
BRANCH   1  16
HETATM   16  C7  UNL     1      22.636 -20.662 -23.454  1.00  0.00    -0.014 C 
HETATM   17  C6  UNL     1      22.415 -19.717 -22.589  1.00  0.00    -0.003 C 
BRANCH  17  18
HETATM   18  C5  UNL     1      23.468 -19.035 -21.846  1.00  0.00     0.000 C 
HETATM   19  C4  UNL     1      23.366 -17.788 -21.441  1.00  0.00     0.006 C 
BRANCH  19  20
HETATM   20  C2  UNL     1      24.449 -17.174 -20.707  1.00  0.00    -0.071 C 
HETATM   21  C1  UNL     1      25.061 -17.802 -19.705  1.00  0.00     0.018 C 
HETATM   22  C3  UNL     1      24.910 -15.800 -21.064  1.00  0.00     0.047 C 
ENDBRANCH  19  20
ENDBRANCH  17  18
ENDBRANCH   1  16
BRANCH  15  23
HETATM   23  O2  UNL     1      20.808 -22.604 -22.413  1.00  0.00    -0.394 OA
ATOM     24  H2  UNL     1      19.890 -22.840 -22.362  1.00  0.00     0.210 HD
ENDBRANCH  15  23
BRANCH   4  25
HETATM   25  O1  UNL     1      19.560 -19.153 -27.112  1.00  0.00    -0.396 OA
ATOM     26  H1  UNL     1      18.848 -19.637 -26.710  1.00  0.00     0.210 HD
ENDBRANCH   4  25
TORSDOF 5
ENDMDL
