MODEL 1
REMARK VINA RESULT: -6.621890411      0.000      0.000
REMARK  6 active torsions:
REMARK  status: ('A' for Active; 'I' for Inactive)
REMARK    1  A    between atoms: C2_2  and  N1_3 
REMARK    2  A    between atoms: C2_2  and  C3_7 
REMARK       I    between atoms: N2_10  and  C6_11 
REMARK    3  A    between atoms: C6_11  and  C7_13 
REMARK    4  A    between atoms: N3_16  and  C10_17 
REMARK    5  A    between atoms: C12_21  and  C13_22 
REMARK    6  A    between atoms: C13_22  and  N5_23 
ROOT
HETATM    1  C7  UNL     1       7.068  -8.003   7.470  1.00  0.00     0.081 C 
HETATM    2  C8  UNL     1       6.797  -9.467   7.859  1.00  0.00     0.034 C 
HETATM    3  C9  UNL     1       7.653 -10.295   6.921  1.00  0.00     0.125 C 
HETATM    4  N3  UNL     1       7.412  -9.895   5.567  1.00  0.00    -0.361 N 
HETATM    5  C18 UNL     1       6.761  -8.709   5.130  1.00  0.00     0.125 C 
HETATM    6  C19 UNL     1       6.264  -7.812   6.199  1.00  0.00     0.034 C 
ENDROOT
BRANCH   1   7
HETATM    7  C6  UNL     1       6.604  -7.180   8.590  1.00  0.00     0.224 C 
HETATM    8  N2  UNL     1       7.342  -6.974   9.787  1.00  0.00    -0.352 N 
HETATM    9  C5  UNL     1       6.879  -6.161  10.857  1.00  0.00     0.126 C 
HETATM   10  C20 UNL     1       8.620  -7.644   9.894  1.00  0.00     0.126 C 
HETATM   11  C4  UNL     1       7.864  -5.897  11.942  1.00  0.00     0.026 C 
HETATM   12  C3  UNL     1       8.822  -7.003  12.230  1.00  0.00     0.018 C 
HETATM   13  C21 UNL     1       8.692  -8.181  11.298  1.00  0.00     0.026 C 
HETATM   14  O1  UNL     1       5.471  -6.581   8.544  1.00  0.00    -0.273 OA
BRANCH  12  15
HETATM   15  C2  UNL     1       8.634  -7.546  13.636  1.00  0.00     0.183 C 
HETATM   16  C1  UNL     1       8.348  -9.016  13.658  1.00  0.00     0.040 C 
BRANCH  15  17
HETATM   17  N1  UNL     1       7.584  -6.778  14.293  1.00  0.00    -0.075 N 
ATOM     18  H13 UNL     1       6.835  -7.384  14.627  1.00  0.00     0.274 HD
ATOM     19  H12 UNL     1       7.902  -6.406  15.187  1.00  0.00     0.274 HD
ATOM     20  H11 UNL     1       7.222  -6.038  13.691  1.00  0.00     0.274 HD
ENDBRANCH  15  17
ENDBRANCH  12  15
ENDBRANCH   1   7
BRANCH   4  21
HETATM   21  C10 UNL     1       7.881 -10.798   4.538  1.00  0.00     0.146 A 
HETATM   22  N4  UNL     1       7.539 -10.885   3.274  1.00  0.00    -0.345 N 
HETATM   23  C11 UNL     1       8.080 -11.772   2.504  1.00  0.00     0.106 A 
ATOM     24  H4  UNL     1       6.839 -10.247   2.896  1.00  0.00     0.167 HD
HETATM   25  C12 UNL     1       9.018 -12.610   3.055  1.00  0.00     0.029 A 
HETATM   26  S1  UNL     1       9.052 -12.050   4.670  1.00  0.00    -0.056 SA
BRANCH  25  27
HETATM   27  C13 UNL     1       9.796 -13.711   2.419  1.00  0.00     0.320 C 
BRANCH  27  28
HETATM   28  N5  UNL     1       9.167 -14.951   2.757  1.00  0.00     0.093 N 
HETATM   29  C14 UNL     1      10.070 -15.856   3.399  1.00  0.00     0.273 C 
HETATM   30  C15 UNL     1      10.129 -17.117   2.558  1.00  0.00     0.032 C 
HETATM   31  C16 UNL     1       8.889 -17.054   1.683  1.00  0.00     0.032 C 
HETATM   32  C17 UNL     1       8.665 -15.573   1.560  1.00  0.00     0.273 C 
ENDBRANCH  27  28
ENDBRANCH  25  27
ENDBRANCH   4  21
TORSDOF 6
ENDMDL
MODEL 2
REMARK VINA RESULT: -6.438195040      6.332      9.252
REMARK  6 active torsions:
REMARK  status: ('A' for Active; 'I' for Inactive)
REMARK    1  A    between atoms: C2_2  and  N1_3 
REMARK    2  A    between atoms: C2_2  and  C3_7 
REMARK       I    between atoms: N2_10  and  C6_11 
REMARK    3  A    between atoms: C6_11  and  C7_13 
REMARK    4  A    between atoms: N3_16  and  C10_17 
REMARK    5  A    between atoms: C12_21  and  C13_22 
REMARK    6  A    between atoms: C13_22  and  N5_23 
ROOT
HETATM    1  C7  UNL     1      10.404  -9.780   8.090  1.00  0.00     0.081 C 
HETATM    2  C8  UNL     1      11.587  -9.064   7.413  1.00  0.00     0.034 C 
HETATM    3  C9  UNL     1      12.821  -9.825   7.856  1.00  0.00     0.125 C 
HETATM    4  N3  UNL     1      12.827  -9.946   9.284  1.00  0.00    -0.361 N 
HETATM    5  C18 UNL     1      11.733  -9.724  10.164  1.00  0.00     0.125 C 
HETATM    6  C19 UNL     1      10.465  -9.298   9.526  1.00  0.00     0.034 C 
ENDROOT
BRANCH   1   7
HETATM    7  C6  UNL     1       9.196  -9.357   7.378  1.00  0.00     0.224 C 
HETATM    8  N2  UNL     1       8.498 -10.166   6.441  1.00  0.00    -0.352 N 
HETATM    9  C5  UNL     1       7.319  -9.741   5.770  1.00  0.00     0.126 C 
HETATM   10  C20 UNL     1       9.043 -11.480   6.175  1.00  0.00     0.126 C 
HETATM   11  C4  UNL     1       6.612 -10.786   4.981  1.00  0.00     0.026 C 
HETATM   12  C3  UNL     1       7.482 -11.815   4.342  1.00  0.00     0.018 C 
HETATM   13  C21 UNL     1       8.943 -11.678   4.686  1.00  0.00     0.026 C 
HETATM   14  O1  UNL     1       8.688  -8.195   7.571  1.00  0.00    -0.273 OA
BRANCH  12  15
HETATM   15  C2  UNL     1       7.391 -11.755   2.827  1.00  0.00     0.183 C 
HETATM   16  C1  UNL     1       8.656 -12.189   2.151  1.00  0.00     0.040 C 
BRANCH  15  17
HETATM   17  N1  UNL     1       7.003 -10.404   2.440  1.00  0.00    -0.075 N 
ATOM     18  H13 UNL     1       7.798  -9.767   2.475  1.00  0.00     0.274 HD
ATOM     19  H12 UNL     1       6.796 -10.349   1.444  1.00  0.00     0.274 HD
ATOM     20  H11 UNL     1       6.225 -10.057   3.001  1.00  0.00     0.274 HD
ENDBRANCH  15  17
ENDBRANCH  12  15
ENDBRANCH   1   7
BRANCH   4  21
HETATM   21  C10 UNL     1      14.082 -10.337   9.889  1.00  0.00     0.146 A 
HETATM   22  N4  UNL     1      15.286  -9.841   9.726  1.00  0.00    -0.345 N 
HETATM   23  C11 UNL     1      16.295 -10.334  10.367  1.00  0.00     0.106 A 
ATOM     24  H4  UNL     1      15.427  -9.059   9.088  1.00  0.00     0.167 HD
HETATM   25  C12 UNL     1      16.059 -11.387  11.217  1.00  0.00     0.029 A 
HETATM   26  S1  UNL     1      14.372 -11.593  11.028  1.00  0.00    -0.056 SA
BRANCH  25  27
HETATM   27  C13 UNL     1      17.014 -12.147  12.073  1.00  0.00     0.320 C 
BRANCH  27  28
HETATM   28  N5  UNL     1      16.563 -13.503  12.146  1.00  0.00     0.093 N 
HETATM   29  C14 UNL     1      16.934 -14.128  13.378  1.00  0.00     0.273 C 
HETATM   30  C15 UNL     1      17.776 -15.344  13.038  1.00  0.00     0.032 C 
HETATM   31  C16 UNL     1      17.476 -15.621  11.576  1.00  0.00     0.032 C 
HETATM   32  C17 UNL     1      17.131 -14.254  11.059  1.00  0.00     0.273 C 
ENDBRANCH  27  28
ENDBRANCH  25  27
ENDBRANCH   4  21
TORSDOF 6
ENDMDL
MODEL 3
REMARK VINA RESULT: -6.189168980      4.011      5.894
REMARK  6 active torsions:
REMARK  status: ('A' for Active; 'I' for Inactive)
REMARK    1  A    between atoms: C2_2  and  N1_3 
REMARK    2  A    between atoms: C2_2  and  C3_7 
REMARK       I    between atoms: N2_10  and  C6_11 
REMARK    3  A    between atoms: C6_11  and  C7_13 
REMARK    4  A    between atoms: N3_16  and  C10_17 
REMARK    5  A    between atoms: C12_21  and  C13_22 
REMARK    6  A    between atoms: C13_22  and  N5_23 
ROOT
HETATM    1  C7  UNL     1       5.408  -8.045   5.380  1.00  0.00     0.081 C 
HETATM    2  C8  UNL     1       5.737  -7.763   3.903  1.00  0.00     0.034 C 
HETATM    3  C9  UNL     1       5.831  -9.126   3.247  1.00  0.00     0.125 C 
HETATM    4  N3  UNL     1       6.722  -9.962   3.995  1.00  0.00    -0.361 N 
HETATM    5  C18 UNL     1       7.197  -9.737   5.316  1.00  0.00     0.125 C 
HETATM    6  C19 UNL     1       6.733  -8.489   5.967  1.00  0.00     0.034 C 
ENDROOT
BRANCH   1   7
HETATM    7  C6  UNL     1       4.906  -6.789   5.943  1.00  0.00     0.224 C 
HETATM    8  N2  UNL     1       3.534  -6.417   5.967  1.00  0.00    -0.352 N 
HETATM    9  C5  UNL     1       3.066  -5.199   6.530  1.00  0.00     0.126 C 
HETATM   10  C20 UNL     1       2.593  -7.344   5.374  1.00  0.00     0.126 C 
HETATM   11  C4  UNL     1       1.588  -5.067   6.648  1.00  0.00     0.026 C 
HETATM   12  C3  UNL     1       0.791  -5.725   5.573  1.00  0.00     0.018 C 
HETATM   13  C21 UNL     1       1.623  -6.505   4.587  1.00  0.00     0.026 C 
HETATM   14  O1  UNL     1       5.706  -5.932   6.463  1.00  0.00    -0.273 OA
BRANCH  12  15
HETATM   15  C2  UNL     1       0.008  -4.708   4.762  1.00  0.00     0.183 C 
HETATM   16  C1  UNL     1       0.267  -4.812   3.290  1.00  0.00     0.040 C 
BRANCH  15  17
HETATM   17  N1  UNL     1       0.309  -3.377   5.274  1.00  0.00    -0.075 N 
ATOM     18  H13 UNL     1       0.886  -2.850   4.620  1.00  0.00     0.274 HD
ATOM     19  H12 UNL     1      -0.519  -2.782   5.273  1.00  0.00     0.274 HD
ATOM     20  H11 UNL     1       0.737  -3.413   6.200  1.00  0.00     0.274 HD
ENDBRANCH  15  17
ENDBRANCH  12  15
ENDBRANCH   1   7
BRANCH   4  21
HETATM   21  C10 UNL     1       7.186 -11.162   3.332  1.00  0.00     0.146 A 
HETATM   22  N4  UNL     1       6.539 -11.996   2.553  1.00  0.00    -0.345 N 
HETATM   23  C11 UNL     1       7.137 -13.026   2.049  1.00  0.00     0.106 A 
ATOM     24  H4  UNL     1       5.555 -11.831   2.343  1.00  0.00     0.167 HD
HETATM   25  C12 UNL     1       8.463 -13.209   2.357  1.00  0.00     0.029 A 
HETATM   26  S1  UNL     1       8.756 -11.862   3.369  1.00  0.00    -0.056 SA
BRANCH  25  27
HETATM   27  C13 UNL     1       9.396 -14.291   1.928  1.00  0.00     0.320 C 
BRANCH  27  28
HETATM   28  N5  UNL     1       8.902 -15.532   2.442  1.00  0.00     0.093 N 
HETATM   29  C14 UNL     1       9.826 -16.146   3.344  1.00  0.00     0.273 C 
HETATM   30  C15 UNL     1      10.168 -17.515   2.787  1.00  0.00     0.032 C 
HETATM   31  C16 UNL     1       9.061 -17.812   1.792  1.00  0.00     0.032 C 
HETATM   32  C17 UNL     1       8.656 -16.435   1.349  1.00  0.00     0.273 C 
ENDBRANCH  27  28
ENDBRANCH  25  27
ENDBRANCH   4  21
TORSDOF 6
ENDMDL
MODEL 4
REMARK VINA RESULT: -6.183326009      6.390      9.826
REMARK  6 active torsions:
REMARK  status: ('A' for Active; 'I' for Inactive)
REMARK    1  A    between atoms: C2_2  and  N1_3 
REMARK    2  A    between atoms: C2_2  and  C3_7 
REMARK       I    between atoms: N2_10  and  C6_11 
REMARK    3  A    between atoms: C6_11  and  C7_13 
REMARK    4  A    between atoms: N3_16  and  C10_17 
REMARK    5  A    between atoms: C12_21  and  C13_22 
REMARK    6  A    between atoms: C13_22  and  N5_23 
ROOT
HETATM    1  C7  UNL     1      10.317 -10.449   8.340  1.00  0.00     0.081 C 
HETATM    2  C8  UNL     1      11.640  -9.858   7.821  1.00  0.00     0.034 C 
HETATM    3  C9  UNL     1      12.713 -10.831   8.265  1.00  0.00     0.125 C 
HETATM    4  N3  UNL     1      12.587 -11.083   9.669  1.00  0.00    -0.361 N 
HETATM    5  C18 UNL     1      11.467 -10.782  10.493  1.00  0.00     0.125 C 
HETATM    6  C19 UNL     1      10.329 -10.115   9.819  1.00  0.00     0.034 C 
ENDROOT
BRANCH   1   7
HETATM    7  C6  UNL     1       9.242  -9.786   7.596  1.00  0.00     0.224 C 
HETATM    8  N2  UNL     1       8.472 -10.414   6.580  1.00  0.00    -0.352 N 
HETATM    9  C5  UNL     1       7.425  -9.757   5.878  1.00  0.00     0.126 C 
HETATM   10  C20 UNL     1       8.800 -11.787   6.262  1.00  0.00     0.126 C 
HETATM   11  C4  UNL     1       6.597 -10.622   4.993  1.00  0.00     0.026 C 
HETATM   12  C3  UNL     1       7.315 -11.753   4.338  1.00  0.00     0.018 C 
HETATM   13  C21 UNL     1       8.756 -11.889   4.761  1.00  0.00     0.026 C 
HETATM   14  O1  UNL     1       8.930  -8.566   7.834  1.00  0.00    -0.273 OA
BRANCH  12  15
HETATM   15  C2  UNL     1       7.325 -11.602   2.827  1.00  0.00     0.183 C 
HETATM   16  C1  UNL     1       8.642 -11.967   2.214  1.00  0.00     0.040 C 
BRANCH  15  17
HETATM   17  N1  UNL     1       6.931 -10.237   2.496  1.00  0.00    -0.075 N 
ATOM     18  H13 UNL     1       7.325  -9.568   3.157  1.00  0.00     0.274 HD
ATOM     19  H12 UNL     1       7.392  -9.914   1.646  1.00  0.00     0.274 HD
ATOM     20  H11 UNL     1       5.918 -10.139   2.429  1.00  0.00     0.274 HD
ENDBRANCH  15  17
ENDBRANCH  12  15
ENDBRANCH   1   7
BRANCH   4  21
HETATM   21  C10 UNL     1      13.720 -11.710  10.314  1.00  0.00     0.146 A 
HETATM   22  N4  UNL     1      14.241 -12.900  10.131  1.00  0.00    -0.345 N 
HETATM   23  C11 UNL     1      15.270 -13.283  10.814  1.00  0.00     0.106 A 
ATOM     24  H4  UNL     1      13.830 -13.530   9.442  1.00  0.00     0.167 HD
HETATM   25  C12 UNL     1      15.791 -12.403  11.731  1.00  0.00     0.029 A 
HETATM   26  S1  UNL     1      14.743 -11.066  11.537  1.00  0.00    -0.056 SA
BRANCH  25  27
HETATM   27  C13 UNL     1      16.955 -12.568  12.647  1.00  0.00     0.320 C 
BRANCH  27  28
HETATM   28  N5  UNL     1      16.559 -13.433  13.716  1.00  0.00     0.093 N 
HETATM   29  C14 UNL     1      16.794 -12.846  14.999  1.00  0.00     0.273 C 
HETATM   30  C15 UNL     1      17.726 -13.769  15.761  1.00  0.00     0.032 C 
HETATM   31  C16 UNL     1      17.633 -15.097  15.030  1.00  0.00     0.032 C 
HETATM   32  C17 UNL     1      17.298 -14.665  13.631  1.00  0.00     0.273 C 
ENDBRANCH  27  28
ENDBRANCH  25  27
ENDBRANCH   4  21
TORSDOF 6
ENDMDL
MODEL 5
REMARK VINA RESULT: -6.112955203      1.503      2.092
REMARK  6 active torsions:
REMARK  status: ('A' for Active; 'I' for Inactive)
REMARK    1  A    between atoms: C2_2  and  N1_3 
REMARK    2  A    between atoms: C2_2  and  C3_7 
REMARK       I    between atoms: N2_10  and  C6_11 
REMARK    3  A    between atoms: C6_11  and  C7_13 
REMARK    4  A    between atoms: N3_16  and  C10_17 
REMARK    5  A    between atoms: C12_21  and  C13_22 
REMARK    6  A    between atoms: C13_22  and  N5_23 
ROOT
HETATM    1  C7  UNL     1       8.278  -8.931   9.073  1.00  0.00     0.081 C 
HETATM    2  C8  UNL     1       7.099  -8.756   8.098  1.00  0.00     0.034 C 
HETATM    3  C9  UNL     1       7.176  -9.945   7.162  1.00  0.00     0.125 C 
HETATM    4  N3  UNL     1       8.497 -10.049   6.619  1.00  0.00    -0.361 N 
HETATM    5  C18 UNL     1       9.669  -9.400   7.095  1.00  0.00     0.125 C 
HETATM    6  C19 UNL     1       9.484  -8.504   8.261  1.00  0.00     0.034 C 
ENDROOT
BRANCH   1   7
HETATM    7  C6  UNL     1       8.003  -8.062  10.221  1.00  0.00     0.224 C 
HETATM    8  N2  UNL     1       8.560  -8.251  11.515  1.00  0.00    -0.352 N 
HETATM    9  C5  UNL     1       8.291  -7.389  12.613  1.00  0.00     0.126 C 
HETATM   10  C20 UNL     1       9.434  -9.391  11.693  1.00  0.00     0.126 C 
HETATM   11  C4  UNL     1       9.112  -7.620  13.833  1.00  0.00     0.026 C 
HETATM   12  C3  UNL     1       9.496  -9.037  14.097  1.00  0.00     0.018 C 
HETATM   13  C21 UNL     1       9.062  -9.997  13.019  1.00  0.00     0.026 C 
HETATM   14  O1  UNL     1       7.222  -7.052  10.112  1.00  0.00    -0.273 OA
BRANCH  12  15
HETATM   15  C2  UNL     1       8.886  -9.543  15.393  1.00  0.00     0.183 C 
HETATM   16  C1  UNL     1       9.653 -10.683  15.989  1.00  0.00     0.040 C 
BRANCH  15  17
HETATM   17  N1  UNL     1       7.494  -9.895  15.143  1.00  0.00    -0.075 N 
ATOM     18  H13 UNL     1       7.022 -10.175  16.002  1.00  0.00     0.274 HD
ATOM     19  H12 UNL     1       6.938  -9.070  14.916  1.00  0.00     0.274 HD
ATOM     20  H11 UNL     1       7.406 -10.610  14.421  1.00  0.00     0.274 HD
ENDBRANCH  15  17
ENDBRANCH  12  15
ENDBRANCH   1   7
BRANCH   4  21
HETATM   21  C10 UNL     1       8.651 -10.907   5.464  1.00  0.00     0.146 A 
HETATM   22  N4  UNL     1       7.899 -11.023   4.395  1.00  0.00    -0.345 N 
HETATM   23  C11 UNL     1       8.209 -11.859   3.458  1.00  0.00     0.106 A 
ATOM     24  H4  UNL     1       7.062 -10.448   4.303  1.00  0.00     0.167 HD
HETATM   25  C12 UNL     1       9.345 -12.612   3.624  1.00  0.00     0.029 A 
HETATM   26  S1  UNL     1       9.894 -12.052   5.144  1.00  0.00    -0.056 SA
BRANCH  25  27
HETATM   27  C13 UNL     1       9.940 -13.641   2.724  1.00  0.00     0.320 C 
BRANCH  27  28
HETATM   28  N5  UNL     1       9.217 -14.862   2.906  1.00  0.00     0.093 N 
HETATM   29  C14 UNL     1      10.042 -15.902   3.440  1.00  0.00     0.273 C 
HETATM   30  C15 UNL     1      10.020 -17.054   2.454  1.00  0.00     0.032 C 
HETATM   31  C16 UNL     1       8.801 -16.794   1.586  1.00  0.00     0.032 C 
HETATM   32  C17 UNL     1       8.689 -15.297   1.640  1.00  0.00     0.273 C 
ENDBRANCH  27  28
ENDBRANCH  25  27
ENDBRANCH   4  21
TORSDOF 6
ENDMDL
