MODEL 1
REMARK VINA RESULT: -3.575369149      0.000      0.000
REMARK  1 active torsions:
REMARK  status: ('A' for Active; 'I' for Inactive)
REMARK    1  A    between atoms: C2_4  and  N2_6 
ROOT
HETATM    1  C1  UNL     1      22.396  16.797  -7.745  1.00  0.00     0.147 C 
HETATM    2  N1  UNL     1      23.652  16.785  -8.421  1.00  0.00    -0.385 N 
ATOM      3  H1  UNL     1      23.838  16.006  -9.052  1.00  0.00     0.160 HD
HETATM    4  C2  UNL     1      24.564  17.676  -8.298  1.00  0.00     0.068 C 
HETATM    5  C3  UNL     1      24.298  18.812  -7.382  1.00  0.00     0.088 C 
ENDROOT
BRANCH   4   6
HETATM    6  N2  UNL     1      25.805  17.649  -8.976  1.00  0.00    -0.385 N 
HETATM    7  C4  UNL     1      26.244  18.734  -9.853  1.00  0.00     0.147 C 
ATOM      8  H2  UNL     1      26.417  16.843  -8.848  1.00  0.00     0.160 HD
ENDBRANCH   4   6
TORSDOF 1
ENDMDL
MODEL 2
REMARK VINA RESULT: -3.529126651      0.499      3.120
REMARK  1 active torsions:
REMARK  status: ('A' for Active; 'I' for Inactive)
REMARK    1  A    between atoms: C2_4  and  N2_6 
ROOT
HETATM    1  C1  UNL     1      26.101  19.370  -9.596  1.00  0.00     0.147 C 
HETATM    2  N1  UNL     1      25.285  18.207  -9.478  1.00  0.00    -0.385 N 
ATOM      3  H1  UNL     1      25.341  17.517 -10.226  1.00  0.00     0.160 HD
HETATM    4  C2  UNL     1      24.487  17.961  -8.506  1.00  0.00     0.068 C 
HETATM    5  C3  UNL     1      24.404  18.962  -7.414  1.00  0.00     0.088 C 
ENDROOT
BRANCH   4   6
HETATM    6  N2  UNL     1      23.685  16.801  -8.404  1.00  0.00    -0.385 N 
HETATM    7  C4  UNL     1      22.378  16.807  -7.746  1.00  0.00     0.147 C 
ATOM      8  H2  UNL     1      24.029  15.929  -8.805  1.00  0.00     0.160 HD
ENDBRANCH   4   6
TORSDOF 1
ENDMDL
MODEL 3
REMARK VINA RESULT: -3.474186861      1.546      2.570
REMARK  1 active torsions:
REMARK  status: ('A' for Active; 'I' for Inactive)
REMARK    1  A    between atoms: C2_4  and  N2_6 
ROOT
HETATM    1  C1  UNL     1      25.361  20.374  -7.317  1.00  0.00     0.147 C 
HETATM    2  N1  UNL     1      25.515  19.145  -8.023  1.00  0.00    -0.385 N 
ATOM      3  H1  UNL     1      26.339  19.045  -8.617  1.00  0.00     0.160 HD
HETATM    4  C2  UNL     1      24.702  18.156  -7.971  1.00  0.00     0.068 C 
HETATM    5  C3  UNL     1      23.504  18.296  -7.108  1.00  0.00     0.088 C 
ENDROOT
BRANCH   4   6
HETATM    6  N2  UNL     1      24.870  16.944  -8.679  1.00  0.00    -0.385 N 
HETATM    7  C4  UNL     1      26.187  16.441  -9.073  1.00  0.00     0.147 C 
ATOM      8  H2  UNL     1      24.044  16.399  -8.924  1.00  0.00     0.160 HD
ENDBRANCH   4   6
TORSDOF 1
ENDMDL
MODEL 4
REMARK VINA RESULT: -3.460089576      1.279      1.279
REMARK  1 active torsions:
REMARK  status: ('A' for Active; 'I' for Inactive)
REMARK    1  A    between atoms: C2_4  and  N2_6 
ROOT
HETATM    1  C1  UNL     1      22.387  17.848  -6.658  1.00  0.00     0.147 C 
HETATM    2  N1  UNL     1      23.190  17.369  -7.734  1.00  0.00    -0.385 N 
ATOM      3  H1  UNL     1      22.894  16.508  -8.193  1.00  0.00     0.160 HD
HETATM    4  C2  UNL     1      24.255  17.934  -8.169  1.00  0.00     0.068 C 
HETATM    5  C3  UNL     1      24.689  19.187  -7.505  1.00  0.00     0.088 C 
ENDROOT
BRANCH   4   6
HETATM    6  N2  UNL     1      25.041  17.444  -9.238  1.00  0.00    -0.385 N 
HETATM    7  C4  UNL     1      26.204  16.582  -9.026  1.00  0.00     0.147 C 
ATOM      8  H2  UNL     1      24.788  17.702 -10.191  1.00  0.00     0.160 HD
ENDBRANCH   4   6
TORSDOF 1
ENDMDL
MODEL 5
REMARK VINA RESULT: -3.430749378      1.320      3.158
REMARK  1 active torsions:
REMARK  status: ('A' for Active; 'I' for Inactive)
REMARK    1  A    between atoms: C2_4  and  N2_6 
ROOT
HETATM    1  C1  UNL     1      25.458  19.969  -7.431  1.00  0.00     0.147 C 
HETATM    2  N1  UNL     1      24.484  18.952  -7.649  1.00  0.00    -0.385 N 
ATOM      3  H1  UNL     1      23.529  19.143  -7.345  1.00  0.00     0.160 HD
HETATM    4  C2  UNL     1      24.712  17.817  -8.199  1.00  0.00     0.068 C 
HETATM    5  C3  UNL     1      26.098  17.535  -8.644  1.00  0.00     0.088 C 
ENDROOT
BRANCH   4   6
HETATM    6  N2  UNL     1      23.733  16.818  -8.408  1.00  0.00    -0.385 N 
HETATM    7  C4  UNL     1      22.414  16.867  -7.775  1.00  0.00     0.147 C 
ATOM      8  H2  UNL     1      23.953  16.035  -9.022  1.00  0.00     0.160 HD
ENDBRANCH   4   6
TORSDOF 1
ENDMDL
