MODEL 1
REMARK VINA RESULT: -4.875547192      0.000      0.000
REMARK  2 active torsions:
REMARK  status: ('A' for Active; 'I' for Inactive)
REMARK    1  A    between atoms: N1_1  and  C1_5 
REMARK    2  A    between atoms: N2_8  and  C4_9 
ROOT
HETATM    1  C1  UNL     1      27.793  20.318  -8.200  1.00  0.00     0.213 C 
HETATM    2  C2  UNL     1      27.024  20.674  -6.918  1.00  0.00     0.065 C 
HETATM    3  C3  UNL     1      26.629  19.270  -6.472  1.00  0.00     0.275 C 
HETATM    4  N2  UNL     1      26.139  18.684  -7.651  1.00  0.00     0.095 N 
HETATM    5  C8  UNL     1      26.904  19.223  -8.753  1.00  0.00     0.305 C 
ENDROOT
BRANCH   1   6
HETATM    6  N1  UNL     1      29.086  19.747  -7.895  1.00  0.00    -0.073 N 
ATOM      7  H13 UNL     1      29.503  20.181  -7.071  1.00  0.00     0.274 HD
ATOM      8  H12 UNL     1      29.001  18.793  -7.542  1.00  0.00     0.274 HD
ATOM      9  H11 UNL     1      29.711  19.794  -8.700  1.00  0.00     0.274 HD
ENDBRANCH   1   6
BRANCH   4  10
HETATM   10  C4  UNL     1      24.742  18.804  -7.919  1.00  0.00     0.223 C 
HETATM   11  C5  UNL     1      23.798  18.015  -7.058  1.00  0.00     0.036 C 
HETATM   12  C6  UNL     1      24.324  16.794  -7.829  1.00  0.00     0.004 C 
HETATM   13  C7  UNL     1      24.403  17.771  -9.013  1.00  0.00     0.036 C 
ENDBRANCH   4  10
TORSDOF 2
ENDMDL
MODEL 2
REMARK VINA RESULT: -4.761255659      1.397      2.003
REMARK  2 active torsions:
REMARK  status: ('A' for Active; 'I' for Inactive)
REMARK    1  A    between atoms: N1_1  and  C1_5 
REMARK    2  A    between atoms: N2_8  and  C4_9 
ROOT
HETATM    1  C1  UNL     1      26.965  20.698  -7.762  1.00  0.00     0.213 C 
HETATM    2  C2  UNL     1      27.552  19.460  -8.458  1.00  0.00     0.065 C 
HETATM    3  C3  UNL     1      26.297  18.961  -9.167  1.00  0.00     0.275 C 
HETATM    4  N2  UNL     1      25.317  19.016  -8.163  1.00  0.00     0.095 N 
HETATM    5  C8  UNL     1      25.625  20.148  -7.319  1.00  0.00     0.305 C 
ENDROOT
BRANCH   1   6
HETATM    6  N1  UNL     1      26.732  21.769  -8.704  1.00  0.00    -0.073 N 
ATOM      7  H13 UNL     1      26.319  22.584  -8.250  1.00  0.00     0.274 HD
ATOM      8  H12 UNL     1      27.608  22.191  -9.016  1.00  0.00     0.274 HD
ATOM      9  H11 UNL     1      26.167  21.453  -9.492  1.00  0.00     0.274 HD
ENDBRANCH   1   6
BRANCH   4  10
HETATM   10  C4  UNL     1      25.119  17.850  -7.366  1.00  0.00     0.223 C 
HETATM   11  C5  UNL     1      24.777  16.571  -8.076  1.00  0.00     0.036 C 
HETATM   12  C6  UNL     1      23.404  17.221  -8.309  1.00  0.00     0.004 C 
HETATM   13  C7  UNL     1      23.640  17.850  -6.925  1.00  0.00     0.036 C 
ENDBRANCH   4  10
TORSDOF 2
ENDMDL
MODEL 3
REMARK VINA RESULT: -4.694112565      1.634      3.947
REMARK  2 active torsions:
REMARK  status: ('A' for Active; 'I' for Inactive)
REMARK    1  A    between atoms: N1_1  and  C1_5 
REMARK    2  A    between atoms: N2_8  and  C4_9 
ROOT
HETATM    1  C1  UNL     1      24.731  16.912  -8.025  1.00  0.00     0.213 C 
HETATM    2  C2  UNL     1      24.809  17.893  -6.845  1.00  0.00     0.065 C 
HETATM    3  C3  UNL     1      24.636  19.204  -7.606  1.00  0.00     0.275 C 
HETATM    4  N2  UNL     1      25.521  19.066  -8.688  1.00  0.00     0.095 N 
HETATM    5  C8  UNL     1      25.536  17.670  -9.060  1.00  0.00     0.305 C 
ENDROOT
BRANCH   1   6
HETATM    6  N1  UNL     1      23.374  16.779  -8.508  1.00  0.00    -0.073 N 
ATOM      7  H13 UNL     1      22.842  16.110  -7.951  1.00  0.00     0.274 HD
ATOM      8  H12 UNL     1      22.824  17.616  -8.315  1.00  0.00     0.274 HD
ATOM      9  H11 UNL     1      23.356  16.538  -9.499  1.00  0.00     0.274 HD
ENDBRANCH   1   6
BRANCH   4  10
HETATM   10  C4  UNL     1      26.855  19.543  -8.518  1.00  0.00     0.223 C 
HETATM   11  C5  UNL     1      27.075  21.028  -8.561  1.00  0.00     0.036 C 
HETATM   12  C6  UNL     1      26.813  20.890 -10.069  1.00  0.00     0.004 C 
HETATM   13  C7  UNL     1      27.519  19.533  -9.910  1.00  0.00     0.036 C 
ENDBRANCH   4  10
TORSDOF 2
ENDMDL
MODEL 4
REMARK VINA RESULT: -4.678789305      1.526      2.296
REMARK  2 active torsions:
REMARK  status: ('A' for Active; 'I' for Inactive)
REMARK    1  A    between atoms: N1_1  and  C1_5 
REMARK    2  A    between atoms: N2_8  and  C4_9 
ROOT
HETATM    1  C1  UNL     1      27.278  20.306  -8.905  1.00  0.00     0.213 C 
HETATM    2  C2  UNL     1      27.194  19.214  -9.982  1.00  0.00     0.065 C 
HETATM    3  C3  UNL     1      25.678  19.069 -10.065  1.00  0.00     0.275 C 
HETATM    4  N2  UNL     1      25.288  18.999  -8.717  1.00  0.00     0.095 N 
HETATM    5  C8  UNL     1      26.188  19.840  -7.962  1.00  0.00     0.305 C 
ENDROOT
BRANCH   1   6
HETATM    6  N1  UNL     1      26.902  21.598  -9.436  1.00  0.00    -0.073 N 
ATOM      7  H13 UNL     1      27.720  22.163  -9.663  1.00  0.00     0.274 HD
ATOM      8  H12 UNL     1      26.503  21.516 -10.372  1.00  0.00     0.274 HD
ATOM      9  H11 UNL     1      26.272  22.090  -8.802  1.00  0.00     0.274 HD
ENDBRANCH   1   6
BRANCH   4  10
HETATM   10  C4  UNL     1      25.204  17.707  -8.118  1.00  0.00     0.223 C 
HETATM   11  C5  UNL     1      23.889  16.987  -8.195  1.00  0.00     0.036 C 
HETATM   12  C6  UNL     1      23.414  18.018  -7.159  1.00  0.00     0.004 C 
HETATM   13  C7  UNL     1      24.855  17.920  -6.631  1.00  0.00     0.036 C 
ENDBRANCH   4  10
TORSDOF 2
ENDMDL
MODEL 5
REMARK VINA RESULT: -4.574088352      1.365      3.926
REMARK  2 active torsions:
REMARK  status: ('A' for Active; 'I' for Inactive)
REMARK    1  A    between atoms: N1_1  and  C1_5 
REMARK    2  A    between atoms: N2_8  and  C4_9 
ROOT
HETATM    1  C1  UNL     1      24.700  17.055  -8.040  1.00  0.00     0.213 C 
HETATM    2  C2  UNL     1      24.078  17.905  -6.922  1.00  0.00     0.065 C 
HETATM    3  C3  UNL     1      24.509  19.289  -7.398  1.00  0.00     0.275 C 
HETATM    4  N2  UNL     1      25.868  19.112  -7.709  1.00  0.00     0.095 N 
HETATM    5  C8  UNL     1      26.025  17.769  -8.216  1.00  0.00     0.305 C 
ENDROOT
BRANCH   1   6
HETATM    6  N1  UNL     1      23.949  17.174  -9.270  1.00  0.00    -0.073 N 
ATOM      7  H13 UNL     1      24.478  16.821 -10.068  1.00  0.00     0.274 HD
ATOM      8  H12 UNL     1      23.168  16.518  -9.297  1.00  0.00     0.274 HD
ATOM      9  H11 UNL     1      23.638  18.134  -9.423  1.00  0.00     0.274 HD
ENDBRANCH   1   6
BRANCH   4  10
HETATM   10  C4  UNL     1      26.821  19.362  -6.677  1.00  0.00     0.223 C 
HETATM   11  C5  UNL     1      26.895  20.754  -6.119  1.00  0.00     0.036 C 
HETATM   12  C6  UNL     1      27.548  21.117  -7.462  1.00  0.00     0.004 C 
HETATM   13  C7  UNL     1      28.156  19.707  -7.369  1.00  0.00     0.036 C 
ENDBRANCH   4  10
TORSDOF 2
ENDMDL
