MODEL 1
REMARK VINA RESULT: -7.259632261      0.000      0.000
REMARK  4 active torsions:
REMARK  status: ('A' for Active; 'I' for Inactive)
REMARK    1  A    between atoms: C2_2  and  N1_3 
REMARK       I    between atoms: N1_3  and  C3_5 
REMARK    2  A    between atoms: C3_5  and  C4_7 
REMARK    3  A    between atoms: C5_8  and  C6_9 
REMARK    4  A    between atoms: C6_9  and  C7_10 
ROOT
HETATM    1  C4  UNL     1      -4.152 166.092 399.476  1.00  0.00     0.087 C 
HETATM    2  C5  UNL     1      -4.578 167.560 399.427  1.00  0.00    -0.000 C 
HETATM    3  C10 UNL     1      -3.464 168.186 398.682  1.00  0.00     0.011 C 
HETATM    4  C11 UNL     1      -2.218 167.514 399.266  1.00  0.00    -0.000 A 
HETATM    5  C12 UNL     1      -2.686 166.112 399.672  1.00  0.00     0.012 A 
HETATM    6  C13 UNL     1      -1.716 166.294 398.578  1.00  0.00    -0.039 A 
HETATM    7  C14 UNL     1      -2.101 166.142 397.130  1.00  0.00     0.015 C 
HETATM    8  C15 UNL     1      -0.288 165.900 398.892  1.00  0.00     0.015 C 
ENDROOT
BRANCH   1   9
HETATM    9  C3  UNL     1      -4.827 165.507 400.702  1.00  0.00     0.226 C 
HETATM   10  N1  UNL     1      -4.092 165.326 401.868  1.00  0.00    -0.338 N 
ATOM     11  H1  UNL     1      -3.115 165.614 401.805  1.00  0.00     0.168 HD
HETATM   12  O1  UNL     1      -6.031 165.192 400.659  1.00  0.00    -0.273 OA
BRANCH  10  13
HETATM   13  C2  UNL     1      -4.470 164.820 403.104  1.00  0.00     0.081 C 
HETATM   14  C1  UNL     1      -4.073 165.276 404.264  1.00  0.00     0.030 C 
ENDBRANCH  10  13
ENDBRANCH   1   9
BRANCH   2  15
HETATM   15  C6  UNL     1      -5.892 167.701 398.767  1.00  0.00     0.009 C 
BRANCH  15  16
HETATM   16  C7  UNL     1      -6.905 168.461 399.542  1.00  0.00    -0.022 C 
HETATM   17  C8  UNL     1      -7.182 169.866 399.185  1.00  0.00     0.009 C 
HETATM   18  C9  UNL     1      -8.252 167.695 399.566  1.00  0.00     0.009 C 
ENDBRANCH  15  16
ENDBRANCH   2  15
TORSDOF 4
ENDMDL
MODEL 2
REMARK VINA RESULT: -6.917509673      1.692      1.997
REMARK  4 active torsions:
REMARK  status: ('A' for Active; 'I' for Inactive)
REMARK    1  A    between atoms: C2_2  and  N1_3 
REMARK       I    between atoms: N1_3  and  C3_5 
REMARK    2  A    between atoms: C3_5  and  C4_7 
REMARK    3  A    between atoms: C5_8  and  C6_9 
REMARK    4  A    between atoms: C6_9  and  C7_10 
ROOT
HETATM    1  C4  UNL     1      -4.338 166.481 399.107  1.00  0.00     0.087 C 
HETATM    2  C5  UNL     1      -4.555 167.985 399.274  1.00  0.00    -0.000 C 
HETATM    3  C10 UNL     1      -3.241 168.539 398.880  1.00  0.00     0.011 C 
HETATM    4  C11 UNL     1      -2.239 167.583 399.533  1.00  0.00    -0.000 A 
HETATM    5  C12 UNL     1      -2.954 166.228 399.562  1.00  0.00     0.012 A 
HETATM    6  C13 UNL     1      -1.764 166.432 398.719  1.00  0.00    -0.039 A 
HETATM    7  C14 UNL     1      -1.858 166.593 397.224  1.00  0.00     0.015 C 
HETATM    8  C15 UNL     1      -0.493 165.764 399.198  1.00  0.00     0.015 C 
ENDROOT
BRANCH   1   9
HETATM    9  C3  UNL     1      -5.321 165.815 400.050  1.00  0.00     0.226 C 
HETATM   10  N1  UNL     1      -6.643 165.643 399.653  1.00  0.00    -0.338 N 
ATOM     11  H1  UNL     1      -6.856 165.993 398.719  1.00  0.00     0.168 HD
HETATM   12  O1  UNL     1      -4.943 165.426 401.171  1.00  0.00    -0.273 OA
BRANCH  10  13
HETATM   13  C2  UNL     1      -7.719 165.072 400.319  1.00  0.00     0.081 C 
HETATM   14  C1  UNL     1      -8.616 165.726 401.012  1.00  0.00     0.030 C 
ENDBRANCH  10  13
ENDBRANCH   1   9
BRANCH   2  15
HETATM   15  C6  UNL     1      -5.676 168.449 398.430  1.00  0.00     0.009 C 
BRANCH  15  16
HETATM   16  C7  UNL     1      -6.802 169.073 399.170  1.00  0.00    -0.022 C 
HETATM   17  C8  UNL     1      -6.988 170.536 399.099  1.00  0.00     0.009 C 
HETATM   18  C9  UNL     1      -8.142 168.398 398.784  1.00  0.00     0.009 C 
ENDBRANCH  15  16
ENDBRANCH   2  15
TORSDOF 4
ENDMDL
MODEL 3
REMARK VINA RESULT: -6.500035005      1.082      4.174
REMARK  4 active torsions:
REMARK  status: ('A' for Active; 'I' for Inactive)
REMARK    1  A    between atoms: C2_2  and  N1_3 
REMARK       I    between atoms: N1_3  and  C3_5 
REMARK    2  A    between atoms: C3_5  and  C4_7 
REMARK    3  A    between atoms: C5_8  and  C6_9 
REMARK    4  A    between atoms: C6_9  and  C7_10 
ROOT
HETATM    1  C4  UNL     1      -5.023 166.591 399.594  1.00  0.00     0.087 C 
HETATM    2  C5  UNL     1      -4.976 165.724 398.336  1.00  0.00    -0.000 C 
HETATM    3  C10 UNL     1      -5.424 166.666 397.287  1.00  0.00     0.011 C 
HETATM    4  C11 UNL     1      -6.579 167.420 397.952  1.00  0.00    -0.000 A 
HETATM    5  C12 UNL     1      -6.223 167.443 399.443  1.00  0.00     0.012 A 
HETATM    6  C13 UNL     1      -6.250 168.688 398.656  1.00  0.00    -0.039 A 
HETATM    7  C14 UNL     1      -4.990 169.385 398.214  1.00  0.00     0.015 C 
HETATM    8  C15 UNL     1      -7.416 169.615 398.928  1.00  0.00     0.015 C 
ENDROOT
BRANCH   1   9
HETATM    9  C3  UNL     1      -5.217 165.630 400.752  1.00  0.00     0.226 C 
HETATM   10  N1  UNL     1      -4.227 165.518 401.722  1.00  0.00    -0.338 N 
ATOM     11  H1  UNL     1      -3.414 166.117 401.573  1.00  0.00     0.168 HD
HETATM   12  O1  UNL     1      -6.256 164.948 400.828  1.00  0.00    -0.273 OA
BRANCH  10  13
HETATM   13  C2  UNL     1      -4.163 164.726 402.860  1.00  0.00     0.081 C 
HETATM   14  C1  UNL     1      -4.098 165.169 404.090  1.00  0.00     0.030 C 
ENDBRANCH  10  13
ENDBRANCH   1   9
BRANCH   2  15
HETATM   15  C6  UNL     1      -3.614 165.192 398.119  1.00  0.00     0.009 C 
BRANCH  15  16
HETATM   16  C7  UNL     1      -2.520 166.182 398.283  1.00  0.00    -0.022 C 
HETATM   17  C8  UNL     1      -1.560 166.018 399.392  1.00  0.00     0.009 C 
HETATM   18  C9  UNL     1      -1.716 166.321 396.966  1.00  0.00     0.009 C 
ENDBRANCH  15  16
ENDBRANCH   2  15
TORSDOF 4
ENDMDL
MODEL 4
REMARK VINA RESULT: -6.328792361      0.812      1.305
REMARK  4 active torsions:
REMARK  status: ('A' for Active; 'I' for Inactive)
REMARK    1  A    between atoms: C2_2  and  N1_3 
REMARK       I    between atoms: N1_3  and  C3_5 
REMARK    2  A    between atoms: C3_5  and  C4_7 
REMARK    3  A    between atoms: C5_8  and  C6_9 
REMARK    4  A    between atoms: C6_9  and  C7_10 
ROOT
HETATM    1  C4  UNL     1      -4.118 166.141 399.735  1.00  0.00     0.087 C 
HETATM    2  C5  UNL     1      -4.427 167.633 399.856  1.00  0.00    -0.000 C 
HETATM    3  C10 UNL     1      -3.331 168.246 399.074  1.00  0.00     0.011 C 
HETATM    4  C11 UNL     1      -2.100 167.432 399.484  1.00  0.00    -0.000 A 
HETATM    5  C12 UNL     1      -2.644 166.035 399.802  1.00  0.00     0.012 A 
HETATM    6  C13 UNL     1      -1.755 166.251 398.648  1.00  0.00    -0.039 A 
HETATM    7  C14 UNL     1      -2.267 166.267 397.232  1.00  0.00     0.015 C 
HETATM    8  C15 UNL     1      -0.343 165.726 398.797  1.00  0.00     0.015 C 
ENDROOT
BRANCH   1   9
HETATM    9  C3  UNL     1      -4.737 165.491 400.958  1.00  0.00     0.226 C 
HETATM   10  N1  UNL     1      -4.001 165.406 402.135  1.00  0.00    -0.338 N 
ATOM     11  H1  UNL     1      -3.063 165.803 402.080  1.00  0.00     0.168 HD
HETATM   12  O1  UNL     1      -5.897 165.040 400.904  1.00  0.00    -0.273 OA
BRANCH  10  13
HETATM   13  C2  UNL     1      -4.333 164.869 403.371  1.00  0.00     0.081 C 
HETATM   14  C1  UNL     1      -3.951 165.339 404.530  1.00  0.00     0.030 C 
ENDBRANCH  10  13
ENDBRANCH   1   9
BRANCH   2  15
HETATM   15  C6  UNL     1      -5.775 167.932 399.330  1.00  0.00     0.009 C 
BRANCH  15  16
HETATM   16  C7  UNL     1      -6.365 166.872 398.475  1.00  0.00    -0.022 C 
HETATM   17  C8  UNL     1      -7.822 166.635 398.522  1.00  0.00     0.009 C 
HETATM   18  C9  UNL     1      -5.959 167.083 396.995  1.00  0.00     0.009 C 
ENDBRANCH  15  16
ENDBRANCH   2  15
TORSDOF 4
ENDMDL
MODEL 5
REMARK VINA RESULT: -6.272106194      1.972      4.033
REMARK  4 active torsions:
REMARK  status: ('A' for Active; 'I' for Inactive)
REMARK    1  A    between atoms: C2_2  and  N1_3 
REMARK       I    between atoms: N1_3  and  C3_5 
REMARK    2  A    between atoms: C3_5  and  C4_7 
REMARK    3  A    between atoms: C5_8  and  C6_9 
REMARK    4  A    between atoms: C6_9  and  C7_10 
ROOT
HETATM    1  C4  UNL     1      -2.942 167.552 399.017  1.00  0.00     0.087 C 
HETATM    2  C5  UNL     1      -3.665 166.250 399.362  1.00  0.00    -0.000 C 
HETATM    3  C10 UNL     1      -2.696 165.225 398.917  1.00  0.00     0.011 C 
HETATM    4  C11 UNL     1      -2.181 165.772 397.583  1.00  0.00    -0.000 A 
HETATM    5  C12 UNL     1      -2.257 167.296 397.731  1.00  0.00     0.012 A 
HETATM    6  C13 UNL     1      -0.956 166.614 397.619  1.00  0.00    -0.039 A 
HETATM    7  C14 UNL     1      -0.048 166.416 398.804  1.00  0.00     0.015 C 
HETATM    8  C15 UNL     1      -0.234 166.786 396.299  1.00  0.00     0.015 C 
ENDROOT
BRANCH   1   9
HETATM    9  C3  UNL     1      -4.031 168.590 398.822  1.00  0.00     0.226 C 
HETATM   10  N1  UNL     1      -5.360 168.233 399.025  1.00  0.00    -0.338 N 
ATOM     11  H1  UNL     1      -5.504 167.262 399.301  1.00  0.00     0.168 HD
HETATM   12  O1  UNL     1      -3.733 169.750 398.483  1.00  0.00    -0.273 OA
BRANCH  10  13
HETATM   13  C2  UNL     1      -6.523 168.984 398.914  1.00  0.00     0.081 C 
HETATM   14  C1  UNL     1      -7.487 169.024 399.798  1.00  0.00     0.030 C 
ENDBRANCH  10  13
ENDBRANCH   1   9
BRANCH   2  15
HETATM   15  C6  UNL     1      -3.976 166.192 400.805  1.00  0.00     0.009 C 
BRANCH  15  16
HETATM   16  C7  UNL     1      -4.802 165.032 401.223  1.00  0.00    -0.022 C 
HETATM   17  C8  UNL     1      -4.776 164.597 402.634  1.00  0.00     0.009 C 
HETATM   18  C9  UNL     1      -6.281 165.246 400.813  1.00  0.00     0.009 C 
ENDBRANCH  15  16
ENDBRANCH   2  15
TORSDOF 4
ENDMDL
