MODEL 1
REMARK VINA RESULT: -7.020740851      0.000      0.000
REMARK  3 active torsions:
REMARK  status: ('A' for Active; 'I' for Inactive)
REMARK    1  A    between atoms: C2_2  and  C3_3 
REMARK    2  A    between atoms: C3_3  and  C4_4 
REMARK    3  A    between atoms: C4_4  and  C5_5 
REMARK       I    between atoms: N2_9  and  C7_11 
REMARK       I    between atoms: C7_11  and  N3_13 
ROOT
HETATM    1  C5  UNL     1      -5.133 166.282 398.689  1.00  0.00     0.022 C 
HETATM    2  N1  UNL     1      -4.273 165.911 397.757  1.00  0.00    -0.350 N 
ATOM      3  H1  UNL     1      -4.587 165.454 396.901  1.00  0.00     0.166 HD
HETATM    4  C6  UNL     1      -2.909 166.166 397.987  1.00  0.00     0.085 C 
HETATM    5  N2  UNL     1      -1.971 165.275 397.820  1.00  0.00    -0.298 N 
ATOM      6  H2  UNL     1      -2.194 164.330 397.506  1.00  0.00     0.172 HD
HETATM    7  C7  UNL     1      -0.618 165.662 398.088  1.00  0.00     0.321 C 
HETATM    8  O1  UNL     1      -0.105 165.528 399.227  1.00  0.00    -0.247 OA
HETATM    9  N3  UNL     1       0.159 166.210 397.039  1.00  0.00    -0.347 N 
ATOM     10  H3  UNL     1      -0.236 166.328 396.106  1.00  0.00     0.163 HD
HETATM   11  C8  UNL     1       1.525 166.599 397.315  1.00  0.00     0.151 C 
HETATM   12  C9  UNL     1      -2.583 167.538 398.441  1.00  0.00     0.084 C 
HETATM   13  C10 UNL     1      -3.452 167.916 399.584  1.00  0.00     0.028 C 
HETATM   14  C11 UNL     1      -2.563 168.116 400.795  1.00  0.00     0.014 C 
HETATM   15  C12 UNL     1      -4.555 166.903 399.891  1.00  0.00     0.219 C 
HETATM   16  F1  UNL     1      -5.544 167.571 400.633  1.00  0.00    -0.243 F 
ENDROOT
BRANCH   1  17
HETATM   17  C4  UNL     1      -6.572 166.019 398.468  1.00  0.00     0.055 C 
BRANCH  17  18
HETATM   18  C3  UNL     1      -7.408 167.098 397.932  1.00  0.00     0.005 C 
BRANCH  18  19
HETATM   19  C2  UNL     1      -8.258 167.778 398.955  1.00  0.00    -0.004 C 
HETATM   20  C1  UNL     1      -7.676 169.190 399.174  1.00  0.00     0.005 C 
ENDBRANCH  18  19
ENDBRANCH  17  18
ENDBRANCH   1  17
TORSDOF 3
ENDMDL
MODEL 2
REMARK VINA RESULT: -6.723479317      0.969      1.164
REMARK  3 active torsions:
REMARK  status: ('A' for Active; 'I' for Inactive)
REMARK    1  A    between atoms: C2_2  and  C3_3 
REMARK    2  A    between atoms: C3_3  and  C4_4 
REMARK    3  A    between atoms: C4_4  and  C5_5 
REMARK       I    between atoms: N2_9  and  C7_11 
REMARK       I    between atoms: C7_11  and  N3_13 
ROOT
HETATM    1  C5  UNL     1      -5.289 166.709 398.584  1.00  0.00     0.022 C 
HETATM    2  N1  UNL     1      -4.447 166.152 397.731  1.00  0.00    -0.350 N 
ATOM      3  H1  UNL     1      -4.784 165.636 396.918  1.00  0.00     0.166 HD
HETATM    4  C6  UNL     1      -3.071 166.295 397.983  1.00  0.00     0.085 C 
HETATM    5  N2  UNL     1      -2.225 165.302 397.949  1.00  0.00    -0.298 N 
ATOM      6  H2  UNL     1      -2.536 164.355 397.732  1.00  0.00     0.172 HD
HETATM    7  C7  UNL     1      -0.847 165.580 398.224  1.00  0.00     0.321 C 
HETATM    8  O1  UNL     1      -0.381 165.524 399.389  1.00  0.00    -0.247 OA
HETATM    9  N3  UNL     1       0.010 165.928 397.151  1.00  0.00    -0.347 N 
ATOM     10  H3  UNL     1      -0.347 165.979 396.197  1.00  0.00     0.163 HD
HETATM   11  C8  UNL     1       1.400 166.208 397.435  1.00  0.00     0.151 C 
HETATM   12  C9  UNL     1      -2.618 167.670 398.297  1.00  0.00     0.084 C 
HETATM   13  C10 UNL     1      -3.473 168.258 399.359  1.00  0.00     0.028 C 
HETATM   14  C11 UNL     1      -2.600 168.503 400.573  1.00  0.00     0.014 C 
HETATM   15  C12 UNL     1      -4.682 167.401 399.732  1.00  0.00     0.219 C 
HETATM   16  F1  UNL     1      -5.616 168.242 400.360  1.00  0.00    -0.243 F 
ENDROOT
BRANCH   1  17
HETATM   17  C4  UNL     1      -6.741 166.567 398.340  1.00  0.00     0.055 C 
BRANCH  17  18
HETATM   18  C3  UNL     1      -7.453 165.451 398.968  1.00  0.00     0.005 C 
BRANCH  18  19
HETATM   19  C2  UNL     1      -7.645 165.600 400.442  1.00  0.00    -0.004 C 
HETATM   20  C1  UNL     1      -8.696 166.707 400.661  1.00  0.00     0.005 C 
ENDBRANCH  18  19
ENDBRANCH  17  18
ENDBRANCH   1  17
TORSDOF 3
ENDMDL
MODEL 3
REMARK VINA RESULT: -6.286960883      2.589      6.243
REMARK  3 active torsions:
REMARK  status: ('A' for Active; 'I' for Inactive)
REMARK    1  A    between atoms: C2_2  and  C3_3 
REMARK    2  A    between atoms: C3_3  and  C4_4 
REMARK    3  A    between atoms: C4_4  and  C5_5 
REMARK       I    between atoms: N2_9  and  C7_11 
REMARK       I    between atoms: C7_11  and  N3_13 
ROOT
HETATM    1  C5  UNL     1      -1.817 166.270 398.443  1.00  0.00     0.022 C 
HETATM    2  N1  UNL     1      -2.885 165.509 398.278  1.00  0.00    -0.350 N 
ATOM      3  H1  UNL     1      -2.856 164.681 397.684  1.00  0.00     0.166 HD
HETATM    4  C6  UNL     1      -4.063 165.882 398.951  1.00  0.00     0.085 C 
HETATM    5  N2  UNL     1      -5.231 165.947 398.374  1.00  0.00    -0.298 N 
ATOM      6  H2  UNL     1      -5.342 165.724 397.385  1.00  0.00     0.172 HD
HETATM    7  C7  UNL     1      -6.355 166.340 399.171  1.00  0.00     0.321 C 
HETATM    8  O1  UNL     1      -6.696 167.543 399.286  1.00  0.00    -0.247 OA
HETATM    9  N3  UNL     1      -7.100 165.341 399.846  1.00  0.00    -0.347 N 
ATOM     10  H3  UNL     1      -6.842 164.357 399.766  1.00  0.00     0.163 HD
HETATM   11  C8  UNL     1      -8.233 165.743 400.649  1.00  0.00     0.151 C 
HETATM   12  C9  UNL     1      -3.904 166.205 400.387  1.00  0.00     0.084 C 
HETATM   13  C10 UNL     1      -2.792 167.171 400.572  1.00  0.00     0.028 C 
HETATM   14  C11 UNL     1      -3.381 168.454 401.125  1.00  0.00     0.014 C 
HETATM   15  C12 UNL     1      -1.992 167.452 399.301  1.00  0.00     0.219 C 
HETATM   16  F1  UNL     1      -0.747 167.974 399.694  1.00  0.00    -0.243 F 
ENDROOT
BRANCH   1  17
HETATM   17  C4  UNL     1      -0.569 165.898 397.742  1.00  0.00     0.055 C 
BRANCH  17  18
HETATM   18  C3  UNL     1       0.603 165.531 398.543  1.00  0.00     0.005 C 
BRANCH  18  19
HETATM   19  C2  UNL     1       1.910 165.781 397.863  1.00  0.00    -0.004 C 
HETATM   20  C1  UNL     1       2.661 164.435 397.795  1.00  0.00     0.005 C 
ENDBRANCH  18  19
ENDBRANCH  17  18
ENDBRANCH   1  17
TORSDOF 3
ENDMDL
MODEL 4
REMARK VINA RESULT: -5.763390491      2.934      6.287
REMARK  3 active torsions:
REMARK  status: ('A' for Active; 'I' for Inactive)
REMARK    1  A    between atoms: C2_2  and  C3_3 
REMARK    2  A    between atoms: C3_3  and  C4_4 
REMARK    3  A    between atoms: C4_4  and  C5_5 
REMARK       I    between atoms: N2_9  and  C7_11 
REMARK       I    between atoms: C7_11  and  N3_13 
ROOT
HETATM    1  C5  UNL     1      -2.682 166.378 399.240  1.00  0.00     0.022 C 
HETATM    2  N1  UNL     1      -3.506 165.679 400.000  1.00  0.00    -0.350 N 
ATOM      3  H1  UNL     1      -3.169 164.900 400.566  1.00  0.00     0.166 HD
HETATM    4  C6  UNL     1      -4.864 166.045 400.001  1.00  0.00     0.085 C 
HETATM    5  N2  UNL     1      -5.840 165.190 399.859  1.00  0.00    -0.298 N 
ATOM      6  H2  UNL     1      -5.653 164.195 399.738  1.00  0.00     0.172 HD
HETATM    7  C7  UNL     1      -7.182 165.691 399.878  1.00  0.00     0.321 C 
HETATM    8  O1  UNL     1      -7.768 166.055 398.828  1.00  0.00    -0.247 OA
HETATM    9  N3  UNL     1      -7.864 165.777 401.117  1.00  0.00    -0.347 N 
ATOM     10  H3  UNL     1      -7.409 165.487 401.982  1.00  0.00     0.163 HD
HETATM   11  C8  UNL     1      -9.219 166.283 401.131  1.00  0.00     0.151 C 
HETATM   12  C9  UNL     1      -5.137 167.489 400.178  1.00  0.00     0.084 C 
HETATM   13  C10 UNL     1      -4.317 168.283 399.228  1.00  0.00     0.028 C 
HETATM   14  C11 UNL     1      -5.262 168.992 398.279  1.00  0.00     0.014 C 
HETATM   15  C12 UNL     1      -3.293 167.458 398.449  1.00  0.00     0.219 C 
HETATM   16  F1  UNL     1      -2.312 168.345 397.973  1.00  0.00    -0.243 F 
ENDROOT
BRANCH   1  17
HETATM   17  C4  UNL     1      -1.250 166.008 399.222  1.00  0.00     0.055 C 
BRANCH  17  18
HETATM   18  C3  UNL     1      -0.544 166.000 397.938  1.00  0.00     0.005 C 
BRANCH  18  19
HETATM   19  C2  UNL     1       0.890 166.411 398.026  1.00  0.00    -0.004 C 
HETATM   20  C1  UNL     1       1.720 165.140 398.298  1.00  0.00     0.005 C 
ENDBRANCH  18  19
ENDBRANCH  17  18
ENDBRANCH   1  17
TORSDOF 3
ENDMDL
MODEL 5
REMARK VINA RESULT: -5.735548087      5.733     10.052
REMARK  3 active torsions:
REMARK  status: ('A' for Active; 'I' for Inactive)
REMARK    1  A    between atoms: C2_2  and  C3_3 
REMARK    2  A    between atoms: C3_3  and  C4_4 
REMARK    3  A    between atoms: C4_4  and  C5_5 
REMARK       I    between atoms: N2_9  and  C7_11 
REMARK       I    between atoms: C7_11  and  N3_13 
ROOT
HETATM    1  C5  UNL     1       5.163 163.031 396.836  1.00  0.00     0.022 C 
HETATM    2  N1  UNL     1       3.852 162.899 396.926  1.00  0.00    -0.350 N 
ATOM      3  H1  UNL     1       3.391 162.026 396.673  1.00  0.00     0.166 HD
HETATM    4  C6  UNL     1       3.113 164.005 397.384  1.00  0.00     0.085 C 
HETATM    5  N2  UNL     1       2.041 164.451 396.789  1.00  0.00    -0.298 N 
ATOM      6  H2  UNL     1       1.685 164.004 395.944  1.00  0.00     0.172 HD
HETATM    7  C7  UNL     1       1.379 165.587 397.356  1.00  0.00     0.321 C 
HETATM    8  O1  UNL     1       1.672 166.761 397.019  1.00  0.00    -0.247 OA
HETATM    9  N3  UNL     1       0.366 165.378 398.324  1.00  0.00    -0.347 N 
ATOM     10  H3  UNL     1       0.110 164.433 398.613  1.00  0.00     0.163 HD
HETATM   11  C8  UNL     1      -0.300 166.528 398.894  1.00  0.00     0.151 C 
HETATM   12  C9  UNL     1       3.629 164.655 398.611  1.00  0.00     0.084 C 
HETATM   13  C10 UNL     1       5.079 164.937 398.466  1.00  0.00     0.028 C 
HETATM   14  C11 UNL     1       5.264 166.441 398.501  1.00  0.00     0.014 C 
HETATM   15  C12 UNL     1       5.707 164.348 397.204  1.00  0.00     0.219 C 
HETATM   16  F1  UNL     1       7.094 164.275 397.418  1.00  0.00    -0.243 F 
ENDROOT
BRANCH   1  17
HETATM   17  C4  UNL     1       5.959 161.881 396.355  1.00  0.00     0.055 C 
BRANCH  17  18
HETATM   18  C3  UNL     1       5.791 160.585 397.018  1.00  0.00     0.005 C 
BRANCH  18  19
HETATM   19  C2  UNL     1       5.504 159.453 396.085  1.00  0.00    -0.004 C 
HETATM   20  C1  UNL     1       5.509 160.024 394.652  1.00  0.00     0.005 C 
ENDBRANCH  18  19
ENDBRANCH  17  18
ENDBRANCH   1  17
TORSDOF 3
ENDMDL
