MODEL 1
REMARK VINA RESULT: -5.262770253      0.000      0.000
REMARK  4 active torsions:
REMARK  status: ('A' for Active; 'I' for Inactive)
REMARK    1  A    between atoms: C2_2  and  C3_3 
REMARK    2  A    between atoms: C3_3  and  C4_4 
REMARK    3  A    between atoms: C4_4  and  C5_5 
REMARK    4  A    between atoms: C5_5  and  C6_6 
ROOT
HETATM    1  C4  UNL     1     -11.935  15.762 -18.430  1.00  0.00     0.096 C 
HETATM    2  C8  UNL     1     -13.110  16.457 -17.752  1.00  0.00     0.237 C 
HETATM    3  O1  UNL     1     -13.609  15.596 -16.805  1.00  0.00    -0.225 OA
HETATM    4  O2  UNL     1     -13.944  14.463 -17.386  1.00  0.00    -0.131 OA
HETATM    5  S1  UNL     1     -12.555  14.073 -18.300  1.00  0.00     0.196 S 
HETATM    6  O3  UNL     1     -13.110  13.543 -19.795  1.00  0.00    -0.225 OA
ENDROOT
BRANCH   1   7
HETATM    7  C3  UNL     1     -10.661  15.924 -17.670  1.00  0.00     0.054 C 
BRANCH   7   8
HETATM    8  C2  UNL     1     -10.056  14.636 -17.260  1.00  0.00    -0.035 C 
HETATM    9  C1  UNL     1      -8.884  14.278 -17.754  1.00  0.00     0.007 C 
ENDBRANCH   7   8
ENDBRANCH   1   7
BRANCH   1  10
HETATM   10  C5  UNL     1     -11.754  16.170 -19.849  1.00  0.00     0.055 C 
BRANCH  10  11
HETATM   11  C6  UNL     1     -12.126  17.605 -19.966  1.00  0.00    -0.018 C 
HETATM   12  C7  UNL     1     -12.797  18.008 -21.027  1.00  0.00     0.052 C 
HETATM   13 BR1  UNL     1     -13.283  16.789 -22.388  1.00  0.00    -0.064 Br
ENDBRANCH  10  11
ENDBRANCH   1  10
TORSDOF 4
ENDMDL
MODEL 2
REMARK VINA RESULT: -5.189880156      3.460      5.130
REMARK  4 active torsions:
REMARK  status: ('A' for Active; 'I' for Inactive)
REMARK    1  A    between atoms: C2_2  and  C3_3 
REMARK    2  A    between atoms: C3_3  and  C4_4 
REMARK    3  A    between atoms: C4_4  and  C5_5 
REMARK    4  A    between atoms: C5_5  and  C6_6 
ROOT
HETATM    1  C4  UNL     1     -11.219  14.046 -17.223  1.00  0.00     0.096 C 
HETATM    2  C8  UNL     1     -11.031  13.014 -18.330  1.00  0.00     0.237 C 
HETATM    3  O1  UNL     1     -11.783  13.420 -19.406  1.00  0.00    -0.225 OA
HETATM    4  O2  UNL     1     -13.037  13.552 -19.029  1.00  0.00    -0.131 OA
HETATM    5  S1  UNL     1     -12.919  14.504 -17.617  1.00  0.00     0.196 S 
HETATM    6  O3  UNL     1     -13.974  13.822 -16.500  1.00  0.00    -0.225 OA
ENDROOT
BRANCH   1   7
HETATM    7  C3  UNL     1     -10.303  15.213 -17.372  1.00  0.00     0.054 C 
BRANCH   7   8
HETATM    8  C2  UNL     1     -11.004  16.465 -17.740  1.00  0.00    -0.035 C 
HETATM    9  C1  UNL     1     -10.484  17.630 -17.398  1.00  0.00     0.007 C 
ENDBRANCH   7   8
ENDBRANCH   1   7
BRANCH   1  10
HETATM   10  C5  UNL     1     -11.111  13.465 -15.858  1.00  0.00     0.055 C 
BRANCH  10  11
HETATM   11  C6  UNL     1     -10.369  12.180 -15.963  1.00  0.00    -0.018 C 
HETATM   12  C7  UNL     1     -10.384  11.347 -14.941  1.00  0.00     0.052 C 
HETATM   13 BR1  UNL     1     -11.332  11.768 -13.361  1.00  0.00    -0.064 Br
ENDBRANCH  10  11
ENDBRANCH   1  10
TORSDOF 4
ENDMDL
MODEL 3
REMARK VINA RESULT: -5.148784414      1.587      1.932
REMARK  4 active torsions:
REMARK  status: ('A' for Active; 'I' for Inactive)
REMARK    1  A    between atoms: C2_2  and  C3_3 
REMARK    2  A    between atoms: C3_3  and  C4_4 
REMARK    3  A    between atoms: C4_4  and  C5_5 
REMARK    4  A    between atoms: C5_5  and  C6_6 
ROOT
HETATM    1  C4  UNL     1     -12.153  14.759 -17.145  1.00  0.00     0.096 C 
HETATM    2  C8  UNL     1     -13.039  14.135 -16.071  1.00  0.00     0.237 C 
HETATM    3  O1  UNL     1     -12.809  12.781 -16.081  1.00  0.00    -0.225 OA
HETATM    4  O2  UNL     1     -13.050  12.312 -17.287  1.00  0.00    -0.131 OA
HETATM    5  S1  UNL     1     -12.170  13.371 -18.296  1.00  0.00     0.196 S 
HETATM    6  O3  UNL     1     -13.169  13.715 -19.602  1.00  0.00    -0.225 OA
ENDROOT
BRANCH   1   7
HETATM    7  C3  UNL     1     -10.771  15.030 -16.654  1.00  0.00     0.054 C 
BRANCH   7   8
HETATM    8  C2  UNL     1      -9.756  14.117 -17.228  1.00  0.00    -0.035 C 
HETATM    9  C1  UNL     1      -8.738  14.614 -17.907  1.00  0.00     0.007 C 
ENDBRANCH   7   8
ENDBRANCH   1   7
BRANCH   1  10
HETATM   10  C5  UNL     1     -12.744  15.981 -17.753  1.00  0.00     0.055 C 
BRANCH  10  11
HETATM   11  C6  UNL     1     -11.660  16.989 -17.903  1.00  0.00    -0.018 C 
HETATM   12  C7  UNL     1     -11.499  17.587 -19.067  1.00  0.00     0.052 C 
HETATM   13 BR1  UNL     1     -12.622  17.177 -20.531  1.00  0.00    -0.064 Br
ENDBRANCH  10  11
ENDBRANCH   1  10
TORSDOF 4
ENDMDL
MODEL 4
REMARK VINA RESULT: -5.036841379      3.505      4.121
REMARK  4 active torsions:
REMARK  status: ('A' for Active; 'I' for Inactive)
REMARK    1  A    between atoms: C2_2  and  C3_3 
REMARK    2  A    between atoms: C3_3  and  C4_4 
REMARK    3  A    between atoms: C4_4  and  C5_5 
REMARK    4  A    between atoms: C5_5  and  C6_6 
ROOT
HETATM    1  C4  UNL     1     -11.975  13.271 -15.837  1.00  0.00     0.096 C 
HETATM    2  C8  UNL     1     -13.473  13.066 -16.033  1.00  0.00     0.237 C 
HETATM    3  O1  UNL     1     -13.709  11.712 -16.031  1.00  0.00    -0.225 OA
HETATM    4  O2  UNL     1     -12.982  11.147 -16.972  1.00  0.00    -0.131 OA
HETATM    5  S1  UNL     1     -11.422  11.779 -16.687  1.00  0.00     0.196 S 
HETATM    6  O3  UNL     1     -10.791  12.173 -18.194  1.00  0.00    -0.225 OA
ENDROOT
BRANCH   1   7
HETATM    7  C3  UNL     1     -11.580  13.245 -14.399  1.00  0.00     0.054 C 
BRANCH   7   8
HETATM    8  C2  UNL     1     -10.939  11.974 -13.991  1.00  0.00    -0.035 C 
HETATM    9  C1  UNL     1     -11.319  11.380 -12.874  1.00  0.00     0.007 C 
ENDBRANCH   7   8
ENDBRANCH   1   7
BRANCH   1  10
HETATM   10  C5  UNL     1     -11.462  14.500 -16.500  1.00  0.00     0.055 C 
BRANCH  10  11
HETATM   11  C6  UNL     1     -12.603  15.162 -17.188  1.00  0.00    -0.018 C 
HETATM   12  C7  UNL     1     -12.424  16.354 -17.723  1.00  0.00     0.052 C 
HETATM   13 BR1  UNL     1     -10.747  17.219 -17.623  1.00  0.00    -0.064 Br
ENDBRANCH  10  11
ENDBRANCH   1  10
TORSDOF 4
ENDMDL
MODEL 5
REMARK VINA RESULT: -4.857899725      1.562      2.093
REMARK  4 active torsions:
REMARK  status: ('A' for Active; 'I' for Inactive)
REMARK    1  A    between atoms: C2_2  and  C3_3 
REMARK    2  A    between atoms: C3_3  and  C4_4 
REMARK    3  A    between atoms: C4_4  and  C5_5 
REMARK    4  A    between atoms: C5_5  and  C6_6 
ROOT
HETATM    1  C4  UNL     1     -11.824  15.888 -19.427  1.00  0.00     0.096 C 
HETATM    2  C8  UNL     1     -13.122  15.555 -18.700  1.00  0.00     0.237 C 
HETATM    3  O1  UNL     1     -13.243  14.187 -18.674  1.00  0.00    -0.225 OA
HETATM    4  O2  UNL     1     -13.208  13.728 -19.907  1.00  0.00    -0.131 OA
HETATM    5  S1  UNL     1     -11.827  14.487 -20.563  1.00  0.00     0.196 S 
HETATM    6  O3  UNL     1     -12.258  14.995 -22.106  1.00  0.00    -0.225 OA
ENDROOT
BRANCH   1   7
HETATM    7  C3  UNL     1     -10.638  15.841 -18.523  1.00  0.00     0.054 C 
BRANCH   7   8
HETATM    8  C2  UNL     1     -10.809  16.642 -17.290  1.00  0.00    -0.035 C 
HETATM    9  C1  UNL     1     -10.265  17.843 -17.209  1.00  0.00     0.007 C 
ENDBRANCH   7   8
ENDBRANCH   1   7
BRANCH   1  10
HETATM   10  C5  UNL     1     -11.877  17.183 -20.156  1.00  0.00     0.055 C 
BRANCH  10  11
HETATM   11  C6  UNL     1     -13.246  17.743 -19.998  1.00  0.00    -0.018 C 
HETATM   12  C7  UNL     1     -13.801  18.373 -21.015  1.00  0.00     0.052 C 
HETATM   13 BR1  UNL     1     -12.880  18.568 -22.654  1.00  0.00    -0.064 Br
ENDBRANCH  10  11
ENDBRANCH   1  10
TORSDOF 4
ENDMDL
