MODEL 1
REMARK VINA RESULT: -5.996932083      0.000      0.000
REMARK  4 active torsions:
REMARK  status: ('A' for Active; 'I' for Inactive)
REMARK    1  A    between atoms: C6_7  and  O1_8 
REMARK    2  A    between atoms: C6_7  and  C7_10 
REMARK    3  A    between atoms: C8_11  and  C9_12 
REMARK    4  A    between atoms: C9_12  and  N2_13 
ROOT
HETATM    1  C1  UNL     1      -9.701  14.611 -17.431  1.00  0.00     0.315 C 
HETATM    2  N1  UNL     1     -10.803  15.277 -16.763  1.00  0.00     0.132 N 
HETATM    3  C2  UNL     1     -10.821  16.700 -17.024  1.00  0.00     0.277 C 
HETATM    4  C3  UNL     1     -11.084  17.033 -18.460  1.00  0.00     0.030 C 
HETATM    5  C4  UNL     1     -12.271  16.319 -19.030  1.00  0.00     0.008 C 
HETATM    6  C5  UNL     1     -12.197  14.838 -18.693  1.00  0.00     0.086 C 
HETATM    7  C6  UNL     1     -12.088  14.751 -17.179  1.00  0.00     0.323 C 
ENDROOT
BRANCH   7   8
HETATM    8  O1  UNL     1     -13.058  15.648 -16.676  1.00  0.00    -0.353 OA
ATOM      9  H1  UNL     1     -12.736  16.520 -16.870  1.00  0.00     0.213 HD
ENDBRANCH   7   8
BRANCH   7  10
HETATM   10  C7  UNL     1     -12.313  13.404 -16.684  1.00  0.00    -0.034 C 
HETATM   11  C8  UNL     1     -12.479  12.299 -16.271  1.00  0.00    -0.071 C 
BRANCH  11  12
HETATM   12  C9  UNL     1     -12.659  10.944 -15.752  1.00  0.00     0.365 C 
BRANCH  12  13
HETATM   13  N2  UNL     1     -11.547  10.609 -14.895  1.00  0.00     0.099 N 
HETATM   14  C10 UNL     1     -11.614  11.422 -13.704  1.00  0.00     0.273 C 
HETATM   15  C11 UNL     1     -10.998  10.738 -12.507  1.00  0.00     0.030 C 
HETATM   16  C12 UNL     1     -11.877   9.543 -12.171  1.00  0.00     0.003 C 
HETATM   17  C13 UNL     1     -12.262   8.784 -13.412  1.00  0.00     0.030 C 
HETATM   18  C14 UNL     1     -11.455   9.204 -14.619  1.00  0.00     0.273 C 
ENDBRANCH  12  13
ENDBRANCH  11  12
ENDBRANCH   7  10
TORSDOF 4
ENDMDL
MODEL 2
REMARK VINA RESULT: -5.693334140      2.001      6.800
REMARK  4 active torsions:
REMARK  status: ('A' for Active; 'I' for Inactive)
REMARK    1  A    between atoms: C6_7  and  O1_8 
REMARK    2  A    between atoms: C6_7  and  C7_10 
REMARK    3  A    between atoms: C8_11  and  C9_12 
REMARK    4  A    between atoms: C9_12  and  N2_13 
ROOT
HETATM    1  C1  UNL     1     -11.672  11.765 -13.200  1.00  0.00     0.315 C 
HETATM    2  N1  UNL     1     -10.631  10.914 -13.745  1.00  0.00     0.132 N 
HETATM    3  C2  UNL     1     -10.639   9.594 -13.152  1.00  0.00     0.277 C 
HETATM    4  C3  UNL     1     -11.875   8.812 -13.468  1.00  0.00     0.030 C 
HETATM    5  C4  UNL     1     -12.216   8.799 -14.927  1.00  0.00     0.008 C 
HETATM    6  C5  UNL     1     -12.161  10.212 -15.485  1.00  0.00     0.086 C 
HETATM    7  C6  UNL     1     -10.768  10.737 -15.177  1.00  0.00     0.323 C 
ENDROOT
BRANCH   7   8
HETATM    8  O1  UNL     1      -9.882   9.694 -15.529  1.00  0.00    -0.353 OA
ATOM      9  H1  UNL     1      -9.142  10.110 -15.954  1.00  0.00     0.213 HD
ENDBRANCH   7   8
BRANCH   7  10
HETATM   10  C7  UNL     1     -10.461  11.954 -15.909  1.00  0.00    -0.034 C 
HETATM   11  C8  UNL     1     -10.224  12.961 -16.500  1.00  0.00    -0.071 C 
BRANCH  11  12
HETATM   12  C9  UNL     1      -9.952  14.210 -17.211  1.00  0.00     0.365 C 
BRANCH  12  13
HETATM   13  N2  UNL     1     -11.090  15.089 -17.083  1.00  0.00     0.099 N 
HETATM   14  C10 UNL     1     -10.632  16.457 -17.141  1.00  0.00     0.273 C 
HETATM   15  C11 UNL     1     -11.679  17.390 -17.701  1.00  0.00     0.030 C 
HETATM   16  C12 UNL     1     -11.875  17.020 -19.163  1.00  0.00     0.003 C 
HETATM   17  C13 UNL     1     -11.959  15.527 -19.340  1.00  0.00     0.030 C 
HETATM   18  C14 UNL     1     -12.131  14.799 -18.028  1.00  0.00     0.273 C 
ENDBRANCH  12  13
ENDBRANCH  11  12
ENDBRANCH   7  10
TORSDOF 4
ENDMDL
MODEL 3
REMARK VINA RESULT: -5.639365712      1.586      6.817
REMARK  4 active torsions:
REMARK  status: ('A' for Active; 'I' for Inactive)
REMARK    1  A    between atoms: C6_7  and  O1_8 
REMARK    2  A    between atoms: C6_7  and  C7_10 
REMARK    3  A    between atoms: C8_11  and  C9_12 
REMARK    4  A    between atoms: C9_12  and  N2_13 
ROOT
HETATM    1  C1  UNL     1      -9.950   9.824 -15.690  1.00  0.00     0.315 C 
HETATM    2  N1  UNL     1     -11.279  10.263 -15.309  1.00  0.00     0.132 N 
HETATM    3  C2  UNL     1     -11.953   9.299 -14.467  1.00  0.00     0.277 C 
HETATM    4  C3  UNL     1     -11.295   9.117 -13.135  1.00  0.00     0.030 C 
HETATM    5  C4  UNL     1     -11.006  10.408 -12.431  1.00  0.00     0.008 C 
HETATM    6  C5  UNL     1     -10.325  11.377 -13.383  1.00  0.00     0.086 C 
HETATM    7  C6  UNL     1     -11.250  11.516 -14.582  1.00  0.00     0.323 C 
ENDROOT
BRANCH   7   8
HETATM    8  O1  UNL     1     -12.546  11.687 -14.045  1.00  0.00    -0.353 OA
ATOM      9  H1  UNL     1     -13.051  12.135 -14.713  1.00  0.00     0.213 HD
ENDBRANCH   7   8
BRANCH   7  10
HETATM   10  C7  UNL     1     -10.886  12.634 -15.436  1.00  0.00    -0.034 C 
HETATM   11  C8  UNL     1     -10.601  13.562 -16.127  1.00  0.00    -0.071 C 
BRANCH  11  12
HETATM   12  C9  UNL     1     -10.268  14.716 -16.962  1.00  0.00     0.365 C 
BRANCH  12  13
HETATM   13  N2  UNL     1     -11.469  15.474 -17.228  1.00  0.00     0.099 N 
HETATM   14  C10 UNL     1     -11.096  16.791 -17.687  1.00  0.00     0.273 C 
HETATM   15  C11 UNL     1     -12.131  17.390 -18.611  1.00  0.00     0.030 C 
HETATM   16  C12 UNL     1     -12.131  16.558 -19.884  1.00  0.00     0.003 C 
HETATM   17  C13 UNL     1     -12.097  15.086 -19.572  1.00  0.00     0.030 C 
HETATM   18  C14 UNL     1     -12.372  14.797 -18.115  1.00  0.00     0.273 C 
ENDBRANCH  12  13
ENDBRANCH  11  12
ENDBRANCH   7  10
TORSDOF 4
ENDMDL
MODEL 4
REMARK VINA RESULT: -5.591294602      2.261      6.816
REMARK  4 active torsions:
REMARK  status: ('A' for Active; 'I' for Inactive)
REMARK    1  A    between atoms: C6_7  and  O1_8 
REMARK    2  A    between atoms: C6_7  and  C7_10 
REMARK    3  A    between atoms: C8_11  and  C9_12 
REMARK    4  A    between atoms: C9_12  and  N2_13 
ROOT
HETATM    1  C1  UNL     1     -11.463  11.062 -14.243  1.00  0.00     0.315 C 
HETATM    2  N1  UNL     1     -10.205  10.522 -14.726  1.00  0.00     0.132 N 
HETATM    3  C2  UNL     1     -10.042   9.126 -14.382  1.00  0.00     0.277 C 
HETATM    4  C3  UNL     1     -11.039   8.234 -15.053  1.00  0.00     0.030 C 
HETATM    5  C4  UNL     1     -11.147   8.463 -16.529  1.00  0.00     0.008 C 
HETATM    6  C5  UNL     1     -11.288   9.950 -16.814  1.00  0.00     0.086 C 
HETATM    7  C6  UNL     1     -10.088  10.623 -16.166  1.00  0.00     0.323 C 
ENDROOT
BRANCH   7   8
HETATM    8  O1  UNL     1      -8.971   9.833 -16.523  1.00  0.00    -0.353 OA
ATOM      9  H1  UNL     1      -8.679  10.156 -17.367  1.00  0.00     0.213 HD
ENDBRANCH   7   8
BRANCH   7  10
HETATM   10  C7  UNL     1      -9.919  11.997 -16.606  1.00  0.00    -0.034 C 
HETATM   11  C8  UNL     1      -9.801  13.127 -16.965  1.00  0.00    -0.071 C 
BRANCH  11  12
HETATM   12  C9  UNL     1      -9.681  14.517 -17.403  1.00  0.00     0.365 C 
BRANCH  12  13
HETATM   13  N2  UNL     1     -10.961  15.172 -17.265  1.00  0.00     0.099 N 
HETATM   14  C10 UNL     1     -10.759  16.601 -17.297  1.00  0.00     0.273 C 
HETATM   15  C11 UNL     1     -11.958  17.338 -17.847  1.00  0.00     0.030 C 
HETATM   16  C12 UNL     1     -12.080  16.965 -19.315  1.00  0.00     0.003 C 
HETATM   17  C13 UNL     1     -11.890  15.485 -19.519  1.00  0.00     0.030 C 
HETATM   18  C14 UNL     1     -11.929  14.714 -18.220  1.00  0.00     0.273 C 
ENDBRANCH  12  13
ENDBRANCH  11  12
ENDBRANCH   7  10
TORSDOF 4
ENDMDL
MODEL 5
REMARK VINA RESULT: -5.585569089      1.218      1.900
REMARK  4 active torsions:
REMARK  status: ('A' for Active; 'I' for Inactive)
REMARK    1  A    between atoms: C6_7  and  O1_8 
REMARK    2  A    between atoms: C6_7  and  C7_10 
REMARK    3  A    between atoms: C8_11  and  C9_12 
REMARK    4  A    between atoms: C9_12  and  N2_13 
ROOT
HETATM    1  C1  UNL     1      -9.450  13.962 -17.031  1.00  0.00     0.315 C 
HETATM    2  N1  UNL     1     -10.584  14.750 -16.584  1.00  0.00     0.132 N 
HETATM    3  C2  UNL     1     -10.898  15.823 -17.503  1.00  0.00     0.277 C 
HETATM    4  C3  UNL     1     -11.367  15.337 -18.839  1.00  0.00     0.030 C 
HETATM    5  C4  UNL     1     -12.450  14.305 -18.752  1.00  0.00     0.008 C 
HETATM    6  C5  UNL     1     -12.061  13.229 -17.751  1.00  0.00     0.086 C 
HETATM    7  C6  UNL     1     -11.781  13.948 -16.441  1.00  0.00     0.323 C 
ENDROOT
BRANCH   7   8
HETATM    8  O1  UNL     1     -12.846  14.862 -16.273  1.00  0.00    -0.353 OA
ATOM      9  H1  UNL     1     -12.489  15.720 -16.466  1.00  0.00     0.213 HD
ENDBRANCH   7   8
BRANCH   7  10
HETATM   10  C7  UNL     1     -11.694  13.033 -15.315  1.00  0.00    -0.034 C 
HETATM   11  C8  UNL     1     -11.611  12.271 -14.404  1.00  0.00    -0.071 C 
BRANCH  11  12
HETATM   12  C9  UNL     1     -11.493  11.320 -13.298  1.00  0.00     0.365 C 
BRANCH  12  13
HETATM   13  N2  UNL     1     -11.568   9.974 -13.817  1.00  0.00     0.099 N 
HETATM   14  C10 UNL     1     -10.271   9.597 -14.325  1.00  0.00     0.273 C 
HETATM   15  C11 UNL     1     -10.032   8.108 -14.238  1.00  0.00     0.030 C 
HETATM   16  C12 UNL     1      -9.954   7.750 -12.762  1.00  0.00     0.003 C 
HETATM   17  C13 UNL     1     -11.044   8.430 -11.979  1.00  0.00     0.030 C 
HETATM   18  C14 UNL     1     -12.103   9.038 -12.869  1.00  0.00     0.273 C 
ENDBRANCH  12  13
ENDBRANCH  11  12
ENDBRANCH   7  10
TORSDOF 4
ENDMDL
