MODEL 1
REMARK VINA RESULT: -6.748797350      0.000      0.000
REMARK  1 active torsions:
REMARK  status: ('A' for Active; 'I' for Inactive)
REMARK    1  A    between atoms: C5_5  and  C6_6 
ROOT
HETATM    1  C6  UNL     1     -12.026  12.512 -14.358  1.00  0.00     0.131 A 
HETATM    2  N1  UNL     1     -11.345  11.517 -14.944  1.00  0.00    -0.336 N 
ATOM      3  H1  UNL     1     -10.884  11.577 -15.851  1.00  0.00     0.168 HD
HETATM    4  C7  UNL     1     -11.360  10.427 -14.157  1.00  0.00     0.089 A 
HETATM    5  C8  UNL     1     -10.993   9.115 -13.933  1.00  0.00     0.079 A 
HETATM    6  C9  UNL     1     -11.481   8.688 -12.718  1.00  0.00     0.120 A 
HETATM    7  N2  UNL     1     -11.320   7.398 -12.123  1.00  0.00    -0.083 NA
HETATM    8  N3  UNL     1     -12.145   9.740 -12.203  1.00  0.00    -0.323 N 
ATOM      9  H3  UNL     1     -12.624   9.741 -11.303  1.00  0.00     0.169 HD
HETATM   10  C10 UNL     1     -12.088  10.794 -13.044  1.00  0.00     0.178 A 
HETATM   11  O1  UNL     1     -12.460  12.040 -13.214  1.00  0.00    -0.278 OA
ENDROOT
BRANCH   1  12
HETATM   12  C5  UNL     1     -12.216  13.860 -14.941  1.00  0.00     0.061 C 
HETATM   13  C4  UNL     1     -13.550  13.862 -15.642  1.00  0.00     0.013 C 
HETATM   14  C3  UNL     1     -13.726  15.024 -16.575  1.00  0.00     0.005 C 
HETATM   15  C2  UNL     1     -12.632  14.893 -17.643  1.00  0.00    -0.019 C 
HETATM   16  C1  UNL     1     -12.829  15.841 -18.771  1.00  0.00     0.010 C 
HETATM   17  C12 UNL     1     -11.333  15.163 -16.899  1.00  0.00     0.005 C 
HETATM   18  C11 UNL     1     -11.061  14.121 -15.866  1.00  0.00     0.013 C 
ENDBRANCH   1  12
TORSDOF 1
ENDMDL
MODEL 2
REMARK VINA RESULT: -6.708496850      2.367      4.180
REMARK  1 active torsions:
REMARK  status: ('A' for Active; 'I' for Inactive)
REMARK    1  A    between atoms: C5_5  and  C6_6 
ROOT
HETATM    1  C6  UNL     1     -11.466  14.760 -17.646  1.00  0.00     0.131 A 
HETATM    2  N1  UNL     1     -12.214  14.964 -16.553  1.00  0.00    -0.336 N 
ATOM      3  H1  UNL     1     -12.841  15.755 -16.411  1.00  0.00     0.168 HD
HETATM    4  C7  UNL     1     -12.014  13.970 -15.669  1.00  0.00     0.089 A 
HETATM    5  C8  UNL     1     -12.289  13.390 -14.448  1.00  0.00     0.079 A 
HETATM    6  C9  UNL     1     -11.564  12.228 -14.301  1.00  0.00     0.120 A 
HETATM    7  N2  UNL     1     -11.567  11.338 -13.182  1.00  0.00    -0.083 NA
HETATM    8  N3  UNL     1     -10.848  12.101 -15.434  1.00  0.00    -0.323 N 
ATOM      9  H3  UNL     1     -10.206  11.335 -15.633  1.00  0.00     0.169 HD
HETATM   10  C10 UNL     1     -11.099  13.131 -16.270  1.00  0.00     0.178 A 
HETATM   11  O1  UNL     1     -10.806  13.645 -17.440  1.00  0.00    -0.278 OA
ENDROOT
BRANCH   1  12
HETATM   12  C5  UNL     1     -11.434  15.656 -18.825  1.00  0.00     0.061 C 
HETATM   13  C4  UNL     1     -11.677  17.058 -18.329  1.00  0.00     0.013 C 
HETATM   14  C3  UNL     1     -12.029  18.021 -19.425  1.00  0.00     0.005 C 
HETATM   15  C2  UNL     1     -13.332  17.509 -20.051  1.00  0.00    -0.019 C 
HETATM   16  C1  UNL     1     -13.929  18.491 -20.995  1.00  0.00     0.010 C 
HETATM   17  C12 UNL     1     -12.941  16.217 -20.754  1.00  0.00     0.005 C 
HETATM   18  C11 UNL     1     -12.485  15.178 -19.786  1.00  0.00     0.013 C 
ENDBRANCH   1  12
TORSDOF 1
ENDMDL
MODEL 3
REMARK VINA RESULT: -6.643601628      2.380      4.048
REMARK  1 active torsions:
REMARK  status: ('A' for Active; 'I' for Inactive)
REMARK    1  A    between atoms: C5_5  and  C6_6 
ROOT
HETATM    1  C6  UNL     1     -11.453  14.794 -17.643  1.00  0.00     0.131 A 
HETATM    2  N1  UNL     1     -10.842  13.603 -17.575  1.00  0.00    -0.336 N 
ATOM      3  H1  UNL     1     -10.293  13.182 -18.324  1.00  0.00     0.168 HD
HETATM    4  C7  UNL     1     -11.061  13.044 -16.372  1.00  0.00     0.089 A 
HETATM    5  C8  UNL     1     -10.874  11.994 -15.495  1.00  0.00     0.079 A 
HETATM    6  C9  UNL     1     -11.522  12.249 -14.307  1.00  0.00     0.120 A 
HETATM    7  N2  UNL     1     -11.572  11.412 -13.149  1.00  0.00    -0.083 NA
HETATM    8  N3  UNL     1     -12.103  13.454 -14.461  1.00  0.00    -0.323 N 
ATOM      9  H3  UNL     1     -12.662  13.925 -13.750  1.00  0.00     0.169 HD
HETATM   10  C10 UNL     1     -11.842  13.952 -15.688  1.00  0.00     0.178 A 
HETATM   11  O1  UNL     1     -12.047  14.972 -16.487  1.00  0.00    -0.278 OA
ENDROOT
BRANCH   1  12
HETATM   12  C5  UNL     1     -11.426  15.689 -18.823  1.00  0.00     0.061 C 
HETATM   13  C4  UNL     1     -11.683  17.090 -18.329  1.00  0.00     0.013 C 
HETATM   14  C3  UNL     1     -12.041  18.048 -19.427  1.00  0.00     0.005 C 
HETATM   15  C2  UNL     1     -13.339  17.524 -20.055  1.00  0.00    -0.019 C 
HETATM   16  C1  UNL     1     -13.942  18.500 -21.000  1.00  0.00     0.010 C 
HETATM   17  C12 UNL     1     -12.935  16.235 -20.756  1.00  0.00     0.005 C 
HETATM   18  C11 UNL     1     -12.471  15.201 -19.786  1.00  0.00     0.013 C 
ENDBRANCH   1  12
TORSDOF 1
ENDMDL
MODEL 4
REMARK VINA RESULT: -6.517738494      1.926      3.177
REMARK  1 active torsions:
REMARK  status: ('A' for Active; 'I' for Inactive)
REMARK    1  A    between atoms: C5_5  and  C6_6 
ROOT
HETATM    1  C6  UNL     1     -11.060  13.706 -16.991  1.00  0.00     0.131 A 
HETATM    2  N1  UNL     1     -11.730  13.934 -15.852  1.00  0.00    -0.336 N 
ATOM      3  H1  UNL     1     -12.192  14.810 -15.610  1.00  0.00     0.168 HD
HETATM    4  C7  UNL     1     -11.701  12.837 -15.076  1.00  0.00     0.089 A 
HETATM    5  C8  UNL     1     -12.053  12.199 -13.904  1.00  0.00     0.079 A 
HETATM    6  C9  UNL     1     -11.559  10.913 -13.898  1.00  0.00     0.120 A 
HETATM    7  N2  UNL     1     -11.704   9.932 -12.868  1.00  0.00    -0.083 NA
HETATM    8  N3  UNL     1     -10.906  10.770 -15.067  1.00  0.00    -0.323 N 
ATOM      9  H3  UNL     1     -10.426   9.921 -15.364  1.00  0.00     0.169 HD
HETATM   10  C10 UNL     1     -10.977  11.907 -15.791  1.00  0.00     0.178 A 
HETATM   11  O1  UNL     1     -10.619  12.472 -16.919  1.00  0.00    -0.278 OA
ENDROOT
BRANCH   1  12
HETATM   12  C5  UNL     1     -10.886  14.694 -18.080  1.00  0.00     0.061 C 
HETATM   13  C4  UNL     1     -10.943  16.065 -17.456  1.00  0.00     0.013 C 
HETATM   14  C3  UNL     1     -11.141  17.163 -18.458  1.00  0.00     0.005 C 
HETATM   15  C2  UNL     1     -12.492  16.897 -19.133  1.00  0.00    -0.019 C 
HETATM   16  C1  UNL     1     -12.933  18.035 -19.982  1.00  0.00     0.010 C 
HETATM   17  C12 UNL     1     -12.271  15.634 -19.953  1.00  0.00     0.005 C 
HETATM   18  C11 UNL     1     -11.977  14.457 -19.085  1.00  0.00     0.013 C 
ENDBRANCH   1  12
TORSDOF 1
ENDMDL
MODEL 5
REMARK VINA RESULT: -6.458587942      1.310      1.738
REMARK  1 active torsions:
REMARK  status: ('A' for Active; 'I' for Inactive)
REMARK    1  A    between atoms: C5_5  and  C6_6 
ROOT
HETATM    1  C6  UNL     1     -11.711  13.323 -15.322  1.00  0.00     0.131 A 
HETATM    2  N1  UNL     1     -12.259  13.101 -14.119  1.00  0.00    -0.336 N 
ATOM      3  H1  UNL     1     -12.783  13.789 -13.579  1.00  0.00     0.168 HD
HETATM    4  C7  UNL     1     -12.015  11.837 -13.730  1.00  0.00     0.089 A 
HETATM    5  C8  UNL     1     -12.150  10.834 -12.792  1.00  0.00     0.079 A 
HETATM    6  C9  UNL     1     -11.519   9.690 -13.229  1.00  0.00     0.120 A 
HETATM    7  N2  UNL     1     -11.429   8.435 -12.550  1.00  0.00    -0.083 NA
HETATM    8  N3  UNL     1     -11.001   9.998 -14.433  1.00  0.00    -0.323 N 
ATOM      9  H3  UNL     1     -10.469   9.355 -15.019  1.00  0.00     0.169 HD
HETATM   10  C10 UNL     1     -11.284  11.278 -14.757  1.00  0.00     0.178 A 
HETATM   11  O1  UNL     1     -11.130  12.200 -15.676  1.00  0.00    -0.278 OA
ENDROOT
BRANCH   1  12
HETATM   12  C5  UNL     1     -11.781  14.606 -16.058  1.00  0.00     0.061 C 
HETATM   13  C4  UNL     1     -13.140  14.680 -16.704  1.00  0.00     0.013 C 
HETATM   14  C3  UNL     1     -13.234  15.736 -17.766  1.00  0.00     0.005 C 
HETATM   15  C2  UNL     1     -12.216  15.355 -18.849  1.00  0.00    -0.019 C 
HETATM   16  C1  UNL     1     -12.364  16.181 -20.077  1.00  0.00     0.010 C 
HETATM   17  C12 UNL     1     -10.859  15.559 -18.191  1.00  0.00     0.005 C 
HETATM   18  C11 UNL     1     -10.652  14.621 -17.050  1.00  0.00     0.013 C 
ENDBRANCH   1  12
TORSDOF 1
ENDMDL
