MODEL 1
REMARK VINA RESULT: -4.939104014      0.000      0.000
REMARK  4 active torsions:
REMARK  status: ('A' for Active; 'I' for Inactive)
REMARK    1  A    between atoms: C2_2  and  N1_4 
REMARK    2  A    between atoms: N1_4  and  C4_6 
REMARK    3  A    between atoms: C4_6  and  N2_8 
REMARK       I    between atoms: N2_8  and  C5_10 
REMARK    4  A    between atoms: C5_10  and  C6_12 
ROOT
HETATM    1  N2  UNL     1    -136.082-182.351 296.437  1.00  0.00    -0.304 N 
ATOM      2  H2  UNL     1    -136.316-181.544 295.858  1.00  0.00     0.171 HD
HETATM    3  C5  UNL     1    -136.644-182.448 297.737  1.00  0.00     0.228 C 
HETATM    4  O1  UNL     1    -136.363-183.429 298.450  1.00  0.00    -0.273 OA
ENDROOT
BRANCH   1   5
HETATM    5  C4  UNL     1    -135.209-183.335 295.917  1.00  0.00     0.174 C 
HETATM    6  S1  UNL     1    -135.671-184.202 294.620  1.00  0.00    -0.041 SA
BRANCH   5   7
HETATM    7  N1  UNL     1    -133.947-183.563 296.517  1.00  0.00    -0.363 N 
ATOM      8  H1  UNL     1    -133.719-183.115 297.405  1.00  0.00     0.162 HD
BRANCH   7   9
HETATM    9  C2  UNL     1    -132.980-184.426 295.880  1.00  0.00     0.075 C 
HETATM   10  C1  UNL     1    -131.844-183.610 295.296  1.00  0.00     0.032 C 
HETATM   11  C3  UNL     1    -132.477-185.414 296.908  1.00  0.00     0.032 C 
ENDBRANCH   7   9
ENDBRANCH   5   7
ENDBRANCH   1   5
BRANCH   3  12
HETATM   12  C6  UNL     1    -137.540-181.391 298.207  1.00  0.00     0.078 C 
HETATM   13  C7  UNL     1    -137.950-181.583 299.664  1.00  0.00     0.014 C 
HETATM   14  C8  UNL     1    -138.630-180.228 299.905  1.00  0.00     0.001 C 
HETATM   15  C9  UNL     1    -137.519-179.293 299.416  1.00  0.00     0.001 C 
HETATM   16  C10 UNL     1    -136.874-180.037 298.265  1.00  0.00     0.014 C 
ENDBRANCH   3  12
TORSDOF 4
ENDMDL
MODEL 2
REMARK VINA RESULT: -4.878456910      0.683      1.563
REMARK  4 active torsions:
REMARK  status: ('A' for Active; 'I' for Inactive)
REMARK    1  A    between atoms: C2_2  and  N1_4 
REMARK    2  A    between atoms: N1_4  and  C4_6 
REMARK    3  A    between atoms: C4_6  and  N2_8 
REMARK       I    between atoms: N2_8  and  C5_10 
REMARK    4  A    between atoms: C5_10  and  C6_12 
ROOT
HETATM    1  N2  UNL     1    -135.565-182.280 296.524  1.00  0.00    -0.304 N 
ATOM      2  H2  UNL     1    -135.068-181.391 296.459  1.00  0.00     0.171 HD
HETATM    3  C5  UNL     1    -136.486-182.476 297.586  1.00  0.00     0.228 C 
HETATM    4  O1  UNL     1    -137.095-183.558 297.673  1.00  0.00    -0.273 OA
ENDROOT
BRANCH   1   5
HETATM    5  C4  UNL     1    -135.312-183.276 295.551  1.00  0.00     0.174 C 
HETATM    6  S1  UNL     1    -135.960-183.120 294.067  1.00  0.00    -0.041 SA
BRANCH   5   7
HETATM    7  N1  UNL     1    -134.503-184.395 295.865  1.00  0.00    -0.363 N 
ATOM      8  H1  UNL     1    -134.853-185.338 295.693  1.00  0.00     0.162 HD
BRANCH   7   9
HETATM    9  C2  UNL     1    -133.186-184.210 296.427  1.00  0.00     0.075 C 
HETATM   10  C1  UNL     1    -132.592-185.543 296.835  1.00  0.00     0.032 C 
HETATM   11  C3  UNL     1    -132.325-183.514 295.397  1.00  0.00     0.032 C 
ENDBRANCH   7   9
ENDBRANCH   5   7
ENDBRANCH   1   5
BRANCH   3  12
HETATM   12  C6  UNL     1    -136.696-181.399 298.555  1.00  0.00     0.078 C 
HETATM   13  C7  UNL     1    -137.179-180.111 297.897  1.00  0.00     0.014 C 
HETATM   14  C8  UNL     1    -137.544-179.316 299.158  1.00  0.00     0.001 C 
HETATM   15  C9  UNL     1    -138.442-180.341 299.856  1.00  0.00     0.001 C 
HETATM   16  C10 UNL     1    -137.828-181.682 299.513  1.00  0.00     0.014 C 
ENDBRANCH   3  12
TORSDOF 4
ENDMDL
MODEL 3
REMARK VINA RESULT: -4.638614055      1.240      1.383
REMARK  4 active torsions:
REMARK  status: ('A' for Active; 'I' for Inactive)
REMARK    1  A    between atoms: C2_2  and  N1_4 
REMARK    2  A    between atoms: N1_4  and  C4_6 
REMARK    3  A    between atoms: C4_6  and  N2_8 
REMARK       I    between atoms: N2_8  and  C5_10 
REMARK    4  A    between atoms: C5_10  and  C6_12 
ROOT
HETATM    1  N2  UNL     1    -135.638-182.446 295.897  1.00  0.00    -0.304 N 
ATOM      2  H2  UNL     1    -136.126-181.782 295.295  1.00  0.00     0.171 HD
HETATM    3  C5  UNL     1    -136.038-182.564 297.254  1.00  0.00     0.228 C 
HETATM    4  O1  UNL     1    -135.447-183.370 297.995  1.00  0.00    -0.273 OA
ENDROOT
BRANCH   1   5
HETATM    5  C4  UNL     1    -134.585-183.218 295.351  1.00  0.00     0.174 C 
HETATM    6  S1  UNL     1    -133.521-182.510 294.344  1.00  0.00    -0.041 SA
BRANCH   5   7
HETATM    7  N1  UNL     1    -134.458-184.590 295.678  1.00  0.00    -0.363 N 
ATOM      8  H1  UNL     1    -135.270-185.109 296.011  1.00  0.00     0.162 HD
BRANCH   7   9
HETATM    9  C2  UNL     1    -133.185-185.258 295.543  1.00  0.00     0.075 C 
HETATM   10  C1  UNL     1    -132.420-185.210 296.849  1.00  0.00     0.032 C 
HETATM   11  C3  UNL     1    -133.442-186.683 295.106  1.00  0.00     0.032 C 
ENDBRANCH   7   9
ENDBRANCH   5   7
ENDBRANCH   1   5
BRANCH   3  12
HETATM   12  C6  UNL     1    -137.137-181.732 297.748  1.00  0.00     0.078 C 
HETATM   13  C7  UNL     1    -137.436-181.980 299.223  1.00  0.00     0.014 C 
HETATM   14  C8  UNL     1    -138.401-180.814 299.475  1.00  0.00     0.001 C 
HETATM   15  C9  UNL     1    -137.557-179.659 298.927  1.00  0.00     0.001 C 
HETATM   16  C10 UNL     1    -136.801-180.260 297.759  1.00  0.00     0.014 C 
ENDBRANCH   3  12
TORSDOF 4
ENDMDL
MODEL 4
REMARK VINA RESULT: -4.569417826      2.371      6.010
REMARK  4 active torsions:
REMARK  status: ('A' for Active; 'I' for Inactive)
REMARK    1  A    between atoms: C2_2  and  N1_4 
REMARK    2  A    between atoms: N1_4  and  C4_6 
REMARK    3  A    between atoms: C4_6  and  N2_8 
REMARK       I    between atoms: N2_8  and  C5_10 
REMARK    4  A    between atoms: C5_10  and  C6_12 
ROOT
HETATM    1  N2  UNL     1    -135.093-182.496 295.413  1.00  0.00    -0.304 N 
ATOM      2  H2  UNL     1    -135.440-183.212 296.051  1.00  0.00     0.171 HD
HETATM    3  C5  UNL     1    -133.772-182.613 294.905  1.00  0.00     0.228 C 
HETATM    4  O1  UNL     1    -133.340-181.743 294.127  1.00  0.00    -0.273 OA
ENDROOT
BRANCH   1   5
HETATM    5  C4  UNL     1    -135.943-181.421 295.064  1.00  0.00     0.174 C 
HETATM    6  S1  UNL     1    -137.254-181.711 294.144  1.00  0.00    -0.041 SA
BRANCH   5   7
HETATM    7  N1  UNL     1    -135.658-180.108 295.510  1.00  0.00    -0.363 N 
ATOM      8  H1  UNL     1    -134.789-179.654 295.228  1.00  0.00     0.162 HD
BRANCH   7   9
HETATM    9  C2  UNL     1    -136.590-179.407 296.361  1.00  0.00     0.075 C 
HETATM   10  C1  UNL     1    -136.918-180.238 297.586  1.00  0.00     0.032 C 
HETATM   11  C3  UNL     1    -135.976-178.079 296.744  1.00  0.00     0.032 C 
ENDBRANCH   7   9
ENDBRANCH   5   7
ENDBRANCH   1   5
BRANCH   3  12
HETATM   12  C6  UNL     1    -132.950-183.754 295.311  1.00  0.00     0.078 C 
HETATM   13  C7  UNL     1    -133.118-184.096 296.788  1.00  0.00     0.014 C 
HETATM   14  C8  UNL     1    -132.370-185.435 296.814  1.00  0.00     0.001 C 
HETATM   15  C9  UNL     1    -133.076-186.147 295.657  1.00  0.00     0.001 C 
HETATM   16  C10 UNL     1    -133.377-185.047 294.659  1.00  0.00     0.014 C 
ENDBRANCH   3  12
TORSDOF 4
ENDMDL
MODEL 5
REMARK VINA RESULT: -4.540963274      1.790      2.318
REMARK  4 active torsions:
REMARK  status: ('A' for Active; 'I' for Inactive)
REMARK    1  A    between atoms: C2_2  and  N1_4 
REMARK    2  A    between atoms: N1_4  and  C4_6 
REMARK    3  A    between atoms: C4_6  and  N2_8 
REMARK       I    between atoms: N2_8  and  C5_10 
REMARK    4  A    between atoms: C5_10  and  C6_12 
ROOT
HETATM    1  N2  UNL     1    -134.718-182.800 295.631  1.00  0.00    -0.304 N 
ATOM      2  H2  UNL     1    -134.380-182.076 296.266  1.00  0.00     0.171 HD
HETATM    3  C5  UNL     1    -136.059-183.249 295.754  1.00  0.00     0.228 C 
HETATM    4  O1  UNL     1    -136.478-184.133 294.984  1.00  0.00    -0.273 OA
ENDROOT
BRANCH   1   5
HETATM    5  C4  UNL     1    -133.833-183.322 294.658  1.00  0.00     0.174 C 
HETATM    6  S1  UNL     1    -133.439-182.409 293.371  1.00  0.00    -0.041 SA
BRANCH   5   7
HETATM    7  N1  UNL     1    -133.297-184.625 294.803  1.00  0.00    -0.363 N 
ATOM      8  H1  UNL     1    -132.911-185.108 293.992  1.00  0.00     0.162 HD
BRANCH   7   9
HETATM    9  C2  UNL     1    -133.293-185.274 296.093  1.00  0.00     0.075 C 
HETATM   10  C1  UNL     1    -133.357-186.779 295.930  1.00  0.00     0.032 C 
HETATM   11  C3  UNL     1    -132.042-184.852 296.832  1.00  0.00     0.032 C 
ENDBRANCH   7   9
ENDBRANCH   5   7
ENDBRANCH   1   5
BRANCH   3  12
HETATM   12  C6  UNL     1    -136.916-182.661 296.784  1.00  0.00     0.078 C 
HETATM   13  C7  UNL     1    -136.422-182.966 298.195  1.00  0.00     0.014 C 
HETATM   14  C8  UNL     1    -137.341-182.023 298.983  1.00  0.00     0.001 C 
HETATM   15  C9  UNL     1    -137.086-180.719 298.221  1.00  0.00     0.001 C 
HETATM   16  C10 UNL     1    -136.888-181.151 296.783  1.00  0.00     0.014 C 
ENDBRANCH   3  12
TORSDOF 4
ENDMDL
