MODEL 1
REMARK VINA RESULT: -6.182006153      0.000      0.000
REMARK  2 active torsions:
REMARK  status: ('A' for Active; 'I' for Inactive)
REMARK    1  A    between atoms: N1_1  and  C1_4 
REMARK    2  A    between atoms: C3_9  and  C4_10 
REMARK       I    between atoms: C4_10  and  N4_12 
ROOT
HETATM    1  C1  UNL     1     -18.525 -30.753  -4.968  1.00  0.00     0.677 A 
HETATM    2  N2  UNL     1     -19.707 -30.878  -5.567  1.00  0.00    -0.177 N 
ATOM      3  H2  UNL     1     -19.852 -31.281  -6.493  1.00  0.00     0.185 HD
HETATM    4  C2  UNL     1     -20.675 -30.401  -4.784  1.00  0.00     0.164 A 
HETATM    5  N3  UNL     1     -22.079 -30.364  -5.086  1.00  0.00    -0.080 NA
HETATM    6  C3  UNL     1     -20.063 -29.942  -3.608  1.00  0.00     0.158 A 
HETATM    7  N6  UNL     1     -18.761 -30.180  -3.774  1.00  0.00    -0.183 N 
ATOM      8  H6  UNL     1     -18.039 -29.956  -3.089  1.00  0.00     0.184 HD
ENDROOT
BRANCH   6   9
HETATM    9  C4  UNL     1     -20.744 -29.336  -2.502  1.00  0.00     0.275 C 
HETATM   10  O1  UNL     1     -20.931 -28.059  -2.608  1.00  0.00    -0.266 OA
HETATM   11  N4  UNL     1     -21.246 -29.885  -1.319  1.00  0.00    -0.321 N 
HETATM   12  C5  UNL     1     -21.317 -31.203  -0.740  1.00  0.00     0.155 C 
HETATM   13  C7  UNL     1     -21.882 -29.056  -0.250  1.00  0.00     0.359 C 
HETATM   14  C6  UNL     1     -22.761 -31.200  -0.193  1.00  0.00     0.254 C 
HETATM   15  N5  UNL     1     -22.832 -29.899   0.406  1.00  0.00    -0.058 N 
ATOM     16  H52 UNL     1     -23.775 -29.512   0.396  1.00  0.00     0.279 HD
ATOM     17  H51 UNL     1     -22.705 -29.924   1.418  1.00  0.00     0.279 HD
ENDBRANCH   6   9
BRANCH   1  18
HETATM   18  N1  UNL     1     -17.345 -31.108  -5.425  1.00  0.00    -0.234 N 
ATOM     19  H12 UNL     1     -17.124 -31.314  -6.399  1.00  0.00     0.174 HD
ATOM     20  H11 UNL     1     -16.479 -31.234  -4.899  1.00  0.00     0.174 HD
ENDBRANCH   1  18
TORSDOF 2
ENDMDL
MODEL 2
REMARK VINA RESULT: -6.115869642      1.996      2.158
REMARK  2 active torsions:
REMARK  status: ('A' for Active; 'I' for Inactive)
REMARK    1  A    between atoms: N1_1  and  C1_4 
REMARK    2  A    between atoms: C3_9  and  C4_10 
REMARK       I    between atoms: C4_10  and  N4_12 
ROOT
HETATM    1  C1  UNL     1     -18.289 -29.639  -5.873  1.00  0.00     0.677 A 
HETATM    2  N2  UNL     1     -18.658 -28.360  -5.825  1.00  0.00    -0.177 N 
ATOM      3  H2  UNL     1     -18.127 -27.585  -6.219  1.00  0.00     0.185 HD
HETATM    4  C2  UNL     1     -19.822 -28.240  -5.187  1.00  0.00     0.164 A 
HETATM    5  N3  UNL     1     -20.539 -27.019  -4.938  1.00  0.00    -0.080 NA
HETATM    6  C3  UNL     1     -20.218 -29.530  -4.805  1.00  0.00     0.158 A 
HETATM    7  N6  UNL     1     -19.251 -30.338  -5.246  1.00  0.00    -0.183 N 
ATOM      8  H6  UNL     1     -19.243 -31.351  -5.123  1.00  0.00     0.184 HD
ENDROOT
BRANCH   6   9
HETATM    9  C4  UNL     1     -21.411 -29.851  -4.077  1.00  0.00     0.275 C 
HETATM   10  O1  UNL     1     -22.465 -30.029  -4.807  1.00  0.00    -0.266 OA
HETATM   11  N4  UNL     1     -21.637 -30.005  -2.708  1.00  0.00    -0.321 N 
HETATM   12  C5  UNL     1     -20.835 -29.938  -1.513  1.00  0.00     0.155 C 
HETATM   13  C7  UNL     1     -22.992 -30.288  -2.140  1.00  0.00     0.359 C 
HETATM   14  C6  UNL     1     -21.366 -31.164  -0.739  1.00  0.00     0.254 C 
HETATM   15  N5  UNL     1     -22.780 -31.029  -0.937  1.00  0.00    -0.058 N 
ATOM     16  H52 UNL     1     -23.266 -31.926  -0.936  1.00  0.00     0.279 HD
ATOM     17  H51 UNL     1     -23.253 -30.618  -0.132  1.00  0.00     0.279 HD
ENDBRANCH   6   9
BRANCH   1  18
HETATM   18  N1  UNL     1     -17.206 -30.148  -6.417  1.00  0.00    -0.234 N 
ATOM     19  H12 UNL     1     -17.042 -30.259  -7.418  1.00  0.00     0.174 HD
ATOM     20  H11 UNL     1     -16.376 -30.508  -5.946  1.00  0.00     0.174 HD
ENDBRANCH   1  18
TORSDOF 2
ENDMDL
MODEL 3
REMARK VINA RESULT: -6.114956077      3.464      7.181
REMARK  2 active torsions:
REMARK  status: ('A' for Active; 'I' for Inactive)
REMARK    1  A    between atoms: N1_1  and  C1_4 
REMARK    2  A    between atoms: C3_9  and  C4_10 
REMARK       I    between atoms: C4_10  and  N4_12 
ROOT
HETATM    1  C1  UNL     1     -25.219 -31.515   3.126  1.00  0.00     0.677 A 
HETATM    2  N2  UNL     1     -25.407 -30.196   3.131  1.00  0.00    -0.177 N 
ATOM      3  H2  UNL     1     -26.277 -29.733   3.393  1.00  0.00     0.185 HD
HETATM    4  C2  UNL     1     -24.297 -29.570   2.743  1.00  0.00     0.164 A 
HETATM    5  N3  UNL     1     -24.114 -28.149   2.622  1.00  0.00    -0.080 NA
HETATM    6  C3  UNL     1     -23.339 -30.559   2.474  1.00  0.00     0.158 A 
HETATM    7  N6  UNL     1     -23.952 -31.718   2.722  1.00  0.00    -0.183 N 
ATOM      8  H6  UNL     1     -23.518 -32.635   2.619  1.00  0.00     0.184 HD
ENDROOT
BRANCH   6   9
HETATM    9  C4  UNL     1     -22.003 -30.315   2.012  1.00  0.00     0.275 C 
HETATM   10  O1  UNL     1     -21.074 -30.541   2.884  1.00  0.00    -0.266 OA
HETATM   11  N4  UNL     1     -21.526 -29.874   0.775  1.00  0.00    -0.321 N 
HETATM   12  C5  UNL     1     -22.111 -29.517  -0.492  1.00  0.00     0.155 C 
HETATM   13  C7  UNL     1     -20.074 -29.626   0.512  1.00  0.00     0.359 C 
HETATM   14  C6  UNL     1     -21.132 -30.206  -1.467  1.00  0.00     0.254 C 
HETATM   15  N5  UNL     1     -19.868 -29.868  -0.881  1.00  0.00    -0.058 N 
ATOM     16  H52 UNL     1     -19.151 -30.572  -1.056  1.00  0.00     0.279 HD
ATOM     17  H51 UNL     1     -19.411 -29.088  -1.353  1.00  0.00     0.279 HD
ENDBRANCH   6   9
BRANCH   1  18
HETATM   18  N1  UNL     1     -26.078 -32.456   3.447  1.00  0.00    -0.234 N 
ATOM     19  H12 UNL     1     -26.533 -33.090   2.791  1.00  0.00     0.174 HD
ATOM     20  H11 UNL     1     -26.423 -32.703   4.375  1.00  0.00     0.174 HD
ENDBRANCH   1  18
TORSDOF 2
ENDMDL
MODEL 4
REMARK VINA RESULT: -6.036957036      2.225      3.131
REMARK  2 active torsions:
REMARK  status: ('A' for Active; 'I' for Inactive)
REMARK    1  A    between atoms: N1_1  and  C1_4 
REMARK    2  A    between atoms: C3_9  and  C4_10 
REMARK       I    between atoms: C4_10  and  N4_12 
ROOT
HETATM    1  C1  UNL     1     -19.903 -29.859  -3.080  1.00  0.00     0.677 A 
HETATM    2  N2  UNL     1     -21.162 -29.910  -3.508  1.00  0.00    -0.177 N 
ATOM      3  H2  UNL     1     -21.448 -29.849  -4.485  1.00  0.00     0.185 HD
HETATM    4  C2  UNL     1     -21.995 -30.053  -2.478  1.00  0.00     0.164 A 
HETATM    5  N3  UNL     1     -23.428 -30.146  -2.543  1.00  0.00    -0.080 NA
HETATM    6  C3  UNL     1     -21.210 -30.094  -1.317  1.00  0.00     0.158 A 
HETATM    7  N6  UNL     1     -19.950 -29.972  -1.740  1.00  0.00    -0.183 N 
ATOM      8  H6  UNL     1     -19.133 -29.964  -1.130  1.00  0.00     0.184 HD
ENDROOT
BRANCH   6   9
HETATM    9  C4  UNL     1     -21.713 -30.222   0.020  1.00  0.00     0.275 C 
HETATM   10  O1  UNL     1     -21.769 -31.435   0.469  1.00  0.00    -0.266 OA
HETATM   11  N4  UNL     1     -22.157 -29.260   0.930  1.00  0.00    -0.321 N 
HETATM   12  C5  UNL     1     -22.277 -27.824   0.941  1.00  0.00     0.155 C 
HETATM   13  C7  UNL     1     -22.705 -29.613   2.276  1.00  0.00     0.359 C 
HETATM   14  C6  UNL     1     -21.755 -27.500   2.358  1.00  0.00     0.254 C 
HETATM   15  N5  UNL     1     -22.412 -28.510   3.136  1.00  0.00    -0.058 N 
ATOM     16  H52 UNL     1     -21.877 -28.783   3.959  1.00  0.00     0.279 HD
ATOM     17  H51 UNL     1     -23.238 -28.158   3.621  1.00  0.00     0.279 HD
ENDBRANCH   6   9
BRANCH   1  18
HETATM   18  N1  UNL     1     -18.808 -29.725  -3.796  1.00  0.00    -0.234 N 
ATOM     19  H12 UNL     1     -17.984 -29.190  -3.523  1.00  0.00     0.174 HD
ATOM     20  H11 UNL     1     -18.606 -30.121  -4.714  1.00  0.00     0.174 HD
ENDBRANCH   1  18
TORSDOF 2
ENDMDL
MODEL 5
REMARK VINA RESULT: -6.027403508      2.218      3.360
REMARK  2 active torsions:
REMARK  status: ('A' for Active; 'I' for Inactive)
REMARK    1  A    between atoms: N1_1  and  C1_4 
REMARK    2  A    between atoms: C3_9  and  C4_10 
REMARK       I    between atoms: C4_10  and  N4_12 
ROOT
HETATM    1  C1  UNL     1     -20.058 -29.800  -2.492  1.00  0.00     0.677 A 
HETATM    2  N2  UNL     1     -21.368 -29.778  -2.731  1.00  0.00    -0.177 N 
ATOM      3  H2  UNL     1     -21.790 -29.747  -3.659  1.00  0.00     0.185 HD
HETATM    4  C2  UNL     1     -22.047 -29.803  -1.585  1.00  0.00     0.164 A 
HETATM    5  N3  UNL     1     -23.477 -29.792  -1.438  1.00  0.00    -0.080 NA
HETATM    6  C3  UNL     1     -21.104 -29.843  -0.548  1.00  0.00     0.158 A 
HETATM    7  N6  UNL     1     -19.915 -29.838  -1.155  1.00  0.00    -0.183 N 
ATOM      8  H6  UNL     1     -19.018 -29.860  -0.670  1.00  0.00     0.184 HD
ENDROOT
BRANCH   6   9
HETATM    9  C4  UNL     1     -21.411 -29.863   0.853  1.00  0.00     0.275 C 
HETATM   10  O1  UNL     1     -20.923 -28.876   1.533  1.00  0.00    -0.266 OA
HETATM   11  N4  UNL     1     -22.151 -30.768   1.617  1.00  0.00    -0.321 N 
HETATM   12  C5  UNL     1     -22.893 -31.976   1.359  1.00  0.00     0.155 C 
HETATM   13  C7  UNL     1     -22.306 -30.635   3.099  1.00  0.00     0.359 C 
HETATM   14  C6  UNL     1     -24.151 -31.732   2.222  1.00  0.00     0.254 C 
HETATM   15  N5  UNL     1     -23.568 -31.220   3.428  1.00  0.00    -0.058 N 
ATOM     16  H52 UNL     1     -24.184 -30.575   3.921  1.00  0.00     0.279 HD
ATOM     17  H51 UNL     1     -23.496 -31.926   4.161  1.00  0.00     0.279 HD
ENDBRANCH   6   9
BRANCH   1  18
HETATM   18  N1  UNL     1     -19.075 -29.786  -3.364  1.00  0.00    -0.234 N 
ATOM     19  H12 UNL     1     -18.125 -29.466  -3.181  1.00  0.00     0.174 HD
ATOM     20  H11 UNL     1     -19.097 -30.084  -4.340  1.00  0.00     0.174 HD
ENDBRANCH   1  18
TORSDOF 2
ENDMDL
