MODEL 1
REMARK VINA RESULT: -5.247239737      0.000      0.000
REMARK  7 active torsions:
REMARK  status: ('A' for Active; 'I' for Inactive)
REMARK    1  A    between atoms: N1_2  and  C2_3 
REMARK    2  A    between atoms: C2_3  and  C3_4 
REMARK    3  A    between atoms: C3_4  and  N2_5 
REMARK    4  A    between atoms: C5_10  and  C6_11 
REMARK    5  A    between atoms: C6_11  and  N3_12 
REMARK    6  A    between atoms: N3_12  and  C7_14 
REMARK    7  A    between atoms: N4_15  and  N5_17 
ROOT
HETATM    1  C6  UNL     1     -42.556 -21.451  -1.940  1.00  0.00     0.155 C 
ENDROOT
BRANCH   1   2
HETATM    2  C5  UNL     1     -41.965 -21.423  -3.287  1.00  0.00     0.233 A 
HETATM    3  N1  UNL     1     -42.041 -20.233  -4.121  1.00  0.00    -0.060 N 
HETATM    4  C1  UNL     1     -42.911 -19.161  -3.783  1.00  0.00     0.273 C 
HETATM    5  C4  UNL     1     -42.710 -21.441  -4.555  1.00  0.00     0.272 A 
BRANCH   3   6
HETATM    6  C2  UNL     1     -40.788 -19.860  -4.717  1.00  0.00     0.264 C 
BRANCH   6   7
HETATM    7  C3  UNL     1     -40.873 -19.206  -6.045  1.00  0.00     0.257 C 
BRANCH   7   8
HETATM    8  N2  UNL     1     -39.525 -18.914  -6.547  1.00  0.00    -0.078 N 
ATOM      9  H23 UNL     1     -38.992 -18.336  -5.897  1.00  0.00     0.274 HD
ATOM     10  H22 UNL     1     -38.927 -19.739  -6.538  1.00  0.00     0.274 HD
ATOM     11  H21 UNL     1     -39.582 -18.492  -7.474  1.00  0.00     0.274 HD
ENDBRANCH   7   8
ENDBRANCH   6   7
ENDBRANCH   3   6
ENDBRANCH   1   2
BRANCH   1  12
HETATM   12  N3  UNL     1     -41.749 -21.020  -0.848  1.00  0.00    -0.383 N 
ATOM     13  H3  UNL     1     -41.343 -21.739  -0.251  1.00  0.00     0.160 HD
BRANCH  12  14
HETATM   14  C7  UNL     1     -41.468 -19.671  -0.529  1.00  0.00     0.194 C 
HETATM   15  N4  UNL     1     -40.304 -19.139  -0.599  1.00  0.00    -0.283 N 
ATOM     16  H4  UNL     1     -39.510 -19.702  -0.902  1.00  0.00     0.189 HD
BRANCH  15  17
HETATM   17  N5  UNL     1     -40.111 -17.803  -0.268  1.00  0.00    -0.248 N 
HETATM   18  N6  UNL     1     -40.699 -16.928  -0.977  1.00  0.00    -0.331 N 
ATOM     19  H62 UNL     1     -41.289 -17.212  -1.759  1.00  0.00     0.178 HD
ATOM     20  H61 UNL     1     -40.557 -15.948  -0.734  1.00  0.00     0.178 HD
ATOM     21  H5  UNL     1     -39.518 -17.535   0.517  1.00  0.00     0.207 HD
ENDBRANCH  15  17
ENDBRANCH  12  14
ENDBRANCH   1  12
TORSDOF 7
ENDMDL
MODEL 2
REMARK VINA RESULT: -5.034121752      3.169      4.681
REMARK  7 active torsions:
REMARK  status: ('A' for Active; 'I' for Inactive)
REMARK    1  A    between atoms: N1_2  and  C2_3 
REMARK    2  A    between atoms: C2_3  and  C3_4 
REMARK    3  A    between atoms: C3_4  and  N2_5 
REMARK    4  A    between atoms: C5_10  and  C6_11 
REMARK    5  A    between atoms: C6_11  and  N3_12 
REMARK    6  A    between atoms: N3_12  and  C7_14 
REMARK    7  A    between atoms: N4_15  and  N5_17 
ROOT
HETATM    1  C6  UNL     1     -40.874 -20.063   0.659  1.00  0.00     0.155 C 
ENDROOT
BRANCH   1   2
HETATM    2  C5  UNL     1     -41.796 -19.661  -0.414  1.00  0.00     0.233 A 
HETATM    3  N1  UNL     1     -41.419 -18.656  -1.396  1.00  0.00    -0.060 N 
HETATM    4  C1  UNL     1     -40.273 -17.839  -1.201  1.00  0.00     0.273 C 
HETATM    5  C4  UNL     1     -42.518 -18.383  -0.495  1.00  0.00     0.272 A 
BRANCH   3   6
HETATM    6  C2  UNL     1     -41.690 -19.040  -2.755  1.00  0.00     0.264 C 
BRANCH   6   7
HETATM    7  C3  UNL     1     -42.415 -20.321  -2.932  1.00  0.00     0.257 C 
BRANCH   7   8
HETATM    8  N2  UNL     1     -41.522 -21.325  -3.520  1.00  0.00    -0.078 N 
ATOM      9  H23 UNL     1     -40.719 -20.899  -3.983  1.00  0.00     0.274 HD
ATOM     10  H22 UNL     1     -41.019 -21.854  -2.807  1.00  0.00     0.274 HD
ATOM     11  H21 UNL     1     -42.046 -21.934  -4.149  1.00  0.00     0.274 HD
ENDBRANCH   7   8
ENDBRANCH   6   7
ENDBRANCH   3   6
ENDBRANCH   1   2
BRANCH   1  12
HETATM   12  N3  UNL     1     -41.064 -21.341   1.259  1.00  0.00    -0.383 N 
ATOM     13  H3  UNL     1     -41.267 -22.126   0.639  1.00  0.00     0.160 HD
BRANCH  12  14
HETATM   14  C7  UNL     1     -40.995 -21.606   2.646  1.00  0.00     0.194 C 
HETATM   15  N4  UNL     1     -41.819 -22.353   3.282  1.00  0.00    -0.283 N 
ATOM     16  H4  UNL     1     -42.587 -22.798   2.779  1.00  0.00     0.189 HD
BRANCH  15  17
HETATM   17  N5  UNL     1     -41.681 -22.563   4.648  1.00  0.00    -0.248 N 
HETATM   18  N6  UNL     1     -42.741 -22.640   5.344  1.00  0.00    -0.331 N 
ATOM     19  H62 UNL     1     -43.655 -22.549   4.900  1.00  0.00     0.178 HD
ATOM     20  H61 UNL     1     -42.640 -22.795   6.347  1.00  0.00     0.178 HD
ATOM     21  H5  UNL     1     -40.760 -22.653   5.078  1.00  0.00     0.207 HD
ENDBRANCH  15  17
ENDBRANCH  12  14
ENDBRANCH   1  12
TORSDOF 7
ENDMDL
MODEL 3
REMARK VINA RESULT: -5.003090514      1.263      1.429
REMARK  7 active torsions:
REMARK  status: ('A' for Active; 'I' for Inactive)
REMARK    1  A    between atoms: N1_2  and  C2_3 
REMARK    2  A    between atoms: C2_3  and  C3_4 
REMARK    3  A    between atoms: C3_4  and  N2_5 
REMARK    4  A    between atoms: C5_10  and  C6_11 
REMARK    5  A    between atoms: C6_11  and  N3_12 
REMARK    6  A    between atoms: N3_12  and  C7_14 
REMARK    7  A    between atoms: N4_15  and  N5_17 
ROOT
HETATM    1  C6  UNL     1     -41.894 -22.007  -2.428  1.00  0.00     0.155 C 
ENDROOT
BRANCH   1   2
HETATM    2  C5  UNL     1     -42.687 -21.466  -3.543  1.00  0.00     0.233 A 
HETATM    3  N1  UNL     1     -42.465 -20.118  -4.044  1.00  0.00    -0.060 N 
HETATM    4  C1  UNL     1     -41.678 -19.189  -3.312  1.00  0.00     0.273 C 
HETATM    5  C4  UNL     1     -43.738 -20.444  -3.436  1.00  0.00     0.272 A 
BRANCH   3   6
HETATM    6  C2  UNL     1     -42.358 -20.040  -5.475  1.00  0.00     0.264 C 
BRANCH   6   7
HETATM    7  C3  UNL     1     -41.204 -19.267  -5.996  1.00  0.00     0.257 C 
BRANCH   7   8
HETATM    8  N2  UNL     1     -41.399 -18.974  -7.420  1.00  0.00    -0.078 N 
ATOM      9  H23 UNL     1     -41.170 -19.774  -8.010  1.00  0.00     0.274 HD
ATOM     10  H22 UNL     1     -42.386 -18.888  -7.661  1.00  0.00     0.274 HD
ATOM     11  H21 UNL     1     -40.868 -18.143  -7.681  1.00  0.00     0.274 HD
ENDBRANCH   7   8
ENDBRANCH   6   7
ENDBRANCH   3   6
ENDBRANCH   1   2
BRANCH   1  12
HETATM   12  N3  UNL     1     -42.431 -21.899  -1.113  1.00  0.00    -0.383 N 
ATOM     13  H3  UNL     1     -43.151 -22.569  -0.843  1.00  0.00     0.160 HD
BRANCH  12  14
HETATM   14  C7  UNL     1     -42.044 -20.935  -0.154  1.00  0.00     0.194 C 
HETATM   15  N4  UNL     1     -41.029 -20.161  -0.276  1.00  0.00    -0.283 N 
ATOM     16  H4  UNL     1     -40.445 -20.223  -1.109  1.00  0.00     0.189 HD
BRANCH  15  17
HETATM   17  N5  UNL     1     -40.716 -19.238   0.714  1.00  0.00    -0.248 N 
HETATM   18  N6  UNL     1     -40.069 -18.200   0.370  1.00  0.00    -0.331 N 
ATOM     19  H62 UNL     1     -39.797 -18.063  -0.603  1.00  0.00     0.178 HD
ATOM     20  H61 UNL     1     -39.839 -17.522   1.096  1.00  0.00     0.178 HD
ATOM     21  H5  UNL     1     -40.995 -19.388   1.683  1.00  0.00     0.207 HD
ENDBRANCH  15  17
ENDBRANCH  12  14
ENDBRANCH   1  12
TORSDOF 7
ENDMDL
MODEL 4
REMARK VINA RESULT: -4.891389600      1.789      2.587
REMARK  7 active torsions:
REMARK  status: ('A' for Active; 'I' for Inactive)
REMARK    1  A    between atoms: N1_2  and  C2_3 
REMARK    2  A    between atoms: C2_3  and  C3_4 
REMARK    3  A    between atoms: C3_4  and  N2_5 
REMARK    4  A    between atoms: C5_10  and  C6_11 
REMARK    5  A    between atoms: C6_11  and  N3_12 
REMARK    6  A    between atoms: N3_12  and  C7_14 
REMARK    7  A    between atoms: N4_15  and  N5_17 
ROOT
HETATM    1  C6  UNL     1     -42.338 -20.330  -1.422  1.00  0.00     0.155 C 
ENDROOT
BRANCH   1   2
HETATM    2  C5  UNL     1     -41.926 -20.936  -2.699  1.00  0.00     0.233 A 
HETATM    3  N1  UNL     1     -42.135 -20.247  -3.963  1.00  0.00    -0.060 N 
HETATM    4  C1  UNL     1     -42.978 -19.105  -4.041  1.00  0.00     0.273 C 
HETATM    5  C4  UNL     1     -42.828 -21.494  -3.717  1.00  0.00     0.272 A 
BRANCH   3   6
HETATM    6  C2  UNL     1     -40.977 -20.230  -4.815  1.00  0.00     0.264 C 
BRANCH   6   7
HETATM    7  C3  UNL     1     -40.952 -19.171  -5.851  1.00  0.00     0.257 C 
BRANCH   7   8
HETATM    8  N2  UNL     1     -39.581 -18.978  -6.339  1.00  0.00    -0.078 N 
ATOM      9  H23 UNL     1     -39.136 -18.165  -5.913  1.00  0.00     0.274 HD
ATOM     10  H22 UNL     1     -38.947 -19.696  -5.989  1.00  0.00     0.274 HD
ATOM     11  H21 UNL     1     -39.577 -18.926  -7.357  1.00  0.00     0.274 HD
ENDBRANCH   7   8
ENDBRANCH   6   7
ENDBRANCH   3   6
ENDBRANCH   1   2
BRANCH   1  12
HETATM   12  N3  UNL     1     -41.329 -19.743  -0.606  1.00  0.00    -0.383 N 
ATOM     13  H3  UNL     1     -40.754 -19.012  -1.023  1.00  0.00     0.160 HD
BRANCH  12  14
HETATM   14  C7  UNL     1     -41.065 -20.096   0.737  1.00  0.00     0.194 C 
HETATM   15  N4  UNL     1     -41.126 -21.291   1.197  1.00  0.00    -0.283 N 
ATOM     16  H4  UNL     1     -41.381 -22.057   0.574  1.00  0.00     0.189 HD
BRANCH  15  17
HETATM   17  N5  UNL     1     -40.850 -21.555   2.533  1.00  0.00    -0.248 N 
HETATM   18  N6  UNL     1     -41.308 -22.631   3.029  1.00  0.00    -0.331 N 
ATOM     19  H62 UNL     1     -41.857 -23.268   2.453  1.00  0.00     0.178 HD
ATOM     20  H61 UNL     1     -41.105 -22.825   4.010  1.00  0.00     0.178 HD
ATOM     21  H5  UNL     1     -40.299 -20.907   3.095  1.00  0.00     0.207 HD
ENDBRANCH  15  17
ENDBRANCH  12  14
ENDBRANCH   1  12
TORSDOF 7
ENDMDL
MODEL 5
REMARK VINA RESULT: -4.884627755      1.269      4.878
REMARK  7 active torsions:
REMARK  status: ('A' for Active; 'I' for Inactive)
REMARK    1  A    between atoms: N1_2  and  C2_3 
REMARK    2  A    between atoms: C2_3  and  C3_4 
REMARK    3  A    between atoms: C3_4  and  N2_5 
REMARK    4  A    between atoms: C5_10  and  C6_11 
REMARK    5  A    between atoms: C6_11  and  N3_12 
REMARK    6  A    between atoms: N3_12  and  C7_14 
REMARK    7  A    between atoms: N4_15  and  N5_17 
ROOT
HETATM    1  C6  UNL     1     -42.435 -21.320  -3.009  1.00  0.00     0.155 C 
ENDROOT
BRANCH   1   2
HETATM    2  C5  UNL     1     -42.077 -20.401  -1.916  1.00  0.00     0.233 A 
HETATM    3  N1  UNL     1     -42.003 -20.861  -0.538  1.00  0.00    -0.060 N 
HETATM    4  C1  UNL     1     -42.531 -22.125  -0.161  1.00  0.00     0.273 C 
HETATM    5  C4  UNL     1     -42.997 -19.873  -0.899  1.00  0.00     0.272 A 
BRANCH   3   6
HETATM    6  C2  UNL     1     -40.808 -20.451   0.149  1.00  0.00     0.264 C 
BRANCH   6   7
HETATM    7  C3  UNL     1     -40.709 -19.006   0.467  1.00  0.00     0.257 C 
BRANCH   7   8
HETATM    8  N2  UNL     1     -39.676 -18.379  -0.365  1.00  0.00    -0.078 N 
ATOM      9  H23 UNL     1     -39.838 -17.379  -0.487  1.00  0.00     0.274 HD
ATOM     10  H22 UNL     1     -38.778 -18.327   0.115  1.00  0.00     0.274 HD
ATOM     11  H21 UNL     1     -39.604 -18.866  -1.259  1.00  0.00     0.274 HD
ENDBRANCH   7   8
ENDBRANCH   6   7
ENDBRANCH   3   6
ENDBRANCH   1   2
BRANCH   1  12
HETATM   12  N3  UNL     1     -42.683 -20.762  -4.295  1.00  0.00    -0.383 N 
ATOM     13  H3  UNL     1     -43.579 -20.974  -4.735  1.00  0.00     0.160 HD
BRANCH  12  14
HETATM   14  C7  UNL     1     -41.784 -19.938  -5.010  1.00  0.00     0.194 C 
HETATM   15  N4  UNL     1     -41.880 -19.678  -6.262  1.00  0.00    -0.283 N 
ATOM     16  H4  UNL     1     -42.646 -20.079  -6.802  1.00  0.00     0.189 HD
BRANCH  15  17
HETATM   17  N5  UNL     1     -40.953 -18.856  -6.891  1.00  0.00    -0.248 N 
HETATM   18  N6  UNL     1     -39.745 -18.924  -6.506  1.00  0.00    -0.331 N 
ATOM     19  H62 UNL     1     -39.480 -19.566  -5.758  1.00  0.00     0.178 HD
ATOM     20  H61 UNL     1     -39.065 -18.321  -6.968  1.00  0.00     0.178 HD
ATOM     21  H5  UNL     1     -41.234 -18.220  -7.637  1.00  0.00     0.207 HD
ENDBRANCH  15  17
ENDBRANCH  12  14
ENDBRANCH   1  12
TORSDOF 7
ENDMDL
