MODEL 1
REMARK VINA RESULT: -6.949454077      0.000      0.000
REMARK  2 active torsions:
REMARK  status: ('A' for Active; 'I' for Inactive)
REMARK    1  A    between atoms: C2_2  and  N1_3 
REMARK    2  A    between atoms: C2_2  and  C6_10 
REMARK       I    between atoms: C3_5  and  N3_7 
ROOT
HETATM    1  C1  UNL     1    -107.792-176.211 305.939  1.00  0.00     0.032 C 
HETATM    2  C2  UNL     1    -108.407-175.550 307.146  1.00  0.00     0.088 C 
ENDROOT
BRANCH   2   3
HETATM    3  N1  UNL     1    -109.818-175.510 307.117  1.00  0.00    -0.360 N 
HETATM    4  C3  UNL     1    -110.607-174.534 307.129  1.00  0.00     0.185 C 
HETATM    5  N2  UNL     1    -110.254-173.162 307.178  1.00  0.00    -0.064 NA
HETATM    6  N3  UNL     1    -112.005-174.817 307.091  1.00  0.00    -0.364 N 
HETATM    7  C4  UNL     1    -112.621-175.761 307.971  1.00  0.00     0.151 C 
HETATM    8  C5  UNL     1    -112.785-174.094 306.108  1.00  0.00     0.151 C 
ATOM      9  H1  UNL     1    -110.270-176.424 307.079  1.00  0.00     0.162 HD
ENDBRANCH   2   3
BRANCH   2  10
HETATM   10  C6  UNL     1    -107.912-176.226 308.439  1.00  0.00     0.063 C 
HETATM   11  C7  UNL     1    -106.671-177.007 308.205  1.00  0.00     0.011 C 
HETATM   12  C8  UNL     1    -105.643-177.008 309.264  1.00  0.00     0.001 C 
HETATM   13  C9  UNL     1    -106.272-176.824 310.627  1.00  0.00     0.004 C 
HETATM   14  C10 UNL     1    -106.875-175.440 310.598  1.00  0.00     0.061 C 
HETATM   15  C11 UNL     1    -107.937-175.281 309.572  1.00  0.00     0.184 C 
HETATM   16  F1  UNL     1    -107.859-173.939 309.161  1.00  0.00    -0.225 F 
HETATM   17 CL1  UNL     1    -109.516-175.379 310.436  1.00  0.00    -0.082 Cl
ENDBRANCH   2  10
TORSDOF 2
ENDMDL
MODEL 2
REMARK VINA RESULT: -6.895823935      2.232      5.448
REMARK  2 active torsions:
REMARK  status: ('A' for Active; 'I' for Inactive)
REMARK    1  A    between atoms: C2_2  and  N1_3 
REMARK    2  A    between atoms: C2_2  and  C6_10 
REMARK       I    between atoms: C3_5  and  N3_7 
ROOT
HETATM    1  C1  UNL     1    -111.022-177.666 309.809  1.00  0.00     0.032 C 
HETATM    2  C2  UNL     1    -110.440-176.477 309.087  1.00  0.00     0.088 C 
ENDROOT
BRANCH   2   3
HETATM    3  N1  UNL     1    -109.236-176.758 308.405  1.00  0.00    -0.360 N 
HETATM    4  C3  UNL     1    -108.061-176.384 308.638  1.00  0.00     0.185 C 
HETATM    5  N2  UNL     1    -107.634-175.545 309.697  1.00  0.00    -0.064 NA
HETATM    6  N3  UNL     1    -107.038-176.841 307.755  1.00  0.00    -0.364 N 
HETATM    7  C4  UNL     1    -107.150-176.740 306.333  1.00  0.00     0.151 C 
HETATM    8  C5  UNL     1    -105.862-177.421 308.371  1.00  0.00     0.151 C 
ATOM      9  H1  UNL     1    -109.338-177.364 307.591  1.00  0.00     0.162 HD
ENDBRANCH   2   3
BRANCH   2  10
HETATM   10  C6  UNL     1    -111.479-175.873 308.123  1.00  0.00     0.063 C 
HETATM   11  C7  UNL     1    -112.865-176.195 308.544  1.00  0.00     0.011 C 
HETATM   12  C8  UNL     1    -113.903-175.161 308.361  1.00  0.00     0.001 C 
HETATM   13  C9  UNL     1    -113.571-174.265 307.188  1.00  0.00     0.004 C 
HETATM   14  C10 UNL     1    -112.301-173.551 307.587  1.00  0.00     0.061 C 
HETATM   15  C11 UNL     1    -111.155-174.468 307.809  1.00  0.00     0.184 C 
HETATM   16  F1  UNL     1    -110.377-173.855 308.807  1.00  0.00    -0.225 F 
HETATM   17 CL1  UNL     1    -110.120-174.376 306.336  1.00  0.00    -0.082 Cl
ENDBRANCH   2  10
TORSDOF 2
ENDMDL
MODEL 3
REMARK VINA RESULT: -6.656684268      2.334      5.106
REMARK  2 active torsions:
REMARK  status: ('A' for Active; 'I' for Inactive)
REMARK    1  A    between atoms: C2_2  and  N1_3 
REMARK    2  A    between atoms: C2_2  and  C6_10 
REMARK       I    between atoms: C3_5  and  N3_7 
ROOT
HETATM    1  C1  UNL     1    -107.856-176.528 306.026  1.00  0.00     0.032 C 
HETATM    2  C2  UNL     1    -108.804-176.176 307.144  1.00  0.00     0.088 C 
ENDROOT
BRANCH   2   3
HETATM    3  N1  UNL     1    -108.188-176.100 308.412  1.00  0.00    -0.360 N 
HETATM    4  C3  UNL     1    -108.513-176.615 309.510  1.00  0.00     0.185 C 
HETATM    5  N2  UNL     1    -109.638-177.441 309.756  1.00  0.00    -0.064 NA
HETATM    6  N3  UNL     1    -107.676-176.351 310.634  1.00  0.00    -0.364 N 
HETATM    7  C4  UNL     1    -107.264-175.028 310.990  1.00  0.00     0.151 C 
HETATM    8  C5  UNL     1    -107.256-177.498 311.413  1.00  0.00     0.151 C 
ATOM      9  H1  UNL     1    -107.339-175.534 308.441  1.00  0.00     0.162 HD
ENDBRANCH   2   3
BRANCH   2  10
HETATM   10  C6  UNL     1    -109.547-174.865 306.825  1.00  0.00     0.063 C 
HETATM   11  C7  UNL     1    -109.404-174.492 305.396  1.00  0.00     0.011 C 
HETATM   12  C8  UNL     1    -110.566-173.882 304.719  1.00  0.00     0.001 C 
HETATM   13  C9  UNL     1    -111.422-173.115 305.703  1.00  0.00     0.004 C 
HETATM   14  C10 UNL     1    -111.962-174.160 306.651  1.00  0.00     0.061 C 
HETATM   15  C11 UNL     1    -110.901-174.868 307.412  1.00  0.00     0.184 C 
HETATM   16  F1  UNL     1    -111.399-176.166 307.622  1.00  0.00    -0.225 F 
HETATM   17 CL1  UNL     1    -110.872-174.144 309.062  1.00  0.00    -0.082 Cl
ENDBRANCH   2  10
TORSDOF 2
ENDMDL
MODEL 4
REMARK VINA RESULT: -6.513228005      2.351      5.371
REMARK  2 active torsions:
REMARK  status: ('A' for Active; 'I' for Inactive)
REMARK    1  A    between atoms: C2_2  and  N1_3 
REMARK    2  A    between atoms: C2_2  and  C6_10 
REMARK       I    between atoms: C3_5  and  N3_7 
ROOT
HETATM    1  C1  UNL     1    -109.104-173.300 308.107  1.00  0.00     0.032 C 
HETATM    2  C2  UNL     1    -109.330-174.781 308.271  1.00  0.00     0.088 C 
ENDROOT
BRANCH   2   3
HETATM    3  N1  UNL     1    -108.372-175.416 309.092  1.00  0.00    -0.360 N 
HETATM    4  C3  UNL     1    -107.524-176.300 308.821  1.00  0.00     0.185 C 
HETATM    5  N2  UNL     1    -107.309-176.909 307.559  1.00  0.00    -0.064 NA
HETATM    6  N3  UNL     1    -106.681-176.751 309.881  1.00  0.00    -0.364 N 
HETATM    7  C4  UNL     1    -107.197-177.155 311.152  1.00  0.00     0.151 C 
HETATM    8  C5  UNL     1    -105.259-176.782 309.609  1.00  0.00     0.151 C 
ATOM      9  H1  UNL     1    -108.369-175.104 310.063  1.00  0.00     0.162 HD
ENDBRANCH   2   3
BRANCH   2  10
HETATM   10  C6  UNL     1    -110.753-175.054 308.792  1.00  0.00     0.063 C 
HETATM   11  C7  UNL     1    -111.698-173.986 308.379  1.00  0.00     0.011 C 
HETATM   12  C8  UNL     1    -113.075-174.380 308.018  1.00  0.00     0.001 C 
HETATM   13  C9  UNL     1    -113.494-175.624 308.769  1.00  0.00     0.004 C 
HETATM   14  C10 UNL     1    -112.576-176.714 308.266  1.00  0.00     0.061 C 
HETATM   15  C11 UNL     1    -111.143-176.458 308.557  1.00  0.00     0.184 C 
HETATM   16  F1  UNL     1    -110.437-177.046 307.493  1.00  0.00    -0.225 F 
HETATM   17 CL1  UNL     1    -110.710-177.476 309.980  1.00  0.00    -0.082 Cl
ENDBRANCH   2  10
TORSDOF 2
ENDMDL
MODEL 5
REMARK VINA RESULT: -6.370155083      2.435      3.148
REMARK  2 active torsions:
REMARK  status: ('A' for Active; 'I' for Inactive)
REMARK    1  A    between atoms: C2_2  and  N1_3 
REMARK    2  A    between atoms: C2_2  and  C6_10 
REMARK       I    between atoms: C3_5  and  N3_7 
ROOT
HETATM    1  C1  UNL     1    -109.550-173.099 308.039  1.00  0.00     0.032 C 
HETATM    2  C2  UNL     1    -110.130-174.242 307.247  1.00  0.00     0.088 C 
ENDROOT
BRANCH   2   3
HETATM    3  N1  UNL     1    -110.026-174.078 305.849  1.00  0.00    -0.360 N 
HETATM    4  C3  UNL     1    -110.916-173.917 304.977  1.00  0.00     0.185 C 
HETATM    5  N2  UNL     1    -112.315-173.859 305.197  1.00  0.00    -0.064 NA
HETATM    6  N3  UNL     1    -110.493-173.778 303.622  1.00  0.00    -0.364 N 
HETATM    7  C4  UNL     1    -109.577-174.688 303.007  1.00  0.00     0.151 C 
HETATM    8  C5  UNL     1    -111.039-172.657 302.885  1.00  0.00     0.151 C 
ATOM      9  H1  UNL     1    -109.073-174.091 305.487  1.00  0.00     0.162 HD
ENDBRANCH   2   3
BRANCH   2  10
HETATM   10  C6  UNL     1    -109.495-175.576 307.683  1.00  0.00     0.063 C 
HETATM   11  C7  UNL     1    -108.012-175.499 307.682  1.00  0.00     0.011 C 
HETATM   12  C8  UNL     1    -107.280-176.210 308.748  1.00  0.00     0.001 C 
HETATM   13  C9  UNL     1    -108.055-177.421 309.219  1.00  0.00     0.004 C 
HETATM   14  C10 UNL     1    -109.313-176.864 309.842  1.00  0.00     0.061 C 
HETATM   15  C11 UNL     1    -110.163-176.114 308.884  1.00  0.00     0.184 C 
HETATM   16  F1  UNL     1    -110.792-175.115 309.648  1.00  0.00    -0.225 F 
HETATM   17 CL1  UNL     1    -111.512-177.212 308.413  1.00  0.00    -0.082 Cl
ENDBRANCH   2  10
TORSDOF 2
ENDMDL
