MODEL 1
REMARK VINA RESULT: -6.451929516      0.000      0.000
REMARK  10 active torsions:
REMARK  status: ('A' for Active; 'I' for Inactive)
REMARK    1  A    between atoms: O1_2  and  C2_3 
REMARK    2  A    between atoms: C2_3  and  C3_4 
REMARK    3  A    between atoms: C8_11  and  C9_12 
REMARK    4  A    between atoms: C9_12  and  O2_13 
REMARK    5  A    between atoms: C9_12  and  N2_15 
REMARK    6  A    between atoms: N2_15  and  N3_16 
REMARK    7  A    between atoms: N3_16  and  C10_18 
REMARK    8  A    between atoms: C10_18  and  N4_20 
REMARK    9  A    between atoms: C11_22  and  C12_23 
REMARK   10  A    between atoms: C16_27  and  C17_28 
ROOT
HETATM    1  C3  UNL     1       2.136  -5.857 -31.459  1.00  0.00     0.024 A 
HETATM    2  C4  UNL     1       1.203  -4.980 -30.817  1.00  0.00     0.018 A 
HETATM    3  C5  UNL     1       0.781  -3.642 -31.305  1.00  0.00     0.069 C 
HETATM    4  N1  UNL     1       0.810  -5.599 -29.725  1.00  0.00    -0.358 N 
ATOM      5  H1  UNL     1       0.140  -5.222 -29.055  1.00  0.00     0.166 HD
HETATM    6  C6  UNL     1       1.418  -6.807 -29.608  1.00  0.00     0.048 A 
HETATM    7  C7  UNL     1       1.335  -7.764 -28.625  1.00  0.00     0.042 A 
HETATM    8  C8  UNL     1       2.075  -8.919 -28.672  1.00  0.00     0.009 A 
HETATM    9  C16 UNL     1       2.918  -9.112 -29.730  1.00  0.00     0.109 A 
HETATM   10  C18 UNL     1       3.045  -8.165 -30.770  1.00  0.00     0.201 A 
HETATM   11  O3  UNL     1       3.843  -8.317 -31.779  1.00  0.00    -0.287 OA
HETATM   12  C19 UNL     1       2.261  -6.999 -30.681  1.00  0.00     0.056 A 
ENDROOT
BRANCH   8  13
HETATM   13  C9  UNL     1       1.904  -9.877 -27.584  1.00  0.00     0.266 C 
BRANCH  13  14
HETATM   14  O2  UNL     1       2.595  -9.463 -26.420  1.00  0.00    -0.374 OA
ATOM     15  H2  UNL     1       2.576 -10.136 -25.750  1.00  0.00     0.212 HD
ENDBRANCH  13  14
BRANCH  13  16
HETATM   16  N2  UNL     1       0.471  -9.810 -27.206  1.00  0.00    -0.102 NA
BRANCH  16  17
HETATM   17  N3  UNL     1       0.191 -10.623 -26.131  1.00  0.00    -0.277 N 
ATOM     18  H3  UNL     1       0.133 -10.231 -25.192  1.00  0.00     0.185 HD
BRANCH  17  19
HETATM   19  C10 UNL     1      -0.015 -12.006 -26.337  1.00  0.00     0.187 C 
HETATM   20  S1  UNL     1      -0.854 -12.517 -27.624  1.00  0.00    -0.040 SA
BRANCH  19  21
HETATM   21  N4  UNL     1       0.514 -12.933 -25.415  1.00  0.00    -0.345 N 
HETATM   22  C11 UNL     1       1.504 -13.671 -25.784  1.00  0.00     0.072 C 
ATOM     23  H4  UNL     1       0.121 -13.018 -24.478  1.00  0.00     0.167 HD
BRANCH  22  24
HETATM   24  C12 UNL     1       2.040 -14.638 -24.793  1.00  0.00    -0.019 C 
HETATM   25  C13 UNL     1       3.541 -14.538 -24.632  1.00  0.00     0.020 C 
HETATM   26  C14 UNL     1       1.438 -14.301 -23.438  1.00  0.00     0.020 C 
HETATM   27  C15 UNL     1       1.623 -16.025 -25.241  1.00  0.00     0.020 C 
ENDBRANCH  22  24
ENDBRANCH  19  21
ENDBRANCH  17  19
ENDBRANCH  16  17
ENDBRANCH  13  16
ENDBRANCH   8  13
BRANCH   9  28
HETATM   28  C17 UNL     1       3.704 -10.367 -29.715  1.00  0.00     0.421 C 
HETATM   29  F1  UNL     1       3.689 -11.029 -28.507  1.00  0.00    -0.166 F 
HETATM   30  F2  UNL     1       3.163 -11.318 -30.605  1.00  0.00    -0.166 F 
HETATM   31  F3  UNL     1       5.062 -10.166 -29.969  1.00  0.00    -0.166 F 
ENDBRANCH   9  28
BRANCH   1  32
HETATM   32  C2  UNL     1       2.793  -5.406 -32.659  1.00  0.00     0.148 C 
BRANCH  32  33
HETATM   33  O1  UNL     1       4.099  -5.116 -32.784  1.00  0.00    -0.367 OA
HETATM   34  C1  UNL     1       4.634  -5.621 -34.006  1.00  0.00     0.208 C 
ENDBRANCH  32  33
ENDBRANCH   1  32
TORSDOF 10
ENDMDL
MODEL 2
REMARK VINA RESULT: -6.233607091     11.696     14.490
REMARK  10 active torsions:
REMARK  status: ('A' for Active; 'I' for Inactive)
REMARK    1  A    between atoms: O1_2  and  C2_3 
REMARK    2  A    between atoms: C2_3  and  C3_4 
REMARK    3  A    between atoms: C8_11  and  C9_12 
REMARK    4  A    between atoms: C9_12  and  O2_13 
REMARK    5  A    between atoms: C9_12  and  N2_15 
REMARK    6  A    between atoms: N2_15  and  N3_16 
REMARK    7  A    between atoms: N3_16  and  C10_18 
REMARK    8  A    between atoms: C10_18  and  N4_20 
REMARK    9  A    between atoms: C11_22  and  C12_23 
REMARK   10  A    between atoms: C16_27  and  C17_28 
ROOT
HETATM    1  C3  UNL     1       9.618 -16.873 -19.664  1.00  0.00     0.024 A 
HETATM    2  C4  UNL     1       9.261 -17.722 -18.568  1.00  0.00     0.018 A 
HETATM    3  C5  UNL     1       8.806 -17.276 -17.227  1.00  0.00     0.069 C 
HETATM    4  N1  UNL     1       9.420 -18.957 -18.994  1.00  0.00    -0.358 N 
ATOM      5  H1  UNL     1       9.241 -19.790 -18.434  1.00  0.00     0.166 HD
HETATM    6  C6  UNL     1       9.856 -18.973 -20.280  1.00  0.00     0.048 A 
HETATM    7  C7  UNL     1      10.182 -20.022 -21.105  1.00  0.00     0.042 A 
HETATM    8  C8  UNL     1      10.653 -19.824 -22.380  1.00  0.00     0.009 A 
HETATM    9  C16 UNL     1      10.798 -18.541 -22.830  1.00  0.00     0.109 A 
HETATM   10  C18 UNL     1      10.478 -17.424 -22.028  1.00  0.00     0.201 A 
HETATM   11  O3  UNL     1      10.616 -16.199 -22.425  1.00  0.00    -0.287 OA
HETATM   12  C19 UNL     1       9.994 -17.678 -20.731  1.00  0.00     0.056 A 
ENDROOT
BRANCH   8  13
HETATM   13  C9  UNL     1      10.959 -21.006 -23.179  1.00  0.00     0.266 C 
BRANCH  13  14
HETATM   14  O2  UNL     1      11.688 -21.960 -22.430  1.00  0.00    -0.374 OA
ATOM     15  H2  UNL     1      12.164 -22.554 -22.998  1.00  0.00     0.212 HD
ENDBRANCH  13  14
BRANCH  13  16
HETATM   16  N2  UNL     1       9.657 -21.664 -23.447  1.00  0.00    -0.102 NA
BRANCH  16  17
HETATM   17  N3  UNL     1       9.286 -21.538 -24.766  1.00  0.00    -0.277 N 
ATOM     18  H3  UNL     1       9.857 -21.952 -25.502  1.00  0.00     0.185 HD
BRANCH  17  19
HETATM   19  C10 UNL     1       8.108 -20.829 -25.095  1.00  0.00     0.187 C 
HETATM   20  S1  UNL     1       7.411 -21.041 -26.540  1.00  0.00    -0.040 SA
BRANCH  19  21
HETATM   21  N4  UNL     1       7.548 -19.938 -24.155  1.00  0.00    -0.345 N 
HETATM   22  C11 UNL     1       7.130 -18.791 -24.570  1.00  0.00     0.072 C 
ATOM     23  H4  UNL     1       7.475 -20.195 -23.171  1.00  0.00     0.167 HD
BRANCH  22  24
HETATM   24  C12 UNL     1       6.546 -17.873 -23.559  1.00  0.00    -0.019 C 
HETATM   25  C13 UNL     1       5.053 -17.690 -23.731  1.00  0.00     0.020 C 
HETATM   26  C14 UNL     1       6.746 -18.499 -22.188  1.00  0.00     0.020 C 
HETATM   27  C15 UNL     1       7.282 -16.553 -23.666  1.00  0.00     0.020 C 
ENDBRANCH  22  24
ENDBRANCH  19  21
ENDBRANCH  17  19
ENDBRANCH  16  17
ENDBRANCH  13  16
ENDBRANCH   8  13
BRANCH   9  28
HETATM   28  C17 UNL     1      11.327 -18.392 -24.205  1.00  0.00     0.421 C 
HETATM   29  F1  UNL     1      12.124 -19.435 -24.621  1.00  0.00    -0.166 F 
HETATM   30  F2  UNL     1      10.285 -18.390 -25.155  1.00  0.00    -0.166 F 
HETATM   31  F3  UNL     1      12.140 -17.267 -24.359  1.00  0.00    -0.166 F 
ENDBRANCH   9  28
BRANCH   1  32
HETATM   32  C2  UNL     1       9.607 -15.447 -19.464  1.00  0.00     0.148 C 
BRANCH  32  33
HETATM   33  O1  UNL     1      10.676 -14.678 -19.195  1.00  0.00    -0.367 OA
HETATM   34  C1  UNL     1      10.659 -14.209 -17.848  1.00  0.00     0.208 C 
ENDBRANCH  32  33
ENDBRANCH   1  32
TORSDOF 10
ENDMDL
MODEL 3
REMARK VINA RESULT: -6.218191915     12.575     15.504
REMARK  10 active torsions:
REMARK  status: ('A' for Active; 'I' for Inactive)
REMARK    1  A    between atoms: O1_2  and  C2_3 
REMARK    2  A    between atoms: C2_3  and  C3_4 
REMARK    3  A    between atoms: C8_11  and  C9_12 
REMARK    4  A    between atoms: C9_12  and  O2_13 
REMARK    5  A    between atoms: C9_12  and  N2_15 
REMARK    6  A    between atoms: N2_15  and  N3_16 
REMARK    7  A    between atoms: N3_16  and  C10_18 
REMARK    8  A    between atoms: C10_18  and  N4_20 
REMARK    9  A    between atoms: C11_22  and  C12_23 
REMARK   10  A    between atoms: C16_27  and  C17_28 
ROOT
HETATM    1  C3  UNL     1       8.691 -17.884 -16.772  1.00  0.00     0.024 A 
HETATM    2  C4  UNL     1       9.776 -17.160 -16.180  1.00  0.00     0.018 A 
HETATM    3  C5  UNL     1      10.177 -17.200 -14.751  1.00  0.00     0.069 C 
HETATM    4  N1  UNL     1      10.328 -16.466 -17.152  1.00  0.00    -0.358 N 
ATOM      5  H1  UNL     1      11.131 -15.849 -17.038  1.00  0.00     0.166 HD
HETATM    6  C6  UNL     1       9.683 -16.682 -18.327  1.00  0.00     0.048 A 
HETATM    7  C7  UNL     1       9.891 -16.150 -19.576  1.00  0.00     0.042 A 
HETATM    8  C8  UNL     1       9.089 -16.469 -20.644  1.00  0.00     0.009 A 
HETATM    9  C16 UNL     1       8.054 -17.341 -20.446  1.00  0.00     0.109 A 
HETATM   10  C18 UNL     1       7.793 -17.920 -19.185  1.00  0.00     0.201 A 
HETATM   11  O3  UNL     1       6.814 -18.740 -18.966  1.00  0.00    -0.287 OA
HETATM   12  C19 UNL     1       8.645 -17.566 -18.122  1.00  0.00     0.056 A 
ENDROOT
BRANCH   8  13
HETATM   13  C9  UNL     1       9.402 -15.859 -21.933  1.00  0.00     0.266 C 
BRANCH  13  14
HETATM   14  O2  UNL     1       9.738 -14.493 -21.787  1.00  0.00    -0.374 OA
ATOM     15  H2  UNL     1       9.525 -13.999 -22.570  1.00  0.00     0.212 HD
ENDBRANCH  13  14
BRANCH  13  16
HETATM   16  N2  UNL     1      10.658 -16.501 -22.391  1.00  0.00    -0.102 NA
BRANCH  16  17
HETATM   17  N3  UNL     1      10.417 -17.460 -23.350  1.00  0.00    -0.277 N 
ATOM     18  H3  UNL     1       9.922 -17.216 -24.206  1.00  0.00     0.185 HD
BRANCH  17  19
HETATM   19  C10 UNL     1      10.863 -18.784 -23.139  1.00  0.00     0.187 C 
HETATM   20  S1  UNL     1      11.399 -19.667 -24.385  1.00  0.00    -0.040 SA
BRANCH  19  21
HETATM   21  N4  UNL     1      10.834 -19.328 -21.837  1.00  0.00    -0.345 N 
HETATM   22  C11 UNL     1      10.389 -20.528 -21.683  1.00  0.00     0.072 C 
ATOM     23  H4  UNL     1      11.158 -18.785 -21.037  1.00  0.00     0.167 HD
BRANCH  22  24
HETATM   24  C12 UNL     1      10.370 -21.075 -20.302  1.00  0.00    -0.019 C 
HETATM   25  C13 UNL     1      11.244 -22.301 -20.148  1.00  0.00     0.020 C 
HETATM   26  C14 UNL     1      10.946 -20.018 -19.372  1.00  0.00     0.020 C 
HETATM   27  C15 UNL     1       8.926 -21.376 -19.953  1.00  0.00     0.020 C 
ENDBRANCH  22  24
ENDBRANCH  19  21
ENDBRANCH  17  19
ENDBRANCH  16  17
ENDBRANCH  13  16
ENDBRANCH   8  13
BRANCH   9  28
HETATM   28  C17 UNL     1       7.214 -17.632 -21.630  1.00  0.00     0.421 C 
HETATM   29  F1  UNL     1       5.898 -17.913 -21.334  1.00  0.00    -0.166 F 
HETATM   30  F2  UNL     1       7.115 -16.507 -22.474  1.00  0.00    -0.166 F 
HETATM   31  F3  UNL     1       7.642 -18.752 -22.344  1.00  0.00    -0.166 F 
ENDBRANCH   9  28
BRANCH   1  32
HETATM   32  C2  UNL     1       7.851 -18.687 -15.921  1.00  0.00     0.148 C 
BRANCH  32  33
HETATM   33  O1  UNL     1       6.775 -18.257 -15.241  1.00  0.00    -0.367 OA
HETATM   34  C1  UNL     1       5.687 -19.174 -15.347  1.00  0.00     0.208 C 
ENDBRANCH  32  33
ENDBRANCH   1  32
TORSDOF 10
ENDMDL
MODEL 4
REMARK VINA RESULT: -6.144711261     10.294     13.991
REMARK  10 active torsions:
REMARK  status: ('A' for Active; 'I' for Inactive)
REMARK    1  A    between atoms: O1_2  and  C2_3 
REMARK    2  A    between atoms: C2_3  and  C3_4 
REMARK    3  A    between atoms: C8_11  and  C9_12 
REMARK    4  A    between atoms: C9_12  and  O2_13 
REMARK    5  A    between atoms: C9_12  and  N2_15 
REMARK    6  A    between atoms: N2_15  and  N3_16 
REMARK    7  A    between atoms: N3_16  and  C10_18 
REMARK    8  A    between atoms: C10_18  and  N4_20 
REMARK    9  A    between atoms: C11_22  and  C12_23 
REMARK   10  A    between atoms: C16_27  and  C17_28 
ROOT
HETATM    1  C3  UNL     1       6.730 -16.855 -22.768  1.00  0.00     0.024 A 
HETATM    2  C4  UNL     1       5.829 -17.963 -22.870  1.00  0.00     0.018 A 
HETATM    3  C5  UNL     1       4.891 -18.229 -23.991  1.00  0.00     0.069 C 
HETATM    4  N1  UNL     1       6.004 -18.680 -21.780  1.00  0.00    -0.358 N 
ATOM      5  H1  UNL     1       5.500 -19.540 -21.565  1.00  0.00     0.166 HD
HETATM    6  C6  UNL     1       6.947 -18.119 -20.980  1.00  0.00     0.048 A 
HETATM    7  C7  UNL     1       7.421 -18.500 -19.748  1.00  0.00     0.042 A 
HETATM    8  C8  UNL     1       8.361 -17.763 -19.071  1.00  0.00     0.009 A 
HETATM    9  C16 UNL     1       8.831 -16.616 -19.649  1.00  0.00     0.109 A 
HETATM   10  C18 UNL     1       8.381 -16.175 -20.913  1.00  0.00     0.201 A 
HETATM   11  O3  UNL     1       8.800 -15.088 -21.479  1.00  0.00    -0.287 OA
HETATM   12  C19 UNL     1       7.421 -16.968 -21.570  1.00  0.00     0.056 A 
ENDROOT
BRANCH   8  13
HETATM   13  C9  UNL     1       8.808 -18.261 -17.774  1.00  0.00     0.266 C 
BRANCH  13  14
HETATM   14  O2  UNL     1       7.748 -18.278 -16.837  1.00  0.00    -0.374 OA
ATOM     15  H2  UNL     1       7.663 -17.440 -16.397  1.00  0.00     0.212 HD
ENDBRANCH  13  14
BRANCH  13  16
HETATM   16  N2  UNL     1       9.140 -19.691 -17.981  1.00  0.00    -0.102 NA
BRANCH  16  17
HETATM   17  N3  UNL     1      10.430 -19.853 -18.435  1.00  0.00    -0.277 N 
ATOM     18  H3  UNL     1      11.217 -19.564 -17.856  1.00  0.00     0.185 HD
BRANCH  17  19
HETATM   19  C10 UNL     1      10.655 -20.421 -19.709  1.00  0.00     0.187 C 
HETATM   20  S1  UNL     1      10.731 -22.029 -19.877  1.00  0.00    -0.040 SA
BRANCH  19  21
HETATM   21  N4  UNL     1      10.813 -19.577 -20.829  1.00  0.00    -0.345 N 
HETATM   22  C11 UNL     1      10.458 -20.020 -21.986  1.00  0.00     0.072 C 
ATOM     23  H4  UNL     1      11.198 -18.639 -20.725  1.00  0.00     0.167 HD
BRANCH  22  24
HETATM   24  C12 UNL     1      10.636 -19.111 -23.147  1.00  0.00    -0.019 C 
HETATM   25  C13 UNL     1      11.675 -19.612 -24.126  1.00  0.00     0.020 C 
HETATM   26  C14 UNL     1       9.320 -19.059 -23.906  1.00  0.00     0.020 C 
HETATM   27  C15 UNL     1      11.002 -17.745 -22.602  1.00  0.00     0.020 C 
ENDBRANCH  22  24
ENDBRANCH  19  21
ENDBRANCH  17  19
ENDBRANCH  16  17
ENDBRANCH  13  16
ENDBRANCH   8  13
BRANCH   9  28
HETATM   28  C17 UNL     1       9.827 -15.854 -18.864  1.00  0.00     0.421 C 
HETATM   29  F1  UNL     1      10.146 -14.623 -19.396  1.00  0.00    -0.166 F 
HETATM   30  F2  UNL     1       9.329 -15.527 -17.586  1.00  0.00    -0.166 F 
HETATM   31  F3  UNL     1      11.059 -16.504 -18.765  1.00  0.00    -0.166 F 
ENDBRANCH   9  28
BRANCH   1  32
HETATM   32  C2  UNL     1       6.708 -15.851 -23.801  1.00  0.00     0.148 C 
BRANCH  32  33
HETATM   33  O1  UNL     1       6.254 -14.593 -23.670  1.00  0.00    -0.367 OA
HETATM   34  C1  UNL     1       4.901 -14.476 -24.108  1.00  0.00     0.208 C 
ENDBRANCH  32  33
ENDBRANCH   1  32
TORSDOF 10
ENDMDL
MODEL 5
REMARK VINA RESULT: -6.125458278     11.508     13.606
REMARK  10 active torsions:
REMARK  status: ('A' for Active; 'I' for Inactive)
REMARK    1  A    between atoms: O1_2  and  C2_3 
REMARK    2  A    between atoms: C2_3  and  C3_4 
REMARK    3  A    between atoms: C8_11  and  C9_12 
REMARK    4  A    between atoms: C9_12  and  O2_13 
REMARK    5  A    between atoms: C9_12  and  N2_15 
REMARK    6  A    between atoms: N2_15  and  N3_16 
REMARK    7  A    between atoms: N3_16  and  C10_18 
REMARK    8  A    between atoms: C10_18  and  N4_20 
REMARK    9  A    between atoms: C11_22  and  C12_23 
REMARK   10  A    between atoms: C16_27  and  C17_28 
ROOT
HETATM    1  C3  UNL     1       6.263 -19.042 -24.479  1.00  0.00     0.024 A 
HETATM    2  C4  UNL     1       5.050 -18.348 -24.170  1.00  0.00     0.018 A 
HETATM    3  C5  UNL     1       3.699 -18.668 -24.697  1.00  0.00     0.069 C 
HETATM    4  N1  UNL     1       5.381 -17.384 -23.337  1.00  0.00    -0.358 N 
ATOM      5  H1  UNL     1       4.725 -16.715 -22.935  1.00  0.00     0.166 HD
HETATM    6  C6  UNL     1       6.715 -17.399 -23.087  1.00  0.00     0.048 A 
HETATM    7  C7  UNL     1       7.494 -16.571 -22.315  1.00  0.00     0.042 A 
HETATM    8  C8  UNL     1       8.855 -16.730 -22.224  1.00  0.00     0.009 A 
HETATM    9  C16 UNL     1       9.442 -17.745 -22.927  1.00  0.00     0.109 A 
HETATM   10  C18 UNL     1       8.693 -18.628 -23.735  1.00  0.00     0.201 A 
HETATM   11  O3  UNL     1       9.224 -19.591 -24.420  1.00  0.00    -0.287 OA
HETATM   12  C19 UNL     1       7.301 -18.428 -23.792  1.00  0.00     0.056 A 
ENDROOT
BRANCH   8  13
HETATM   13  C9  UNL     1       9.589 -15.804 -21.367  1.00  0.00     0.266 C 
BRANCH  13  14
HETATM   14  O2  UNL     1       9.774 -14.552 -22.002  1.00  0.00    -0.374 OA
ATOM     15  H2  UNL     1       9.019 -14.317 -22.528  1.00  0.00     0.212 HD
ENDBRANCH  13  14
BRANCH  13  16
HETATM   16  N2  UNL     1       8.691 -15.509 -20.225  1.00  0.00    -0.102 NA
BRANCH  16  17
HETATM   17  N3  UNL     1       8.980 -16.297 -19.134  1.00  0.00    -0.277 N 
ATOM     18  H3  UNL     1       8.793 -17.299 -19.161  1.00  0.00     0.185 HD
BRANCH  17  19
HETATM   19  C10 UNL     1       9.540 -15.710 -17.978  1.00  0.00     0.187 C 
HETATM   20  S1  UNL     1      10.142 -14.208 -18.041  1.00  0.00    -0.040 SA
BRANCH  19  21
HETATM   21  N4  UNL     1       9.570 -16.441 -16.771  1.00  0.00    -0.345 N 
HETATM   22  C11 UNL     1       9.526 -17.727 -16.831  1.00  0.00     0.072 C 
ATOM     23  H4  UNL     1       9.627 -15.962 -15.873  1.00  0.00     0.167 HD
BRANCH  22  24
HETATM   24  C12 UNL     1       9.559 -18.471 -15.546  1.00  0.00    -0.019 C 
HETATM   25  C13 UNL     1      10.446 -19.695 -15.603  1.00  0.00     0.020 C 
HETATM   26  C14 UNL     1      10.158 -17.554 -14.491  1.00  0.00     0.020 C 
HETATM   27  C15 UNL     1       8.130 -18.838 -15.197  1.00  0.00     0.020 C 
ENDBRANCH  22  24
ENDBRANCH  19  21
ENDBRANCH  17  19
ENDBRANCH  16  17
ENDBRANCH  13  16
ENDBRANCH   8  13
BRANCH   9  28
HETATM   28  C17 UNL     1      10.913 -17.854 -22.804  1.00  0.00     0.421 C 
HETATM   29  F1  UNL     1      11.448 -18.981 -23.389  1.00  0.00    -0.166 F 
HETATM   30  F2  UNL     1      11.562 -16.804 -23.486  1.00  0.00    -0.166 F 
HETATM   31  F3  UNL     1      11.347 -17.928 -21.479  1.00  0.00    -0.166 F 
ENDBRANCH   9  28
BRANCH   1  32
HETATM   32  C2  UNL     1       6.217 -20.118 -25.436  1.00  0.00     0.148 C 
BRANCH  32  33
HETATM   33  O1  UNL     1       6.369 -20.000 -26.766  1.00  0.00    -0.367 OA
HETATM   34  C1  UNL     1       7.466 -20.779 -27.240  1.00  0.00     0.208 C 
ENDBRANCH  32  33
ENDBRANCH   1  32
TORSDOF 10
ENDMDL
