MODEL 1
REMARK VINA RESULT: -6.155861521      0.000      0.000
REMARK  4 active torsions:
REMARK  status: ('A' for Active; 'I' for Inactive)
REMARK    1  A    between atoms: O1_2  and  N1_3 
REMARK    2  A    between atoms: N1_3  and  C2_5 
REMARK    3  A    between atoms: C2_5  and  C3_6 
REMARK    4  A    between atoms: C4_7  and  C5_8 
ROOT
HETATM    1  C5  UNL     1      28.404  -9.835 -22.261  1.00  0.00     0.020 C 
HETATM    2  C6  UNL     1      27.077 -10.426 -22.817  1.00  0.00     0.029 C 
HETATM    3  C7  UNL     1      29.539 -10.722 -22.582  1.00  0.00     0.022 C 
HETATM    4  C8  UNL     1      29.580 -11.162 -24.045  1.00  0.00     0.002 C 
HETATM    5  C9  UNL     1      30.603 -10.445 -24.866  1.00  0.00     0.000 C 
HETATM    6  C10 UNL     1      30.025  -9.371 -25.756  1.00  0.00     0.000 C 
HETATM    7  C11 UNL     1      29.253  -8.301 -25.072  1.00  0.00     0.000 C 
HETATM    8  C12 UNL     1      29.611  -8.091 -23.628  1.00  0.00     0.002 C 
HETATM    9  C13 UNL     1      28.481  -8.421 -22.721  1.00  0.00     0.022 C 
ENDROOT
BRANCH   1  10
HETATM   10  C4  UNL     1      28.189  -9.801 -20.819  1.00  0.00    -0.095 C 
HETATM   11  C3  UNL     1      28.096  -9.769 -19.642  1.00  0.00    -0.084 C 
BRANCH  11  12
HETATM   12  C2  UNL     1      28.130  -9.613 -18.184  1.00  0.00     0.239 C 
BRANCH  12  13
HETATM   13  N1  UNL     1      26.869 -10.087 -17.747  1.00  0.00    -0.292 N 
ATOM     14  H1  UNL     1      26.038  -9.523 -17.928  1.00  0.00     0.188 HD
BRANCH  13  15
HETATM   15  O1  UNL     1      26.738 -11.210 -17.128  1.00  0.00    -0.289 OA
HETATM   16  C1  UNL     1      25.493 -11.787 -17.082  1.00  0.00     0.237 C 
ENDBRANCH  13  15
ENDBRANCH  12  13
ENDBRANCH  11  12
ENDBRANCH   1  10
TORSDOF 4
ENDMDL
MODEL 2
REMARK VINA RESULT: -5.920898641      1.462      1.850
REMARK  4 active torsions:
REMARK  status: ('A' for Active; 'I' for Inactive)
REMARK    1  A    between atoms: O1_2  and  N1_3 
REMARK    2  A    between atoms: N1_3  and  C2_5 
REMARK    3  A    between atoms: C2_5  and  C3_6 
REMARK    4  A    between atoms: C4_7  and  C5_8 
ROOT
HETATM    1  C5  UNL     1      28.709 -10.302 -23.048  1.00  0.00     0.020 C 
HETATM    2  C6  UNL     1      27.829 -10.795 -24.232  1.00  0.00     0.029 C 
HETATM    3  C7  UNL     1      30.114 -10.705 -23.245  1.00  0.00     0.022 C 
HETATM    4  C8  UNL     1      30.655 -10.387 -24.639  1.00  0.00     0.002 C 
HETATM    5  C9  UNL     1      31.552  -9.193 -24.684  1.00  0.00     0.000 C 
HETATM    6  C10 UNL     1      30.889  -7.955 -25.238  1.00  0.00     0.000 C 
HETATM    7  C11 UNL     1      29.665  -7.497 -24.530  1.00  0.00     0.000 C 
HETATM    8  C12 UNL     1      29.569  -7.930 -23.093  1.00  0.00     0.002 C 
HETATM    9  C13 UNL     1      28.426  -8.852 -22.866  1.00  0.00     0.022 C 
ENDROOT
BRANCH   1  10
HETATM   10  C4  UNL     1      28.149 -10.992 -21.891  1.00  0.00    -0.095 C 
HETATM   11  C3  UNL     1      27.758 -11.604 -20.960  1.00  0.00    -0.084 C 
BRANCH  11  12
HETATM   12  C2  UNL     1      27.454 -12.393 -19.762  1.00  0.00     0.239 C 
BRANCH  12  13
HETATM   13  N1  UNL     1      27.180 -11.428 -18.762  1.00  0.00    -0.292 N 
ATOM     14  H1  UNL     1      26.209 -11.203 -18.545  1.00  0.00     0.188 HD
BRANCH  13  15
HETATM   15  O1  UNL     1      28.119 -10.824 -18.118  1.00  0.00    -0.289 OA
HETATM   16  C1  UNL     1      28.099  -9.452 -18.072  1.00  0.00     0.237 C 
ENDBRANCH  13  15
ENDBRANCH  12  13
ENDBRANCH  11  12
ENDBRANCH   1  10
TORSDOF 4
ENDMDL
MODEL 3
REMARK VINA RESULT: -5.842266949      0.972      1.002
REMARK  4 active torsions:
REMARK  status: ('A' for Active; 'I' for Inactive)
REMARK    1  A    between atoms: O1_2  and  N1_3 
REMARK    2  A    between atoms: N1_3  and  C2_5 
REMARK    3  A    between atoms: C2_5  and  C3_6 
REMARK    4  A    between atoms: C4_7  and  C5_8 
ROOT
HETATM    1  C5  UNL     1      28.586 -10.004 -22.552  1.00  0.00     0.020 C 
HETATM    2  C6  UNL     1      27.546 -10.567 -23.561  1.00  0.00     0.029 C 
HETATM    3  C7  UNL     1      29.916 -10.595 -22.797  1.00  0.00     0.022 C 
HETATM    4  C8  UNL     1      30.343 -10.559 -24.264  1.00  0.00     0.002 C 
HETATM    5  C9  UNL     1      31.348  -9.499 -24.579  1.00  0.00     0.000 C 
HETATM    6  C10 UNL     1      30.762  -8.291 -25.270  1.00  0.00     0.000 C 
HETATM    7  C11 UNL     1      29.669  -7.590 -24.546  1.00  0.00     0.000 C 
HETATM    8  C12 UNL     1      29.676  -7.785 -23.056  1.00  0.00     0.002 C 
HETATM    9  C13 UNL     1      28.473  -8.520 -22.586  1.00  0.00     0.022 C 
ENDROOT
BRANCH   1  10
HETATM   10  C4  UNL     1      28.079 -10.439 -21.255  1.00  0.00    -0.095 C 
HETATM   11  C3  UNL     1      27.736 -10.836 -20.197  1.00  0.00    -0.084 C 
BRANCH  11  12
HETATM   12  C2  UNL     1      27.494 -11.323 -18.835  1.00  0.00     0.239 C 
BRANCH  12  13
HETATM   13  N1  UNL     1      26.988 -10.196 -18.140  1.00  0.00    -0.292 N 
ATOM     14  H1  UNL     1      27.453  -9.295 -18.254  1.00  0.00     0.188 HD
BRANCH  13  15
HETATM   15  O1  UNL     1      25.959 -10.275 -17.368  1.00  0.00    -0.289 OA
HETATM   16  C1  UNL     1      25.176 -11.400 -17.441  1.00  0.00     0.237 C 
ENDBRANCH  13  15
ENDBRANCH  12  13
ENDBRANCH  11  12
ENDBRANCH   1  10
TORSDOF 4
ENDMDL
MODEL 4
REMARK VINA RESULT: -5.841887789      3.931      6.300
REMARK  4 active torsions:
REMARK  status: ('A' for Active; 'I' for Inactive)
REMARK    1  A    between atoms: O1_2  and  N1_3 
REMARK    2  A    between atoms: N1_3  and  C2_5 
REMARK    3  A    between atoms: C2_5  and  C3_6 
REMARK    4  A    between atoms: C4_7  and  C5_8 
ROOT
HETATM    1  C5  UNL     1      28.393  -9.502 -22.269  1.00  0.00     0.020 C 
HETATM    2  C6  UNL     1      27.359  -8.341 -22.232  1.00  0.00     0.029 C 
HETATM    3  C7  UNL     1      28.935  -9.755 -20.921  1.00  0.00     0.022 C 
HETATM    4  C8  UNL     1      27.863  -9.869 -19.839  1.00  0.00     0.002 C 
HETATM    5  C9  UNL     1      27.584 -11.272 -19.405  1.00  0.00     0.000 C 
HETATM    6  C10 UNL     1      26.312 -11.846 -19.981  1.00  0.00     0.000 C 
HETATM    7  C11 UNL     1      26.219 -11.869 -21.465  1.00  0.00     0.000 C 
HETATM    8  C12 UNL     1      27.542 -11.876 -22.178  1.00  0.00     0.002 C 
HETATM    9  C13 UNL     1      27.748 -10.641 -22.979  1.00  0.00     0.022 C 
ENDROOT
BRANCH   1  10
HETATM   10  C4  UNL     1      29.446  -8.998 -23.144  1.00  0.00    -0.095 C 
HETATM   11  C3  UNL     1      30.338  -8.661 -23.841  1.00  0.00    -0.084 C 
BRANCH  11  12
HETATM   12  C2  UNL     1      31.454  -8.424 -24.762  1.00  0.00     0.239 C 
BRANCH  12  13
HETATM   13  N1  UNL     1      32.543  -9.125 -24.187  1.00  0.00    -0.292 N 
ATOM     14  H1  UNL     1      32.352  -9.895 -23.546  1.00  0.00     0.188 HD
BRANCH  13  15
HETATM   15  O1  UNL     1      33.767  -8.819 -24.448  1.00  0.00    -0.289 OA
HETATM   16  C1  UNL     1      34.317  -7.735 -23.809  1.00  0.00     0.237 C 
ENDBRANCH  13  15
ENDBRANCH  12  13
ENDBRANCH  11  12
ENDBRANCH   1  10
TORSDOF 4
ENDMDL
MODEL 5
REMARK VINA RESULT: -5.648288177      1.233      1.876
REMARK  4 active torsions:
REMARK  status: ('A' for Active; 'I' for Inactive)
REMARK    1  A    between atoms: O1_2  and  N1_3 
REMARK    2  A    between atoms: N1_3  and  C2_5 
REMARK    3  A    between atoms: C2_5  and  C3_6 
REMARK    4  A    between atoms: C4_7  and  C5_8 
ROOT
HETATM    1  C5  UNL     1      28.244 -10.566 -22.014  1.00  0.00     0.020 C 
HETATM    2  C6  UNL     1      27.003  -9.865 -22.637  1.00  0.00     0.029 C 
HETATM    3  C7  UNL     1      28.077 -12.031 -22.040  1.00  0.00     0.022 C 
HETATM    4  C8  UNL     1      27.633 -12.575 -23.397  1.00  0.00     0.002 C 
HETATM    5  C9  UNL     1      28.728 -13.222 -24.181  1.00  0.00     0.000 C 
HETATM    6  C10 UNL     1      29.269 -12.361 -25.297  1.00  0.00     0.000 C 
HETATM    7  C11 UNL     1      29.807 -11.034 -24.897  1.00  0.00     0.000 C 
HETATM    8  C12 UNL     1      30.269 -10.947 -23.469  1.00  0.00     0.002 C 
HETATM    9  C13 UNL     1      29.448  -9.995 -22.677  1.00  0.00     0.022 C 
ENDROOT
BRANCH   1  10
HETATM   10  C4  UNL     1      28.252 -10.089 -20.635  1.00  0.00    -0.095 C 
HETATM   11  C3  UNL     1      28.202  -9.759 -19.502  1.00  0.00    -0.084 C 
BRANCH  11  12
HETATM   12  C2  UNL     1      28.108  -9.533 -18.056  1.00  0.00     0.239 C 
BRANCH  12  13
HETATM   13  N1  UNL     1      26.848 -10.070 -17.694  1.00  0.00    -0.292 N 
ATOM     14  H1  UNL     1      26.006  -9.528 -17.886  1.00  0.00     0.188 HD
BRANCH  13  15
HETATM   15  O1  UNL     1      26.734 -11.222 -17.129  1.00  0.00    -0.289 OA
HETATM   16  C1  UNL     1      25.500 -11.826 -17.125  1.00  0.00     0.237 C 
ENDBRANCH  13  15
ENDBRANCH  12  13
ENDBRANCH  11  12
ENDBRANCH   1  10
TORSDOF 4
ENDMDL
