MODEL 1
REMARK VINA RESULT: -5.903712015      0.000      0.000
REMARK  4 active torsions:
REMARK  status: ('A' for Active; 'I' for Inactive)
REMARK    1  A    between atoms: C8_8  and  N1_9 
REMARK    2  A    between atoms: N1_9  and  C9_11 
REMARK    3  A    between atoms: C9_11  and  C10_13 
REMARK    4  A    between atoms: C10_13  and  C11_14 
ROOT
HETATM    1  N1  UNL     1      -8.581 -26.015  29.358  1.00  0.00    -0.379 N 
ATOM      2  H1  UNL     1      -9.349 -26.662  29.537  1.00  0.00     0.160 HD
ENDROOT
BRANCH   1   3
HETATM    3  C8  UNL     1      -7.345 -26.362  30.002  1.00  0.00     0.085 C 
HETATM    4  C2  UNL     1      -7.086 -25.598  31.275  1.00  0.00     0.004 C 
HETATM    5  C1  UNL     1      -5.748 -24.892  31.301  1.00  0.00     0.012 C 
HETATM    6  C3  UNL     1      -7.261 -26.432  32.508  1.00  0.00     0.006 C 
HETATM    7  C4  UNL     1      -6.428 -27.608  32.707  1.00  0.00     0.000 C 
HETATM    8  C5  UNL     1      -5.345 -27.940  31.769  1.00  0.00     0.000 C 
HETATM    9  C6  UNL     1      -5.824 -28.267  30.398  1.00  0.00     0.002 C 
HETATM   10  C7  UNL     1      -7.265 -27.869  30.260  1.00  0.00     0.025 C 
ENDBRANCH   1   3
BRANCH   1  11
HETATM   11  C9  UNL     1      -8.909 -24.940  28.528  1.00  0.00     0.075 C 
HETATM   12  S1  UNL     1     -10.307 -25.195  27.616  1.00  0.00    -0.066 SA
BRANCH  11  13
HETATM   13  C10 UNL     1      -8.233 -23.664  28.358  1.00  0.00     0.102 C 
BRANCH  13  14
HETATM   14  C11 UNL     1      -8.487 -22.594  29.351  1.00  0.00     0.193 C 
HETATM   15  C12 UNL     1      -9.732 -21.771  28.998  1.00  0.00     0.060 C 
HETATM   16  C13 UNL     1      -8.771 -20.701  28.596  1.00  0.00     0.235 C 
HETATM   17  N2  UNL     1      -7.718 -21.402  29.349  1.00  0.00    -0.070 N 
ATOM     18  H22 UNL     1      -7.385 -21.014  30.232  1.00  0.00     0.277 HD
ATOM     19  H21 UNL     1      -6.764 -21.416  28.989  1.00  0.00     0.277 HD
ENDBRANCH  13  14
ENDBRANCH  11  13
ENDBRANCH   1  11
TORSDOF 4
ENDMDL
MODEL 2
REMARK VINA RESULT: -5.784050270      1.501      2.324
REMARK  4 active torsions:
REMARK  status: ('A' for Active; 'I' for Inactive)
REMARK    1  A    between atoms: C8_8  and  N1_9 
REMARK    2  A    between atoms: N1_9  and  C9_11 
REMARK    3  A    between atoms: C9_11  and  C10_13 
REMARK    4  A    between atoms: C10_13  and  C11_14 
ROOT
HETATM    1  N1  UNL     1      -9.534 -24.819  28.837  1.00  0.00    -0.379 N 
ATOM      2  H1  UNL     1      -9.433 -25.403  28.007  1.00  0.00     0.160 HD
ENDROOT
BRANCH   1   3
HETATM    3  C8  UNL     1      -8.667 -25.173  29.926  1.00  0.00     0.085 C 
HETATM    4  C2  UNL     1      -8.964 -26.524  30.526  1.00  0.00     0.004 C 
HETATM    5  C1  UNL     1      -9.187 -26.491  32.022  1.00  0.00     0.012 C 
HETATM    6  C3  UNL     1      -7.943 -27.562  30.172  1.00  0.00     0.006 C 
HETATM    7  C4  UNL     1      -6.557 -27.374  30.567  1.00  0.00     0.000 C 
HETATM    8  C5  UNL     1      -6.151 -26.229  31.397  1.00  0.00     0.000 C 
HETATM    9  C6  UNL     1      -6.347 -24.912  30.732  1.00  0.00     0.002 C 
HETATM   10  C7  UNL     1      -7.197 -25.089  29.507  1.00  0.00     0.025 C 
ENDBRANCH   1   3
BRANCH   1  11
HETATM   11  C9  UNL     1     -10.492 -23.808  28.722  1.00  0.00     0.075 C 
HETATM   12  S1  UNL     1     -12.046 -24.386  28.398  1.00  0.00    -0.066 SA
BRANCH  11  13
HETATM   13  C10 UNL     1     -10.337 -22.369  28.851  1.00  0.00     0.102 C 
BRANCH  13  14
HETATM   14  C11 UNL     1      -9.100 -21.743  28.327  1.00  0.00     0.193 C 
HETATM   15  C12 UNL     1      -8.030 -21.593  29.416  1.00  0.00     0.060 C 
HETATM   16  C13 UNL     1      -8.370 -20.140  29.389  1.00  0.00     0.235 C 
HETATM   17  N2  UNL     1      -9.034 -20.345  28.091  1.00  0.00    -0.070 N 
ATOM     18  H22 UNL     1      -8.596 -19.997  27.239  1.00  0.00     0.277 HD
ATOM     19  H21 UNL     1      -9.886 -19.829  27.872  1.00  0.00     0.277 HD
ENDBRANCH  13  14
ENDBRANCH  11  13
ENDBRANCH   1  11
TORSDOF 4
ENDMDL
MODEL 3
REMARK VINA RESULT: -5.774910467      2.138      3.010
REMARK  4 active torsions:
REMARK  status: ('A' for Active; 'I' for Inactive)
REMARK    1  A    between atoms: C8_8  and  N1_9 
REMARK    2  A    between atoms: N1_9  and  C9_11 
REMARK    3  A    between atoms: C9_11  and  C10_13 
REMARK    4  A    between atoms: C10_13  and  C11_14 
ROOT
HETATM    1  N1  UNL     1      -7.366 -23.362  30.536  1.00  0.00    -0.379 N 
ATOM      2  H1  UNL     1      -6.986 -22.618  31.121  1.00  0.00     0.160 HD
ENDROOT
BRANCH   1   3
HETATM    3  C8  UNL     1      -7.263 -24.679  31.102  1.00  0.00     0.085 C 
HETATM    4  C2  UNL     1      -8.502 -25.518  30.921  1.00  0.00     0.004 C 
HETATM    5  C1  UNL     1      -9.046 -26.088  32.213  1.00  0.00     0.012 C 
HETATM    6  C3  UNL     1      -8.336 -26.602  29.900  1.00  0.00     0.006 C 
HETATM    7  C4  UNL     1      -7.324 -27.627  30.097  1.00  0.00     0.000 C 
HETATM    8  C5  UNL     1      -6.525 -27.681  31.330  1.00  0.00     0.000 C 
HETATM    9  C6  UNL     1      -5.644 -26.496  31.522  1.00  0.00     0.002 C 
HETATM   10  C7  UNL     1      -6.038 -25.416  30.556  1.00  0.00     0.025 C 
ENDBRANCH   1   3
BRANCH   1  11
HETATM   11  C9  UNL     1      -7.898 -22.930  29.319  1.00  0.00     0.075 C 
HETATM   12  S1  UNL     1      -8.404 -21.318  29.339  1.00  0.00    -0.066 SA
BRANCH  11  13
HETATM   13  C10 UNL     1      -8.061 -23.657  28.071  1.00  0.00     0.102 C 
BRANCH  13  14
HETATM   14  C11 UNL     1      -9.172 -23.272  27.170  1.00  0.00     0.193 C 
HETATM   15  C12 UNL     1     -10.374 -24.213  27.311  1.00  0.00     0.060 C 
HETATM   16  C13 UNL     1      -9.950 -24.769  25.992  1.00  0.00     0.235 C 
HETATM   17  N2  UNL     1      -9.121 -23.569  25.783  1.00  0.00    -0.070 N 
ATOM     18  H22 UNL     1      -9.413 -22.866  25.105  1.00  0.00     0.277 HD
ATOM     19  H21 UNL     1      -8.218 -23.654  25.317  1.00  0.00     0.277 HD
ENDBRANCH  13  14
ENDBRANCH  11  13
ENDBRANCH   1  11
TORSDOF 4
ENDMDL
MODEL 4
REMARK VINA RESULT: -5.748768284      0.722      1.971
REMARK  4 active torsions:
REMARK  status: ('A' for Active; 'I' for Inactive)
REMARK    1  A    between atoms: C8_8  and  N1_9 
REMARK    2  A    between atoms: N1_9  and  C9_11 
REMARK    3  A    between atoms: C9_11  and  C10_13 
REMARK    4  A    between atoms: C10_13  and  C11_14 
ROOT
HETATM    1  N1  UNL     1      -7.292 -25.483  29.357  1.00  0.00    -0.379 N 
ATOM      2  H1  UNL     1      -6.395 -25.362  28.887  1.00  0.00     0.160 HD
ENDROOT
BRANCH   1   3
HETATM    3  C8  UNL     1      -7.248 -26.322  30.522  1.00  0.00     0.085 C 
HETATM    4  C2  UNL     1      -7.052 -27.785  30.212  1.00  0.00     0.004 C 
HETATM    5  C1  UNL     1      -8.102 -28.684  30.827  1.00  0.00     0.012 C 
HETATM    6  C3  UNL     1      -5.677 -28.278  30.547  1.00  0.00     0.006 C 
HETATM    7  C4  UNL     1      -5.204 -28.212  31.921  1.00  0.00     0.000 C 
HETATM    8  C5  UNL     1      -6.085 -27.762  33.009  1.00  0.00     0.000 C 
HETATM    9  C6  UNL     1      -6.514 -26.342  32.879  1.00  0.00     0.002 C 
HETATM   10  C7  UNL     1      -6.179 -25.840  31.505  1.00  0.00     0.025 C 
ENDBRANCH   1   3
BRANCH   1  11
HETATM   11  C9  UNL     1      -8.357 -24.805  28.758  1.00  0.00     0.075 C 
HETATM   12  S1  UNL     1      -9.746 -25.750  28.583  1.00  0.00    -0.066 SA
BRANCH  11  13
HETATM   13  C10 UNL     1      -8.431 -23.431  28.289  1.00  0.00     0.102 C 
BRANCH  13  14
HETATM   14  C11 UNL     1      -8.617 -22.354  29.289  1.00  0.00     0.193 C 
HETATM   15  C12 UNL     1      -9.832 -21.476  28.964  1.00  0.00     0.060 C 
HETATM   16  C13 UNL     1      -8.834 -20.448  28.544  1.00  0.00     0.235 C 
HETATM   17  N2  UNL     1      -7.796 -21.196  29.273  1.00  0.00    -0.070 N 
ATOM     18  H22 UNL     1      -7.428 -20.826  30.149  1.00  0.00     0.277 HD
ATOM     19  H21 UNL     1      -6.852 -21.251  28.892  1.00  0.00     0.277 HD
ENDBRANCH  13  14
ENDBRANCH  11  13
ENDBRANCH   1  11
TORSDOF 4
ENDMDL
MODEL 5
REMARK VINA RESULT: -5.638787127      2.383      3.071
REMARK  4 active torsions:
REMARK  status: ('A' for Active; 'I' for Inactive)
REMARK    1  A    between atoms: C8_8  and  N1_9 
REMARK    2  A    between atoms: N1_9  and  C9_11 
REMARK    3  A    between atoms: C9_11  and  C10_13 
REMARK    4  A    between atoms: C10_13  and  C11_14 
ROOT
HETATM    1  N1  UNL     1      -9.351 -23.922  29.344  1.00  0.00    -0.379 N 
ATOM      2  H1  UNL     1      -9.369 -22.908  29.459  1.00  0.00     0.160 HD
ENDROOT
BRANCH   1   3
HETATM    3  C8  UNL     1      -8.495 -24.613  30.268  1.00  0.00     0.085 C 
HETATM    4  C2  UNL     1      -8.968 -26.003  30.612  1.00  0.00     0.004 C 
HETATM    5  C1  UNL     1      -9.107 -26.249  32.098  1.00  0.00     0.012 C 
HETATM    6  C3  UNL     1      -8.141 -27.080  29.978  1.00  0.00     0.006 C 
HETATM    7  C4  UNL     1      -6.723 -27.176  30.288  1.00  0.00     0.000 C 
HETATM    8  C5  UNL     1      -6.103 -26.297  31.292  1.00  0.00     0.000 C 
HETATM    9  C6  UNL     1      -6.126 -24.856  30.918  1.00  0.00     0.002 C 
HETATM   10  C7  UNL     1      -7.054 -24.654  29.756  1.00  0.00     0.025 C 
ENDBRANCH   1   3
BRANCH   1  11
HETATM   11  C9  UNL     1     -10.163 -24.403  28.314  1.00  0.00     0.075 C 
HETATM   12  S1  UNL     1     -11.797 -24.496  28.730  1.00  0.00    -0.066 SA
BRANCH  11  13
HETATM   13  C10 UNL     1      -9.800 -24.814  26.967  1.00  0.00     0.102 C 
BRANCH  13  14
HETATM   14  C11 UNL     1      -9.264 -23.792  26.039  1.00  0.00     0.193 C 
HETATM   15  C12 UNL     1      -9.895 -22.414  26.279  1.00  0.00     0.060 C 
HETATM   16  C13 UNL     1     -10.654 -22.668  25.019  1.00  0.00     0.235 C 
HETATM   17  N2  UNL     1      -9.696 -23.736  24.688  1.00  0.00    -0.070 N 
ATOM     18  H22 UNL     1      -9.014 -23.590  23.945  1.00  0.00     0.277 HD
ATOM     19  H21 UNL     1     -10.025 -24.585  24.227  1.00  0.00     0.277 HD
ENDBRANCH  13  14
ENDBRANCH  11  13
ENDBRANCH   1  11
TORSDOF 4
ENDMDL
