MODEL 1
REMARK VINA RESULT: -5.854261163      0.000      0.000
REMARK  2 active torsions:
REMARK  status: ('A' for Active; 'I' for Inactive)
REMARK    1  A    between atoms: N1_2  and  C2_4 
REMARK    2  A    between atoms: C2_4  and  C3_5 
ROOT
HETATM    1  C3  UNL     1      10.021 -91.871 153.128  1.00  0.00     0.140 C 
HETATM    2  C4  UNL     1      10.380 -90.673 152.254  1.00  0.00     0.036 C 
HETATM    3  C5  UNL     1       9.127 -89.829 152.411  1.00  0.00     0.040 C 
HETATM    4  C6  UNL     1       8.808 -90.132 153.889  1.00  0.00     0.061 C 
HETATM    5  C7  UNL     1       7.412 -89.644 154.107  1.00  0.00     0.038 C 
HETATM    6  C8  UNL     1       7.438 -88.163 154.312  1.00  0.00     0.003 C 
HETATM    7  C9  UNL     1       7.563 -87.823 155.770  1.00  0.00     0.000 C 
HETATM    8  C10 UNL     1       8.266 -88.873 156.564  1.00  0.00     0.000 C 
HETATM    9  C11 UNL     1       9.626 -89.214 156.112  1.00  0.00     0.003 C 
HETATM   10  C12 UNL     1       9.857 -89.477 154.694  1.00  0.00     0.038 C 
HETATM   11  O1  UNL     1       8.928 -91.501 153.879  1.00  0.00    -0.373 OA
ENDROOT
BRANCH   1  12
HETATM   12  C2  UNL     1       9.679 -93.004 152.180  1.00  0.00     0.145 C 
BRANCH  12  13
HETATM   13  N1  UNL     1       8.851 -94.014 152.746  1.00  0.00    -0.423 N 
HETATM   14  C1  UNL     1       9.287 -95.358 152.548  1.00  0.00     0.139 C 
ATOM     15  H1  UNL     1       7.999 -93.791 153.261  1.00  0.00     0.152 HD
ENDBRANCH  12  13
ENDBRANCH   1  12
TORSDOF 2
ENDMDL
MODEL 2
REMARK VINA RESULT: -5.853915992      2.401      4.985
REMARK  2 active torsions:
REMARK  status: ('A' for Active; 'I' for Inactive)
REMARK    1  A    between atoms: N1_2  and  C2_4 
REMARK    2  A    between atoms: C2_4  and  C3_5 
ROOT
HETATM    1  C3  UNL     1       7.995 -89.229 155.190  1.00  0.00     0.140 C 
HETATM    2  C4  UNL     1       7.495 -88.255 154.128  1.00  0.00     0.036 C 
HETATM    3  C5  UNL     1       8.769 -88.033 153.331  1.00  0.00     0.040 C 
HETATM    4  C6  UNL     1       9.363 -89.454 153.414  1.00  0.00     0.061 C 
HETATM    5  C7  UNL     1      10.782 -89.323 152.965  1.00  0.00     0.038 C 
HETATM    6  C8  UNL     1      10.822 -89.285 151.471  1.00  0.00     0.003 C 
HETATM    7  C9  UNL     1      10.988 -90.665 150.902  1.00  0.00     0.000 C 
HETATM    8  C10 UNL     1      10.435 -91.737 151.779  1.00  0.00     0.000 C 
HETATM    9  C11 UNL     1       9.007 -91.612 152.121  1.00  0.00     0.003 C 
HETATM   10  C12 UNL     1       8.501 -90.325 152.591  1.00  0.00     0.038 C 
HETATM   11  O1  UNL     1       9.220 -89.691 154.760  1.00  0.00    -0.373 OA
ENDROOT
BRANCH   1  12
HETATM   12  C2  UNL     1       8.128 -88.431 156.473  1.00  0.00     0.145 C 
BRANCH  12  13
HETATM   13  N1  UNL     1       8.527 -89.198 157.604  1.00  0.00    -0.423 N 
HETATM   14  C1  UNL     1       7.522 -89.410 158.596  1.00  0.00     0.139 C 
ATOM     15  H1  UNL     1       9.471 -89.573 157.699  1.00  0.00     0.152 HD
ENDBRANCH  12  13
ENDBRANCH   1  12
TORSDOF 2
ENDMDL
MODEL 3
REMARK VINA RESULT: -5.851754143      1.183      1.472
REMARK  2 active torsions:
REMARK  status: ('A' for Active; 'I' for Inactive)
REMARK    1  A    between atoms: N1_2  and  C2_4 
REMARK    2  A    between atoms: C2_4  and  C3_5 
ROOT
HETATM    1  C3  UNL     1       9.619 -93.083 152.781  1.00  0.00     0.140 C 
HETATM    2  C4  UNL     1       9.385 -92.174 151.579  1.00  0.00     0.036 C 
HETATM    3  C5  UNL     1       8.272 -91.289 152.112  1.00  0.00     0.040 C 
HETATM    4  C6  UNL     1       8.729 -91.175 153.581  1.00  0.00     0.061 C 
HETATM    5  C7  UNL     1       7.559 -90.613 154.323  1.00  0.00     0.038 C 
HETATM    6  C8  UNL     1       7.515 -89.132 154.117  1.00  0.00     0.003 C 
HETATM    7  C9  UNL     1       8.278 -88.416 155.195  1.00  0.00     0.000 C 
HETATM    8  C10 UNL     1       9.385 -89.230 155.776  1.00  0.00     0.000 C 
HETATM    9  C11 UNL     1      10.396 -89.712 154.820  1.00  0.00     0.003 C 
HETATM   10  C12 UNL     1       9.954 -90.353 153.584  1.00  0.00     0.038 C 
HETATM   11  O1  UNL     1       8.980 -92.498 153.852  1.00  0.00    -0.373 OA
ENDROOT
BRANCH   1  12
HETATM   12  C2  UNL     1       8.996 -94.421 152.433  1.00  0.00     0.145 C 
BRANCH  12  13
HETATM   13  N1  UNL     1       9.919 -95.504 152.383  1.00  0.00    -0.423 N 
HETATM   14  C1  UNL     1      10.842 -95.484 151.294  1.00  0.00     0.139 C 
ATOM     15  H1  UNL     1       9.920 -96.248 153.081  1.00  0.00     0.152 HD
ENDBRANCH  12  13
ENDBRANCH   1  12
TORSDOF 2
ENDMDL
MODEL 4
REMARK VINA RESULT: -5.684247641      2.514      5.386
REMARK  2 active torsions:
REMARK  status: ('A' for Active; 'I' for Inactive)
REMARK    1  A    between atoms: N1_2  and  C2_4 
REMARK    2  A    between atoms: C2_4  and  C3_5 
ROOT
HETATM    1  C3  UNL     1      10.054 -90.518 154.205  1.00  0.00     0.140 C 
HETATM    2  C4  UNL     1       8.886 -91.306 153.619  1.00  0.00     0.036 C 
HETATM    3  C5  UNL     1       9.028 -90.960 152.147  1.00  0.00     0.040 C 
HETATM    4  C6  UNL     1      10.567 -90.922 152.049  1.00  0.00     0.061 C 
HETATM    5  C7  UNL     1      10.869 -90.264 150.741  1.00  0.00     0.038 C 
HETATM    6  C8  UNL     1      10.723 -91.268 149.642  1.00  0.00     0.003 C 
HETATM    7  C9  UNL     1      12.031 -91.953 149.363  1.00  0.00     0.000 C 
HETATM    8  C10 UNL     1      12.932 -92.015 150.550  1.00  0.00     0.000 C 
HETATM    9  C11 UNL     1      12.376 -92.679 151.742  1.00  0.00     0.003 C 
HETATM   10  C12 UNL     1      11.038 -92.312 152.198  1.00  0.00     0.038 C 
HETATM   11  O1  UNL     1      10.853 -90.147 153.146  1.00  0.00    -0.373 OA
ENDROOT
BRANCH   1  12
HETATM   12  C2  UNL     1       9.452 -89.308 154.891  1.00  0.00     0.145 C 
BRANCH  12  13
HETATM   13  N1  UNL     1       9.382 -89.410 156.309  1.00  0.00    -0.423 N 
HETATM   14  C1  UNL     1       8.227 -88.832 156.916  1.00  0.00     0.139 C 
ATOM     15  H1  UNL     1      10.111 -89.867 156.856  1.00  0.00     0.152 HD
ENDBRANCH  12  13
ENDBRANCH   1  12
TORSDOF 2
ENDMDL
MODEL 5
REMARK VINA RESULT: -5.582499826      1.486      2.261
REMARK  2 active torsions:
REMARK  status: ('A' for Active; 'I' for Inactive)
REMARK    1  A    between atoms: N1_2  and  C2_4 
REMARK    2  A    between atoms: C2_4  and  C3_5 
ROOT
HETATM    1  C3  UNL     1      10.814 -92.757 151.240  1.00  0.00     0.140 C 
HETATM    2  C4  UNL     1       9.751 -91.996 150.454  1.00  0.00     0.036 C 
HETATM    3  C5  UNL     1       8.764 -91.671 151.562  1.00  0.00     0.040 C 
HETATM    4  C6  UNL     1       9.759 -91.418 152.713  1.00  0.00     0.061 C 
HETATM    5  C7  UNL     1       8.937 -91.415 153.961  1.00  0.00     0.038 C 
HETATM    6  C8  UNL     1       8.273 -90.083 154.107  1.00  0.00     0.003 C 
HETATM    7  C9  UNL     1       9.123 -89.143 154.913  1.00  0.00     0.000 C 
HETATM    8  C10 UNL     1      10.583 -89.437 154.817  1.00  0.00     0.000 C 
HETATM    9  C11 UNL     1      11.150 -89.426 153.458  1.00  0.00     0.003 C 
HETATM   10  C12 UNL     1      10.463 -90.160 152.398  1.00  0.00     0.038 C 
HETATM   11  O1  UNL     1      10.565 -92.522 152.575  1.00  0.00    -0.373 OA
ENDROOT
BRANCH   1  12
HETATM   12  C2  UNL     1      10.632 -94.223 150.897  1.00  0.00     0.145 C 
BRANCH  12  13
HETATM   13  N1  UNL     1      10.532 -95.083 152.026  1.00  0.00    -0.423 N 
HETATM   14  C1  UNL     1       9.206 -95.389 152.458  1.00  0.00     0.139 C 
ATOM     15  H1  UNL     1      11.355 -95.458 152.497  1.00  0.00     0.152 HD
ENDBRANCH  12  13
ENDBRANCH   1  12
TORSDOF 2
ENDMDL
