MODEL 1
REMARK VINA RESULT: -4.994066332      0.000      0.000
REMARK  2 active torsions:
REMARK  status: ('A' for Active; 'I' for Inactive)
REMARK    1  A    between atoms: C1_2  and  C2_3 
REMARK    2  A    between atoms: C2_3  and  N1_4 
ROOT
HETATM    1  C2  UNL     1       9.518 -91.611 153.506  1.00  0.00     0.084 C 
ENDROOT
BRANCH   1   2
HETATM    2  C1  UNL     1       9.145 -90.232 153.919  1.00  0.00     0.050 C 
HETATM    3  S1  UNL     1      10.229 -89.446 155.100  1.00  0.00    -0.081 SA
HETATM    4  C8  UNL     1       8.882 -89.287 152.771  1.00  0.00     0.027 C 
HETATM    5  C9  UNL     1       8.113 -88.159 153.464  1.00  0.00     0.002 C 
HETATM    6  C10 UNL     1       7.627 -88.712 154.786  1.00  0.00     0.002 C 
HETATM    7  C11 UNL     1       7.741 -90.215 154.568  1.00  0.00     0.027 C 
ENDBRANCH   1   2
BRANCH   1   8
HETATM    8  N1  UNL     1      10.184 -91.787 152.285  1.00  0.00    -0.372 N 
HETATM    9  C3  UNL     1      11.529 -91.425 152.150  1.00  0.00     0.063 C 
HETATM   10  C4  UNL     1      12.426 -92.494 151.559  1.00  0.00     0.044 C 
HETATM   11  C5  UNL     1      11.770 -93.834 151.896  1.00  0.00     0.007 C 
HETATM   12  C6  UNL     1      10.514 -93.861 151.011  1.00  0.00     0.021 C 
HETATM   13  C7  UNL     1       9.631 -92.677 151.329  1.00  0.00     0.127 C 
ENDBRANCH   1   8
TORSDOF 2
ENDMDL
MODEL 2
REMARK VINA RESULT: -4.985976258      1.265      1.472
REMARK  2 active torsions:
REMARK  status: ('A' for Active; 'I' for Inactive)
REMARK    1  A    between atoms: C1_2  and  C2_3 
REMARK    2  A    between atoms: C2_3  and  N1_4 
ROOT
HETATM    1  C2  UNL     1       9.964 -90.255 154.090  1.00  0.00     0.084 C 
ENDROOT
BRANCH   1   2
HETATM    2  C1  UNL     1       9.207 -89.019 154.419  1.00  0.00     0.050 C 
HETATM    3  S1  UNL     1      10.182 -87.542 154.662  1.00  0.00    -0.081 SA
HETATM    4  C8  UNL     1       8.064 -88.717 153.480  1.00  0.00     0.027 C 
HETATM    5  C9  UNL     1       7.241 -87.718 154.297  1.00  0.00     0.002 C 
HETATM    6  C10 UNL     1       7.700 -87.851 155.734  1.00  0.00     0.002 C 
HETATM    7  C11 UNL     1       8.400 -89.203 155.726  1.00  0.00     0.027 C 
ENDBRANCH   1   2
BRANCH   1   8
HETATM    8  N1  UNL     1       9.750 -90.858 152.842  1.00  0.00    -0.372 N 
HETATM    9  C3  UNL     1      10.517 -90.487 151.731  1.00  0.00     0.063 C 
HETATM   10  C4  UNL     1      11.145 -91.639 150.972  1.00  0.00     0.044 C 
HETATM   11  C5  UNL     1      11.314 -92.774 151.983  1.00  0.00     0.007 C 
HETATM   12  C6  UNL     1       9.876 -93.240 152.256  1.00  0.00     0.021 C 
HETATM   13  C7  UNL     1       9.052 -92.092 152.792  1.00  0.00     0.127 C 
ENDBRANCH   1   8
TORSDOF 2
ENDMDL
MODEL 3
REMARK VINA RESULT: -4.980093112      1.236      1.904
REMARK  2 active torsions:
REMARK  status: ('A' for Active; 'I' for Inactive)
REMARK    1  A    between atoms: C1_2  and  C2_3 
REMARK    2  A    between atoms: C2_3  and  N1_4 
ROOT
HETATM    1  C2  UNL     1       8.665 -90.168 152.718  1.00  0.00     0.084 C 
ENDROOT
BRANCH   1   2
HETATM    2  C1  UNL     1       8.717 -89.147 153.798  1.00  0.00     0.050 C 
HETATM    3  S1  UNL     1      10.071 -89.294 154.953  1.00  0.00    -0.081 SA
HETATM    4  C8  UNL     1       8.622 -87.720 153.313  1.00  0.00     0.027 C 
HETATM    5  C9  UNL     1       8.250 -86.976 154.599  1.00  0.00     0.002 C 
HETATM    6  C10 UNL     1       7.747 -88.019 155.574  1.00  0.00     0.002 C 
HETATM    7  C11 UNL     1       7.431 -89.192 154.657  1.00  0.00     0.027 C 
ENDBRANCH   1   2
BRANCH   1   8
HETATM    8  N1  UNL     1       9.860 -90.790 152.328  1.00  0.00    -0.372 N 
HETATM    9  C3  UNL     1      10.049 -92.160 152.535  1.00  0.00     0.063 C 
HETATM   10  C4  UNL     1      10.509 -92.937 151.317  1.00  0.00     0.044 C 
HETATM   11  C5  UNL     1      10.002 -92.160 150.101  1.00  0.00     0.007 C 
HETATM   12  C6  UNL     1      10.868 -90.891 150.090  1.00  0.00     0.021 C 
HETATM   13  C7  UNL     1      10.694 -90.134 151.386  1.00  0.00     0.127 C 
ENDBRANCH   1   8
TORSDOF 2
ENDMDL
MODEL 4
REMARK VINA RESULT: -4.910508123      1.634      2.081
REMARK  2 active torsions:
REMARK  status: ('A' for Active; 'I' for Inactive)
REMARK    1  A    between atoms: C1_2  and  C2_3 
REMARK    2  A    between atoms: C2_3  and  N1_4 
ROOT
HETATM    1  C2  UNL     1      10.698 -91.785 152.709  1.00  0.00     0.084 C 
ENDROOT
BRANCH   1   2
HETATM    2  C1  UNL     1      10.141 -90.410 152.810  1.00  0.00     0.050 C 
HETATM    3  S1  UNL     1      10.821 -89.202 151.685  1.00  0.00    -0.081 SA
HETATM    4  C8  UNL     1       8.633 -90.343 152.770  1.00  0.00     0.027 C 
HETATM    5  C9  UNL     1       8.367 -88.945 153.335  1.00  0.00     0.002 C 
HETATM    6  C10 UNL     1       9.636 -88.510 154.035  1.00  0.00     0.002 C 
HETATM    7  C11 UNL     1      10.368 -89.831 154.227  1.00  0.00     0.027 C 
ENDBRANCH   1   2
BRANCH   1   8
HETATM    8  N1  UNL     1       9.986 -92.742 151.972  1.00  0.00    -0.372 N 
HETATM    9  C3  UNL     1      10.301 -92.986 150.630  1.00  0.00     0.063 C 
HETATM   10  C4  UNL     1      10.512 -94.444 150.275  1.00  0.00     0.044 C 
HETATM   11  C5  UNL     1      10.969 -95.134 151.561  1.00  0.00     0.007 C 
HETATM   12  C6  UNL     1       9.712 -95.137 152.444  1.00  0.00     0.021 C 
HETATM   13  C7  UNL     1       9.236 -93.721 152.672  1.00  0.00     0.127 C 
ENDBRANCH   1   8
TORSDOF 2
ENDMDL
MODEL 5
REMARK VINA RESULT: -4.877324600      1.429      1.972
REMARK  2 active torsions:
REMARK  status: ('A' for Active; 'I' for Inactive)
REMARK    1  A    between atoms: C1_2  and  C2_3 
REMARK    2  A    between atoms: C2_3  and  N1_4 
ROOT
HETATM    1  C2  UNL     1      10.200 -90.147 153.839  1.00  0.00     0.084 C 
ENDROOT
BRANCH   1   2
HETATM    2  C1  UNL     1       8.937 -89.567 154.366  1.00  0.00     0.050 C 
HETATM    3  S1  UNL     1       7.519 -90.652 154.379  1.00  0.00    -0.081 SA
HETATM    4  C8  UNL     1       9.071 -88.899 155.714  1.00  0.00     0.027 C 
HETATM    5  C9  UNL     1       7.801 -88.045 155.769  1.00  0.00     0.002 C 
HETATM    6  C10 UNL     1       7.287 -87.941 154.349  1.00  0.00     0.002 C 
HETATM    7  C11 UNL     1       8.510 -88.335 153.533  1.00  0.00     0.027 C 
ENDBRANCH   1   2
BRANCH   1   8
HETATM    8  N1  UNL     1      10.164 -90.824 152.612  1.00  0.00    -0.372 N 
HETATM    9  C3  UNL     1      10.545 -90.176 151.431  1.00  0.00     0.063 C 
HETATM   10  C4  UNL     1      11.557 -90.925 150.586  1.00  0.00     0.044 C 
HETATM   11  C5  UNL     1      12.346 -91.810 151.551  1.00  0.00     0.007 C 
HETATM   12  C6  UNL     1      11.334 -92.887 151.972  1.00  0.00     0.021 C 
HETATM   13  C7  UNL     1      10.129 -92.242 152.616  1.00  0.00     0.127 C 
ENDBRANCH   1   8
TORSDOF 2
ENDMDL
