MODEL 1
REMARK VINA RESULT: -7.269379031      0.000      0.000
REMARK  2 active torsions:
REMARK  status: ('A' for Active; 'I' for Inactive)
REMARK    1  A    between atoms: C2_2  and  C3_3 
REMARK       I    between atoms: C3_3  and  N1_5 
REMARK       I    between atoms: C4_7  and  N2_8 
REMARK       I    between atoms: C4_7  and  N3_16 
REMARK    2  A    between atoms: N2_8  and  C5_10 
ROOT
HETATM    1  C3  UNL     1      -1.062   1.643  81.855  1.00  0.00     0.258 C 
HETATM    2  O1  UNL     1       0.138   1.980  81.774  1.00  0.00    -0.268 OA
HETATM    3  N1  UNL     1      -1.826   1.974  82.968  1.00  0.00    -0.156 N 
ATOM      4  H1  UNL     1      -2.577   1.326  83.205  1.00  0.00     0.187 HD
HETATM    5  C4  UNL     1      -1.703   2.989  83.729  1.00  0.00     0.679 C 
HETATM    6  N2  UNL     1      -2.595   3.133  84.815  1.00  0.00    -0.221 N 
ATOM      7  H2  UNL     1      -2.989   4.060  84.974  1.00  0.00     0.178 HD
HETATM    8  N3  UNL     1      -0.718   3.975  83.537  1.00  0.00    -0.216 N 
HETATM    9  C11 UNL     1       0.487   3.891  84.330  1.00  0.00     0.151 C 
HETATM   10  C12 UNL     1       1.638   4.656  83.751  1.00  0.00     0.094 C 
HETATM   11  S1  UNL     1       1.125   6.399  83.642  1.00  0.00    -0.166 SA
HETATM   12  C13 UNL     1      -0.616   6.396  83.138  1.00  0.00     0.094 C 
HETATM   13  C14 UNL     1      -0.926   5.013  82.584  1.00  0.00     0.151 C 
ENDROOT
BRANCH   6  14
HETATM   14  C5  UNL     1      -2.992   2.099  85.707  1.00  0.00     0.099 C 
HETATM   15  C6  UNL     1      -3.610   2.694  86.960  1.00  0.00     0.026 C 
HETATM   16  C7  UNL     1      -3.596   1.668  88.078  1.00  0.00     0.002 C 
HETATM   17  C8  UNL     1      -3.824   0.308  87.411  1.00  0.00     0.000 C 
HETATM   18  C9  UNL     1      -2.541  -0.086  86.675  1.00  0.00     0.002 C 
HETATM   19  C10 UNL     1      -1.878   1.143  86.068  1.00  0.00     0.026 C 
ENDBRANCH   6  14
BRANCH   1  20
HETATM   20  C2  UNL     1      -1.664   0.891  80.762  1.00  0.00     0.065 C 
HETATM   21  C1  UNL     1      -1.733  -0.418  80.741  1.00  0.00     0.017 C 
ENDBRANCH   1  20
TORSDOF 2
ENDMDL
MODEL 2
REMARK VINA RESULT: -6.932939100      2.514      4.381
REMARK  2 active torsions:
REMARK  status: ('A' for Active; 'I' for Inactive)
REMARK    1  A    between atoms: C2_2  and  C3_3 
REMARK       I    between atoms: C3_3  and  N1_5 
REMARK       I    between atoms: C4_7  and  N2_8 
REMARK       I    between atoms: C4_7  and  N3_16 
REMARK    2  A    between atoms: N2_8  and  C5_10 
ROOT
HETATM    1  C3  UNL     1      -0.116   6.456  84.266  1.00  0.00     0.258 C 
HETATM    2  O1  UNL     1      -0.489   6.877  83.151  1.00  0.00    -0.268 OA
HETATM    3  N1  UNL     1      -0.216   5.110  84.593  1.00  0.00    -0.156 N 
ATOM      4  H1  UNL     1      -0.356   4.898  85.581  1.00  0.00     0.187 HD
HETATM    5  C4  UNL     1      -0.155   4.106  83.810  1.00  0.00     0.679 C 
HETATM    6  N2  UNL     1      -0.282   2.810  84.358  1.00  0.00    -0.221 N 
ATOM      7  H2  UNL     1       0.369   2.098  84.028  1.00  0.00     0.178 HD
HETATM    8  N3  UNL     1       0.035   4.229  82.421  1.00  0.00    -0.216 N 
HETATM    9  C11 UNL     1      -1.130   4.157  81.570  1.00  0.00     0.151 C 
HETATM   10  C12 UNL     1      -0.916   4.755  80.213  1.00  0.00     0.094 C 
HETATM   11  S1  UNL     1       0.444   3.833  79.428  1.00  0.00    -0.166 SA
HETATM   12  C13 UNL     1       1.655   3.489  80.731  1.00  0.00     0.094 C 
HETATM   13  C14 UNL     1       1.345   4.418  81.896  1.00  0.00     0.151 C 
ENDROOT
BRANCH   6  14
HETATM   14  C5  UNL     1      -1.239   2.410  85.331  1.00  0.00     0.099 C 
HETATM   15  C6  UNL     1      -0.991   0.972  85.753  1.00  0.00     0.026 C 
HETATM   16  C7  UNL     1      -2.239   0.403  86.400  1.00  0.00     0.002 C 
HETATM   17  C8  UNL     1      -2.889   1.561  87.164  1.00  0.00     0.000 C 
HETATM   18  C9  UNL     1      -3.529   2.506  86.145  1.00  0.00     0.002 C 
HETATM   19  C10 UNL     1      -2.673   2.592  84.889  1.00  0.00     0.026 C 
ENDBRANCH   6  14
BRANCH   1  20
HETATM   20  C2  UNL     1       0.431   7.398  85.234  1.00  0.00     0.065 C 
HETATM   21  C1  UNL     1       1.600   7.976  85.094  1.00  0.00     0.017 C 
ENDBRANCH   1  20
TORSDOF 2
ENDMDL
MODEL 3
REMARK VINA RESULT: -6.142118120      2.567      4.278
REMARK  2 active torsions:
REMARK  status: ('A' for Active; 'I' for Inactive)
REMARK    1  A    between atoms: C2_2  and  C3_3 
REMARK       I    between atoms: C3_3  and  N1_5 
REMARK       I    between atoms: C4_7  and  N2_8 
REMARK       I    between atoms: C4_7  and  N3_16 
REMARK    2  A    between atoms: N2_8  and  C5_10 
ROOT
HETATM    1  C3  UNL     1      -0.307   6.294  83.873  1.00  0.00     0.258 C 
HETATM    2  O1  UNL     1      -0.656   6.835  82.803  1.00  0.00    -0.268 OA
HETATM    3  N1  UNL     1      -0.401   4.918  84.044  1.00  0.00    -0.156 N 
ATOM      4  H1  UNL     1      -0.563   4.596  84.998  1.00  0.00     0.187 HD
HETATM    5  C4  UNL     1      -0.308   4.010  83.154  1.00  0.00     0.679 C 
HETATM    6  N2  UNL     1      -0.435   2.659  83.550  1.00  0.00    -0.221 N 
ATOM      7  H2  UNL     1       0.233   1.995  83.159  1.00  0.00     0.178 HD
HETATM    8  N3  UNL     1      -0.084   4.290  81.794  1.00  0.00    -0.216 N 
HETATM    9  C11 UNL     1      -1.226   4.305  80.910  1.00  0.00     0.151 C 
HETATM   10  C12 UNL     1      -0.984   5.054  79.634  1.00  0.00     0.094 C 
HETATM   11  S1  UNL     1       0.406   4.237  78.787  1.00  0.00    -0.166 SA
HETATM   12  C13 UNL     1       1.587   3.759  80.075  1.00  0.00     0.094 C 
HETATM   13  C14 UNL     1       1.237   4.548  81.328  1.00  0.00     0.151 C 
ENDROOT
BRANCH   6  14
HETATM   14  C5  UNL     1      -1.411   2.144  84.446  1.00  0.00     0.099 C 
HETATM   15  C6  UNL     1      -2.538   3.146  84.629  1.00  0.00     0.026 C 
HETATM   16  C7  UNL     1      -3.308   2.829  85.896  1.00  0.00     0.002 C 
HETATM   17  C8  UNL     1      -3.310   1.302  86.023  1.00  0.00     0.000 C 
HETATM   18  C9  UNL     1      -1.910   0.855  86.447  1.00  0.00     0.002 C 
HETATM   19  C10 UNL     1      -0.851   1.726  85.787  1.00  0.00     0.026 C 
ENDBRANCH   6  14
BRANCH   1  20
HETATM   20  C2  UNL     1       0.205   7.125  84.955  1.00  0.00     0.065 C 
HETATM   21  C1  UNL     1       1.403   7.657  84.948  1.00  0.00     0.017 C 
ENDBRANCH   1  20
TORSDOF 2
ENDMDL
MODEL 4
REMARK VINA RESULT: -5.998079862      3.100      5.239
REMARK  2 active torsions:
REMARK  status: ('A' for Active; 'I' for Inactive)
REMARK    1  A    between atoms: C2_2  and  C3_3 
REMARK       I    between atoms: C3_3  and  N1_5 
REMARK       I    between atoms: C4_7  and  N2_8 
REMARK       I    between atoms: C4_7  and  N3_16 
REMARK    2  A    between atoms: N2_8  and  C5_10 
ROOT
HETATM    1  C3  UNL     1       0.098   8.016  83.113  1.00  0.00     0.258 C 
HETATM    2  O1  UNL     1       0.248   8.141  81.879  1.00  0.00    -0.268 OA
HETATM    3  N1  UNL     1       0.049   6.759  83.704  1.00  0.00    -0.156 N 
ATOM      4  H1  UNL     1      -0.514   6.685  84.551  1.00  0.00     0.187 HD
HETATM    5  C4  UNL     1       0.621   5.688  83.317  1.00  0.00     0.679 C 
HETATM    6  N2  UNL     1       0.434   4.509  84.074  1.00  0.00    -0.221 N 
ATOM      7  H2  UNL     1       1.259   3.938  84.256  1.00  0.00     0.178 HD
HETATM    8  N3  UNL     1       1.431   5.624  82.169  1.00  0.00    -0.216 N 
HETATM    9  C11 UNL     1       0.838   5.125  80.949  1.00  0.00     0.151 C 
HETATM   10  C12 UNL     1       1.586   5.526  79.714  1.00  0.00     0.094 C 
HETATM   11  S1  UNL     1       3.272   4.856  79.866  1.00  0.00    -0.166 SA
HETATM   12  C13 UNL     1       3.749   5.044  81.604  1.00  0.00     0.094 C 
HETATM   13  C14 UNL     1       2.790   6.044  82.232  1.00  0.00     0.151 C 
ENDROOT
BRANCH   6  14
HETATM   14  C5  UNL     1      -0.802   4.049  84.604  1.00  0.00     0.099 C 
HETATM   15  C6  UNL     1      -0.721   2.565  84.915  1.00  0.00     0.026 C 
HETATM   16  C7  UNL     1      -2.118   1.985  85.022  1.00  0.00     0.002 C 
HETATM   17  C8  UNL     1      -2.989   3.081  85.644  1.00  0.00     0.000 C 
HETATM   18  C9  UNL     1      -3.231   4.158  84.585  1.00  0.00     0.002 C 
HETATM   19  C10 UNL     1      -1.993   4.341  83.720  1.00  0.00     0.026 C 
ENDBRANCH   6  14
BRANCH   1  20
HETATM   20  C2  UNL     1      -0.025   9.210  83.938  1.00  0.00     0.065 C 
HETATM   21  C1  UNL     1      -0.671  10.286  83.556  1.00  0.00     0.017 C 
ENDBRANCH   1  20
TORSDOF 2
ENDMDL
MODEL 5
REMARK VINA RESULT: -5.912189966      2.749      5.865
REMARK  2 active torsions:
REMARK  status: ('A' for Active; 'I' for Inactive)
REMARK    1  A    between atoms: C2_2  and  C3_3 
REMARK       I    between atoms: C3_3  and  N1_5 
REMARK       I    between atoms: C4_7  and  N2_8 
REMARK       I    between atoms: C4_7  and  N3_16 
REMARK    2  A    between atoms: N2_8  and  C5_10 
ROOT
HETATM    1  C3  UNL     1      -0.606   3.793  81.102  1.00  0.00     0.258 C 
HETATM    2  O1  UNL     1      -1.744   3.305  81.269  1.00  0.00    -0.268 OA
HETATM    3  N1  UNL     1      -0.020   4.593  82.076  1.00  0.00    -0.156 N 
ATOM      4  H1  UNL     1       0.625   5.308  81.740  1.00  0.00     0.187 HD
HETATM    5  C4  UNL     1      -0.191   4.544  83.339  1.00  0.00     0.679 C 
HETATM    6  N2  UNL     1       0.511   5.461  84.153  1.00  0.00    -0.221 N 
ATOM      7  H2  UNL     1       0.944   5.094  85.000  1.00  0.00     0.178 HD
HETATM    8  N3  UNL     1      -1.047   3.616  83.959  1.00  0.00    -0.216 N 
HETATM    9  C11 UNL     1      -2.372   4.058  84.326  1.00  0.00     0.151 C 
HETATM   10  C12 UNL     1      -3.343   2.934  84.529  1.00  0.00     0.094 C 
HETATM   11  S1  UNL     1      -2.681   1.887  85.863  1.00  0.00    -0.166 SA
HETATM   12  C13 UNL     1      -0.885   1.820  85.627  1.00  0.00     0.094 C 
HETATM   13  C14 UNL     1      -0.596   2.287  84.208  1.00  0.00     0.151 C 
ENDROOT
BRANCH   6  14
HETATM   14  C5  UNL     1       0.665   6.850  83.896  1.00  0.00     0.099 C 
HETATM   15  C6  UNL     1       1.906   7.380  84.594  1.00  0.00     0.026 C 
HETATM   16  C7  UNL     1       1.821   8.888  84.722  1.00  0.00     0.002 C 
HETATM   17  C8  UNL     1       1.107   9.384  83.460  1.00  0.00     0.000 C 
HETATM   18  C9  UNL     1      -0.376   9.025  83.578  1.00  0.00     0.002 C 
HETATM   19  C10 UNL     1      -0.544   7.679  84.267  1.00  0.00     0.026 C 
ENDBRANCH   6  14
BRANCH   1  20
HETATM   20  C2  UNL     1       0.113   3.514  79.866  1.00  0.00     0.065 C 
HETATM   21  C1  UNL     1       0.045   4.283  78.806  1.00  0.00     0.017 C 
ENDBRANCH   1  20
TORSDOF 2
ENDMDL
