MODEL 1
REMARK VINA RESULT: -7.495395839      0.000      0.000
REMARK  2 active torsions:
REMARK  status: ('A' for Active; 'I' for Inactive)
REMARK    1  A    between atoms: C6_6  and  C7_7 
REMARK       I    between atoms: C7_7  and  N1_9 
REMARK    2  A    between atoms: N1_9  and  N2_11 
ROOT
HETATM    1  C1  UNL     1      -0.460   8.423  81.232  1.00  0.00     0.015 C 
HETATM    2  C2  UNL     1      -0.109   7.557  82.423  1.00  0.00    -0.038 C 
HETATM    3  C3  UNL     1      -0.378   8.277  83.711  1.00  0.00     0.041 C 
HETATM    4  C4  UNL     1       0.124   7.390  84.849  1.00  0.00     0.123 C 
HETATM    5  C5  UNL     1      -0.755   6.183  84.886  1.00  0.00     0.051 C 
HETATM    6  C6  UNL     1      -0.536   5.419  83.574  1.00  0.00     0.047 C 
HETATM    7  C13 UNL     1       0.959   5.095  83.566  1.00  0.00     0.051 C 
HETATM    8  C14 UNL     1       1.721   6.384  83.514  1.00  0.00     0.123 C 
HETATM    9  C15 UNL     1       1.368   7.196  82.277  1.00  0.00     0.041 C 
HETATM   10  O2  UNL     1       1.461   7.099  84.677  1.00  0.00    -0.381 OA
HETATM   11  C16 UNL     1      -0.886   6.269  82.395  1.00  0.00     0.028 C 
ENDROOT
BRANCH   6  12
HETATM   12  C7  UNL     1      -1.357   4.197  83.662  1.00  0.00     0.241 C 
HETATM   13  O1  UNL     1      -2.025   3.872  82.640  1.00  0.00    -0.271 OA
HETATM   14  N1  UNL     1      -1.372   3.443  84.855  1.00  0.00    -0.289 N 
ATOM     15  H1  UNL     1      -0.800   3.774  85.631  1.00  0.00     0.184 HD
BRANCH  14  16
HETATM   16  N2  UNL     1      -2.111   2.280  85.048  1.00  0.00    -0.229 NA
HETATM   17  C8  UNL     1      -3.302   2.589  85.772  1.00  0.00     0.113 C 
HETATM   18  C9  UNL     1      -3.451   1.848  87.074  1.00  0.00     0.016 C 
HETATM   19  C10 UNL     1      -3.270   0.359  86.876  1.00  0.00     0.002 C 
HETATM   20  C11 UNL     1      -2.011   0.069  86.126  1.00  0.00     0.016 C 
HETATM   21  C12 UNL     1      -1.281   1.289  85.630  1.00  0.00     0.113 C 
ENDBRANCH  14  16
ENDBRANCH   6  12
TORSDOF 2
ENDMDL
MODEL 2
REMARK VINA RESULT: -7.249120937      1.111      1.694
REMARK  2 active torsions:
REMARK  status: ('A' for Active; 'I' for Inactive)
REMARK    1  A    between atoms: C6_6  and  C7_7 
REMARK       I    between atoms: C7_7  and  N1_9 
REMARK    2  A    between atoms: N1_9  and  N2_11 
ROOT
HETATM    1  C1  UNL     1      -0.475   8.306  83.839  1.00  0.00     0.015 C 
HETATM    2  C2  UNL     1       0.086   6.983  83.362  1.00  0.00    -0.038 C 
HETATM    3  C3  UNL     1       1.362   6.651  84.077  1.00  0.00     0.041 C 
HETATM    4  C4  UNL     1       1.925   5.378  83.447  1.00  0.00     0.123 C 
HETATM    5  C5  UNL     1       0.987   4.267  83.787  1.00  0.00     0.051 C 
HETATM    6  C6  UNL     1      -0.349   4.571  83.099  1.00  0.00     0.047 C 
HETATM    7  C13 UNL     1      -0.001   4.652  81.611  1.00  0.00     0.051 C 
HETATM    8  C14 UNL     1       0.928   5.810  81.406  1.00  0.00     0.123 C 
HETATM    9  C15 UNL     1       0.303   7.121  81.857  1.00  0.00     0.041 C 
HETATM   10  O2  UNL     1       2.110   5.553  82.092  1.00  0.00    -0.381 OA
HETATM   11  C16 UNL     1      -0.910   5.875  83.569  1.00  0.00     0.028 C 
ENDROOT
BRANCH   6  12
HETATM   12  C7  UNL     1      -1.236   3.429  83.388  1.00  0.00     0.241 C 
HETATM   13  O1  UNL     1      -1.782   2.855  82.405  1.00  0.00    -0.271 OA
HETATM   14  N1  UNL     1      -1.444   3.021  84.723  1.00  0.00    -0.289 N 
ATOM     15  H1  UNL     1      -0.961   3.538  85.457  1.00  0.00     0.184 HD
BRANCH  14  16
HETATM   16  N2  UNL     1      -2.261   1.962  85.109  1.00  0.00    -0.229 NA
HETATM   17  C8  UNL     1      -3.365   2.465  85.862  1.00  0.00     0.113 C 
HETATM   18  C9  UNL     1      -3.478   1.905  87.254  1.00  0.00     0.016 C 
HETATM   19  C10 UNL     1      -3.437   0.393  87.238  1.00  0.00     0.002 C 
HETATM   20  C11 UNL     1      -2.265  -0.101  86.452  1.00  0.00     0.016 C 
HETATM   21  C12 UNL     1      -1.475   0.977  85.760  1.00  0.00     0.113 C 
ENDBRANCH  14  16
ENDBRANCH   6  12
TORSDOF 2
ENDMDL
MODEL 3
REMARK VINA RESULT: -7.213362084      1.176      2.218
REMARK  2 active torsions:
REMARK  status: ('A' for Active; 'I' for Inactive)
REMARK    1  A    between atoms: C6_6  and  C7_7 
REMARK       I    between atoms: C7_7  and  N1_9 
REMARK    2  A    between atoms: N1_9  and  N2_11 
ROOT
HETATM    1  C1  UNL     1       1.021   7.542  85.082  1.00  0.00     0.015 C 
HETATM    2  C2  UNL     1       0.589   6.776  83.850  1.00  0.00    -0.038 C 
HETATM    3  C3  UNL     1       1.777   6.317  83.057  1.00  0.00     0.041 C 
HETATM    4  C4  UNL     1       1.254   5.673  81.774  1.00  0.00     0.123 C 
HETATM    5  C5  UNL     1       0.542   4.422  82.169  1.00  0.00     0.051 C 
HETATM    6  C6  UNL     1      -0.674   4.834  83.007  1.00  0.00     0.047 C 
HETATM    7  C13 UNL     1      -1.486   5.741  82.080  1.00  0.00     0.051 C 
HETATM    8  C14 UNL     1      -0.667   6.959  81.776  1.00  0.00     0.123 C 
HETATM    9  C15 UNL     1      -0.298   7.719  83.041  1.00  0.00     0.041 C 
HETATM   10  O2  UNL     1       0.467   6.564  81.075  1.00  0.00    -0.381 OA
HETATM   11  C16 UNL     1      -0.253   5.588  84.227  1.00  0.00     0.028 C 
ENDROOT
BRANCH   6  12
HETATM   12  C7  UNL     1      -1.402   3.591  83.325  1.00  0.00     0.241 C 
HETATM   13  O1  UNL     1      -1.747   2.856  82.357  1.00  0.00    -0.271 OA
HETATM   14  N1  UNL     1      -1.683   3.265  84.668  1.00  0.00    -0.289 N 
ATOM     15  H1  UNL     1      -1.366   3.912  85.389  1.00  0.00     0.184 HD
BRANCH  14  16
HETATM   16  N2  UNL     1      -2.365   2.123  85.081  1.00  0.00    -0.229 NA
HETATM   17  C8  UNL     1      -3.411   2.493  85.978  1.00  0.00     0.113 C 
HETATM   18  C9  UNL     1      -3.319   1.858  87.340  1.00  0.00     0.016 C 
HETATM   19  C10 UNL     1      -3.160   0.358  87.231  1.00  0.00     0.002 C 
HETATM   20  C11 UNL     1      -2.051   0.005  86.294  1.00  0.00     0.016 C 
HETATM   21  C12 UNL     1      -1.434   1.178  85.582  1.00  0.00     0.113 C 
ENDBRANCH  14  16
ENDBRANCH   6  12
TORSDOF 2
ENDMDL
MODEL 4
REMARK VINA RESULT: -7.142666057      0.904      1.911
REMARK  2 active torsions:
REMARK  status: ('A' for Active; 'I' for Inactive)
REMARK    1  A    between atoms: C6_6  and  C7_7 
REMARK       I    between atoms: C7_7  and  N1_9 
REMARK    2  A    between atoms: N1_9  and  N2_11 
ROOT
HETATM    1  C1  UNL     1       2.939   5.837  82.326  1.00  0.00     0.015 C 
HETATM    2  C2  UNL     1       1.493   6.069  82.710  1.00  0.00    -0.038 C 
HETATM    3  C3  UNL     1       0.753   6.783  81.618  1.00  0.00     0.041 C 
HETATM    4  C4  UNL     1      -0.650   7.092  82.137  1.00  0.00     0.123 C 
HETATM    5  C5  UNL     1      -1.357   5.787  82.299  1.00  0.00     0.051 C 
HETATM    6  C6  UNL     1      -0.622   5.002  83.393  1.00  0.00     0.047 C 
HETATM    7  C13 UNL     1      -0.700   5.904  84.626  1.00  0.00     0.051 C 
HETATM    8  C14 UNL     1       0.056   7.165  84.338  1.00  0.00     0.123 C 
HETATM    9  C15 UNL     1       1.512   6.883  84.002  1.00  0.00     0.041 C 
HETATM   10  O2  UNL     1      -0.581   7.833  83.298  1.00  0.00    -0.381 OA
HETATM   11  C16 UNL     1       0.805   4.767  83.016  1.00  0.00     0.028 C 
ENDROOT
BRANCH   6  12
HETATM   12  C7  UNL     1      -1.377   3.750  83.586  1.00  0.00     0.241 C 
HETATM   13  O1  UNL     1      -1.752   3.133  82.549  1.00  0.00    -0.271 OA
HETATM   14  N1  UNL     1      -1.651   3.288  84.890  1.00  0.00    -0.289 N 
ATOM     15  H1  UNL     1      -1.308   3.845  85.672  1.00  0.00     0.184 HD
BRANCH  14  16
HETATM   16  N2  UNL     1      -2.356   2.124  85.187  1.00  0.00    -0.229 NA
HETATM   17  C8  UNL     1      -3.392   2.422  86.122  1.00  0.00     0.113 C 
HETATM   18  C9  UNL     1      -3.310   1.650  87.411  1.00  0.00     0.016 C 
HETATM   19  C10 UNL     1      -3.185   0.165  87.149  1.00  0.00     0.002 C 
HETATM   20  C11 UNL     1      -2.086  -0.114  86.175  1.00  0.00     0.016 C 
HETATM   21  C12 UNL     1      -1.445   1.113  85.584  1.00  0.00     0.113 C 
ENDBRANCH  14  16
ENDBRANCH   6  12
TORSDOF 2
ENDMDL
MODEL 5
REMARK VINA RESULT: -6.902795332      1.052      1.509
REMARK  2 active torsions:
REMARK  status: ('A' for Active; 'I' for Inactive)
REMARK    1  A    between atoms: C6_6  and  C7_7 
REMARK       I    between atoms: C7_7  and  N1_9 
REMARK    2  A    between atoms: N1_9  and  N2_11 
ROOT
HETATM    1  C1  UNL     1      -0.626   9.658  83.823  1.00  0.00     0.015 C 
HETATM    2  C2  UNL     1       0.089   8.366  83.489  1.00  0.00    -0.038 C 
HETATM    3  C3  UNL     1       1.192   8.093  84.468  1.00  0.00     0.041 C 
HETATM    4  C4  UNL     1       1.939   6.851  83.985  1.00  0.00     0.123 C 
HETATM    5  C5  UNL     1       1.004   5.695  84.118  1.00  0.00     0.051 C 
HETATM    6  C6  UNL     1      -0.161   5.937  83.151  1.00  0.00     0.047 C 
HETATM    7  C13 UNL     1       0.500   6.042  81.776  1.00  0.00     0.051 C 
HETATM    8  C14 UNL     1       1.395   7.244  81.773  1.00  0.00     0.123 C 
HETATM    9  C15 UNL     1       0.623   8.521  82.067  1.00  0.00     0.041 C 
HETATM   10  O2  UNL     1       2.409   7.041  82.702  1.00  0.00    -0.381 OA
HETATM   11  C16 UNL     1      -0.874   7.210  83.480  1.00  0.00     0.028 C 
ENDROOT
BRANCH   6  12
HETATM   12  C7  UNL     1      -1.034   4.752  83.247  1.00  0.00     0.241 C 
HETATM   13  O1  UNL     1      -1.762   4.486  82.249  1.00  0.00    -0.271 OA
HETATM   14  N1  UNL     1      -1.033   3.970  84.421  1.00  0.00    -0.289 N 
ATOM     15  H1  UNL     1      -0.412   4.254  85.178  1.00  0.00     0.184 HD
BRANCH  14  16
HETATM   16  N2  UNL     1      -1.817   2.837  84.619  1.00  0.00    -0.229 NA
HETATM   17  C8  UNL     1      -3.107   3.229  85.090  1.00  0.00     0.113 C 
HETATM   18  C9  UNL     1      -3.487   2.646  86.424  1.00  0.00     0.016 C 
HETATM   19  C10 UNL     1      -3.306   1.145  86.434  1.00  0.00     0.002 C 
HETATM   20  C11 UNL     1      -1.944   0.768  85.947  1.00  0.00     0.016 C 
HETATM   21  C12 UNL     1      -1.117   1.921  85.444  1.00  0.00     0.113 C 
ENDBRANCH  14  16
ENDBRANCH   6  12
TORSDOF 2
ENDMDL
