MODEL 1
REMARK VINA RESULT: -5.606300037      0.000      0.000
REMARK  2 active torsions:
REMARK  status: ('A' for Active; 'I' for Inactive)
REMARK    1  A    between atoms: C2_2  and  N1_3 
REMARK    2  A    between atoms: N1_3  and  C3_5 
ROOT
HETATM    1  C3  UNL     1      16.683   5.075  14.867  1.00  0.00     0.105 C 
HETATM    2  C4  UNL     1      17.933   5.578  15.517  1.00  0.00     0.049 C 
HETATM    3  C5  UNL     1      18.302   6.994  15.321  1.00  0.00    -0.011 C 
HETATM    4  C6  UNL     1      19.297   7.243  14.233  1.00  0.00     0.006 C 
HETATM    5  C7  UNL     1      19.133   6.372  13.030  1.00  0.00     0.018 C 
HETATM    6  C8  UNL     1      17.731   6.224  12.533  1.00  0.00     0.082 C 
HETATM    7  C9  UNL     1      16.807   7.336  12.799  1.00  0.00     0.022 C 
HETATM    8  C10 UNL     1      16.174   7.389  14.135  1.00  0.00    -0.010 C 
HETATM    9  C11 UNL     1      17.150   7.951  15.135  1.00  0.00     0.009 C 
HETATM   10  C12 UNL     1      15.620   6.130  14.698  1.00  0.00     0.049 C 
HETATM   11  S1  UNL     1      17.118   4.654  13.181  1.00  0.00     0.048 S 
HETATM   12  O1  UNL     1      15.634   4.409  12.377  1.00  0.00    -0.255 OA
ENDROOT
BRANCH   1  13
HETATM   13  N1  UNL     1      16.224   3.887  15.498  1.00  0.00    -0.403 N 
ATOM     14  H1  UNL     1      16.151   3.004  14.991  1.00  0.00     0.154 HD
BRANCH  13  15
HETATM   15  C2  UNL     1      15.871   3.993  16.872  1.00  0.00     0.111 C 
HETATM   16  C1  UNL     1      14.547   3.299  17.153  1.00  0.00     0.026 C 
ENDBRANCH  13  15
ENDBRANCH   1  13
TORSDOF 2
ENDMDL
MODEL 2
REMARK VINA RESULT: -5.460755156      1.258      1.451
REMARK  2 active torsions:
REMARK  status: ('A' for Active; 'I' for Inactive)
REMARK    1  A    between atoms: C2_2  and  N1_3 
REMARK    2  A    between atoms: N1_3  and  C3_5 
ROOT
HETATM    1  C3  UNL     1      17.707   6.093  14.949  1.00  0.00     0.105 C 
HETATM    2  C4  UNL     1      18.941   6.936  14.999  1.00  0.00     0.049 C 
HETATM    3  C5  UNL     1      18.814   8.379  14.712  1.00  0.00    -0.011 C 
HETATM    4  C6  UNL     1      19.135   8.775  13.307  1.00  0.00     0.006 C 
HETATM    5  C7  UNL     1      18.691   7.798  12.269  1.00  0.00     0.018 C 
HETATM    6  C8  UNL     1      17.302   7.272  12.436  1.00  0.00     0.082 C 
HETATM    7  C9  UNL     1      16.337   8.142  13.125  1.00  0.00     0.022 C 
HETATM    8  C10 UNL     1      16.359   8.146  14.604  1.00  0.00    -0.010 C 
HETATM    9  C11 UNL     1      17.495   9.008  15.090  1.00  0.00     0.009 C 
HETATM   10  C12 UNL     1      16.447   6.839  15.306  1.00  0.00     0.049 C 
HETATM   11  S1  UNL     1      17.455   5.656  13.230  1.00  0.00     0.048 S 
HETATM   12  O1  UNL     1      15.886   4.993  13.155  1.00  0.00    -0.255 OA
ENDROOT
BRANCH   1  13
HETATM   13  N1  UNL     1      17.887   4.883  15.673  1.00  0.00    -0.403 N 
ATOM     14  H1  UNL     1      18.765   4.364  15.640  1.00  0.00     0.154 HD
BRANCH  13  15
HETATM   15  C2  UNL     1      16.779   4.434  16.444  1.00  0.00     0.111 C 
HETATM   16  C1  UNL     1      16.448   2.982  16.133  1.00  0.00     0.026 C 
ENDBRANCH  13  15
ENDBRANCH   1  13
TORSDOF 2
ENDMDL
MODEL 3
REMARK VINA RESULT: -5.314132914      1.940      2.556
REMARK  2 active torsions:
REMARK  status: ('A' for Active; 'I' for Inactive)
REMARK    1  A    between atoms: C2_2  and  N1_3 
REMARK    2  A    between atoms: N1_3  and  C3_5 
ROOT
HETATM    1  C3  UNL     1      17.277   7.072  14.349  1.00  0.00     0.105 C 
HETATM    2  C4  UNL     1      18.087   8.102  15.072  1.00  0.00     0.049 C 
HETATM    3  C5  UNL     1      17.490   9.436  15.285  1.00  0.00    -0.011 C 
HETATM    4  C6  UNL     1      17.884  10.472  14.281  1.00  0.00     0.006 C 
HETATM    5  C7  UNL     1      18.020   9.964  12.883  1.00  0.00     0.018 C 
HETATM    6  C8  UNL     1      16.915   9.072  12.416  1.00  0.00     0.082 C 
HETATM    7  C9  UNL     1      15.593   9.269  13.029  1.00  0.00     0.022 C 
HETATM    8  C10 UNL     1      15.353   8.636  14.345  1.00  0.00    -0.010 C 
HETATM    9  C11 UNL     1      15.988   9.466  15.429  1.00  0.00     0.009 C 
HETATM   10  C12 UNL     1      15.790   7.228  14.534  1.00  0.00     0.049 C 
HETATM   11  S1  UNL     1      17.509   7.376  12.599  1.00  0.00     0.048 S 
HETATM   12  O1  UNL     1      16.333   6.424  11.813  1.00  0.00    -0.255 OA
ENDROOT
BRANCH   1  13
HETATM   13  N1  UNL     1      17.760   5.763  14.621  1.00  0.00    -0.403 N 
ATOM     14  H1  UNL     1      18.752   5.533  14.555  1.00  0.00     0.154 HD
BRANCH  13  15
HETATM   15  C2  UNL     1      16.788   4.792  14.988  1.00  0.00     0.111 C 
HETATM   16  C1  UNL     1      17.055   4.250  16.384  1.00  0.00     0.026 C 
ENDBRANCH  13  15
ENDBRANCH   1  13
TORSDOF 2
ENDMDL
MODEL 4
REMARK VINA RESULT: -5.191158320      1.910      4.276
REMARK  2 active torsions:
REMARK  status: ('A' for Active; 'I' for Inactive)
REMARK    1  A    between atoms: C2_2  and  N1_3 
REMARK    2  A    between atoms: N1_3  and  C3_5 
ROOT
HETATM    1  C3  UNL     1      17.445   6.297  12.574  1.00  0.00     0.105 C 
HETATM    2  C4  UNL     1      16.700   7.561  12.865  1.00  0.00     0.049 C 
HETATM    3  C5  UNL     1      16.939   8.232  14.159  1.00  0.00    -0.011 C 
HETATM    4  C6  UNL     1      15.940   7.921  15.226  1.00  0.00     0.006 C 
HETATM    5  C7  UNL     1      15.456   6.508  15.232  1.00  0.00     0.018 C 
HETATM    6  C8  UNL     1      16.519   5.466  15.088  1.00  0.00     0.082 C 
HETATM    7  C9  UNL     1      17.863   5.812  15.574  1.00  0.00     0.022 C 
HETATM    8  C10 UNL     1      18.726   6.609  14.675  1.00  0.00    -0.010 C 
HETATM    9  C11 UNL     1      18.321   8.059  14.740  1.00  0.00     0.009 C 
HETATM   10  C12 UNL     1      18.794   6.220  13.242  1.00  0.00     0.049 C 
HETATM   11  S1  UNL     1      16.524   4.971  13.351  1.00  0.00     0.048 S 
HETATM   12  O1  UNL     1      17.552   3.612  13.296  1.00  0.00    -0.255 OA
ENDROOT
BRANCH   1  13
HETATM   13  N1  UNL     1      17.474   6.033  11.178  1.00  0.00    -0.403 N 
ATOM     14  H1  UNL     1      16.757   5.467  10.724  1.00  0.00     0.154 HD
BRANCH  13  15
HETATM   15  C2  UNL     1      18.556   6.600  10.448  1.00  0.00     0.111 C 
HETATM   16  C1  UNL     1      18.264   6.609   8.955  1.00  0.00     0.026 C 
ENDBRANCH  13  15
ENDBRANCH   1  13
TORSDOF 2
ENDMDL
MODEL 5
REMARK VINA RESULT: -5.133331478      2.342      2.910
REMARK  2 active torsions:
REMARK  status: ('A' for Active; 'I' for Inactive)
REMARK    1  A    between atoms: C2_2  and  N1_3 
REMARK    2  A    between atoms: N1_3  and  C3_5 
ROOT
HETATM    1  C3  UNL     1      16.430   7.651  14.180  1.00  0.00     0.105 C 
HETATM    2  C4  UNL     1      17.409   8.128  15.205  1.00  0.00     0.049 C 
HETATM    3  C5  UNL     1      17.443   9.571  15.521  1.00  0.00    -0.011 C 
HETATM    4  C6  UNL     1      18.495  10.350  14.798  1.00  0.00     0.006 C 
HETATM    5  C7  UNL     1      18.727   9.921  13.387  1.00  0.00     0.018 C 
HETATM    6  C8  UNL     1      17.493   9.691  12.575  1.00  0.00     0.082 C 
HETATM    7  C9  UNL     1      16.295  10.457  12.950  1.00  0.00     0.022 C 
HETATM    8  C10 UNL     1      15.480   9.939  14.071  1.00  0.00    -0.010 C 
HETATM    9  C11 UNL     1      16.131  10.303  15.380  1.00  0.00     0.009 C 
HETATM   10  C12 UNL     1      15.177   8.485  14.102  1.00  0.00     0.049 C 
HETATM   11  S1  UNL     1      17.197   7.909  12.582  1.00  0.00     0.048 S 
HETATM   12  O1  UNL     1      15.953   7.678  11.439  1.00  0.00    -0.255 OA
ENDROOT
BRANCH   1  13
HETATM   13  N1  UNL     1      16.190   6.257  14.316  1.00  0.00    -0.403 N 
ATOM     14  H1  UNL     1      16.663   5.571  13.727  1.00  0.00     0.154 HD
BRANCH  13  15
HETATM   15  C2  UNL     1      15.255   5.868  15.316  1.00  0.00     0.111 C 
HETATM   16  C1  UNL     1      15.691   4.583  16.003  1.00  0.00     0.026 C 
ENDBRANCH  13  15
ENDBRANCH   1  13
TORSDOF 2
ENDMDL
