MODEL 1
REMARK VINA RESULT: -7.254065040      0.000      0.000
REMARK  6 active torsions:
REMARK  status: ('A' for Active; 'I' for Inactive)
REMARK    1  A    between atoms: C2_2  and  O1_3 
REMARK    2  A    between atoms: O1_3  and  C3_4 
REMARK    3  A    between atoms: C6_7  and  N1_8 
REMARK    4  A    between atoms: C7_13  and  O2_14 
REMARK    5  A    between atoms: O2_14  and  C8_15 
REMARK    6  A    between atoms: C17_26  and  O3_27 
ROOT
HETATM    1  C3  UNL     1      55.913 133.722  21.322  1.00  0.00     0.103 A 
HETATM    2  C4  UNL     1      55.337 133.111  20.222  1.00  0.00     0.057 A 
HETATM    3  C5  UNL     1      54.199 133.593  19.605  1.00  0.00     0.037 A 
HETATM    4  C6  UNL     1      53.623 132.987  18.508  1.00  0.00     0.114 A 
HETATM    5  N2  UNL     1      52.499 133.538  17.968  1.00  0.00    -0.308 N 
ATOM      6  H2  UNL     1      52.067 133.095  17.157  1.00  0.00     0.171 HD
HETATM    7  C7  UNL     1      51.947 134.650  18.480  1.00  0.00     0.226 A 
HETATM    8  N3  UNL     1      52.522 135.227  19.550  1.00  0.00    -0.321 N 
ATOM      9  H3  UNL     1      52.101 136.072  19.936  1.00  0.00     0.169 HD
HETATM   10  C15 UNL     1      53.632 134.735  20.130  1.00  0.00     0.052 A 
HETATM   11  C16 UNL     1      54.207 135.352  21.238  1.00  0.00     0.070 A 
HETATM   12  C17 UNL     1      55.343 134.866  21.848  1.00  0.00     0.103 A 
ENDROOT
BRANCH   7  13
HETATM   13  O2  UNL     1      50.805 135.251  17.970  1.00  0.00    -0.316 OA
BRANCH  13  14
HETATM   14  C8  UNL     1      50.117 134.760  16.830  1.00  0.00     0.132 C 
HETATM   15  C9  UNL     1      48.670 135.211  16.822  1.00  0.00     0.032 C 
HETATM   16  C10 UNL     1      47.827 134.033  16.381  1.00  0.00     0.002 C 
HETATM   17  C11 UNL     1      48.028 133.860  14.904  1.00  0.00     0.000 C 
HETATM   18  C12 UNL     1      49.407 133.351  14.553  1.00  0.00     0.000 C 
HETATM   19  C13 UNL     1      50.411 134.436  14.354  1.00  0.00     0.002 C 
HETATM   20  C14 UNL     1      50.799 135.186  15.569  1.00  0.00     0.032 C 
ENDBRANCH  13  14
ENDBRANCH   7  13
BRANCH   4  21
HETATM   21  N1  UNL     1      54.167 131.935  18.043  1.00  0.00    -0.385 N 
ATOM     22  H12 UNL     1      54.976 131.492  18.478  1.00  0.00     0.157 HD
ATOM     23  H11 UNL     1      53.774 131.518  17.199  1.00  0.00     0.157 HD
ENDBRANCH   4  21
BRANCH  12  24
HETATM   24  O3  UNL     1      55.907 135.493  22.953  1.00  0.00    -0.353 OA
HETATM   25  C18 UNL     1      55.127 136.261  23.850  1.00  0.00     0.210 C 
ENDBRANCH  12  24
BRANCH   1  26
HETATM   26  O1  UNL     1      57.050 133.258  21.954  1.00  0.00    -0.349 OA
BRANCH  26  27
HETATM   27  C2  UNL     1      57.225 132.024  22.567  1.00  0.00     0.171 C 
HETATM   28  C1  UNL     1      56.217 131.715  23.651  1.00  0.00     0.034 C 
ENDBRANCH  26  27
ENDBRANCH   1  26
TORSDOF 6
ENDMDL
MODEL 2
REMARK VINA RESULT: -7.145708740      1.086      1.679
REMARK  6 active torsions:
REMARK  status: ('A' for Active; 'I' for Inactive)
REMARK    1  A    between atoms: C2_2  and  O1_3 
REMARK    2  A    between atoms: O1_3  and  C3_4 
REMARK    3  A    between atoms: C6_7  and  N1_8 
REMARK    4  A    between atoms: C7_13  and  O2_14 
REMARK    5  A    between atoms: O2_14  and  C8_15 
REMARK    6  A    between atoms: C17_26  and  O3_27 
ROOT
HETATM    1  C3  UNL     1      54.873 134.317  21.404  1.00  0.00     0.103 A 
HETATM    2  C4  UNL     1      54.646 133.491  20.318  1.00  0.00     0.057 A 
HETATM    3  C5  UNL     1      53.881 133.869  19.232  1.00  0.00     0.037 A 
HETATM    4  C6  UNL     1      53.654 133.047  18.147  1.00  0.00     0.114 A 
HETATM    5  N2  UNL     1      52.883 133.510  17.123  1.00  0.00    -0.308 N 
ATOM      6  H2  UNL     1      52.710 132.908  16.317  1.00  0.00     0.171 HD
HETATM    7  C7  UNL     1      52.346 134.741  17.149  1.00  0.00     0.226 A 
HETATM    8  N3  UNL     1      52.579 135.528  18.215  1.00  0.00    -0.321 N 
ATOM      9  H3  UNL     1      52.170 136.462  18.232  1.00  0.00     0.169 HD
HETATM   10  C15 UNL     1      53.329 135.133  19.259  1.00  0.00     0.052 A 
HETATM   11  C16 UNL     1      53.554 135.968  20.350  1.00  0.00     0.070 A 
HETATM   12  C17 UNL     1      54.319 135.583  21.430  1.00  0.00     0.103 A 
ENDROOT
BRANCH   7  13
HETATM   13  O2  UNL     1      51.555 135.261  16.134  1.00  0.00    -0.316 OA
BRANCH  13  14
HETATM   14  C8  UNL     1      50.262 134.763  15.831  1.00  0.00     0.132 C 
HETATM   15  C9  UNL     1      50.337 133.555  14.918  1.00  0.00     0.032 C 
HETATM   16  C10 UNL     1      49.240 133.696  13.882  1.00  0.00     0.002 C 
HETATM   17  C11 UNL     1      47.936 133.399  14.561  1.00  0.00     0.000 C 
HETATM   18  C12 UNL     1      47.523 134.473  15.540  1.00  0.00     0.000 C 
HETATM   19  C13 UNL     1      48.052 134.261  16.918  1.00  0.00     0.002 C 
HETATM   20  C14 UNL     1      49.513 134.422  17.080  1.00  0.00     0.032 C 
ENDBRANCH  13  14
ENDBRANCH   7  13
BRANCH   4  21
HETATM   21  N1  UNL     1      54.174 131.886  18.148  1.00  0.00    -0.385 N 
ATOM     22  H12 UNL     1      55.145 131.716  17.886  1.00  0.00     0.157 HD
ATOM     23  H11 UNL     1      53.593 131.095  18.424  1.00  0.00     0.157 HD
ENDBRANCH   4  21
BRANCH  12  24
HETATM   24  O3  UNL     1      54.536 136.428  22.512  1.00  0.00    -0.353 OA
HETATM   25  C18 UNL     1      55.414 137.535  22.427  1.00  0.00     0.210 C 
ENDBRANCH  12  24
BRANCH   1  26
HETATM   26  O1  UNL     1      55.635 133.960  22.499  1.00  0.00    -0.349 OA
BRANCH  26  27
HETATM   27  C2  UNL     1      56.559 132.925  22.577  1.00  0.00     0.171 C 
HETATM   28  C1  UNL     1      56.086 131.723  23.365  1.00  0.00     0.034 C 
ENDBRANCH  26  27
ENDBRANCH   1  26
TORSDOF 6
ENDMDL
MODEL 3
REMARK VINA RESULT: -7.039387143      1.247      1.394
REMARK  6 active torsions:
REMARK  status: ('A' for Active; 'I' for Inactive)
REMARK    1  A    between atoms: C2_2  and  O1_3 
REMARK    2  A    between atoms: O1_3  and  C3_4 
REMARK    3  A    between atoms: C6_7  and  N1_8 
REMARK    4  A    between atoms: C7_13  and  O2_14 
REMARK    5  A    between atoms: O2_14  and  C8_15 
REMARK    6  A    between atoms: C17_26  and  O3_27 
ROOT
HETATM    1  C3  UNL     1      54.909 134.181  21.359  1.00  0.00     0.103 A 
HETATM    2  C4  UNL     1      54.656 133.388  20.253  1.00  0.00     0.057 A 
HETATM    3  C5  UNL     1      53.860 133.798  19.201  1.00  0.00     0.037 A 
HETATM    4  C6  UNL     1      53.607 133.010  18.097  1.00  0.00     0.114 A 
HETATM    5  N2  UNL     1      52.806 133.502  17.109  1.00  0.00    -0.308 N 
ATOM      6  H2  UNL     1      52.614 132.925  16.290  1.00  0.00     0.171 HD
HETATM    7  C7  UNL     1      52.265 134.728  17.190  1.00  0.00     0.226 A 
HETATM    8  N3  UNL     1      52.522 135.482  18.275  1.00  0.00    -0.321 N 
ATOM      9  H3  UNL     1      52.110 136.412  18.333  1.00  0.00     0.169 HD
HETATM   10  C15 UNL     1      53.303 135.057  19.284  1.00  0.00     0.052 A 
HETATM   11  C16 UNL     1      53.554 135.857  20.396  1.00  0.00     0.070 A 
HETATM   12  C17 UNL     1      54.350 135.442  21.441  1.00  0.00     0.103 A 
ENDROOT
BRANCH   7  13
HETATM   13  O2  UNL     1      51.444 135.277  16.215  1.00  0.00    -0.316 OA
BRANCH  13  14
HETATM   14  C8  UNL     1      50.487 134.516  15.494  1.00  0.00     0.132 C 
HETATM   15  C9  UNL     1      49.141 135.213  15.461  1.00  0.00     0.032 C 
HETATM   16  C10 UNL     1      48.076 134.158  15.682  1.00  0.00     0.002 C 
HETATM   17  C11 UNL     1      47.960 133.360  14.417  1.00  0.00     0.000 C 
HETATM   18  C12 UNL     1      49.162 132.480  14.164  1.00  0.00     0.000 C 
HETATM   19  C13 UNL     1      50.245 133.156  13.393  1.00  0.00     0.002 C 
HETATM   20  C14 UNL     1      50.961 134.239  14.103  1.00  0.00     0.032 C 
ENDBRANCH  13  14
ENDBRANCH   7  13
BRANCH   4  21
HETATM   21  N1  UNL     1      54.133 131.853  18.046  1.00  0.00    -0.385 N 
ATOM     22  H12 UNL     1      54.872 131.610  17.387  1.00  0.00     0.157 HD
ATOM     23  H11 UNL     1      53.798 131.139  18.693  1.00  0.00     0.157 HD
ENDBRANCH   4  21
BRANCH  12  24
HETATM   24  O3  UNL     1      54.592 136.252  22.544  1.00  0.00    -0.353 OA
HETATM   25  C18 UNL     1      55.483 137.350  22.479  1.00  0.00     0.210 C 
ENDBRANCH  12  24
BRANCH   1  26
HETATM   26  O1  UNL     1      55.702 133.792  22.421  1.00  0.00    -0.349 OA
BRANCH  26  27
HETATM   27  C2  UNL     1      57.090 133.722  22.450  1.00  0.00     0.171 C 
HETATM   28  C1  UNL     1      57.733 134.515  23.566  1.00  0.00     0.034 C 
ENDBRANCH  26  27
ENDBRANCH   1  26
TORSDOF 6
ENDMDL
MODEL 4
REMARK VINA RESULT: -7.003632802      1.981      8.109
REMARK  6 active torsions:
REMARK  status: ('A' for Active; 'I' for Inactive)
REMARK    1  A    between atoms: C2_2  and  O1_3 
REMARK    2  A    between atoms: O1_3  and  C3_4 
REMARK    3  A    between atoms: C6_7  and  N1_8 
REMARK    4  A    between atoms: C7_13  and  O2_14 
REMARK    5  A    between atoms: O2_14  and  C8_15 
REMARK    6  A    between atoms: C17_26  and  O3_27 
ROOT
HETATM    1  C3  UNL     1      49.946 134.857  15.702  1.00  0.00     0.103 A 
HETATM    2  C4  UNL     1      49.929 135.078  17.068  1.00  0.00     0.057 A 
HETATM    3  C5  UNL     1      51.078 135.238  17.818  1.00  0.00     0.037 A 
HETATM    4  C6  UNL     1      51.064 135.459  19.180  1.00  0.00     0.114 A 
HETATM    5  N2  UNL     1      52.251 135.603  19.834  1.00  0.00    -0.308 N 
ATOM      6  H2  UNL     1      52.249 135.767  20.841  1.00  0.00     0.171 HD
HETATM    7  C7  UNL     1      53.424 135.535  19.183  1.00  0.00     0.226 A 
HETATM    8  N3  UNL     1      53.418 135.319  17.855  1.00  0.00    -0.321 N 
ATOM      9  H3  UNL     1      54.310 135.268  17.364  1.00  0.00     0.169 HD
HETATM   10  C15 UNL     1      52.282 135.167  17.150  1.00  0.00     0.052 A 
HETATM   11  C16 UNL     1      52.304 134.944  15.776  1.00  0.00     0.070 A 
HETATM   12  C17 UNL     1      51.154 134.786  15.034  1.00  0.00     0.103 A 
ENDROOT
BRANCH   7  13
HETATM   13  O2  UNL     1      54.659 135.675  19.799  1.00  0.00    -0.316 OA
BRANCH  13  14
HETATM   14  C8  UNL     1      55.184 134.715  20.702  1.00  0.00     0.132 C 
HETATM   15  C9  UNL     1      55.456 133.395  20.006  1.00  0.00     0.032 C 
HETATM   16  C10 UNL     1      55.001 132.287  20.934  1.00  0.00     0.002 C 
HETATM   17  C11 UNL     1      56.007 132.182  22.042  1.00  0.00     0.000 C 
HETATM   18  C12 UNL     1      55.967 133.360  22.988  1.00  0.00     0.000 C 
HETATM   19  C13 UNL     1      56.848 134.489  22.573  1.00  0.00     0.002 C 
HETATM   20  C14 UNL     1      56.430 135.221  21.358  1.00  0.00     0.032 C 
ENDBRANCH  13  14
ENDBRANCH   7  13
BRANCH   4  21
HETATM   21  N1  UNL     1      49.939 135.519  19.771  1.00  0.00    -0.385 N 
ATOM     22  H12 UNL     1      49.132 134.967  19.482  1.00  0.00     0.157 HD
ATOM     23  H11 UNL     1      49.843 136.148  20.569  1.00  0.00     0.157 HD
ENDBRANCH   4  21
BRANCH  12  24
HETATM   24  O3  UNL     1      51.191 134.565  13.662  1.00  0.00    -0.353 OA
HETATM   25  C18 UNL     1      52.158 135.185  12.836  1.00  0.00     0.210 C 
ENDBRANCH  12  24
BRANCH   1  26
HETATM   26  O1  UNL     1      48.810 134.696  14.932  1.00  0.00    -0.349 OA
BRANCH  26  27
HETATM   27  C2  UNL     1      47.792 133.771  15.124  1.00  0.00     0.171 C 
HETATM   28  C1  UNL     1      47.452 132.952  13.898  1.00  0.00     0.034 C 
ENDBRANCH  26  27
ENDBRANCH   1  26
TORSDOF 6
ENDMDL
MODEL 5
REMARK VINA RESULT: -6.871881096      1.440      1.728
REMARK  6 active torsions:
REMARK  status: ('A' for Active; 'I' for Inactive)
REMARK    1  A    between atoms: C2_2  and  O1_3 
REMARK    2  A    between atoms: O1_3  and  C3_4 
REMARK    3  A    between atoms: C6_7  and  N1_8 
REMARK    4  A    between atoms: C7_13  and  O2_14 
REMARK    5  A    between atoms: O2_14  and  C8_15 
REMARK    6  A    between atoms: C17_26  and  O3_27 
ROOT
HETATM    1  C3  UNL     1      55.303 134.600  22.186  1.00  0.00     0.103 A 
HETATM    2  C4  UNL     1      55.125 133.583  21.267  1.00  0.00     0.057 A 
HETATM    3  C5  UNL     1      54.486 133.767  20.056  1.00  0.00     0.037 A 
HETATM    4  C6  UNL     1      54.307 132.755  19.136  1.00  0.00     0.114 A 
HETATM    5  N2  UNL     1      53.662 133.035  17.968  1.00  0.00    -0.308 N 
ATOM      6  H2  UNL     1      53.525 132.291  17.283  1.00  0.00     0.171 HD
HETATM    7  C7  UNL     1      53.202 134.268  17.698  1.00  0.00     0.226 A 
HETATM    8  N3  UNL     1      53.386 135.242  18.607  1.00  0.00    -0.321 N 
ATOM      9  H3  UNL     1      53.035 136.177  18.400  1.00  0.00     0.169 HD
HETATM   10  C15 UNL     1      54.013 135.033  19.779  1.00  0.00     0.052 A 
HETATM   11  C16 UNL     1      54.189 136.060  20.703  1.00  0.00     0.070 A 
HETATM   12  C17 UNL     1      54.828 135.868  21.908  1.00  0.00     0.103 A 
ENDROOT
BRANCH   7  13
HETATM   13  O2  UNL     1      52.540 134.607  16.527  1.00  0.00    -0.316 OA
BRANCH  13  14
HETATM   14  C8  UNL     1      51.136 134.478  16.369  1.00  0.00     0.132 C 
HETATM   15  C9  UNL     1      50.394 134.993  17.587  1.00  0.00     0.032 C 
HETATM   16  C10 UNL     1      49.267 134.024  17.879  1.00  0.00     0.002 C 
HETATM   17  C11 UNL     1      48.203 134.244  16.844  1.00  0.00     0.000 C 
HETATM   18  C12 UNL     1      48.613 133.774  15.469  1.00  0.00     0.000 C 
HETATM   19  C13 UNL     1      49.317 134.816  14.667  1.00  0.00     0.002 C 
HETATM   20  C14 UNL     1      50.668 135.189  15.139  1.00  0.00     0.032 C 
ENDBRANCH  13  14
ENDBRANCH   7  13
BRANCH   4  21
HETATM   21  N1  UNL     1      54.752 131.597  19.417  1.00  0.00    -0.385 N 
ATOM     22  H12 UNL     1      54.222 130.743  19.243  1.00  0.00     0.157 HD
ATOM     23  H11 UNL     1      55.680 131.522  19.835  1.00  0.00     0.157 HD
ENDBRANCH   4  21
BRANCH  12  24
HETATM   24  O3  UNL     1      54.998 136.903  22.820  1.00  0.00    -0.353 OA
HETATM   25  C18 UNL     1      55.860 137.994  22.554  1.00  0.00     0.210 C 
ENDBRANCH  12  24
BRANCH   1  26
HETATM   26  O1  UNL     1      55.940 134.438  23.402  1.00  0.00    -0.349 OA
BRANCH  26  27
HETATM   27  C2  UNL     1      57.271 134.100  23.613  1.00  0.00     0.171 C 
HETATM   28  C1  UNL     1      58.195 135.283  23.800  1.00  0.00     0.034 C 
ENDBRANCH  26  27
ENDBRANCH   1  26
TORSDOF 6
ENDMDL
