MODEL 1
REMARK VINA RESULT: -6.019578597      0.000      0.000
REMARK  7 active torsions:
REMARK  status: ('A' for Active; 'I' for Inactive)
REMARK    1  A    between atoms: C2_2  and  C3_3 
REMARK    2  A    between atoms: C4_5  and  C5_6 
REMARK    3  A    between atoms: C5_6  and  N1_7 
REMARK    4  A    between atoms: N1_7  and  C6_9 
REMARK    5  A    between atoms: C6_9  and  C7_10 
REMARK    6  A    between atoms: C7_10  and  O3_12 
REMARK    7  A    between atoms: C19_24  and  O4_25 
ROOT
HETATM    1  C6  UNL     1      55.519 136.076  21.504  1.00  0.00     0.125 C 
HETATM    2  C9  UNL     1      56.361 135.502  20.368  1.00  0.00     0.043 C 
HETATM    3  C10 UNL     1      56.793 134.107  20.511  1.00  0.00     0.012 C 
HETATM    4  C11 UNL     1      56.280 133.275  21.610  1.00  0.00    -0.047 C 
HETATM    5  C12 UNL     1      57.442 132.401  22.119  1.00  0.00     0.015 C 
HETATM    6  C13 UNL     1      55.237 132.245  21.143  1.00  0.00     0.015 C 
HETATM    7  C14 UNL     1      55.737 133.967  22.809  1.00  0.00     0.020 C 
HETATM    8  C15 UNL     1      56.019 135.467  22.793  1.00  0.00    -0.012 C 
HETATM    9  C16 UNL     1      55.397 136.046  24.031  1.00  0.00     0.018 C 
HETATM   10  C17 UNL     1      57.515 135.707  22.908  1.00  0.00     0.018 C 
ENDROOT
BRANCH   1  11
HETATM   11  N1  UNL     1      54.176 135.816  21.190  1.00  0.00    -0.378 N 
ATOM     12  H1  UNL     1      53.703 135.096  21.734  1.00  0.00     0.160 HD
BRANCH  11  13
HETATM   13  C5  UNL     1      53.443 136.447  20.213  1.00  0.00     0.121 C 
BRANCH  13  14
HETATM   14  C4  UNL     1      52.644 135.473  19.365  1.00  0.00     0.093 A 
HETATM   15  O1  UNL     1      51.346 135.417  19.201  1.00  0.00    -0.311 OA
HETATM   16  C3  UNL     1      51.033 134.430  18.387  1.00  0.00     0.086 A 
HETATM   17  C19 UNL     1      52.168 133.796  17.988  1.00  0.00     0.098 A 
HETATM   18  C18 UNL     1      53.204 134.454  18.607  1.00  0.00     0.077 A 
BRANCH  16  19
HETATM   19  C2  UNL     1      49.661 134.053  17.959  1.00  0.00     0.064 C 
HETATM   20  C1  UNL     1      49.177 134.960  16.835  1.00  0.00     0.012 C 
ENDBRANCH  16  19
BRANCH  17  21
HETATM   21  O4  UNL     1      52.300 132.723  17.147  1.00  0.00    -0.358 OA
ATOM     22  H4  UNL     1      52.798 132.657  16.340  1.00  0.00     0.217 HD
ENDBRANCH  17  21
ENDBRANCH  13  14
ENDBRANCH  11  13
ENDBRANCH   1  11
BRANCH   1  23
HETATM   23  C7  UNL     1      55.831 137.537  21.552  1.00  0.00     0.287 C 
HETATM   24  O2  UNL     1      56.664 138.045  20.720  1.00  0.00    -0.262 OA
BRANCH  23  25
HETATM   25  O3  UNL     1      55.300 138.449  22.432  1.00  0.00    -0.325 OA
HETATM   26  C8  UNL     1      55.666 139.816  22.444  1.00  0.00     0.213 C 
ENDBRANCH  23  25
ENDBRANCH   1  23
TORSDOF 7
ENDMDL
MODEL 2
REMARK VINA RESULT: -5.979601575      1.904      3.863
REMARK  7 active torsions:
REMARK  status: ('A' for Active; 'I' for Inactive)
REMARK    1  A    between atoms: C2_2  and  C3_3 
REMARK    2  A    between atoms: C4_5  and  C5_6 
REMARK    3  A    between atoms: C5_6  and  N1_7 
REMARK    4  A    between atoms: N1_7  and  C6_9 
REMARK    5  A    between atoms: C6_9  and  C7_10 
REMARK    6  A    between atoms: C7_10  and  O3_12 
REMARK    7  A    between atoms: C19_24  and  O4_25 
ROOT
HETATM    1  C6  UNL     1      55.924 135.433  22.588  1.00  0.00     0.125 C 
HETATM    2  C9  UNL     1      55.137 135.955  23.787  1.00  0.00     0.043 C 
HETATM    3  C10 UNL     1      55.467 137.308  24.251  1.00  0.00     0.012 C 
HETATM    4  C11 UNL     1      56.381 138.161  23.477  1.00  0.00    -0.047 C 
HETATM    5  C12 UNL     1      57.267 138.928  24.477  1.00  0.00     0.015 C 
HETATM    6  C13 UNL     1      55.651 139.281  22.715  1.00  0.00     0.015 C 
HETATM    7  C14 UNL     1      57.318 137.497  22.532  1.00  0.00     0.020 C 
HETATM    8  C15 UNL     1      57.329 135.979  22.694  1.00  0.00    -0.012 C 
HETATM    9  C16 UNL     1      58.282 135.433  21.670  1.00  0.00     0.018 C 
HETATM   10  C17 UNL     1      57.901 135.615  24.055  1.00  0.00     0.018 C 
ENDROOT
BRANCH   1  11
HETATM   11  N1  UNL     1      55.212 135.808  21.438  1.00  0.00    -0.378 N 
ATOM     12  H1  UNL     1      55.752 135.955  20.585  1.00  0.00     0.160 HD
BRANCH  11  13
HETATM   13  C5  UNL     1      53.853 135.993  21.358  1.00  0.00     0.121 C 
BRANCH  13  14
HETATM   14  C4  UNL     1      53.243 135.316  20.144  1.00  0.00     0.093 A 
HETATM   15  O1  UNL     1      52.265 135.741  19.385  1.00  0.00    -0.311 OA
HETATM   16  C3  UNL     1      52.021 134.871  18.427  1.00  0.00     0.086 A 
HETATM   17  C19 UNL     1      52.872 133.816  18.548  1.00  0.00     0.098 A 
HETATM   18  C18 UNL     1      53.657 134.090  19.641  1.00  0.00     0.077 A 
BRANCH  16  19
HETATM   19  C2  UNL     1      50.985 135.002  17.371  1.00  0.00     0.064 C 
HETATM   20  C1  UNL     1      49.592 135.062  17.984  1.00  0.00     0.012 C 
ENDBRANCH  16  19
BRANCH  17  21
HETATM   21  O4  UNL     1      52.963 132.694  17.767  1.00  0.00    -0.358 OA
ATOM     22  H4  UNL     1      53.187 131.807  18.024  1.00  0.00     0.217 HD
ENDBRANCH  17  21
ENDBRANCH  13  14
ENDBRANCH  11  13
ENDBRANCH   1  11
BRANCH   1  23
HETATM   23  C7  UNL     1      56.008 133.951  22.761  1.00  0.00     0.287 C 
HETATM   24  O2  UNL     1      55.797 133.425  23.911  1.00  0.00    -0.262 OA
BRANCH  23  25
HETATM   25  O3  UNL     1      56.300 133.037  21.778  1.00  0.00    -0.325 OA
HETATM   26  C8  UNL     1      55.723 131.746  21.725  1.00  0.00     0.213 C 
ENDBRANCH  23  25
ENDBRANCH   1  23
TORSDOF 7
ENDMDL
MODEL 3
REMARK VINA RESULT: -5.967958531      1.420      1.871
REMARK  7 active torsions:
REMARK  status: ('A' for Active; 'I' for Inactive)
REMARK    1  A    between atoms: C2_2  and  C3_3 
REMARK    2  A    between atoms: C4_5  and  C5_6 
REMARK    3  A    between atoms: C5_6  and  N1_7 
REMARK    4  A    between atoms: N1_7  and  C6_9 
REMARK    5  A    between atoms: C6_9  and  C7_10 
REMARK    6  A    between atoms: C7_10  and  O3_12 
REMARK    7  A    between atoms: C19_24  and  O4_25 
ROOT
HETATM    1  C6  UNL     1      55.869 135.204  21.460  1.00  0.00     0.125 C 
HETATM    2  C9  UNL     1      57.055 134.731  20.625  1.00  0.00     0.043 C 
HETATM    3  C10 UNL     1      58.056 133.908  21.314  1.00  0.00     0.012 C 
HETATM    4  C11 UNL     1      57.816 133.431  22.685  1.00  0.00    -0.047 C 
HETATM    5  C12 UNL     1      59.150 133.515  23.451  1.00  0.00     0.015 C 
HETATM    6  C13 UNL     1      57.466 131.934  22.743  1.00  0.00     0.015 C 
HETATM    7  C14 UNL     1      56.825 134.167  23.513  1.00  0.00     0.020 C 
HETATM    8  C15 UNL     1      56.374 135.471  22.859  1.00  0.00    -0.012 C 
HETATM    9  C16 UNL     1      55.360 136.096  23.773  1.00  0.00     0.018 C 
HETATM   10  C17 UNL     1      57.545 136.438  22.787  1.00  0.00     0.018 C 
ENDROOT
BRANCH   1  11
HETATM   11  N1  UNL     1      54.873 134.220  21.351  1.00  0.00    -0.378 N 
ATOM     12  H1  UNL     1      54.142 134.219  22.063  1.00  0.00     0.160 HD
BRANCH  11  13
HETATM   13  C5  UNL     1      54.797 133.259  20.372  1.00  0.00     0.121 C 
BRANCH  13  14
HETATM   14  C4  UNL     1      53.675 133.524  19.383  1.00  0.00     0.093 A 
HETATM   15  O1  UNL     1      52.757 134.455  19.430  1.00  0.00    -0.311 OA
HETATM   16  C3  UNL     1      51.959 134.360  18.387  1.00  0.00     0.086 A 
HETATM   17  C19 UNL     1      52.359 133.320  17.606  1.00  0.00     0.098 A 
HETATM   18  C18 UNL     1      53.455 132.779  18.233  1.00  0.00     0.077 A 
BRANCH  16  19
HETATM   19  C2  UNL     1      50.799 135.240  18.090  1.00  0.00     0.064 C 
HETATM   20  C1  UNL     1      50.105 135.671  19.375  1.00  0.00     0.012 C 
ENDBRANCH  16  19
BRANCH  17  21
HETATM   21  O4  UNL     1      51.814 132.870  16.432  1.00  0.00    -0.358 OA
ATOM     22  H4  UNL     1      51.597 131.980  16.180  1.00  0.00     0.217 HD
ENDBRANCH  17  21
ENDBRANCH  13  14
ENDBRANCH  11  13
ENDBRANCH   1  11
BRANCH   1  23
HETATM   23  C7  UNL     1      55.452 136.517  20.879  1.00  0.00     0.287 C 
HETATM   24  O2  UNL     1      54.230 136.898  20.963  1.00  0.00    -0.262 OA
BRANCH  23  25
HETATM   25  O3  UNL     1      56.269 137.411  20.231  1.00  0.00    -0.325 OA
HETATM   26  C8  UNL     1      56.073 138.812  20.277  1.00  0.00     0.213 C 
ENDBRANCH  23  25
ENDBRANCH   1  23
TORSDOF 7
ENDMDL
MODEL 4
REMARK VINA RESULT: -5.963375899      1.336      1.806
REMARK  7 active torsions:
REMARK  status: ('A' for Active; 'I' for Inactive)
REMARK    1  A    between atoms: C2_2  and  C3_3 
REMARK    2  A    between atoms: C4_5  and  C5_6 
REMARK    3  A    between atoms: C5_6  and  N1_7 
REMARK    4  A    between atoms: N1_7  and  C6_9 
REMARK    5  A    between atoms: C6_9  and  C7_10 
REMARK    6  A    between atoms: C7_10  and  O3_12 
REMARK    7  A    between atoms: C19_24  and  O4_25 
ROOT
HETATM    1  C6  UNL     1      55.429 135.322  20.761  1.00  0.00     0.125 C 
HETATM    2  C9  UNL     1      56.594 134.592  20.099  1.00  0.00     0.043 C 
HETATM    3  C10 UNL     1      57.287 133.586  20.914  1.00  0.00     0.012 C 
HETATM    4  C11 UNL     1      56.755 133.196  22.229  1.00  0.00    -0.047 C 
HETATM    5  C12 UNL     1      57.952 133.007  23.181  1.00  0.00     0.015 C 
HETATM    6  C13 UNL     1      56.089 131.809  22.215  1.00  0.00     0.015 C 
HETATM    7  C14 UNL     1      55.835 134.141  22.915  1.00  0.00     0.020 C 
HETATM    8  C15 UNL     1      55.773 135.499  22.221  1.00  0.00    -0.012 C 
HETATM    9  C16 UNL     1      54.794 136.341  22.988  1.00  0.00     0.018 C 
HETATM   10  C17 UNL     1      57.121 136.192  22.332  1.00  0.00     0.018 C 
ENDROOT
BRANCH   1  11
HETATM   11  N1  UNL     1      54.272 134.571  20.496  1.00  0.00    -0.378 N 
ATOM     12  H1  UNL     1      53.673 134.345  21.290  1.00  0.00     0.160 HD
BRANCH  11  13
HETATM   13  C5  UNL     1      53.876 134.114  19.262  1.00  0.00     0.121 C 
BRANCH  13  14
HETATM   14  C4  UNL     1      52.400 134.353  18.999  1.00  0.00     0.093 A 
HETATM   15  O1  UNL     1      51.589 133.657  18.244  1.00  0.00    -0.311 OA
HETATM   16  C3  UNL     1      50.380 134.181  18.271  1.00  0.00     0.086 A 
HETATM   17  C19 UNL     1      50.381 135.275  19.079  1.00  0.00     0.098 A 
HETATM   18  C18 UNL     1      51.666 135.395  19.550  1.00  0.00     0.077 A 
BRANCH  16  19
HETATM   19  C2  UNL     1      49.191 133.672  17.541  1.00  0.00     0.064 C 
HETATM   20  C1  UNL     1      48.871 134.557  16.343  1.00  0.00     0.012 C 
ENDBRANCH  16  19
BRANCH  17  21
HETATM   21  O4  UNL     1      49.342 136.114  19.388  1.00  0.00    -0.358 OA
ATOM     22  H4  UNL     1      49.361 136.929  19.876  1.00  0.00     0.217 HD
ENDBRANCH  17  21
ENDBRANCH  13  14
ENDBRANCH  11  13
ENDBRANCH   1  11
BRANCH   1  23
HETATM   23  C7  UNL     1      55.389 136.682  20.144  1.00  0.00     0.287 C 
HETATM   24  O2  UNL     1      56.247 137.007  19.248  1.00  0.00    -0.262 OA
BRANCH  23  25
HETATM   25  O3  UNL     1      54.493 137.681  20.442  1.00  0.00    -0.325 OA
HETATM   26  C8  UNL     1      54.841 139.052  20.461  1.00  0.00     0.213 C 
ENDBRANCH  23  25
ENDBRANCH   1  23
TORSDOF 7
ENDMDL
MODEL 5
REMARK VINA RESULT: -5.939530861      2.490      4.519
REMARK  7 active torsions:
REMARK  status: ('A' for Active; 'I' for Inactive)
REMARK    1  A    between atoms: C2_2  and  C3_3 
REMARK    2  A    between atoms: C4_5  and  C5_6 
REMARK    3  A    between atoms: C5_6  and  N1_7 
REMARK    4  A    between atoms: N1_7  and  C6_9 
REMARK    5  A    between atoms: C6_9  and  C7_10 
REMARK    6  A    between atoms: C7_10  and  O3_12 
REMARK    7  A    between atoms: C19_24  and  O4_25 
ROOT
HETATM    1  C6  UNL     1      54.843 135.894  19.576  1.00  0.00     0.125 C 
HETATM    2  C9  UNL     1      55.243 136.166  21.024  1.00  0.00     0.043 C 
HETATM    3  C10 UNL     1      55.841 137.477  21.305  1.00  0.00     0.012 C 
HETATM    4  C11 UNL     1      55.878 138.519  20.268  1.00  0.00    -0.047 C 
HETATM    5  C12 UNL     1      57.231 139.246  20.381  1.00  0.00     0.015 C 
HETATM    6  C13 UNL     1      54.851 139.639  20.510  1.00  0.00     0.015 C 
HETATM    7  C14 UNL     1      55.765 138.090  18.848  1.00  0.00     0.020 C 
HETATM    8  C15 UNL     1      55.859 136.575  18.689  1.00  0.00    -0.012 C 
HETATM    9  C16 UNL     1      55.700 136.275  17.226  1.00  0.00     0.018 C 
HETATM   10  C17 UNL     1      57.251 136.106  19.078  1.00  0.00     0.018 C 
ENDROOT
BRANCH   1  11
HETATM   11  N1  UNL     1      53.517 136.331  19.429  1.00  0.00    -0.378 N 
ATOM     12  H1  UNL     1      53.372 137.224  18.956  1.00  0.00     0.160 HD
BRANCH  11  13
HETATM   13  C5  UNL     1      52.398 135.664  19.865  1.00  0.00     0.121 C 
BRANCH  13  14
HETATM   14  C4  UNL     1      51.408 135.394  18.746  1.00  0.00     0.093 A 
HETATM   15  O1  UNL     1      51.657 135.173  17.480  1.00  0.00    -0.311 OA
HETATM   16  C3  UNL     1      50.533 134.980  16.822  1.00  0.00     0.086 A 
HETATM   17  C19 UNL     1      49.484 135.076  17.683  1.00  0.00     0.098 A 
HETATM   18  C18 UNL     1      50.031 135.340  18.915  1.00  0.00     0.077 A 
BRANCH  16  19
HETATM   19  C2  UNL     1      50.408 134.699  15.369  1.00  0.00     0.064 C 
HETATM   20  C1  UNL     1      51.660 135.143  14.623  1.00  0.00     0.012 C 
ENDBRANCH  16  19
BRANCH  17  21
HETATM   21  O4  UNL     1      48.145 134.945  17.422  1.00  0.00    -0.358 OA
ATOM     22  H4  UNL     1      47.722 134.585  16.650  1.00  0.00     0.217 HD
ENDBRANCH  17  21
ENDBRANCH  13  14
ENDBRANCH  11  13
ENDBRANCH   1  11
BRANCH   1  23
HETATM   23  C7  UNL     1      54.993 134.421  19.376  1.00  0.00     0.287 C 
HETATM   24  O2  UNL     1      55.567 133.705  20.272  1.00  0.00    -0.262 OA
BRANCH  23  25
HETATM   25  O3  UNL     1      54.565 133.705  18.284  1.00  0.00    -0.325 OA
HETATM   26  C8  UNL     1      53.933 132.443  18.386  1.00  0.00     0.213 C 
ENDBRANCH  23  25
ENDBRANCH   1  23
TORSDOF 7
ENDMDL
