MODEL 1
REMARK VINA RESULT: -8.446211649      0.000      0.000
REMARK  4 active torsions:
REMARK  status: ('A' for Active; 'I' for Inactive)
REMARK    1  A    between atoms: C9_12  and  C10_13 
REMARK    2  A    between atoms: C24_32  and  C25_33 
REMARK    3  A    between atoms: C25_33  and  N4_34 
REMARK       I    between atoms: N4_34  and  C26_36 
REMARK    4  A    between atoms: C27_39  and  O6_40 
ROOT
HETATM    1  C1  UNL     1      -0.257 -19.543  -0.653  1.00  0.00     0.019 C 
HETATM    2  C2  UNL     1       0.769 -19.846   0.434  1.00  0.00    -0.005 C 
HETATM    3  C3  UNL     1       1.194 -18.532   1.032  1.00  0.00     0.019 C 
HETATM    4  C4  UNL     1       0.210 -20.790   1.467  1.00  0.00     0.191 C 
HETATM    5  O1  UNL     1       1.226 -21.344   2.243  1.00  0.00    -0.303 OA
HETATM    6  C5  UNL     1       2.585 -21.182   2.018  1.00  0.00     0.363 C 
HETATM    7  O2  UNL     1       3.406 -21.280   2.949  1.00  0.00    -0.238 OA
HETATM    8  N1  UNL     1       2.982 -20.899   0.668  1.00  0.00    -0.317 N 
HETATM    9  C6  UNL     1       1.914 -20.568  -0.253  1.00  0.00     0.100 C 
HETATM   10  C7  UNL     1       2.375 -19.779  -1.427  1.00  0.00     0.032 C 
HETATM   11  C8  UNL     1       3.763 -20.108  -1.901  1.00  0.00     0.005 C 
HETATM   12  C9  UNL     1       4.824 -19.295  -1.215  1.00  0.00     0.081 C 
HETATM   13  C11 UNL     1       4.976 -19.638   0.235  1.00  0.00     0.040 C 
HETATM   14  C12 UNL     1       4.408 -21.006   0.505  1.00  0.00     0.099 C 
HETATM   15  C13 UNL     1       4.779 -22.000  -0.604  1.00  0.00    -0.019 C 
HETATM   16  C14 UNL     1       4.252 -23.354  -0.112  1.00  0.00     0.018 C 
HETATM   17  C15 UNL     1       6.249 -22.078  -0.666  1.00  0.00     0.012 C 
HETATM   18  C16 UNL     1       6.845 -22.485  -1.959  1.00  0.00     0.007 C 
HETATM   19  C17 UNL     1       5.855 -22.936  -2.986  1.00  0.00     0.001 C 
HETATM   20  C18 UNL     1       4.663 -22.063  -3.117  1.00  0.00    -0.004 C 
HETATM   21  C19 UNL     1       3.645 -22.793  -3.991  1.00  0.00     0.006 C 
HETATM   22  C20 UNL     1       4.241 -22.993  -5.337  1.00  0.00     0.006 C 
HETATM   23  C21 UNL     1       5.565 -23.700  -5.337  1.00  0.00    -0.002 C 
HETATM   24  C22 UNL     1       5.335 -25.151  -5.080  1.00  0.00     0.033 C 
HETATM   25  C23 UNL     1       6.254 -25.949  -6.015  1.00  0.00     0.233 C 
HETATM   26  N3  UNL     1       7.533 -26.030  -5.334  1.00  0.00    -0.067 N 
ATOM     27  H31 UNL     1       8.138 -26.769  -5.694  1.00  0.00     0.277 HD
ATOM     28  H32 UNL     1       7.463 -26.381  -4.379  1.00  0.00     0.277 HD
HETATM   29  C24 UNL     1       8.132 -24.689  -5.423  1.00  0.00     0.232 C 
HETATM   30  C27 UNL     1       7.772 -23.887  -4.209  1.00  0.00     0.159 C 
HETATM   31  C28 UNL     1       6.535 -23.071  -4.336  1.00  0.00    -0.008 C 
HETATM   32  C29 UNL     1       6.916 -21.724  -4.917  1.00  0.00     0.018 C 
HETATM   33  C30 UNL     1       4.060 -21.602  -1.833  1.00  0.00     0.005 C 
ENDROOT
BRANCH  29  34
HETATM   34  C25 UNL     1       9.646 -24.949  -5.435  1.00  0.00     0.161 C 
BRANCH  34  35
HETATM   35  N4  UNL     1      10.095 -25.523  -4.215  1.00  0.00    -0.333 N 
HETATM   36  C26 UNL     1      11.461 -25.847  -4.046  1.00  0.00     0.283 C 
HETATM   37  O4  UNL     1      12.282 -25.629  -4.970  1.00  0.00    -0.630 OA
HETATM   38  O5  UNL     1      11.964 -26.412  -2.874  1.00  0.00    -0.630 OA
ATOM     39  H4  UNL     1       9.431 -25.701  -3.460  1.00  0.00     0.165 HD
ENDBRANCH  34  35
ENDBRANCH  29  34
BRANCH  30  40
HETATM   40  O6  UNL     1       8.862 -23.016  -3.970  1.00  0.00    -0.393 OA
ATOM     41  H6  UNL     1       8.486 -22.188  -3.693  1.00  0.00     0.210 HD
ENDBRANCH  30  40
BRANCH  12  42
HETATM   42  C10 UNL     1       4.449 -17.860  -1.378  1.00  0.00     0.235 C 
HETATM   43  N2  UNL     1       4.449 -17.000  -0.243  1.00  0.00    -0.062 NA
HETATM   44  O3  UNL     1       4.129 -17.379  -2.490  1.00  0.00    -0.276 OA
ENDBRANCH  12  42
TORSDOF 4
ENDMDL
MODEL 2
REMARK VINA RESULT: -7.773841756      0.932      1.089
REMARK  4 active torsions:
REMARK  status: ('A' for Active; 'I' for Inactive)
REMARK    1  A    between atoms: C9_12  and  C10_13 
REMARK    2  A    between atoms: C24_32  and  C25_33 
REMARK    3  A    between atoms: C25_33  and  N4_34 
REMARK       I    between atoms: N4_34  and  C26_36 
REMARK    4  A    between atoms: C27_39  and  O6_40 
ROOT
HETATM    1  C1  UNL     1      -0.293 -19.267  -0.344  1.00  0.00     0.019 C 
HETATM    2  C2  UNL     1       0.734 -19.649   0.717  1.00  0.00    -0.005 C 
HETATM    3  C3  UNL     1       1.215 -18.375   1.358  1.00  0.00     0.019 C 
HETATM    4  C4  UNL     1       0.152 -20.609   1.723  1.00  0.00     0.191 C 
HETATM    5  O1  UNL     1       1.156 -21.230   2.464  1.00  0.00    -0.303 OA
HETATM    6  C5  UNL     1       2.517 -21.110   2.226  1.00  0.00     0.363 C 
HETATM    7  O2  UNL     1       3.346 -21.273   3.142  1.00  0.00    -0.238 OA
HETATM    8  N1  UNL     1       2.908 -20.792   0.882  1.00  0.00    -0.317 N 
HETATM    9  C6  UNL     1       1.842 -20.387  -0.011  1.00  0.00     0.100 C 
HETATM   10  C7  UNL     1       2.318 -19.572  -1.162  1.00  0.00     0.032 C 
HETATM   11  C8  UNL     1       3.686 -19.935  -1.666  1.00  0.00     0.005 C 
HETATM   12  C9  UNL     1       4.786 -19.188  -0.966  1.00  0.00     0.081 C 
HETATM   13  C11 UNL     1       4.943 -19.590   0.469  1.00  0.00     0.040 C 
HETATM   14  C12 UNL     1       4.327 -20.945   0.696  1.00  0.00     0.099 C 
HETATM   15  C13 UNL     1       4.646 -21.910  -0.454  1.00  0.00    -0.019 C 
HETATM   16  C14 UNL     1       4.075 -23.262  -0.005  1.00  0.00     0.018 C 
HETATM   17  C15 UNL     1       6.112 -22.041  -0.539  1.00  0.00     0.012 C 
HETATM   18  C16 UNL     1       6.676 -22.422  -1.854  1.00  0.00     0.007 C 
HETATM   19  C17 UNL     1       5.656 -22.796  -2.884  1.00  0.00     0.001 C 
HETATM   20  C18 UNL     1       4.497 -21.875  -2.966  1.00  0.00    -0.004 C 
HETATM   21  C19 UNL     1       3.441 -22.533  -3.852  1.00  0.00     0.006 C 
HETATM   22  C20 UNL     1       4.013 -22.705  -5.213  1.00  0.00     0.006 C 
HETATM   23  C21 UNL     1       5.309 -23.460  -5.256  1.00  0.00    -0.002 C 
HETATM   24  C22 UNL     1       5.028 -24.911  -5.050  1.00  0.00     0.033 C 
HETATM   25  C23 UNL     1       5.905 -25.707  -6.026  1.00  0.00     0.233 C 
HETATM   26  N3  UNL     1       7.188 -25.861  -5.367  1.00  0.00    -0.067 N 
ATOM     27  H31 UNL     1       7.760 -26.608  -5.762  1.00  0.00     0.277 HD
ATOM     28  H32 UNL     1       7.116 -26.244  -4.425  1.00  0.00     0.277 HD
HETATM   29  C24 UNL     1       7.836 -24.541  -5.415  1.00  0.00     0.232 C 
HETATM   30  C27 UNL     1       7.522 -23.772  -4.167  1.00  0.00     0.159 C 
HETATM   31  C28 UNL     1       6.315 -22.906  -4.247  1.00  0.00    -0.008 C 
HETATM   32  C29 UNL     1       6.739 -21.553  -4.782  1.00  0.00     0.018 C 
HETATM   33  C30 UNL     1       3.928 -21.440  -1.658  1.00  0.00     0.005 C 
ENDROOT
BRANCH  29  34
HETATM   34  C25 UNL     1       9.339 -24.856  -5.457  1.00  0.00     0.161 C 
BRANCH  34  35
HETATM   35  N4  UNL     1       9.644 -25.859  -6.417  1.00  0.00    -0.333 N 
HETATM   36  C26 UNL     1      10.901 -26.506  -6.390  1.00  0.00     0.283 C 
HETATM   37  O4  UNL     1      11.750 -26.199  -5.519  1.00  0.00    -0.630 OA
HETATM   38  O5  UNL     1      11.260 -27.497  -7.302  1.00  0.00    -0.630 OA
ATOM     39  H4  UNL     1       8.955 -26.112  -7.126  1.00  0.00     0.165 HD
ENDBRANCH  34  35
ENDBRANCH  29  34
BRANCH  30  40
HETATM   40  O6  UNL     1       8.646 -22.951  -3.911  1.00  0.00    -0.393 OA
ATOM     41  H6  UNL     1       9.406 -23.441  -4.201  1.00  0.00     0.210 HD
ENDBRANCH  30  40
BRANCH  12  42
HETATM   42  C10 UNL     1       4.463 -17.735  -1.070  1.00  0.00     0.235 C 
HETATM   43  N2  UNL     1       4.121 -17.181  -2.337  1.00  0.00    -0.062 NA
HETATM   44  O3  UNL     1       4.481 -16.977  -0.074  1.00  0.00    -0.276 OA
ENDBRANCH  12  42
TORSDOF 4
ENDMDL
MODEL 3
REMARK VINA RESULT: -7.410329985      1.077      1.114
REMARK  4 active torsions:
REMARK  status: ('A' for Active; 'I' for Inactive)
REMARK    1  A    between atoms: C9_12  and  C10_13 
REMARK    2  A    between atoms: C24_32  and  C25_33 
REMARK    3  A    between atoms: C25_33  and  N4_34 
REMARK       I    between atoms: N4_34  and  C26_36 
REMARK    4  A    between atoms: C27_39  and  O6_40 
ROOT
HETATM    1  C1  UNL     1      -0.816 -19.094  -0.067  1.00  0.00     0.019 C 
HETATM    2  C2  UNL     1       0.363 -19.175   0.899  1.00  0.00    -0.005 C 
HETATM    3  C3  UNL     1       0.747 -17.765   1.259  1.00  0.00     0.019 C 
HETATM    4  C4  UNL     1       0.021 -20.001   2.112  1.00  0.00     0.191 C 
HETATM    5  O1  UNL     1       1.171 -20.374   2.805  1.00  0.00    -0.303 OA
HETATM    6  C5  UNL     1       2.471 -20.155   2.376  1.00  0.00     0.363 C 
HETATM    7  O2  UNL     1       3.410 -20.069   3.190  1.00  0.00    -0.238 OA
HETATM    8  N1  UNL     1       2.668 -20.037   0.959  1.00  0.00    -0.317 N 
HETATM    9  C6  UNL     1       1.467 -19.908   0.159  1.00  0.00     0.100 C 
HETATM   10  C7  UNL     1       1.706 -19.260  -1.159  1.00  0.00     0.032 C 
HETATM   11  C8  UNL     1       3.045 -19.558  -1.773  1.00  0.00     0.005 C 
HETATM   12  C9  UNL     1       4.113 -18.590  -1.350  1.00  0.00     0.081 C 
HETATM   13  C11 UNL     1       4.477 -18.718   0.098  1.00  0.00     0.040 C 
HETATM   14  C12 UNL     1       4.065 -20.070   0.616  1.00  0.00     0.099 C 
HETATM   15  C13 UNL     1       4.374 -21.181  -0.396  1.00  0.00    -0.019 C 
HETATM   16  C14 UNL     1       4.030 -22.486   0.334  1.00  0.00     0.018 C 
HETATM   17  C15 UNL     1       5.826 -21.169  -0.649  1.00  0.00     0.012 C 
HETATM   18  C16 UNL     1       6.284 -21.711  -1.949  1.00  0.00     0.007 C 
HETATM   19  C17 UNL     1       5.212 -22.365  -2.764  1.00  0.00     0.001 C 
HETATM   20  C18 UNL     1       3.944 -21.599  -2.840  1.00  0.00    -0.004 C 
HETATM   21  C19 UNL     1       2.888 -22.509  -3.465  1.00  0.00     0.006 C 
HETATM   22  C20 UNL     1       3.323 -22.853  -4.843  1.00  0.00     0.006 C 
HETATM   23  C21 UNL     1       4.690 -23.464  -4.934  1.00  0.00    -0.002 C 
HETATM   24  C22 UNL     1       4.618 -24.878  -4.464  1.00  0.00     0.033 C 
HETATM   25  C23 UNL     1       5.474 -25.735  -5.406  1.00  0.00     0.233 C 
HETATM   26  N3  UNL     1       6.832 -25.636  -4.904  1.00  0.00    -0.067 N 
ATOM     27  H31 UNL     1       7.446 -26.376  -5.246  1.00  0.00     0.277 HD
ATOM     28  H32 UNL     1       6.914 -25.855  -3.911  1.00  0.00     0.277 HD
HETATM   29  C24 UNL     1       7.300 -24.284  -5.246  1.00  0.00     0.232 C 
HETATM   30  C27 UNL     1       7.032 -23.347  -4.106  1.00  0.00     0.159 C 
HETATM   31  C28 UNL     1       5.724 -22.640  -4.166  1.00  0.00    -0.008 C 
HETATM   32  C29 UNL     1       5.912 -21.364  -4.961  1.00  0.00     0.018 C 
HETATM   33  C30 UNL     1       3.474 -21.006  -1.555  1.00  0.00     0.005 C 
ENDROOT
BRANCH  29  34
HETATM   34  C25 UNL     1       8.817 -24.441  -5.432  1.00  0.00     0.161 C 
BRANCH  34  35
HETATM   35  N4  UNL     1       9.444 -24.956  -4.265  1.00  0.00    -0.333 N 
HETATM   36  C26 UNL     1      10.738 -25.519  -4.347  1.00  0.00     0.283 C 
HETATM   37  O4  UNL     1      11.339 -25.564  -5.448  1.00  0.00    -0.630 OA
HETATM   38  O5  UNL     1      11.407 -26.040  -3.241  1.00  0.00    -0.630 OA
ATOM     39  H4  UNL     1       8.959 -24.920  -3.368  1.00  0.00     0.165 HD
ENDBRANCH  34  35
ENDBRANCH  29  34
BRANCH  30  40
HETATM   40  O6  UNL     1       8.065 -22.380  -4.133  1.00  0.00    -0.393 OA
ATOM     41  H6  UNL     1       8.866 -22.851  -4.331  1.00  0.00     0.210 HD
ENDBRANCH  30  40
BRANCH  12  42
HETATM   42  C10 UNL     1       3.600 -17.220  -1.643  1.00  0.00     0.235 C 
HETATM   43  N2  UNL     1       2.973 -16.956  -2.894  1.00  0.00    -0.062 NA
HETATM   44  O3  UNL     1       3.703 -16.282  -0.819  1.00  0.00    -0.276 OA
ENDBRANCH  12  42
TORSDOF 4
ENDMDL
MODEL 4
REMARK VINA RESULT: -7.186192153      3.362      6.441
REMARK  4 active torsions:
REMARK  status: ('A' for Active; 'I' for Inactive)
REMARK    1  A    between atoms: C9_12  and  C10_13 
REMARK    2  A    between atoms: C24_32  and  C25_33 
REMARK    3  A    between atoms: C25_33  and  N4_34 
REMARK       I    between atoms: N4_34  and  C26_36 
REMARK    4  A    between atoms: C27_39  and  O6_40 
ROOT
HETATM    1  C1  UNL     1      -0.644 -15.339   4.096  1.00  0.00     0.019 C 
HETATM    2  C2  UNL     1      -0.667 -14.837   2.656  1.00  0.00    -0.005 C 
HETATM    3  C3  UNL     1      -2.104 -14.831   2.205  1.00  0.00     0.019 C 
HETATM    4  C4  UNL     1      -0.027 -13.478   2.539  1.00  0.00     0.191 C 
HETATM    5  O1  UNL     1       0.275 -13.178   1.212  1.00  0.00    -0.303 OA
HETATM    6  C5  UNL     1       0.151 -14.055   0.145  1.00  0.00     0.363 C 
HETATM    7  O2  UNL     1      -0.024 -13.634  -1.015  1.00  0.00    -0.238 OA
HETATM    8  N1  UNL     1       0.236 -15.454   0.451  1.00  0.00    -0.317 N 
HETATM    9  C6  UNL     1       0.189 -15.801   1.857  1.00  0.00     0.100 C 
HETATM   10  C7  UNL     1      -0.263 -17.198   2.102  1.00  0.00     0.032 C 
HETATM   11  C8  UNL     1       0.152 -18.187   1.050  1.00  0.00     0.005 C 
HETATM   12  C9  UNL     1      -0.838 -18.297  -0.075  1.00  0.00     0.081 C 
HETATM   13  C11 UNL     1      -0.904 -17.061  -0.918  1.00  0.00     0.040 C 
HETATM   14  C12 UNL     1       0.352 -16.249  -0.743  1.00  0.00     0.099 C 
HETATM   15  C13 UNL     1       1.601 -17.140  -0.711  1.00  0.00    -0.019 C 
HETATM   16  C14 UNL     1       2.783 -16.162  -0.671  1.00  0.00     0.018 C 
HETATM   17  C15 UNL     1       1.662 -17.877  -1.986  1.00  0.00     0.012 C 
HETATM   18  C16 UNL     1       2.391 -19.165  -1.982  1.00  0.00     0.007 C 
HETATM   19  C17 UNL     1       3.124 -19.462  -0.711  1.00  0.00     0.001 C 
HETATM   20  C18 UNL     1       2.344 -19.203   0.524  1.00  0.00    -0.004 C 
HETATM   21  C19 UNL     1       3.304 -19.292   1.708  1.00  0.00     0.006 C 
HETATM   22  C20 UNL     1       3.849 -20.674   1.766  1.00  0.00     0.006 C 
HETATM   23  C21 UNL     1       4.501 -21.144   0.500  1.00  0.00    -0.002 C 
HETATM   24  C22 UNL     1       5.833 -20.486   0.371  1.00  0.00     0.033 C 
HETATM   25  C23 UNL     1       6.834 -21.535  -0.129  1.00  0.00     0.233 C 
HETATM   26  N3  UNL     1       6.701 -21.550  -1.574  1.00  0.00    -0.067 N 
ATOM     27  H31 UNL     1       7.497 -21.976  -2.050  1.00  0.00     0.277 HD
ATOM     28  H32 UNL     1       6.782 -20.626  -1.998  1.00  0.00     0.277 HD
HETATM   29  C24 UNL     1       5.422 -22.217  -1.862  1.00  0.00     0.232 C 
HETATM   30  C27 UNL     1       4.329 -21.198  -1.980  1.00  0.00     0.159 C 
HETATM   31  C28 UNL     1       3.604 -20.902  -0.715  1.00  0.00    -0.008 C 
HETATM   32  C29 UNL     1       2.457 -21.883  -0.587  1.00  0.00     0.018 C 
HETATM   33  C30 UNL     1       1.566 -17.931   0.537  1.00  0.00     0.005 C 
ENDROOT
BRANCH  29  34
HETATM   34  C25 UNL     1       5.643 -22.891  -3.225  1.00  0.00     0.161 C 
BRANCH  34  35
HETATM   35  N4  UNL     1       6.721 -22.301  -3.939  1.00  0.00    -0.333 N 
HETATM   36  C26 UNL     1       6.461 -21.425  -5.018  1.00  0.00     0.283 C 
HETATM   37  O4  UNL     1       5.279 -21.163  -5.348  1.00  0.00    -0.630 OA
HETATM   38  O5  UNL     1       7.473 -20.815  -5.758  1.00  0.00    -0.630 OA
ATOM     39  H4  UNL     1       7.684 -22.511  -3.673  1.00  0.00     0.165 HD
ENDBRANCH  34  35
ENDBRANCH  29  34
BRANCH  30  40
HETATM   40  O6  UNL     1       3.402 -21.713  -2.917  1.00  0.00    -0.393 OA
ATOM     41  H6  UNL     1       3.058 -20.966  -3.392  1.00  0.00     0.210 HD
ENDBRANCH  30  40
BRANCH  12  42
HETATM   42  C10 UNL     1      -2.167 -18.584   0.540  1.00  0.00     0.235 C 
HETATM   43  N2  UNL     1      -2.373 -19.814   1.228  1.00  0.00    -0.062 NA
HETATM   44  O3  UNL     1      -3.119 -17.772   0.473  1.00  0.00    -0.276 OA
ENDBRANCH  12  42
TORSDOF 4
ENDMDL
MODEL 5
REMARK VINA RESULT: -6.924639050      1.940      2.510
REMARK  4 active torsions:
REMARK  status: ('A' for Active; 'I' for Inactive)
REMARK    1  A    between atoms: C9_12  and  C10_13 
REMARK    2  A    between atoms: C24_32  and  C25_33 
REMARK    3  A    between atoms: C25_33  and  N4_34 
REMARK       I    between atoms: N4_34  and  C26_36 
REMARK    4  A    between atoms: C27_39  and  O6_40 
ROOT
HETATM    1  C1  UNL     1      -2.325 -19.772   0.776  1.00  0.00     0.019 C 
HETATM    2  C2  UNL     1      -1.084 -19.412   1.588  1.00  0.00    -0.005 C 
HETATM    3  C3  UNL     1      -1.057 -17.914   1.728  1.00  0.00     0.019 C 
HETATM    4  C4  UNL     1      -1.083 -20.110   2.924  1.00  0.00     0.191 C 
HETATM    5  O1  UNL     1       0.184 -20.076   3.506  1.00  0.00    -0.303 OA
HETATM    6  C5  UNL     1       1.334 -19.604   2.892  1.00  0.00     0.363 C 
HETATM    7  O2  UNL     1       2.287 -19.166   3.566  1.00  0.00    -0.238 OA
HETATM    8  N1  UNL     1       1.362 -19.650   1.458  1.00  0.00    -0.317 N 
HETATM    9  C6  UNL     1       0.102 -19.945   0.807  1.00  0.00     0.100 C 
HETATM   10  C7  UNL     1       0.040 -19.459  -0.598  1.00  0.00     0.032 C 
HETATM   11  C8  UNL     1       1.348 -19.499  -1.337  1.00  0.00     0.005 C 
HETATM   12  C9  UNL     1       2.155 -18.243  -1.170  1.00  0.00     0.081 C 
HETATM   13  C11 UNL     1       2.670 -18.061   0.225  1.00  0.00     0.040 C 
HETATM   14  C12 UNL     1       2.681 -19.381   0.948  1.00  0.00     0.099 C 
HETATM   15  C13 UNL     1       3.180 -20.516   0.044  1.00  0.00    -0.019 C 
HETATM   16  C14 UNL     1       3.263 -21.744   0.960  1.00  0.00     0.018 C 
HETATM   17  C15 UNL     1       4.547 -20.178  -0.390  1.00  0.00     0.012 C 
HETATM   18  C16 UNL     1       5.012 -20.773  -1.664  1.00  0.00     0.007 C 
HETATM   19  C17 UNL     1       4.083 -21.787  -2.254  1.00  0.00     0.001 C 
HETATM   20  C18 UNL     1       2.656 -21.384  -2.260  1.00  0.00    -0.004 C 
HETATM   21  C19 UNL     1       1.827 -22.611  -2.634  1.00  0.00     0.006 C 
HETATM   22  C20 UNL     1       2.209 -23.034  -4.006  1.00  0.00     0.006 C 
HETATM   23  C21 UNL     1       3.676 -23.289  -4.196  1.00  0.00    -0.002 C 
HETATM   24  C22 UNL     1       4.025 -24.591  -3.556  1.00  0.00     0.033 C 
HETATM   25  C23 UNL     1       4.988 -25.334  -4.491  1.00  0.00     0.233 C 
HETATM   26  N3  UNL     1       6.311 -24.826  -4.179  1.00  0.00    -0.067 N 
ATOM     27  H31 UNL     1       7.065 -25.430  -4.506  1.00  0.00     0.277 HD
ATOM     28  H32 UNL     1       6.538 -24.868  -3.186  1.00  0.00     0.277 HD
HETATM   29  C24 UNL     1       6.370 -23.465  -4.735  1.00  0.00     0.232 C 
HETATM   30  C27 UNL     1       5.967 -22.468  -3.690  1.00  0.00     0.159 C 
HETATM   31  C28 UNL     1       4.519 -22.128  -3.667  1.00  0.00    -0.008 C 
HETATM   32  C29 UNL     1       4.289 -20.977  -4.625  1.00  0.00     0.018 C 
HETATM   33  C30 UNL     1       2.164 -20.745  -1.005  1.00  0.00     0.005 C 
ENDROOT
BRANCH  29  34
HETATM   34  C25 UNL     1       7.850 -23.263  -5.092  1.00  0.00     0.161 C 
BRANCH  34  35
HETATM   35  N4  UNL     1       8.705 -23.567  -3.998  1.00  0.00    -0.333 N 
HETATM   36  C26 UNL     1       9.739 -24.519  -4.151  1.00  0.00     0.283 C 
HETATM   37  O4  UNL     1       9.907 -25.099  -5.251  1.00  0.00    -0.630 OA
HETATM   38  O5  UNL     1      10.611 -24.861  -3.118  1.00  0.00    -0.630 OA
ATOM     39  H4  UNL     1       8.573 -23.097  -3.101  1.00  0.00     0.165 HD
ENDBRANCH  34  35
ENDBRANCH  29  34
BRANCH  30  40
HETATM   40  O6  UNL     1       6.700 -21.288  -3.962  1.00  0.00    -0.393 OA
ATOM     41  H6  UNL     1       6.080 -20.570  -3.907  1.00  0.00     0.210 HD
ENDBRANCH  30  40
BRANCH  12  42
HETATM   42  C10 UNL     1       1.272 -17.103  -1.555  1.00  0.00     0.235 C 
HETATM   43  N2  UNL     1       0.809 -16.996  -2.898  1.00  0.00    -0.062 NA
HETATM   44  O3  UNL     1       0.920 -16.228  -0.732  1.00  0.00    -0.276 OA
ENDBRANCH  12  42
TORSDOF 4
ENDMDL
