MODEL 1
REMARK VINA RESULT: -6.815864407      0.000      0.000
REMARK  5 active torsions:
REMARK  status: ('A' for Active; 'I' for Inactive)
REMARK    1  A    between atoms: C2_2  and  C3_3 
REMARK    2  A    between atoms: C3_3  and  C4_4 
REMARK    3  A    between atoms: C4_4  and  C5_5 
REMARK    4  A    between atoms: C11_14  and  O4_15 
REMARK    5  A    between atoms: C16_21  and  O5_22 
ROOT
HETATM    1  C4  UNL     1      -1.746   3.477  84.512  1.00  0.00     0.063 C 
HETATM    2  C7  UNL     1      -1.338   2.577  83.402  1.00  0.00     0.269 C 
HETATM    3  O1  UNL     1      -2.086   1.718  82.886  1.00  0.00    -0.264 OA
HETATM    4  O2  UNL     1      -0.026   2.944  83.150  1.00  0.00    -0.314 OA
HETATM    5  C8  UNL     1       0.265   4.212  83.627  1.00  0.00     0.156 C 
HETATM    6  C9  UNL     1      -1.082   4.753  84.068  1.00  0.00     0.107 C 
HETATM    7  C10 UNL     1      -1.786   5.469  83.007  1.00  0.00     0.164 C 
HETATM    8  O3  UNL     1      -2.836   6.030  83.268  1.00  0.00    -0.295 OA
HETATM    9  C11 UNL     1      -1.364   5.608  81.575  1.00  0.00     0.197 C 
HETATM   10  C12 UNL     1       0.053   5.183  81.358  1.00  0.00     0.001 C 
HETATM   11  C13 UNL     1       0.062   3.950  80.541  1.00  0.00     0.019 C 
HETATM   12  C14 UNL     1       0.907   6.196  80.598  1.00  0.00     0.015 C 
HETATM   13  C15 UNL     1       2.292   5.573  80.843  1.00  0.00     0.033 C 
HETATM   14  C16 UNL     1       2.233   4.894  82.186  1.00  0.00     0.129 C 
HETATM   15  C17 UNL     1       0.833   5.161  82.636  1.00  0.00     0.019 C 
HETATM   16  C18 UNL     1       0.862   6.526  83.289  1.00  0.00     0.021 C 
ENDROOT
BRANCH   1  17
HETATM   17  C3  UNL     1      -1.106   2.930  85.751  1.00  0.00     0.047 C 
BRANCH  17  18
HETATM   18  C2  UNL     1      -1.467   1.509  85.961  1.00  0.00    -0.036 C 
HETATM   19  C1  UNL     1      -2.305   1.103  86.909  1.00  0.00     0.007 C 
ENDBRANCH  17  18
ENDBRANCH   1  17
BRANCH   1  20
HETATM   20  C5  UNL     1      -3.235   3.558  84.659  1.00  0.00     0.016 C 
HETATM   21  C6  UNL     1      -3.585   4.250  85.925  1.00  0.00     0.006 C 
ENDBRANCH   1  20
BRANCH   9  22
HETATM   22  O4  UNL     1      -1.606   6.911  81.114  1.00  0.00    -0.387 OA
ATOM     23  H4  UNL     1      -1.790   6.907  80.183  1.00  0.00     0.210 HD
ENDBRANCH   9  22
BRANCH  14  24
HETATM   24  O5  UNL     1       2.652   3.600  82.215  1.00  0.00    -0.395 OA
ATOM     25  H5  UNL     1       2.995   3.294  83.047  1.00  0.00     0.210 HD
ENDBRANCH  14  24
TORSDOF 5
ENDMDL
MODEL 2
REMARK VINA RESULT: -6.773499194      1.874      3.394
REMARK  5 active torsions:
REMARK  status: ('A' for Active; 'I' for Inactive)
REMARK    1  A    between atoms: C2_2  and  C3_3 
REMARK    2  A    between atoms: C3_3  and  C4_4 
REMARK    3  A    between atoms: C4_4  and  C5_5 
REMARK    4  A    between atoms: C11_14  and  O4_15 
REMARK    5  A    between atoms: C16_21  and  O5_22 
ROOT
HETATM    1  C4  UNL     1      -1.124   2.557  83.836  1.00  0.00     0.063 C 
HETATM    2  C7  UNL     1      -2.351   3.394  83.811  1.00  0.00     0.269 C 
HETATM    3  O1  UNL     1      -3.165   3.472  84.757  1.00  0.00    -0.264 OA
HETATM    4  O2  UNL     1      -2.313   3.990  82.561  1.00  0.00    -0.314 OA
HETATM    5  C8  UNL     1      -1.039   3.987  82.017  1.00  0.00     0.156 C 
HETATM    6  C9  UNL     1      -0.160   3.486  83.148  1.00  0.00     0.107 C 
HETATM    7  C10 UNL     1       0.356   4.561  83.990  1.00  0.00     0.164 C 
HETATM    8  O3  UNL     1       1.150   4.290  84.874  1.00  0.00    -0.295 OA
HETATM    9  C11 UNL     1       0.021   6.020  83.903  1.00  0.00     0.197 C 
HETATM   10  C12 UNL     1      -0.699   6.361  82.637  1.00  0.00     0.001 C 
HETATM   11  C13 UNL     1      -2.088   6.749  82.968  1.00  0.00     0.019 C 
HETATM   12  C14 UNL     1      -0.106   7.541  81.871  1.00  0.00     0.015 C 
HETATM   13  C15 UNL     1      -0.882   7.384  80.552  1.00  0.00     0.033 C 
HETATM   14  C16 UNL     1      -1.148   5.913  80.375  1.00  0.00     0.129 C 
HETATM   15  C17 UNL     1      -0.516   5.309  81.587  1.00  0.00     0.019 C 
HETATM   16  C18 UNL     1       0.945   5.122  81.243  1.00  0.00     0.021 C 
ENDROOT
BRANCH   1  17
HETATM   17  C3  UNL     1      -1.422   1.353  82.994  1.00  0.00     0.047 C 
BRANCH  17  18
HETATM   18  C2  UNL     1      -0.289   1.030  82.097  1.00  0.00    -0.036 C 
HETATM   19  C1  UNL     1      -0.231  -0.078  81.367  1.00  0.00     0.007 C 
ENDBRANCH  17  18
ENDBRANCH   1  17
BRANCH   1  20
HETATM   20  C5  UNL     1      -0.734   2.162  85.229  1.00  0.00     0.016 C 
HETATM   21  C6  UNL     1      -1.331   0.846  85.572  1.00  0.00     0.006 C 
ENDBRANCH   1  20
BRANCH   9  22
HETATM   22  O4  UNL     1       1.172   6.802  84.088  1.00  0.00    -0.387 OA
ATOM     23  H4  UNL     1       1.025   7.689  83.783  1.00  0.00     0.210 HD
ENDBRANCH   9  22
BRANCH  14  24
HETATM   24  O5  UNL     1      -2.438   5.570  80.119  1.00  0.00    -0.395 OA
ATOM     25  H5  UNL     1      -2.613   4.639  80.045  1.00  0.00     0.210 HD
ENDBRANCH  14  24
TORSDOF 5
ENDMDL
MODEL 3
REMARK VINA RESULT: -6.537191589      2.023      5.382
REMARK  5 active torsions:
REMARK  status: ('A' for Active; 'I' for Inactive)
REMARK    1  A    between atoms: C2_2  and  C3_3 
REMARK    2  A    between atoms: C3_3  and  C4_4 
REMARK    3  A    between atoms: C4_4  and  C5_5 
REMARK    4  A    between atoms: C11_14  and  O4_15 
REMARK    5  A    between atoms: C16_21  and  O5_22 
ROOT
HETATM    1  C4  UNL     1      -1.033   6.501  80.581  1.00  0.00     0.063 C 
HETATM    2  C7  UNL     1      -1.384   5.068  80.399  1.00  0.00     0.269 C 
HETATM    3  O1  UNL     1      -1.052   4.387  79.404  1.00  0.00    -0.264 OA
HETATM    4  O2  UNL     1      -2.106   4.762  81.540  1.00  0.00    -0.314 OA
HETATM    5  C8  UNL     1      -1.861   5.654  82.572  1.00  0.00     0.156 C 
HETATM    6  C9  UNL     1      -0.718   6.507  82.053  1.00  0.00     0.107 C 
HETATM    7  C10 UNL     1       0.596   5.971  82.396  1.00  0.00     0.164 C 
HETATM    8  O3  UNL     1       1.590   6.617  82.115  1.00  0.00    -0.295 OA
HETATM    9  C11 UNL     1       0.893   4.670  83.080  1.00  0.00     0.197 C 
HETATM   10  C12 UNL     1      -0.331   4.054  83.681  1.00  0.00     0.001 C 
HETATM   11  C13 UNL     1      -0.657   2.817  82.936  1.00  0.00     0.019 C 
HETATM   12  C14 UNL     1      -0.175   3.635  85.141  1.00  0.00     0.015 C 
HETATM   13  C15 UNL     1      -1.652   3.359  85.469  1.00  0.00     0.033 C 
HETATM   14  C16 UNL     1      -2.470   4.295  84.621  1.00  0.00     0.129 C 
HETATM   15  C17 UNL     1      -1.431   5.053  83.860  1.00  0.00     0.019 C 
HETATM   16  C18 UNL     1      -1.003   6.189  84.763  1.00  0.00     0.021 C 
ENDROOT
BRANCH   1  17
HETATM   17  C3  UNL     1      -2.281   7.277  80.285  1.00  0.00     0.047 C 
BRANCH  17  18
HETATM   18  C2  UNL     1      -2.318   8.547  81.045  1.00  0.00    -0.036 C 
HETATM   19  C1  UNL     1      -3.322   9.414  80.967  1.00  0.00     0.007 C 
ENDBRANCH  17  18
ENDBRANCH   1  17
BRANCH   1  20
HETATM   20  C5  UNL     1       0.096   6.927  79.692  1.00  0.00     0.016 C 
HETATM   21  C6  UNL     1      -0.437   7.478  78.420  1.00  0.00     0.006 C 
ENDBRANCH   1  20
BRANCH   9  22
HETATM   22  O4  UNL     1       1.924   4.830  84.018  1.00  0.00    -0.387 OA
ATOM     23  H4  UNL     1       2.614   4.196  83.867  1.00  0.00     0.210 HD
ENDBRANCH   9  22
BRANCH  14  24
HETATM   24  O5  UNL     1      -3.467   3.722  83.895  1.00  0.00    -0.395 OA
ATOM     25  H5  UNL     1      -4.351   3.882  84.205  1.00  0.00     0.210 HD
ENDBRANCH  14  24
TORSDOF 5
ENDMDL
MODEL 4
REMARK VINA RESULT: -6.513664124      2.044      2.864
REMARK  5 active torsions:
REMARK  status: ('A' for Active; 'I' for Inactive)
REMARK    1  A    between atoms: C2_2  and  C3_3 
REMARK    2  A    between atoms: C3_3  and  C4_4 
REMARK    3  A    between atoms: C4_4  and  C5_5 
REMARK    4  A    between atoms: C11_14  and  O4_15 
REMARK    5  A    between atoms: C16_21  and  O5_22 
ROOT
HETATM    1  C4  UNL     1      -0.951   2.395  82.508  1.00  0.00     0.063 C 
HETATM    2  C7  UNL     1      -1.729   2.700  81.280  1.00  0.00     0.269 C 
HETATM    3  O1  UNL     1      -2.959   2.503  81.164  1.00  0.00    -0.264 OA
HETATM    4  O2  UNL     1      -0.780   3.209  80.410  1.00  0.00    -0.314 OA
HETATM    5  C8  UNL     1       0.347   3.668  81.072  1.00  0.00     0.156 C 
HETATM    6  C9  UNL     1      -0.035   3.590  82.539  1.00  0.00     0.107 C 
HETATM    7  C10 UNL     1      -0.653   4.817  83.035  1.00  0.00     0.164 C 
HETATM    8  O3  UNL     1      -0.917   4.909  84.221  1.00  0.00    -0.295 OA
HETATM    9  C11 UNL     1      -1.019   6.033  82.237  1.00  0.00     0.197 C 
HETATM   10  C12 UNL     1      -0.412   6.018  80.870  1.00  0.00     0.001 C 
HETATM   11  C13 UNL     1      -1.492   5.861  79.871  1.00  0.00     0.019 C 
HETATM   12  C14 UNL     1       0.326   7.299  80.492  1.00  0.00     0.015 C 
HETATM   13  C15 UNL     1       1.037   6.801  79.223  1.00  0.00     0.033 C 
HETATM   14  C16 UNL     1       1.306   5.333  79.421  1.00  0.00     0.129 C 
HETATM   15  C17 UNL     1       0.743   5.070  80.781  1.00  0.00     0.019 C 
HETATM   16  C18 UNL     1       1.836   5.438  81.760  1.00  0.00     0.021 C 
ENDROOT
BRANCH   1  17
HETATM   17  C3  UNL     1      -0.194   1.133  82.221  1.00  0.00     0.047 C 
BRANCH  17  18
HETATM   18  C2  UNL     1      -1.107   0.037  81.827  1.00  0.00    -0.036 C 
HETATM   19  C1  UNL     1      -0.692  -1.197  81.561  1.00  0.00     0.007 C 
ENDBRANCH  17  18
ENDBRANCH   1  17
BRANCH   1  20
HETATM   20  C5  UNL     1      -1.828   2.241  83.714  1.00  0.00     0.016 C 
HETATM   21  C6  UNL     1      -1.070   1.599  84.817  1.00  0.00     0.006 C 
ENDBRANCH   1  20
BRANCH   9  22
HETATM   22  O4  UNL     1      -0.703   7.202  82.947  1.00  0.00    -0.387 OA
ATOM     23  H4  UNL     1      -0.424   7.887  82.353  1.00  0.00     0.210 HD
ENDBRANCH   9  22
BRANCH  14  24
HETATM   24  O5  UNL     1       0.896   4.513  78.418  1.00  0.00    -0.395 OA
ATOM     25  H5  UNL     1      -0.024   4.273  78.427  1.00  0.00     0.210 HD
ENDBRANCH  14  24
TORSDOF 5
ENDMDL
MODEL 5
REMARK VINA RESULT: -6.498131777      1.930      3.097
REMARK  5 active torsions:
REMARK  status: ('A' for Active; 'I' for Inactive)
REMARK    1  A    between atoms: C2_2  and  C3_3 
REMARK    2  A    between atoms: C3_3  and  C4_4 
REMARK    3  A    between atoms: C4_4  and  C5_5 
REMARK    4  A    between atoms: C11_14  and  O4_15 
REMARK    5  A    between atoms: C16_21  and  O5_22 
ROOT
HETATM    1  C4  UNL     1      -0.754   5.287  83.529  1.00  0.00     0.063 C 
HETATM    2  C7  UNL     1      -0.056   3.975  83.559  1.00  0.00     0.269 C 
HETATM    3  O1  UNL     1      -0.565   2.921  83.998  1.00  0.00    -0.264 OA
HETATM    4  O2  UNL     1       1.186   4.255  83.014  1.00  0.00    -0.314 OA
HETATM    5  C8  UNL     1       1.179   5.416  82.259  1.00  0.00     0.156 C 
HETATM    6  C9  UNL     1      -0.288   5.799  82.192  1.00  0.00     0.107 C 
HETATM    7  C10 UNL     1      -0.978   5.218  81.044  1.00  0.00     0.164 C 
HETATM    8  O3  UNL     1      -2.136   5.529  80.830  1.00  0.00    -0.295 OA
HETATM    9  C11 UNL     1      -0.419   4.245  80.049  1.00  0.00     0.197 C 
HETATM   10  C12 UNL     1       1.069   4.123  80.150  1.00  0.00     0.001 C 
HETATM   11  C13 UNL     1       1.403   2.771  80.651  1.00  0.00     0.019 C 
HETATM   12  C14 UNL     1       1.807   4.272  78.822  1.00  0.00     0.015 C 
HETATM   13  C15 UNL     1       3.243   4.397  79.359  1.00  0.00     0.033 C 
HETATM   14  C16 UNL     1       3.148   5.065  80.705  1.00  0.00     0.129 C 
HETATM   15  C17 UNL     1       1.679   5.287  80.867  1.00  0.00     0.019 C 
HETATM   16  C18 UNL     1       1.376   6.590  80.160  1.00  0.00     0.021 C 
ENDROOT
BRANCH   1  17
HETATM   17  C3  UNL     1      -0.179   6.092  84.655  1.00  0.00     0.047 C 
BRANCH  17  18
HETATM   18  C2  UNL     1      -0.043   7.518  84.281  1.00  0.00    -0.036 C 
HETATM   19  C1  UNL     1       0.944   8.294  84.717  1.00  0.00     0.007 C 
ENDBRANCH  17  18
ENDBRANCH   1  17
BRANCH   1  20
HETATM   20  C5  UNL     1      -2.240   5.143  83.667  1.00  0.00     0.016 C 
HETATM   21  C6  UNL     1      -2.667   5.550  85.029  1.00  0.00     0.006 C 
ENDBRANCH   1  20
BRANCH   9  22
HETATM   22  O4  UNL     1      -0.839   4.572  78.750  1.00  0.00    -0.387 OA
ATOM     23  H4  UNL     1      -0.530   3.926  78.127  1.00  0.00     0.210 HD
ENDBRANCH   9  22
BRANCH  14  24
HETATM   24  O5  UNL     1       3.791   4.438  81.726  1.00  0.00    -0.395 OA
ATOM     25  H5  UNL     1       3.676   3.495  81.771  1.00  0.00     0.210 HD
ENDBRANCH  14  24
TORSDOF 5
ENDMDL
