MODEL 1
REMARK VINA RESULT: -5.446500003      0.000      0.000
REMARK  0 active torsions:
REMARK  status: ('A' for Active; 'I' for Inactive)
ROOT
HETATM    1  C1  UNL     1      -4.599   5.738  16.693  1.00  0.00     0.089 C 
HETATM    2  C2  UNL     1      -5.029   4.305  16.629  1.00  0.00     0.078 A 
HETATM    3  N1  UNL     1      -6.200   3.801  17.048  1.00  0.00    -0.347 N 
ATOM      4  H1  UNL     1      -6.952   4.348  17.468  1.00  0.00     0.167 HD
HETATM    5  C3  UNL     1      -6.241   2.473  16.834  1.00  0.00     0.044 A 
HETATM    6  C4  UNL     1      -7.324   1.499  17.132  1.00  0.00     0.071 C 
HETATM    7  C5  UNL     1      -5.041   2.122  16.254  1.00  0.00     0.137 A 
HETATM    8  C6  UNL     1      -4.619   0.796  15.839  1.00  0.00     0.119 C 
HETATM    9  N2  UNL     1      -4.281  -0.261  15.504  1.00  0.00    -0.190 NA
HETATM   10  N3  UNL     1      -4.324   3.275  16.145  1.00  0.00    -0.336 N 
ATOM     11  H3  UNL     1      -3.385   3.344  15.751  1.00  0.00     0.168 HD
ENDROOT
TORSDOF 0
ENDMDL
MODEL 2
REMARK VINA RESULT: -5.249960259      1.401      1.637
REMARK  0 active torsions:
REMARK  status: ('A' for Active; 'I' for Inactive)
ROOT
HETATM    1  C1  UNL     1      -1.933   5.202  16.695  1.00  0.00     0.089 C 
HETATM    2  C2  UNL     1      -3.076   4.245  16.560  1.00  0.00     0.078 A 
HETATM    3  N1  UNL     1      -4.375   4.516  16.763  1.00  0.00    -0.347 N 
ATOM      4  H1  UNL     1      -4.744   5.426  17.040  1.00  0.00     0.167 HD
HETATM    5  C3  UNL     1      -5.122   3.416  16.550  1.00  0.00     0.044 A 
HETATM    6  C4  UNL     1      -6.594   3.236  16.652  1.00  0.00     0.071 C 
HETATM    7  C5  UNL     1      -4.255   2.404  16.196  1.00  0.00     0.137 A 
HETATM    8  C6  UNL     1      -4.592   1.031  15.869  1.00  0.00     0.119 C 
HETATM    9  N2  UNL     1      -4.860  -0.066  15.603  1.00  0.00    -0.190 NA
HETATM   10  N3  UNL     1      -3.007   2.954  16.214  1.00  0.00    -0.336 N 
ATOM     11  H3  UNL     1      -2.146   2.453  15.995  1.00  0.00     0.168 HD
ENDROOT
TORSDOF 0
ENDMDL
MODEL 3
REMARK VINA RESULT: -5.034591916      2.050      2.351
REMARK  0 active torsions:
REMARK  status: ('A' for Active; 'I' for Inactive)
ROOT
HETATM    1  C1  UNL     1      -3.870   3.568  13.032  1.00  0.00     0.089 C 
HETATM    2  C2  UNL     1      -4.602   3.168  14.275  1.00  0.00     0.078 A 
HETATM    3  N1  UNL     1      -5.353   3.963  15.052  1.00  0.00    -0.347 N 
ATOM      4  H1  UNL     1      -5.517   4.956  14.884  1.00  0.00     0.167 HD
HETATM    5  C3  UNL     1      -5.860   3.264  16.086  1.00  0.00     0.044 A 
HETATM    6  C4  UNL     1      -6.740   3.717  17.195  1.00  0.00     0.071 C 
HETATM    7  C5  UNL     1      -5.408   1.969  15.955  1.00  0.00     0.137 A 
HETATM    8  C6  UNL     1      -5.689   0.846  16.831  1.00  0.00     0.119 C 
HETATM    9  N2  UNL     1      -5.916  -0.053  17.528  1.00  0.00    -0.190 NA
HETATM   10  N3  UNL     1      -4.638   1.950  14.830  1.00  0.00    -0.336 N 
ATOM     11  H3  UNL     1      -4.158   1.128  14.464  1.00  0.00     0.168 HD
ENDROOT
TORSDOF 0
ENDMDL
MODEL 4
REMARK VINA RESULT: -4.829922749      1.478      1.847
REMARK  0 active torsions:
REMARK  status: ('A' for Active; 'I' for Inactive)
ROOT
HETATM    1  C1  UNL     1      -3.082   6.776  15.335  1.00  0.00     0.089 C 
HETATM    2  C2  UNL     1      -3.788   5.537  15.793  1.00  0.00     0.078 A 
HETATM    3  N1  UNL     1      -4.944   5.480  16.473  1.00  0.00    -0.347 N 
ATOM      4  H1  UNL     1      -5.490   6.292  16.764  1.00  0.00     0.167 HD
HETATM    5  C3  UNL     1      -5.281   4.200  16.717  1.00  0.00     0.044 A 
HETATM    6  C4  UNL     1      -6.464   3.651  17.430  1.00  0.00     0.071 C 
HETATM    7  C5  UNL     1      -4.293   3.412  16.166  1.00  0.00     0.137 A 
HETATM    8  C6  UNL     1      -4.217   1.963  16.174  1.00  0.00     0.119 C 
HETATM    9  N2  UNL     1      -4.156   0.805  16.175  1.00  0.00    -0.190 NA
HETATM   10  N3  UNL     1      -3.394   4.272  15.608  1.00  0.00    -0.336 N 
ATOM     11  H3  UNL     1      -2.543   3.991  15.120  1.00  0.00     0.168 HD
ENDROOT
TORSDOF 0
ENDMDL
MODEL 5
REMARK VINA RESULT: -4.685390496      3.342      4.431
REMARK  0 active torsions:
REMARK  status: ('A' for Active; 'I' for Inactive)
ROOT
HETATM    1  C1  UNL     1      -4.978   2.297  16.336  1.00  0.00     0.089 C 
HETATM    2  C2  UNL     1      -4.782   1.847  14.922  1.00  0.00     0.078 A 
HETATM    3  N1  UNL     1      -4.567   0.590  14.504  1.00  0.00    -0.347 N 
ATOM      4  H1  UNL     1      -4.509  -0.225  15.115  1.00  0.00     0.167 HD
HETATM    5  C3  UNL     1      -4.436   0.557  13.165  1.00  0.00     0.044 A 
HETATM    6  C4  UNL     1      -4.190  -0.600  12.265  1.00  0.00     0.071 C 
HETATM    7  C5  UNL     1      -4.577   1.853  12.716  1.00  0.00     0.137 A 
HETATM    8  C6  UNL     1      -4.514   2.320  11.343  1.00  0.00     0.119 C 
HETATM    9  N2  UNL     1      -4.469   2.694  10.246  1.00  0.00    -0.190 NA
HETATM   10  N3  UNL     1      -4.788   2.616  13.826  1.00  0.00    -0.336 N 
ATOM     11  H3  UNL     1      -4.929   3.626  13.822  1.00  0.00     0.168 HD
ENDROOT
TORSDOF 0
ENDMDL
