MODEL 1
REMARK VINA RESULT: -6.599421079      0.000      0.000
REMARK  4 active torsions:
REMARK  status: ('A' for Active; 'I' for Inactive)
REMARK    1  A    between atoms: C3_5  and  S1_6 
REMARK    2  A    between atoms: S1_6  and  C4_7 
REMARK    3  A    between atoms: C4_7  and  C5_8 
REMARK    4  A    between atoms: C5_8  and  N2_9 
ROOT
HETATM    1  C5  UNL     1      52.804  42.148  87.645  1.00  0.00     0.283 C 
ENDROOT
BRANCH   1   2
HETATM    2  C4  UNL     1      53.109  43.399  86.897  1.00  0.00     0.112 C 
BRANCH   2   3
HETATM    3  S1  UNL     1      51.837  44.655  87.024  1.00  0.00    -0.093 SA
BRANCH   3   4
HETATM    4  C3  UNL     1      50.429  43.973  87.882  1.00  0.00     0.136 C 
HETATM    5  N1  UNL     1      49.335  43.234  87.293  1.00  0.00    -0.369 N 
HETATM    6  C2  UNL     1      48.697  42.503  88.371  1.00  0.00     0.141 C 
ATOM      7  H1  UNL     1      49.065  43.227  86.309  1.00  0.00     0.161 HD
HETATM    8  C1  UNL     1      49.002  43.414  89.543  1.00  0.00     0.141 C 
HETATM    9  N3  UNL     1      50.225  44.065  89.148  1.00  0.00    -0.369 N 
ATOM     10  H3  UNL     1      50.853  44.541  89.795  1.00  0.00     0.161 HD
ENDBRANCH   3   4
ENDBRANCH   2   3
ENDBRANCH   1   2
BRANCH   1  11
HETATM   11  N2  UNL     1      53.617  41.987  88.814  1.00  0.00     0.091 N 
HETATM   12  C6  UNL     1      55.017  42.238  88.607  1.00  0.00     0.298 C 
HETATM   13  C7  UNL     1      55.554  42.729  89.959  1.00  0.00     0.198 C 
HETATM   14  O1  UNL     1      55.257  41.827  90.951  1.00  0.00    -0.384 OA
HETATM   15  C8  UNL     1      53.949  41.856  91.392  1.00  0.00     0.127 C 
HETATM   16  C9  UNL     1      53.867  41.016  92.679  1.00  0.00     0.033 C 
HETATM   17  C11 UNL     1      53.128  40.719  90.763  1.00  0.00     0.043 C 
HETATM   18  C10 UNL     1      53.859  39.809  91.726  1.00  0.00     0.011 C 
HETATM   19  C12 UNL     1      53.503  40.630  89.327  1.00  0.00     0.279 C 
ENDBRANCH   1  11
TORSDOF 4
ENDMDL
MODEL 2
REMARK VINA RESULT: -6.533585161      2.201      2.993
REMARK  4 active torsions:
REMARK  status: ('A' for Active; 'I' for Inactive)
REMARK    1  A    between atoms: C3_5  and  S1_6 
REMARK    2  A    between atoms: S1_6  and  C4_7 
REMARK    3  A    between atoms: C4_7  and  C5_8 
REMARK    4  A    between atoms: C5_8  and  N2_9 
ROOT
HETATM    1  C5  UNL     1      53.296  43.025  87.565  1.00  0.00     0.283 C 
ENDROOT
BRANCH   1   2
HETATM    2  C4  UNL     1      52.868  42.282  86.348  1.00  0.00     0.112 C 
BRANCH   2   3
HETATM    3  S1  UNL     1      51.561  43.084  85.423  1.00  0.00    -0.093 SA
BRANCH   3   4
HETATM    4  C3  UNL     1      51.401  44.771  85.984  1.00  0.00     0.136 C 
HETATM    5  N1  UNL     1      50.461  45.268  86.964  1.00  0.00    -0.369 N 
HETATM    6  C2  UNL     1      50.981  46.538  87.434  1.00  0.00     0.141 C 
ATOM      7  H1  UNL     1      49.599  44.814  87.266  1.00  0.00     0.161 HD
HETATM    8  C1  UNL     1      51.753  46.991  86.212  1.00  0.00     0.141 C 
HETATM    9  N3  UNL     1      52.119  45.754  85.572  1.00  0.00    -0.369 N 
ATOM     10  H3  UNL     1      52.860  45.668  84.877  1.00  0.00     0.161 HD
ENDBRANCH   3   4
ENDBRANCH   2   3
ENDBRANCH   1   2
BRANCH   1  11
HETATM   11  N2  UNL     1      52.897  42.379  88.780  1.00  0.00     0.091 N 
HETATM   12  C6  UNL     1      51.563  42.690  89.212  1.00  0.00     0.298 C 
HETATM   13  C7  UNL     1      51.083  41.459  89.994  1.00  0.00     0.198 C 
HETATM   14  O1  UNL     1      51.970  41.150  90.996  1.00  0.00    -0.384 OA
HETATM   15  C8  UNL     1      53.120  40.511  90.579  1.00  0.00     0.127 C 
HETATM   16  C9  UNL     1      53.844  39.981  91.829  1.00  0.00     0.033 C 
HETATM   17  C11 UNL     1      54.297  41.495  90.485  1.00  0.00     0.043 C 
HETATM   18  C10 UNL     1      54.325  41.432  91.997  1.00  0.00     0.011 C 
HETATM   19  C12 UNL     1      53.790  42.749  89.867  1.00  0.00     0.279 C 
ENDBRANCH   1  11
TORSDOF 4
ENDMDL
MODEL 3
REMARK VINA RESULT: -6.344795177      3.011      4.213
REMARK  4 active torsions:
REMARK  status: ('A' for Active; 'I' for Inactive)
REMARK    1  A    between atoms: C3_5  and  S1_6 
REMARK    2  A    between atoms: S1_6  and  C4_7 
REMARK    3  A    between atoms: C4_7  and  C5_8 
REMARK    4  A    between atoms: C5_8  and  N2_9 
ROOT
HETATM    1  C5  UNL     1      53.326  43.019  87.611  1.00  0.00     0.283 C 
ENDROOT
BRANCH   1   2
HETATM    2  C4  UNL     1      52.878  42.304  86.385  1.00  0.00     0.112 C 
BRANCH   2   3
HETATM    3  S1  UNL     1      51.562  43.132  85.495  1.00  0.00    -0.093 SA
BRANCH   3   4
HETATM    4  C3  UNL     1      52.051  43.340  83.791  1.00  0.00     0.136 C 
HETATM    5  N1  UNL     1      52.808  44.441  83.240  1.00  0.00    -0.369 N 
HETATM    6  C2  UNL     1      53.355  43.981  81.977  1.00  0.00     0.141 C 
ATOM      7  H1  UNL     1      52.933  45.363  83.657  1.00  0.00     0.161 HD
HETATM    8  C1  UNL     1      52.311  42.957  81.580  1.00  0.00     0.141 C 
HETATM    9  N3  UNL     1      51.781  42.515  82.844  1.00  0.00    -0.369 N 
ATOM     10  H3  UNL     1      51.254  41.651  82.971  1.00  0.00     0.161 HD
ENDBRANCH   3   4
ENDBRANCH   2   3
ENDBRANCH   1   2
BRANCH   1  11
HETATM   11  N2  UNL     1      52.911  42.367  88.818  1.00  0.00     0.091 N 
HETATM   12  C6  UNL     1      51.567  42.667  89.228  1.00  0.00     0.298 C 
HETATM   13  C7  UNL     1      51.083  41.430  89.998  1.00  0.00     0.198 C 
HETATM   14  O1  UNL     1      51.954  41.125  91.015  1.00  0.00    -0.384 OA
HETATM   15  C8  UNL     1      53.117  40.496  90.617  1.00  0.00     0.127 C 
HETATM   16  C9  UNL     1      53.823  39.968  91.878  1.00  0.00     0.033 C 
HETATM   17  C11 UNL     1      54.287  41.489  90.545  1.00  0.00     0.043 C 
HETATM   18  C10 UNL     1      54.290  41.422  92.057  1.00  0.00     0.011 C 
HETATM   19  C12 UNL     1      53.782  42.741  89.921  1.00  0.00     0.279 C 
ENDBRANCH   1  11
TORSDOF 4
ENDMDL
MODEL 4
REMARK VINA RESULT: -6.314722632      2.215      2.929
REMARK  4 active torsions:
REMARK  status: ('A' for Active; 'I' for Inactive)
REMARK    1  A    between atoms: C3_5  and  S1_6 
REMARK    2  A    between atoms: S1_6  and  C4_7 
REMARK    3  A    between atoms: C4_7  and  C5_8 
REMARK    4  A    between atoms: C5_8  and  N2_9 
ROOT
HETATM    1  C5  UNL     1      53.700  42.759  87.646  1.00  0.00     0.283 C 
ENDROOT
BRANCH   1   2
HETATM    2  C4  UNL     1      54.953  43.527  87.885  1.00  0.00     0.112 C 
BRANCH   2   3
HETATM    3  S1  UNL     1      54.829  45.270  87.490  1.00  0.00    -0.093 SA
BRANCH   3   4
HETATM    4  C3  UNL     1      53.212  45.861  87.962  1.00  0.00     0.136 C 
HETATM    5  N1  UNL     1      52.145  46.254  87.071  1.00  0.00    -0.369 N 
HETATM    6  C2  UNL     1      50.918  46.212  87.845  1.00  0.00     0.141 C 
ATOM      7  H1  UNL     1      52.235  46.510  86.088  1.00  0.00     0.161 HD
HETATM    8  C1  UNL     1      51.457  46.500  89.232  1.00  0.00     0.141 C 
HETATM    9  N3  UNL     1      52.808  46.005  89.173  1.00  0.00    -0.369 N 
ATOM     10  H3  UNL     1      53.375  45.795  89.994  1.00  0.00     0.161 HD
ENDBRANCH   3   4
ENDBRANCH   2   3
ENDBRANCH   1   2
BRANCH   1  11
HETATM   11  N2  UNL     1      53.147  42.208  88.848  1.00  0.00     0.091 N 
HETATM   12  C6  UNL     1      51.791  42.599  89.118  1.00  0.00     0.298 C 
HETATM   13  C7  UNL     1      51.176  41.440  89.915  1.00  0.00     0.198 C 
HETATM   14  O1  UNL     1      51.939  41.159  91.022  1.00  0.00    -0.384 OA
HETATM   15  C8  UNL     1      53.096  40.449  90.767  1.00  0.00     0.127 C 
HETATM   16  C9  UNL     1      53.661  39.971  92.116  1.00  0.00     0.033 C 
HETATM   17  C11 UNL     1      54.321  41.378  90.740  1.00  0.00     0.043 C 
HETATM   18  C10 UNL     1      54.189  41.409  92.248  1.00  0.00     0.011 C 
HETATM   19  C12 UNL     1      53.940  42.610  90.000  1.00  0.00     0.279 C 
ENDBRANCH   1  11
TORSDOF 4
ENDMDL
MODEL 5
REMARK VINA RESULT: -6.255961228      2.779      3.944
REMARK  4 active torsions:
REMARK  status: ('A' for Active; 'I' for Inactive)
REMARK    1  A    between atoms: C3_5  and  S1_6 
REMARK    2  A    between atoms: S1_6  and  C4_7 
REMARK    3  A    between atoms: C4_7  and  C5_8 
REMARK    4  A    between atoms: C5_8  and  N2_9 
ROOT
HETATM    1  C5  UNL     1      53.184  42.867  87.509  1.00  0.00     0.283 C 
ENDROOT
BRANCH   1   2
HETATM    2  C4  UNL     1      52.270  43.979  87.129  1.00  0.00     0.112 C 
BRANCH   2   3
HETATM    3  S1  UNL     1      51.148  43.577  85.791  1.00  0.00    -0.093 SA
BRANCH   3   4
HETATM    4  C3  UNL     1      52.076  43.439  84.273  1.00  0.00     0.136 C 
HETATM    5  N1  UNL     1      51.716  42.658  83.111  1.00  0.00    -0.369 N 
HETATM    6  C2  UNL     1      52.478  43.192  81.998  1.00  0.00     0.141 C 
ATOM      7  H1  UNL     1      51.056  41.882  83.080  1.00  0.00     0.161 HD
HETATM    8  C1  UNL     1      53.696  43.724  82.725  1.00  0.00     0.141 C 
HETATM    9  N3  UNL     1      53.192  44.032  84.038  1.00  0.00    -0.369 N 
ATOM     10  H3  UNL     1      53.663  44.646  84.701  1.00  0.00     0.161 HD
ENDBRANCH   3   4
ENDBRANCH   2   3
ENDBRANCH   1   2
BRANCH   1  11
HETATM   11  N2  UNL     1      52.834  42.263  88.761  1.00  0.00     0.091 N 
HETATM   12  C6  UNL     1      51.508  42.568  89.222  1.00  0.00     0.298 C 
HETATM   13  C7  UNL     1      51.075  41.361  90.066  1.00  0.00     0.198 C 
HETATM   14  O1  UNL     1      51.997  41.107  91.051  1.00  0.00    -0.384 OA
HETATM   15  C8  UNL     1      53.146  40.473  90.625  1.00  0.00     0.127 C 
HETATM   16  C9  UNL     1      53.917  40.006  91.872  1.00  0.00     0.033 C 
HETATM   17  C11 UNL     1      54.301  41.473  90.455  1.00  0.00     0.043 C 
HETATM   18  C10 UNL     1      54.376  41.470  91.967  1.00  0.00     0.011 C 
HETATM   19  C12 UNL     1      53.753  42.693  89.804  1.00  0.00     0.279 C 
ENDBRANCH   1  11
TORSDOF 4
ENDMDL
