MODEL 1
REMARK VINA RESULT: -5.719955613      0.000      0.000
REMARK  3 active torsions:
REMARK  status: ('A' for Active; 'I' for Inactive)
REMARK    1  A    between atoms: O1_2  and  C2_3 
REMARK    2  A    between atoms: C4_5  and  O2_6 
REMARK    3  A    between atoms: C5_8  and  O3_9 
ROOT
HETATM    1  C2  UNL     1       9.112 -40.770 -78.555  1.00  0.00     0.118 C 
HETATM    2  C3  UNL     1       8.971 -39.743 -79.689  1.00  0.00     0.052 C 
HETATM    3  C4  UNL     1       8.566 -40.199 -77.273  1.00  0.00     0.210 C 
HETATM    4  C5  UNL     1       9.574 -39.284 -76.597  1.00  0.00     0.291 C 
HETATM    5  O4  UNL     1      10.779 -39.899 -76.376  1.00  0.00    -0.326 OA
HETATM    6  C6  UNL     1      11.357 -40.488 -77.463  1.00  0.00     0.295 A 
HETATM    7  O5  UNL     1      11.061 -41.925 -77.479  1.00  0.00    -0.345 OA
HETATM    8  C7  UNL     1      10.596 -41.056 -78.447  1.00  0.00     0.216 A 
ENDROOT
BRANCH   1   9
HETATM    9  O1  UNL     1       8.506 -41.915 -78.973  1.00  0.00    -0.380 OA
HETATM   10  C1  UNL     1       8.875 -42.375 -80.217  1.00  0.00     0.202 C 
ENDBRANCH   1   9
BRANCH   3  11
HETATM   11  O2  UNL     1       8.240 -41.178 -76.359  1.00  0.00    -0.387 OA
ATOM     12  H2  UNL     1       8.254 -40.857 -75.465  1.00  0.00     0.210 HD
ENDBRANCH   3  11
BRANCH   4  13
HETATM   13  O3  UNL     1       9.695 -38.066 -77.258  1.00  0.00    -0.368 OA
ATOM     14  H3  UNL     1       9.970 -37.370 -76.672  1.00  0.00     0.212 HD
ENDBRANCH   4  13
TORSDOF 3
ENDMDL
MODEL 2
REMARK VINA RESULT: -5.521516287      1.804      2.274
REMARK  3 active torsions:
REMARK  status: ('A' for Active; 'I' for Inactive)
REMARK    1  A    between atoms: O1_2  and  C2_3 
REMARK    2  A    between atoms: C4_5  and  O2_6 
REMARK    3  A    between atoms: C5_8  and  O3_9 
ROOT
HETATM    1  C2  UNL     1      11.262 -41.934 -79.135  1.00  0.00     0.118 C 
HETATM    2  C3  UNL     1      10.961 -41.205 -80.454  1.00  0.00     0.052 C 
HETATM    3  C4  UNL     1      10.012 -42.031 -78.303  1.00  0.00     0.210 C 
HETATM    4  C5  UNL     1       9.743 -40.737 -77.550  1.00  0.00     0.291 C 
HETATM    5  O4  UNL     1      10.806 -40.345 -76.779  1.00  0.00    -0.326 OA
HETATM    6  C6  UNL     1      12.007 -40.257 -77.420  1.00  0.00     0.295 A 
HETATM    7  O5  UNL     1      12.791 -41.478 -77.200  1.00  0.00    -0.345 OA
HETATM    8  C7  UNL     1      12.326 -41.103 -78.445  1.00  0.00     0.216 A 
ENDROOT
BRANCH   1   9
HETATM    9  O1  UNL     1      11.827 -43.130 -79.458  1.00  0.00    -0.380 OA
HETATM   10  C1  UNL     1      11.183 -43.861 -80.430  1.00  0.00     0.202 C 
ENDBRANCH   1   9
BRANCH   3  11
HETATM   11  O2  UNL     1      10.084 -43.033 -77.360  1.00  0.00    -0.387 OA
ATOM     12  H2  UNL     1      10.743 -43.683 -77.572  1.00  0.00     0.210 HD
ENDBRANCH   3  11
BRANCH   4  13
HETATM   13  O3  UNL     1       9.279 -39.732 -78.393  1.00  0.00    -0.368 OA
ATOM     14  H3  UNL     1       8.435 -39.396 -78.114  1.00  0.00     0.212 HD
ENDBRANCH   4  13
TORSDOF 3
ENDMDL
MODEL 3
REMARK VINA RESULT: -5.430285643      1.278      1.913
REMARK  3 active torsions:
REMARK  status: ('A' for Active; 'I' for Inactive)
REMARK    1  A    between atoms: O1_2  and  C2_3 
REMARK    2  A    between atoms: C4_5  and  O2_6 
REMARK    3  A    between atoms: C5_8  and  O3_9 
ROOT
HETATM    1  C2  UNL     1       9.893 -41.091 -78.149  1.00  0.00     0.118 C 
HETATM    2  C3  UNL     1      10.159 -41.240 -79.655  1.00  0.00     0.052 C 
HETATM    3  C4  UNL     1       8.562 -40.424 -77.924  1.00  0.00     0.210 C 
HETATM    4  C5  UNL     1       8.663 -38.914 -78.076  1.00  0.00     0.291 C 
HETATM    5  O4  UNL     1       9.621 -38.366 -77.263  1.00  0.00    -0.326 OA
HETATM    6  C6  UNL     1      10.866 -38.916 -77.352  1.00  0.00     0.295 A 
HETATM    7  O5  UNL     1      11.066 -39.898 -76.280  1.00  0.00    -0.345 OA
HETATM    8  C7  UNL     1      11.034 -40.247 -77.616  1.00  0.00     0.216 A 
ENDROOT
BRANCH   1   9
HETATM    9  O1  UNL     1      10.011 -42.330 -77.597  1.00  0.00    -0.380 OA
HETATM   10  C1  UNL     1      11.170 -43.013 -77.886  1.00  0.00     0.202 C 
ENDBRANCH   1   9
BRANCH   3  11
HETATM   11  O2  UNL     1       8.060 -40.665 -76.664  1.00  0.00    -0.387 OA
ATOM     12  H2  UNL     1       7.483 -41.419 -76.642  1.00  0.00     0.210 HD
ENDBRANCH   3  11
BRANCH   4  13
HETATM   13  O3  UNL     1       8.793 -38.534 -79.408  1.00  0.00    -0.368 OA
ATOM     14  H3  UNL     1       7.953 -38.497 -79.850  1.00  0.00     0.212 HD
ENDBRANCH   4  13
TORSDOF 3
ENDMDL
MODEL 4
REMARK VINA RESULT: -5.390471905      1.464      3.203
REMARK  3 active torsions:
REMARK  status: ('A' for Active; 'I' for Inactive)
REMARK    1  A    between atoms: O1_2  and  C2_3 
REMARK    2  A    between atoms: C4_5  and  O2_6 
REMARK    3  A    between atoms: C5_8  and  O3_9 
ROOT
HETATM    1  C2  UNL     1      11.543 -41.406 -78.481  1.00  0.00     0.118 C 
HETATM    2  C3  UNL     1      11.857 -40.977 -79.923  1.00  0.00     0.052 C 
HETATM    3  C4  UNL     1      10.361 -42.338 -78.467  1.00  0.00     0.210 C 
HETATM    4  C5  UNL     1       9.048 -41.573 -78.547  1.00  0.00     0.291 C 
HETATM    5  O4  UNL     1       8.929 -40.627 -77.562  1.00  0.00    -0.326 OA
HETATM    6  C6  UNL     1       9.963 -39.745 -77.454  1.00  0.00     0.295 A 
HETATM    7  O5  UNL     1      10.887 -40.173 -76.398  1.00  0.00    -0.345 OA
HETATM    8  C7  UNL     1      11.248 -40.123 -77.730  1.00  0.00     0.216 A 
ENDROOT
BRANCH   1   9
HETATM    9  O1  UNL     1      12.687 -41.928 -77.960  1.00  0.00    -0.380 OA
HETATM   10  C1  UNL     1      13.808 -41.134 -78.044  1.00  0.00     0.202 C 
ENDBRANCH   1   9
BRANCH   3  11
HETATM   11  O2  UNL     1      10.307 -43.102 -77.322  1.00  0.00    -0.387 OA
ATOM     12  H2  UNL     1      11.164 -43.233 -76.933  1.00  0.00     0.210 HD
ENDBRANCH   3  11
BRANCH   4  13
HETATM   13  O3  UNL     1       8.820 -41.067 -79.823  1.00  0.00    -0.368 OA
ATOM     14  H3  UNL     1       9.537 -40.520 -80.121  1.00  0.00     0.212 HD
ENDBRANCH   4  13
TORSDOF 3
ENDMDL
MODEL 5
REMARK VINA RESULT: -5.342040631      1.674      2.814
REMARK  3 active torsions:
REMARK  status: ('A' for Active; 'I' for Inactive)
REMARK    1  A    between atoms: O1_2  and  C2_3 
REMARK    2  A    between atoms: C4_5  and  O2_6 
REMARK    3  A    between atoms: C5_8  and  O3_9 
ROOT
HETATM    1  C2  UNL     1      10.226 -40.751 -78.663  1.00  0.00     0.118 C 
HETATM    2  C3  UNL     1      10.517 -40.503 -80.151  1.00  0.00     0.052 C 
HETATM    3  C4  UNL     1      11.349 -40.205 -77.821  1.00  0.00     0.210 C 
HETATM    4  C5  UNL     1      12.527 -41.166 -77.772  1.00  0.00     0.291 C 
HETATM    5  O4  UNL     1      12.168 -42.418 -77.344  1.00  0.00    -0.326 OA
HETATM    6  C6  UNL     1      11.132 -43.003 -78.012  1.00  0.00     0.295 A 
HETATM    7  O5  UNL     1       9.878 -42.810 -77.273  1.00  0.00    -0.345 OA
HETATM    8  C7  UNL     1      10.104 -42.255 -78.517  1.00  0.00     0.216 A 
ENDROOT
BRANCH   1   9
HETATM    9  O1  UNL     1       9.003 -40.217 -78.398  1.00  0.00    -0.380 OA
HETATM   10  C1  UNL     1       8.629 -39.145 -79.177  1.00  0.00     0.202 C 
ENDBRANCH   1   9
BRANCH   3  11
HETATM   11  O2  UNL     1      10.965 -39.978 -76.516  1.00  0.00    -0.387 OA
ATOM     12  H2  UNL     1      11.571 -39.411 -76.054  1.00  0.00     0.210 HD
ENDBRANCH   3  11
BRANCH   4  13
HETATM   13  O3  UNL     1      13.236 -41.179 -78.969  1.00  0.00    -0.368 OA
ATOM     14  H3  UNL     1      13.620 -42.031 -79.144  1.00  0.00     0.212 HD
ENDBRANCH   4  13
TORSDOF 3
ENDMDL
