MODEL 1
REMARK VINA RESULT: -6.364291677      0.000      0.000
REMARK  4 active torsions:
REMARK  status: ('A' for Active; 'I' for Inactive)
REMARK    1  A    between atoms: C2_2  and  C3_3 
REMARK    2  A    between atoms: C3_3  and  C4_4 
REMARK       I    between atoms: C4_4  and  N1_6 
REMARK    3  A    between atoms: C7_9  and  N2_10 
REMARK    4  A    between atoms: C8_14  and  C9_15 
ROOT
HETATM    1  C4  UNL     1      -4.460   0.819  13.669  1.00  0.00     0.220 C 
HETATM    2  O1  UNL     1      -4.589  -0.243  14.355  1.00  0.00    -0.273 OA
HETATM    3  N1  UNL     1      -4.778   2.050  14.252  1.00  0.00    -0.339 N 
HETATM    4  C5  UNL     1      -5.267   2.235  15.599  1.00  0.00     0.129 C 
HETATM    5  C6  UNL     1      -5.501   3.709  15.780  1.00  0.00     0.055 C 
HETATM    6  C7  UNL     1      -5.796   4.154  14.371  1.00  0.00     0.214 C 
HETATM    7  C8  UNL     1      -4.692   3.378  13.631  1.00  0.00     0.177 C 
ENDROOT
BRANCH   7   8
HETATM    8  C9  UNL     1      -3.381   4.004  13.960  1.00  0.00     0.110 A 
HETATM    9  N3  UNL     1      -2.547   3.607  14.922  1.00  0.00    -0.280 N 
HETATM   10  N4  UNL     1      -1.461   4.231  15.091  1.00  0.00    -0.236 N 
ATOM     11  H3  UNL     1      -2.784   2.811  15.514  1.00  0.00     0.189 HD
HETATM   12  N5  UNL     1      -1.168   5.249  14.327  1.00  0.00    -0.254 N 
ATOM     13  H4  UNL     1      -0.813   3.940  15.823  1.00  0.00     0.209 HD
HETATM   14  S1  UNL     1      -2.514   5.325  13.309  1.00  0.00     0.020 SA
ATOM     15  H5  UNL     1      -0.341   5.844  14.341  1.00  0.00     0.197 HD
ENDBRANCH   7   8
BRANCH   6  16
HETATM   16  N2  UNL     1      -5.746   5.557  14.154  1.00  0.00    -0.073 N 
ATOM     17  H23 UNL     1      -5.792   5.758  13.155  1.00  0.00     0.274 HD
ATOM     18  H22 UNL     1      -6.615   5.991  14.465  1.00  0.00     0.274 HD
ATOM     19  H21 UNL     1      -4.948   6.034  14.571  1.00  0.00     0.274 HD
ENDBRANCH   6  16
BRANCH   1  20
HETATM   20  C3  UNL     1      -3.973   0.618  12.293  1.00  0.00     0.103 C 
BRANCH  20  21
HETATM   21  C2  UNL     1      -4.301  -0.715  11.715  1.00  0.00     0.005 C 
HETATM   22  C1  UNL     1      -3.077  -1.562  11.447  1.00  0.00     0.005 C 
ENDBRANCH  20  21
ENDBRANCH   1  20
TORSDOF 4
ENDMDL
MODEL 2
REMARK VINA RESULT: -6.328545315      2.675      4.515
REMARK  4 active torsions:
REMARK  status: ('A' for Active; 'I' for Inactive)
REMARK    1  A    between atoms: C2_2  and  C3_3 
REMARK    2  A    between atoms: C3_3  and  C4_4 
REMARK       I    between atoms: C4_4  and  N1_6 
REMARK    3  A    between atoms: C7_9  and  N2_10 
REMARK    4  A    between atoms: C8_14  and  C9_15 
ROOT
HETATM    1  C4  UNL     1      -3.977   2.058  15.315  1.00  0.00     0.220 C 
HETATM    2  O1  UNL     1      -3.038   1.982  16.166  1.00  0.00    -0.273 OA
HETATM    3  N1  UNL     1      -3.785   2.809  14.151  1.00  0.00    -0.339 N 
HETATM    4  C5  UNL     1      -2.584   3.542  13.819  1.00  0.00     0.129 C 
HETATM    5  C6  UNL     1      -2.836   4.219  12.500  1.00  0.00     0.055 C 
HETATM    6  C7  UNL     1      -4.332   4.398  12.523  1.00  0.00     0.214 C 
HETATM    7  C8  UNL     1      -4.739   3.012  13.054  1.00  0.00     0.177 C 
ENDROOT
BRANCH   7   8
HETATM    8  C9  UNL     1      -4.492   2.010  11.979  1.00  0.00     0.110 A 
HETATM    9  N3  UNL     1      -5.312   1.738  10.963  1.00  0.00    -0.280 N 
HETATM   10  N4  UNL     1      -4.974   0.861  10.118  1.00  0.00    -0.236 N 
ATOM     11  H3  UNL     1      -6.200   2.231  10.870  1.00  0.00     0.189 HD
HETATM   12  N5  UNL     1      -3.835   0.236  10.247  1.00  0.00    -0.254 N 
ATOM     13  H4  UNL     1      -5.591   0.642   9.335  1.00  0.00     0.209 HD
HETATM   14  S1  UNL     1      -3.206   0.933  11.651  1.00  0.00     0.020 SA
ATOM     15  H5  UNL     1      -3.429  -0.487   9.653  1.00  0.00     0.197 HD
ENDBRANCH   7   8
BRANCH   6  16
HETATM   16  N2  UNL     1      -4.923   4.722  11.273  1.00  0.00    -0.073 N 
ATOM     17  H23 UNL     1      -4.217   5.094  10.637  1.00  0.00     0.274 HD
ATOM     18  H22 UNL     1      -5.182   3.870  10.776  1.00  0.00     0.274 HD
ATOM     19  H21 UNL     1      -5.722   5.356  11.319  1.00  0.00     0.274 HD
ENDBRANCH   6  16
BRANCH   1  20
HETATM   20  C3  UNL     1      -5.202   1.317  15.668  1.00  0.00     0.103 C 
BRANCH  20  21
HETATM   21  C2  UNL     1      -5.810   1.725  16.965  1.00  0.00     0.005 C 
HETATM   22  C1  UNL     1      -7.316   1.580  16.985  1.00  0.00     0.005 C 
ENDBRANCH  20  21
ENDBRANCH   1  20
TORSDOF 4
ENDMDL
MODEL 3
REMARK VINA RESULT: -6.272075875      0.836      1.042
REMARK  4 active torsions:
REMARK  status: ('A' for Active; 'I' for Inactive)
REMARK    1  A    between atoms: C2_2  and  C3_3 
REMARK    2  A    between atoms: C3_3  and  C4_4 
REMARK       I    between atoms: C4_4  and  N1_6 
REMARK    3  A    between atoms: C7_9  and  N2_10 
REMARK    4  A    between atoms: C8_14  and  C9_15 
ROOT
HETATM    1  C4  UNL     1      -4.507   0.887  13.286  1.00  0.00     0.220 C 
HETATM    2  O1  UNL     1      -4.533  -0.197  13.947  1.00  0.00    -0.273 OA
HETATM    3  N1  UNL     1      -4.727   2.097  13.951  1.00  0.00    -0.339 N 
HETATM    4  C5  UNL     1      -5.002   2.237  15.363  1.00  0.00     0.129 C 
HETATM    5  C6  UNL     1      -5.200   3.703  15.627  1.00  0.00     0.055 C 
HETATM    6  C7  UNL     1      -5.707   4.194  14.296  1.00  0.00     0.214 C 
HETATM    7  C8  UNL     1      -4.733   3.445  13.369  1.00  0.00     0.177 C 
ENDROOT
BRANCH   7   8
HETATM    8  C9  UNL     1      -3.384   4.062  13.513  1.00  0.00     0.110 A 
HETATM    9  N3  UNL     1      -2.512   3.811  14.490  1.00  0.00    -0.280 N 
HETATM   10  N4  UNL     1      -1.397   4.406  14.488  1.00  0.00    -0.236 N 
ATOM     11  H3  UNL     1      -2.743   3.147  15.230  1.00  0.00     0.189 HD
HETATM   12  N5  UNL     1      -1.112   5.253  13.536  1.00  0.00    -0.254 N 
ATOM     13  H4  UNL     1      -0.720   4.224  15.229  1.00  0.00     0.209 HD
HETATM   14  S1  UNL     1      -2.509   5.202  12.588  1.00  0.00     0.020 SA
ATOM     15  H5  UNL     1      -0.265   5.803  13.399  1.00  0.00     0.197 HD
ENDBRANCH   7   8
BRANCH   6  16
HETATM   16  N2  UNL     1      -5.685   5.604  14.120  1.00  0.00    -0.073 N 
ATOM     17  H23 UNL     1      -6.236   6.056  14.850  1.00  0.00     0.274 HD
ATOM     18  H22 UNL     1      -4.759   5.970  14.341  1.00  0.00     0.274 HD
ATOM     19  H21 UNL     1      -5.982   5.933  13.202  1.00  0.00     0.274 HD
ENDBRANCH   6  16
BRANCH   1  20
HETATM   20  C3  UNL     1      -4.238   0.733  11.844  1.00  0.00     0.103 C 
BRANCH  20  21
HETATM   21  C2  UNL     1      -2.833   0.363  11.519  1.00  0.00     0.005 C 
HETATM   22  C1  UNL     1      -1.980   1.552  11.139  1.00  0.00     0.005 C 
ENDBRANCH  20  21
ENDBRANCH   1  20
TORSDOF 4
ENDMDL
MODEL 4
REMARK VINA RESULT: -6.154167760      2.858      4.837
REMARK  4 active torsions:
REMARK  status: ('A' for Active; 'I' for Inactive)
REMARK    1  A    between atoms: C2_2  and  C3_3 
REMARK    2  A    between atoms: C3_3  and  C4_4 
REMARK       I    between atoms: C4_4  and  N1_6 
REMARK    3  A    between atoms: C7_9  and  N2_10 
REMARK    4  A    between atoms: C8_14  and  C9_15 
ROOT
HETATM    1  C4  UNL     1      -4.946   3.390  15.142  1.00  0.00     0.220 C 
HETATM    2  O1  UNL     1      -4.276   3.389  16.221  1.00  0.00    -0.273 OA
HETATM    3  N1  UNL     1      -4.282   3.584  13.927  1.00  0.00    -0.339 N 
HETATM    4  C5  UNL     1      -2.861   3.802  13.777  1.00  0.00     0.129 C 
HETATM    5  C6  UNL     1      -2.599   3.990  12.309  1.00  0.00     0.055 C 
HETATM    6  C7  UNL     1      -3.913   4.550  11.827  1.00  0.00     0.214 C 
HETATM    7  C8  UNL     1      -4.873   3.614  12.583  1.00  0.00     0.177 C 
ENDROOT
BRANCH   7   8
HETATM    8  C9  UNL     1      -4.787   2.261  11.965  1.00  0.00     0.110 A 
HETATM    9  N3  UNL     1      -5.316   1.903  10.795  1.00  0.00    -0.280 N 
HETATM   10  N4  UNL     1      -5.164   0.716  10.387  1.00  0.00    -0.236 N 
ATOM     11  H3  UNL     1      -5.836   2.579  10.235  1.00  0.00     0.189 HD
HETATM   12  N5  UNL     1      -4.495  -0.141  11.112  1.00  0.00    -0.254 N 
ATOM     13  H4  UNL     1      -5.563   0.428   9.494  1.00  0.00     0.209 HD
HETATM   14  S1  UNL     1      -4.057   0.793  12.449  1.00  0.00     0.020 SA
ATOM     15  H5  UNL     1      -4.291  -1.121  10.919  1.00  0.00     0.197 HD
ENDBRANCH   7   8
BRANCH   6  16
HETATM   16  N2  UNL     1      -4.100   4.537  10.419  1.00  0.00    -0.073 N 
ATOM     17  H23 UNL     1      -3.793   5.423  10.017  1.00  0.00     0.274 HD
ATOM     18  H22 UNL     1      -3.432   3.901   9.984  1.00  0.00     0.274 HD
ATOM     19  H21 UNL     1      -5.046   4.319  10.107  1.00  0.00     0.274 HD
ENDBRANCH   6  16
BRANCH   1  20
HETATM   20  C3  UNL     1      -6.396   3.180  15.306  1.00  0.00     0.103 C 
BRANCH  20  21
HETATM   21  C2  UNL     1      -6.824   2.937  16.712  1.00  0.00     0.005 C 
HETATM   22  C1  UNL     1      -7.523   1.609  16.897  1.00  0.00     0.005 C 
ENDBRANCH  20  21
ENDBRANCH   1  20
TORSDOF 4
ENDMDL
MODEL 5
REMARK VINA RESULT: -6.139223826      2.431      3.651
REMARK  4 active torsions:
REMARK  status: ('A' for Active; 'I' for Inactive)
REMARK    1  A    between atoms: C2_2  and  C3_3 
REMARK    2  A    between atoms: C3_3  and  C4_4 
REMARK       I    between atoms: C4_4  and  N1_6 
REMARK    3  A    between atoms: C7_9  and  N2_10 
REMARK    4  A    between atoms: C8_14  and  C9_15 
ROOT
HETATM    1  C4  UNL     1      -5.009   2.254  11.748  1.00  0.00     0.220 C 
HETATM    2  O1  UNL     1      -5.699   2.871  10.880  1.00  0.00    -0.273 OA
HETATM    3  N1  UNL     1      -4.579   2.937  12.891  1.00  0.00    -0.339 N 
HETATM    4  C5  UNL     1      -4.845   4.327  13.182  1.00  0.00     0.129 C 
HETATM    5  C6  UNL     1      -4.172   4.637  14.490  1.00  0.00     0.055 C 
HETATM    6  C7  UNL     1      -3.031   3.651  14.494  1.00  0.00     0.214 C 
HETATM    7  C8  UNL     1      -3.783   2.401  14.002  1.00  0.00     0.177 C 
ENDROOT
BRANCH   7   8
HETATM    8  C9  UNL     1      -4.687   1.941  15.094  1.00  0.00     0.110 A 
HETATM    9  N3  UNL     1      -4.537   0.830  15.815  1.00  0.00    -0.280 N 
HETATM   10  N4  UNL     1      -5.381   0.561  16.716  1.00  0.00    -0.236 N 
ATOM     11  H3  UNL     1      -3.750   0.205  15.641  1.00  0.00     0.189 HD
HETATM   12  N5  UNL     1      -6.385   1.370  16.930  1.00  0.00    -0.254 N 
ATOM     13  H4  UNL     1      -5.279  -0.285  17.276  1.00  0.00     0.209 HD
HETATM   14  S1  UNL     1      -6.113   2.581  15.785  1.00  0.00     0.020 SA
ATOM     15  H5  UNL     1      -7.138   1.290  17.613  1.00  0.00     0.197 HD
ENDBRANCH   7   8
BRANCH   6  16
HETATM   16  N2  UNL     1      -2.390   3.470  15.748  1.00  0.00    -0.073 N 
ATOM     17  H23 UNL     1      -1.397   3.280  15.610  1.00  0.00     0.274 HD
ATOM     18  H22 UNL     1      -2.335   4.359  16.245  1.00  0.00     0.274 HD
ATOM     19  H21 UNL     1      -2.802   2.758  16.350  1.00  0.00     0.274 HD
ENDBRANCH   6  16
BRANCH   1  20
HETATM   20  C3  UNL     1      -4.732   0.840  11.436  1.00  0.00     0.103 C 
BRANCH  20  21
HETATM   21  C2  UNL     1      -3.584   0.631  10.511  1.00  0.00     0.005 C 
HETATM   22  C1  UNL     1      -2.245   0.915  11.154  1.00  0.00     0.005 C 
ENDBRANCH  20  21
ENDBRANCH   1  20
TORSDOF 4
ENDMDL
