MODEL 1
REMARK VINA RESULT: -6.648901082      0.000      0.000
REMARK  4 active torsions:
REMARK  status: ('A' for Active; 'I' for Inactive)
REMARK    1  A    between atoms: C2_2  and  C5_5 
REMARK    2  A    between atoms: C5_5  and  O2_7 
REMARK    3  A    between atoms: O2_7  and  C6_8 
REMARK    4  A    between atoms: C11_13  and  N1_14 
ROOT
HETATM    1  C6  UNL     1      -5.405   2.569  15.019  1.00  0.00     0.162 C 
HETATM    2  C7  UNL     1      -5.641   3.988  14.593  1.00  0.00     0.035 C 
HETATM    3  C8  UNL     1      -6.138   4.888  15.653  1.00  0.00     0.003 C 
HETATM    4  C9  UNL     1      -6.812   4.243  16.803  1.00  0.00     0.002 C 
HETATM    5  C10 UNL     1      -6.179   3.013  17.328  1.00  0.00     0.035 C 
HETATM    6  C11 UNL     1      -5.121   2.417  16.474  1.00  0.00     0.212 C 
ENDROOT
BRANCH   1   7
HETATM    7  O2  UNL     1      -4.280   2.089  14.302  1.00  0.00    -0.313 OA
BRANCH   7   8
HETATM    8  C5  UNL     1      -4.329   0.987  13.458  1.00  0.00     0.267 C 
HETATM    9  O1  UNL     1      -4.613  -0.115  13.999  1.00  0.00    -0.264 OA
BRANCH   8  10
HETATM   10  C2  UNL     1      -4.072   1.057  12.011  1.00  0.00     0.037 C 
HETATM   11  C1  UNL     1      -2.713   1.579  11.671  1.00  0.00     0.025 C 
HETATM   12  C3  UNL     1      -4.245  -0.315  11.398  1.00  0.00     0.025 C 
HETATM   13  C4  UNL     1      -5.089   1.969  11.311  1.00  0.00     0.025 C 
ENDBRANCH   8  10
ENDBRANCH   7   8
ENDBRANCH   1   7
BRANCH   6  14
HETATM   14  N1  UNL     1      -5.075   0.981  16.764  1.00  0.00    -0.073 N 
ATOM     15  H13 UNL     1      -4.297   0.506  16.306  1.00  0.00     0.274 HD
ATOM     16  H12 UNL     1      -4.806   0.777  17.727  1.00  0.00     0.274 HD
ATOM     17  H11 UNL     1      -5.982   0.590  16.513  1.00  0.00     0.274 HD
ENDBRANCH   6  14
TORSDOF 4
ENDMDL
MODEL 2
REMARK VINA RESULT: -6.541599343      0.362      1.042
REMARK  4 active torsions:
REMARK  status: ('A' for Active; 'I' for Inactive)
REMARK    1  A    between atoms: C2_2  and  C5_5 
REMARK    2  A    between atoms: C5_5  and  O2_7 
REMARK    3  A    between atoms: O2_7  and  C6_8 
REMARK    4  A    between atoms: C11_13  and  N1_14 
ROOT
HETATM    1  C6  UNL     1      -5.261   2.580  14.807  1.00  0.00     0.162 C 
HETATM    2  C7  UNL     1      -5.398   4.002  14.346  1.00  0.00     0.035 C 
HETATM    3  C8  UNL     1      -5.875   4.951  15.371  1.00  0.00     0.003 C 
HETATM    4  C9  UNL     1      -6.623   4.371  16.510  1.00  0.00     0.002 C 
HETATM    5  C10 UNL     1      -6.082   3.118  17.080  1.00  0.00     0.035 C 
HETATM    6  C11 UNL     1      -5.033   2.442  16.274  1.00  0.00     0.212 C 
ENDROOT
BRANCH   1   7
HETATM    7  O2  UNL     1      -4.143   2.021  14.137  1.00  0.00    -0.313 OA
BRANCH   7   8
HETATM    8  C5  UNL     1      -4.234   0.918  13.297  1.00  0.00     0.267 C 
HETATM    9  O1  UNL     1      -4.652  -0.148  13.822  1.00  0.00    -0.264 OA
BRANCH   8  10
HETATM   10  C2  UNL     1      -3.874   0.950  11.871  1.00  0.00     0.037 C 
HETATM   11  C1  UNL     1      -3.477  -0.384  11.325  1.00  0.00     0.025 C 
HETATM   12  C3  UNL     1      -5.034   1.492  11.066  1.00  0.00     0.025 C 
HETATM   13  C4  UNL     1      -2.697   1.903  11.618  1.00  0.00     0.025 C 
ENDBRANCH   8  10
ENDBRANCH   7   8
ENDBRANCH   1   7
BRANCH   6  14
HETATM   14  N1  UNL     1      -5.082   1.012  16.592  1.00  0.00    -0.073 N 
ATOM     15  H13 UNL     1      -5.785   0.784  17.295  1.00  0.00     0.274 HD
ATOM     16  H12 UNL     1      -5.466   0.449  15.833  1.00  0.00     0.274 HD
ATOM     17  H11 UNL     1      -4.141   0.728  16.863  1.00  0.00     0.274 HD
ENDBRANCH   6  14
TORSDOF 4
ENDMDL
MODEL 3
REMARK VINA RESULT: -6.539909763      0.391      1.264
REMARK  4 active torsions:
REMARK  status: ('A' for Active; 'I' for Inactive)
REMARK    1  A    between atoms: C2_2  and  C5_5 
REMARK    2  A    between atoms: C5_5  and  O2_7 
REMARK    3  A    between atoms: O2_7  and  C6_8 
REMARK    4  A    between atoms: C11_13  and  N1_14 
ROOT
HETATM    1  C6  UNL     1      -5.256   2.546  14.792  1.00  0.00     0.162 C 
HETATM    2  C7  UNL     1      -5.403   3.967  14.332  1.00  0.00     0.035 C 
HETATM    3  C8  UNL     1      -5.875   4.915  15.361  1.00  0.00     0.003 C 
HETATM    4  C9  UNL     1      -6.610   4.332  16.507  1.00  0.00     0.002 C 
HETATM    5  C10 UNL     1      -6.059   3.081  17.072  1.00  0.00     0.035 C 
HETATM    6  C11 UNL     1      -5.014   2.410  16.256  1.00  0.00     0.212 C 
ENDROOT
BRANCH   1   7
HETATM    7  O2  UNL     1      -4.142   1.991  14.112  1.00  0.00    -0.313 OA
BRANCH   7   8
HETATM    8  C5  UNL     1      -4.228   0.863  13.306  1.00  0.00     0.267 C 
HETATM    9  O1  UNL     1      -4.629  -0.191  13.867  1.00  0.00    -0.264 OA
BRANCH   8  10
HETATM   10  C2  UNL     1      -3.881   0.856  11.876  1.00  0.00     0.037 C 
HETATM   11  C1  UNL     1      -4.999   1.300  10.988  1.00  0.00     0.025 C 
HETATM   12  C3  UNL     1      -2.677   1.741  11.641  1.00  0.00     0.025 C 
HETATM   13  C4  UNL     1      -3.474  -0.550  11.412  1.00  0.00     0.025 C 
ENDBRANCH   8  10
ENDBRANCH   7   8
ENDBRANCH   1   7
BRANCH   6  14
HETATM   14  N1  UNL     1      -5.054   0.980  16.575  1.00  0.00    -0.073 N 
ATOM     15  H13 UNL     1      -4.949   0.790  17.572  1.00  0.00     0.274 HD
ATOM     16  H12 UNL     1      -5.982   0.572  16.460  1.00  0.00     0.274 HD
ATOM     17  H11 UNL     1      -4.344   0.521  16.006  1.00  0.00     0.274 HD
ENDBRANCH   6  14
TORSDOF 4
ENDMDL
MODEL 4
REMARK VINA RESULT: -6.396937599      1.112      1.900
REMARK  4 active torsions:
REMARK  status: ('A' for Active; 'I' for Inactive)
REMARK    1  A    between atoms: C2_2  and  C5_5 
REMARK    2  A    between atoms: C5_5  and  O2_7 
REMARK    3  A    between atoms: O2_7  and  C6_8 
REMARK    4  A    between atoms: C11_13  and  N1_14 
ROOT
HETATM    1  C6  UNL     1      -5.039   3.089  13.875  1.00  0.00     0.162 C 
HETATM    2  C7  UNL     1      -4.639   4.293  13.074  1.00  0.00     0.035 C 
HETATM    3  C8  UNL     1      -5.061   5.591  13.637  1.00  0.00     0.003 C 
HETATM    4  C9  UNL     1      -6.204   5.561  14.578  1.00  0.00     0.002 C 
HETATM    5  C10 UNL     1      -6.209   4.464  15.569  1.00  0.00     0.035 C 
HETATM    6  C11 UNL     1      -5.234   3.370  15.326  1.00  0.00     0.212 C 
ENDROOT
BRANCH   1   7
HETATM    7  O2  UNL     1      -4.001   2.131  13.752  1.00  0.00    -0.313 OA
BRANCH   7   8
HETATM    8  C5  UNL     1      -4.190   0.874  13.192  1.00  0.00     0.267 C 
HETATM    9  O1  UNL     1      -4.698   0.001  13.945  1.00  0.00    -0.264 OA
BRANCH   8  10
HETATM   10  C2  UNL     1      -3.831   0.538  11.805  1.00  0.00     0.037 C 
HETATM   11  C1  UNL     1      -4.851   0.974  10.802  1.00  0.00     0.025 C 
HETATM   12  C3  UNL     1      -2.497   1.160  11.460  1.00  0.00     0.025 C 
HETATM   13  C4  UNL     1      -3.654  -0.977  11.630  1.00  0.00     0.025 C 
ENDBRANCH   8  10
ENDBRANCH   7   8
ENDBRANCH   1   7
BRANCH   6  14
HETATM   14  N1  UNL     1      -5.773   2.152  15.939  1.00  0.00    -0.073 N 
ATOM     15  H13 UNL     1      -5.975   2.261  16.932  1.00  0.00     0.274 HD
ATOM     16  H12 UNL     1      -6.722   1.939  15.633  1.00  0.00     0.274 HD
ATOM     17  H11 UNL     1      -5.114   1.398  15.748  1.00  0.00     0.274 HD
ENDBRANCH   6  14
TORSDOF 4
ENDMDL
MODEL 5
REMARK VINA RESULT: -6.288099569      1.167      1.683
REMARK  4 active torsions:
REMARK  status: ('A' for Active; 'I' for Inactive)
REMARK    1  A    between atoms: C2_2  and  C5_5 
REMARK    2  A    between atoms: C5_5  and  O2_7 
REMARK    3  A    between atoms: O2_7  and  C6_8 
REMARK    4  A    between atoms: C11_13  and  N1_14 
ROOT
HETATM    1  C6  UNL     1      -5.279   2.544  14.754  1.00  0.00     0.162 C 
HETATM    2  C7  UNL     1      -6.045   3.834  14.798  1.00  0.00     0.035 C 
HETATM    3  C8  UNL     1      -6.422   4.295  16.150  1.00  0.00     0.003 C 
HETATM    4  C9  UNL     1      -6.476   3.259  17.207  1.00  0.00     0.002 C 
HETATM    5  C10 UNL     1      -5.377   2.269  17.212  1.00  0.00     0.035 C 
HETATM    6  C11 UNL     1      -4.518   2.253  16.001  1.00  0.00     0.212 C 
ENDROOT
BRANCH   1   7
HETATM    7  O2  UNL     1      -4.351   2.635  13.686  1.00  0.00    -0.313 OA
BRANCH   7   8
HETATM    8  C5  UNL     1      -4.633   2.208  12.395  1.00  0.00     0.267 C 
HETATM    9  O1  UNL     1      -5.451   2.911  11.743  1.00  0.00    -0.264 OA
BRANCH   8  10
HETATM   10  C2  UNL     1      -4.035   1.011  11.784  1.00  0.00     0.037 C 
HETATM   11  C1  UNL     1      -4.090  -0.198  12.663  1.00  0.00     0.025 C 
HETATM   12  C3  UNL     1      -4.729   0.707  10.475  1.00  0.00     0.025 C 
HETATM   13  C4  UNL     1      -2.557   1.245  11.439  1.00  0.00     0.025 C 
ENDBRANCH   8  10
ENDBRANCH   7   8
ENDBRANCH   1   7
BRANCH   6  14
HETATM   14  N1  UNL     1      -3.962   0.903  15.870  1.00  0.00    -0.073 N 
ATOM     15  H13 UNL     1      -4.322   0.254  16.569  1.00  0.00     0.274 HD
ATOM     16  H12 UNL     1      -4.303   0.411  15.044  1.00  0.00     0.274 HD
ATOM     17  H11 UNL     1      -2.947   0.988  15.891  1.00  0.00     0.274 HD
ENDBRANCH   6  14
TORSDOF 4
ENDMDL
