MODEL 1
REMARK VINA RESULT: -7.689831466      0.000      0.000
REMARK  5 active torsions:
REMARK  status: ('A' for Active; 'I' for Inactive)
REMARK       I    between atoms: N1_2  and  C2_3 
REMARK    1  A    between atoms: N1_2  and  C8_16 
REMARK    2  A    between atoms: C2_3  and  C3_5 
REMARK    3  A    between atoms: C4_6  and  C5_7 
REMARK    4  A    between atoms: C5_7  and  O2_8 
REMARK    5  A    between atoms: C5_7  and  C6_10 
ROOT
HETATM    1  C1  UNL     1      16.999   6.404  13.184  1.00  0.00     0.153 C 
HETATM    2  N1  UNL     1      18.256   6.019  13.828  1.00  0.00    -0.348 N 
HETATM    3  C2  UNL     1      18.523   4.632  14.095  1.00  0.00     0.243 C 
HETATM    4  O1  UNL     1      19.607   4.356  14.645  1.00  0.00    -0.268 OA
ENDROOT
BRANCH   3   5
HETATM    5  C3  UNL     1      17.547   3.632  13.725  1.00  0.00     0.073 C 
HETATM    6  C4  UNL     1      16.948   2.764  14.489  1.00  0.00     0.017 C 
BRANCH   6   7
HETATM    7  C5  UNL     1      17.122   2.589  15.929  1.00  0.00     0.201 C 
BRANCH   7   8
HETATM    8  O2  UNL     1      18.392   1.977  16.180  1.00  0.00    -0.385 OA
ATOM      9  H2  UNL     1      18.787   2.380  16.944  1.00  0.00     0.210 HD
ENDBRANCH   7   8
BRANCH   7  10
HETATM   10  C6  UNL     1      16.059   1.747  16.542  1.00  0.00     0.122 A 
HETATM   11  C7  UNL     1      14.694   2.057  16.525  1.00  0.00     0.142 A 
HETATM   12  N2  UNL     1      14.016   1.088  17.165  1.00  0.00    -0.287 N 
HETATM   13  N3  UNL     1      14.934   0.223  17.558  1.00  0.00     0.026 NA
ATOM     14  H2  UNL     1      13.008   1.034  17.315  1.00  0.00     0.184 HD
HETATM   15  O3  UNL     1      16.125   0.615  17.190  1.00  0.00    -0.224 OA
ENDBRANCH   7  10
ENDBRANCH   6   7
ENDBRANCH   3   5
BRANCH   2  16
HETATM   16  C8  UNL     1      19.240   7.003  14.203  1.00  0.00     0.087 C 
HETATM   17  C9  UNL     1      19.747   7.720  12.970  1.00  0.00     0.025 C 
HETATM   18  C10 UNL     1      21.187   8.165  13.120  1.00  0.00     0.002 C 
HETATM   19  C11 UNL     1      21.141   9.583  13.679  1.00  0.00     0.000 C 
HETATM   20  C12 UNL     1      20.606   9.447  15.104  1.00  0.00     0.000 C 
HETATM   21  C13 UNL     1      19.108   9.352  15.082  1.00  0.00     0.002 C 
HETATM   22  C14 UNL     1      18.594   7.947  15.191  1.00  0.00     0.025 C 
ENDBRANCH   2  16
TORSDOF 5
ENDMDL
MODEL 2
REMARK VINA RESULT: -7.503942347      4.352      7.000
REMARK  5 active torsions:
REMARK  status: ('A' for Active; 'I' for Inactive)
REMARK       I    between atoms: N1_2  and  C2_3 
REMARK    1  A    between atoms: N1_2  and  C8_16 
REMARK    2  A    between atoms: C2_3  and  C3_5 
REMARK    3  A    between atoms: C4_6  and  C5_7 
REMARK    4  A    between atoms: C5_7  and  O2_8 
REMARK    5  A    between atoms: C5_7  and  C6_10 
ROOT
HETATM    1  C1  UNL     1      17.538   3.165  13.922  1.00  0.00     0.153 C 
HETATM    2  N1  UNL     1      16.770   1.993  14.350  1.00  0.00    -0.348 N 
HETATM    3  C2  UNL     1      16.998   0.723  13.714  1.00  0.00     0.243 C 
HETATM    4  O1  UNL     1      16.320  -0.243  14.114  1.00  0.00    -0.268 OA
ENDROOT
BRANCH   3   5
HETATM    5  C3  UNL     1      17.982   0.617  12.661  1.00  0.00     0.073 C 
HETATM    6  C4  UNL     1      17.867   0.957  11.409  1.00  0.00     0.017 C 
BRANCH   6   7
HETATM    7  C5  UNL     1      16.695   1.538  10.757  1.00  0.00     0.201 C 
BRANCH   7   8
HETATM    8  O2  UNL     1      16.454   0.851   9.523  1.00  0.00    -0.385 OA
ATOM      9  H2  UNL     1      15.664   0.330   9.605  1.00  0.00     0.210 HD
ENDBRANCH   7   8
BRANCH   7  10
HETATM   10  C6  UNL     1      16.853   2.990  10.471  1.00  0.00     0.122 A 
HETATM   11  C7  UNL     1      18.083   3.636  10.307  1.00  0.00     0.142 A 
HETATM   12  N2  UNL     1      17.865   4.939  10.062  1.00  0.00    -0.287 N 
HETATM   13  N3  UNL     1      16.551   5.081  10.077  1.00  0.00     0.026 NA
ATOM     14  H2  UNL     1      18.564   5.664   9.899  1.00  0.00     0.184 HD
HETATM   15  O3  UNL     1      15.967   3.937  10.317  1.00  0.00    -0.224 OA
ENDBRANCH   7  10
ENDBRANCH   6   7
ENDBRANCH   3   5
BRANCH   2  16
HETATM   16  C8  UNL     1      15.786   2.081  15.398  1.00  0.00     0.087 C 
HETATM   17  C9  UNL     1      16.457   1.939  16.747  1.00  0.00     0.025 C 
HETATM   18  C10 UNL     1      15.550   1.291  17.772  1.00  0.00     0.002 C 
HETATM   19  C11 UNL     1      14.821   2.429  18.479  1.00  0.00     0.000 C 
HETATM   20  C12 UNL     1      13.887   3.034  17.433  1.00  0.00     0.000 C 
HETATM   21  C13 UNL     1      14.647   3.994  16.562  1.00  0.00     0.002 C 
HETATM   22  C14 UNL     1      15.072   3.405  15.249  1.00  0.00     0.025 C 
ENDBRANCH   2  16
TORSDOF 5
ENDMDL
MODEL 3
REMARK VINA RESULT: -7.327068742      2.746      3.677
REMARK  5 active torsions:
REMARK  status: ('A' for Active; 'I' for Inactive)
REMARK       I    between atoms: N1_2  and  C2_3 
REMARK    1  A    between atoms: N1_2  and  C8_16 
REMARK    2  A    between atoms: C2_3  and  C3_5 
REMARK    3  A    between atoms: C4_6  and  C5_7 
REMARK    4  A    between atoms: C5_7  and  O2_8 
REMARK    5  A    between atoms: C5_7  and  C6_10 
ROOT
HETATM    1  C1  UNL     1      18.661   2.706  11.356  1.00  0.00     0.153 C 
HETATM    2  N1  UNL     1      17.399   3.338  11.749  1.00  0.00    -0.348 N 
HETATM    3  C2  UNL     1      16.445   2.597  12.528  1.00  0.00     0.243 C 
HETATM    4  O1  UNL     1      15.387   3.179  12.838  1.00  0.00    -0.268 OA
ENDROOT
BRANCH   3   5
HETATM    5  C3  UNL     1      16.740   1.236  12.915  1.00  0.00     0.073 C 
HETATM    6  C4  UNL     1      16.939   0.759  14.111  1.00  0.00     0.017 C 
BRANCH   6   7
HETATM    7  C5  UNL     1      16.912   1.499  15.371  1.00  0.00     0.201 C 
BRANCH   7   8
HETATM    8  O2  UNL     1      18.002   1.067  16.194  1.00  0.00    -0.385 OA
ATOM      9  H2  UNL     1      18.384   0.283  15.819  1.00  0.00     0.210 HD
ENDBRANCH   7   8
BRANCH   7  10
HETATM   10  C6  UNL     1      15.643   1.312  16.124  1.00  0.00     0.122 A 
HETATM   11  C7  UNL     1      14.630   2.273  16.221  1.00  0.00     0.142 A 
HETATM   12  N2  UNL     1      13.628   1.781  16.971  1.00  0.00    -0.287 N 
HETATM   13  N3  UNL     1      14.018   0.567  17.319  1.00  0.00     0.026 NA
ATOM     14  H2  UNL     1      12.755   2.246  17.219  1.00  0.00     0.184 HD
HETATM   15  O3  UNL     1      15.196   0.301  16.819  1.00  0.00    -0.224 OA
ENDBRANCH   7  10
ENDBRANCH   6   7
ENDBRANCH   3   5
BRANCH   2  16
HETATM   16  C8  UNL     1      17.089   4.694  11.373  1.00  0.00     0.087 C 
HETATM   17  C9  UNL     1      17.791   5.660  12.304  1.00  0.00     0.025 C 
HETATM   18  C10 UNL     1      17.008   6.942  12.493  1.00  0.00     0.002 C 
HETATM   19  C11 UNL     1      17.513   7.913  11.431  1.00  0.00     0.000 C 
HETATM   20  C12 UNL     1      17.044   7.342  10.094  1.00  0.00     0.000 C 
HETATM   21  C13 UNL     1      17.989   6.269   9.635  1.00  0.00     0.002 C 
HETATM   22  C14 UNL     1      17.508   4.879   9.932  1.00  0.00     0.025 C 
ENDBRANCH   2  16
TORSDOF 5
ENDMDL
MODEL 4
REMARK VINA RESULT: -7.283332143      3.837      6.603
REMARK  5 active torsions:
REMARK  status: ('A' for Active; 'I' for Inactive)
REMARK       I    between atoms: N1_2  and  C2_3 
REMARK    1  A    between atoms: N1_2  and  C8_16 
REMARK    2  A    between atoms: C2_3  and  C3_5 
REMARK    3  A    between atoms: C4_6  and  C5_7 
REMARK    4  A    between atoms: C5_7  and  O2_8 
REMARK    5  A    between atoms: C5_7  and  C6_10 
ROOT
HETATM    1  C1  UNL     1      17.684   4.589  14.917  1.00  0.00     0.153 C 
HETATM    2  N1  UNL     1      16.656   3.715  14.348  1.00  0.00    -0.348 N 
HETATM    3  C2  UNL     1      16.519   3.613  12.920  1.00  0.00     0.243 C 
HETATM    4  O1  UNL     1      15.629   2.856  12.486  1.00  0.00    -0.268 OA
ENDROOT
BRANCH   3   5
HETATM    5  C3  UNL     1      17.397   4.375  12.062  1.00  0.00     0.073 C 
HETATM    6  C4  UNL     1      18.522   4.003  11.520  1.00  0.00     0.017 C 
BRANCH   6   7
HETATM    7  C5  UNL     1      19.177   2.704  11.652  1.00  0.00     0.201 C 
BRANCH   7   8
HETATM    8  O2  UNL     1      20.486   2.775  11.076  1.00  0.00    -0.385 OA
ATOM      9  H2  UNL     1      21.055   2.154  11.514  1.00  0.00     0.210 HD
ENDBRANCH   7   8
BRANCH   7  10
HETATM   10  C6  UNL     1      18.423   1.606  10.987  1.00  0.00     0.122 A 
HETATM   11  C7  UNL     1      18.625   0.244  11.233  1.00  0.00     0.142 A 
HETATM   12  N2  UNL     1      17.782  -0.471  10.468  1.00  0.00    -0.287 N 
HETATM   13  N3  UNL     1      17.093   0.423   9.781  1.00  0.00     0.026 NA
ATOM     14  H2  UNL     1      17.693  -1.486  10.427  1.00  0.00     0.184 HD
HETATM   15  O3  UNL     1      17.474   1.635  10.090  1.00  0.00    -0.224 OA
ENDBRANCH   7  10
ENDBRANCH   6   7
ENDBRANCH   3   5
BRANCH   2  16
HETATM   16  C8  UNL     1      15.772   2.948  15.189  1.00  0.00     0.087 C 
HETATM   17  C9  UNL     1      16.573   2.210  16.240  1.00  0.00     0.025 C 
HETATM   18  C10 UNL     1      15.926   0.900  16.637  1.00  0.00     0.002 C 
HETATM   19  C11 UNL     1      15.027   1.210  17.829  1.00  0.00     0.000 C 
HETATM   20  C12 UNL     1      13.894   2.074  17.278  1.00  0.00     0.000 C 
HETATM   21  C13 UNL     1      14.342   3.504  17.179  1.00  0.00     0.002 C 
HETATM   22  C14 UNL     1      14.771   3.904  15.798  1.00  0.00     0.025 C 
ENDBRANCH   2  16
TORSDOF 5
ENDMDL
MODEL 5
REMARK VINA RESULT: -7.191518093      3.592      6.540
REMARK  5 active torsions:
REMARK  status: ('A' for Active; 'I' for Inactive)
REMARK       I    between atoms: N1_2  and  C2_3 
REMARK    1  A    between atoms: N1_2  and  C8_16 
REMARK    2  A    between atoms: C2_3  and  C3_5 
REMARK    3  A    between atoms: C4_6  and  C5_7 
REMARK    4  A    between atoms: C5_7  and  O2_8 
REMARK    5  A    between atoms: C5_7  and  C6_10 
ROOT
HETATM    1  C1  UNL     1      15.335   3.730  13.714  1.00  0.00     0.153 C 
HETATM    2  N1  UNL     1      16.397   3.529  14.702  1.00  0.00    -0.348 N 
HETATM    3  C2  UNL     1      17.759   3.834  14.354  1.00  0.00     0.243 C 
HETATM    4  O1  UNL     1      18.626   3.646  15.229  1.00  0.00    -0.268 OA
ENDROOT
BRANCH   3   5
HETATM    5  C3  UNL     1      18.065   4.336  13.033  1.00  0.00     0.073 C 
HETATM    6  C4  UNL     1      18.528   3.682  12.006  1.00  0.00     0.017 C 
BRANCH   6   7
HETATM    7  C5  UNL     1      18.857   2.259  11.942  1.00  0.00     0.201 C 
BRANCH   7   8
HETATM    8  O2  UNL     1      20.187   2.105  11.433  1.00  0.00    -0.385 OA
ATOM      9  H2  UNL     1      20.179   1.473  10.725  1.00  0.00     0.210 HD
ENDBRANCH   7   8
BRANCH   7  10
HETATM   10  C6  UNL     1      17.923   1.489  11.076  1.00  0.00     0.122 A 
HETATM   11  C7  UNL     1      16.543   1.399  11.283  1.00  0.00     0.142 A 
HETATM   12  N2  UNL     1      16.003   0.629  10.321  1.00  0.00    -0.287 N 
HETATM   13  N3  UNL     1      17.019   0.264   9.559  1.00  0.00     0.026 NA
ATOM     14  H2  UNL     1      15.021   0.381  10.205  1.00  0.00     0.184 HD
HETATM   15  O3  UNL     1      18.137   0.771  10.006  1.00  0.00    -0.224 OA
ENDBRANCH   7  10
ENDBRANCH   6   7
ENDBRANCH   3   5
BRANCH   2  16
HETATM   16  C8  UNL     1      16.111   3.030  16.023  1.00  0.00     0.087 C 
HETATM   17  C9  UNL     1      14.738   3.495  16.461  1.00  0.00     0.025 C 
HETATM   18  C10 UNL     1      14.652   3.686  17.961  1.00  0.00     0.002 C 
HETATM   19  C11 UNL     1      14.165   2.360  18.535  1.00  0.00     0.000 C 
HETATM   20  C12 UNL     1      15.309   1.371  18.315  1.00  0.00     0.000 C 
HETATM   21  C13 UNL     1      15.263   0.839  16.912  1.00  0.00     0.002 C 
HETATM   22  C14 UNL     1      16.219   1.523  15.979  1.00  0.00     0.025 C 
ENDBRANCH   2  16
TORSDOF 5
ENDMDL
