MODEL 1
REMARK VINA RESULT: -6.361761659      0.000      0.000
REMARK  5 active torsions:
REMARK  status: ('A' for Active; 'I' for Inactive)
REMARK    1  A    between atoms: O1_1  and  C1_3 
REMARK    2  A    between atoms: C1_3  and  C2_4 
REMARK    3  A    between atoms: C2_4  and  N1_5 
REMARK    4  A    between atoms: N3_13  and  C8_14 
REMARK    5  A    between atoms: C8_14  and  C9_15 
ROOT
HETATM    1  C1  UNL     1      -2.953   2.712  11.714  1.00  0.00     0.077 C 
HETATM    2  C6  UNL     1      -3.713   1.476  11.371  1.00  0.00     0.070 C 
HETATM    3  C7  UNL     1      -4.189   0.682  12.564  1.00  0.00     0.276 C 
HETATM    4  N3  UNL     1      -4.822   1.490  13.557  1.00  0.00     0.094 N 
HETATM    5  C13 UNL     1      -4.847   2.887  13.243  1.00  0.00     0.276 C 
HETATM    6  C14 UNL     1      -3.466   3.394  12.956  1.00  0.00     0.070 C 
ENDROOT
BRANCH   1   7
HETATM    7  O1  UNL     1      -1.589   2.475  11.892  1.00  0.00    -0.388 OA
ATOM      8  H1  UNL     1      -1.464   1.537  11.800  1.00  0.00     0.210 HD
ENDBRANCH   1   7
BRANCH   1   9
HETATM    9  C2  UNL     1      -3.072   3.725  10.564  1.00  0.00     0.167 C 
BRANCH   9  10
HETATM   10  N1  UNL     1      -1.759   4.289  10.240  1.00  0.00    -0.349 N 
HETATM   11  C3  UNL     1      -0.912   3.839   9.295  1.00  0.00     0.108 A 
HETATM   12  C4  UNL     1       0.214   4.633   9.301  1.00  0.00     0.106 A 
HETATM   13  N2  UNL     1       0.019   5.555  10.260  1.00  0.00    -0.361 N 
HETATM   14  C5  UNL     1      -1.185   5.348  10.836  1.00  0.00     0.182 A 
ATOM     15  H2  UNL     1       0.676   6.293  10.513  1.00  0.00     0.166 HD
ENDBRANCH   9  10
ENDBRANCH   1   9
BRANCH   4  16
HETATM   16  C8  UNL     1      -4.258   1.307  14.851  1.00  0.00     0.337 C 
BRANCH  16  17
HETATM   17  C9  UNL     1      -5.190   1.569  15.976  1.00  0.00     0.080 A 
HETATM   18  C10 UNL     1      -5.218   2.584  16.900  1.00  0.00     0.036 A 
HETATM   19  C11 UNL     1      -6.295   2.341  17.718  1.00  0.00     0.027 A 
HETATM   20  C12 UNL     1      -6.875   1.184  17.253  1.00  0.00     0.142 A 
HETATM   21  O2  UNL     1      -6.194   0.779  16.242  1.00  0.00    -0.325 OA
ENDBRANCH  16  17
ENDBRANCH   4  16
TORSDOF 5
ENDMDL
MODEL 2
REMARK VINA RESULT: -6.130745731      1.478      1.978
REMARK  5 active torsions:
REMARK  status: ('A' for Active; 'I' for Inactive)
REMARK    1  A    between atoms: O1_1  and  C1_3 
REMARK    2  A    between atoms: C1_3  and  C2_4 
REMARK    3  A    between atoms: C2_4  and  N1_5 
REMARK    4  A    between atoms: N3_13  and  C8_14 
REMARK    5  A    between atoms: C8_14  and  C9_15 
ROOT
HETATM    1  C1  UNL     1      -3.049   2.993  11.925  1.00  0.00     0.077 C 
HETATM    2  C6  UNL     1      -3.633   1.683  11.516  1.00  0.00     0.070 C 
HETATM    3  C7  UNL     1      -4.040   0.793  12.666  1.00  0.00     0.276 C 
HETATM    4  N3  UNL     1      -4.803   1.477  13.660  1.00  0.00     0.094 N 
HETATM    5  C13 UNL     1      -4.998   2.870  13.389  1.00  0.00     0.276 C 
HETATM    6  C14 UNL     1      -3.686   3.559  13.169  1.00  0.00     0.070 C 
ENDROOT
BRANCH   1   7
HETATM    7  O1  UNL     1      -1.673   2.926  12.145  1.00  0.00    -0.388 OA
ATOM      8  H1  UNL     1      -1.553   2.449  12.958  1.00  0.00     0.210 HD
ENDBRANCH   1   7
BRANCH   1   9
HETATM    9  C2  UNL     1      -3.262   4.023  10.804  1.00  0.00     0.167 C 
BRANCH   9  10
HETATM   10  N1  UNL     1      -3.220   5.384  11.345  1.00  0.00    -0.349 N 
HETATM   11  C3  UNL     1      -4.284   6.149  11.655  1.00  0.00     0.108 A 
HETATM   12  C4  UNL     1      -3.831   7.360  12.131  1.00  0.00     0.106 A 
HETATM   13  N2  UNL     1      -2.488   7.298  12.098  1.00  0.00    -0.361 N 
HETATM   14  C5  UNL     1      -2.111   6.093  11.617  1.00  0.00     0.182 A 
ATOM     15  H2  UNL     1      -1.855   8.043  12.388  1.00  0.00     0.166 HD
ENDBRANCH   9  10
ENDBRANCH   1   9
BRANCH   4  16
HETATM   16  C8  UNL     1      -4.261   1.322  14.968  1.00  0.00     0.337 C 
BRANCH  16  17
HETATM   17  C9  UNL     1      -5.226   1.557  16.070  1.00  0.00     0.080 A 
HETATM   18  C10 UNL     1      -5.236   2.501  17.067  1.00  0.00     0.036 A 
HETATM   19  C11 UNL     1      -6.362   2.265  17.820  1.00  0.00     0.027 A 
HETATM   20  C12 UNL     1      -6.987   1.184  17.244  1.00  0.00     0.142 A 
HETATM   21  O2  UNL     1      -6.286   0.813  16.234  1.00  0.00    -0.325 OA
ENDBRANCH  16  17
ENDBRANCH   4  16
TORSDOF 5
ENDMDL
MODEL 3
REMARK VINA RESULT: -6.125840767      1.731      2.284
REMARK  5 active torsions:
REMARK  status: ('A' for Active; 'I' for Inactive)
REMARK    1  A    between atoms: O1_1  and  C1_3 
REMARK    2  A    between atoms: C1_3  and  C2_4 
REMARK    3  A    between atoms: C2_4  and  N1_5 
REMARK    4  A    between atoms: N3_13  and  C8_14 
REMARK    5  A    between atoms: C8_14  and  C9_15 
ROOT
HETATM    1  C1  UNL     1      -2.219   4.830  13.055  1.00  0.00     0.077 C 
HETATM    2  C6  UNL     1      -3.418   4.179  12.454  1.00  0.00     0.070 C 
HETATM    3  C7  UNL     1      -4.207   3.317  13.410  1.00  0.00     0.276 C 
HETATM    4  N3  UNL     1      -4.466   3.958  14.659  1.00  0.00     0.094 N 
HETATM    5  C13 UNL     1      -3.899   5.268  14.771  1.00  0.00     0.276 C 
HETATM    6  C14 UNL     1      -2.427   5.238  14.492  1.00  0.00     0.070 C 
ENDROOT
BRANCH   1   7
HETATM    7  O1  UNL     1      -1.083   4.023  13.003  1.00  0.00    -0.388 OA
ATOM      8  H1  UNL     1      -1.063   3.533  13.817  1.00  0.00     0.210 HD
ENDBRANCH   1   7
BRANCH   1   9
HETATM    9  C2  UNL     1      -1.881   6.109  12.271  1.00  0.00     0.167 C 
BRANCH   9  10
HETATM   10  N1  UNL     1      -0.664   5.916  11.478  1.00  0.00    -0.349 N 
HETATM   11  C3  UNL     1       0.587   6.250  11.847  1.00  0.00     0.108 A 
HETATM   12  C4  UNL     1       1.450   5.912  10.828  1.00  0.00     0.106 A 
HETATM   13  N2  UNL     1       0.692   5.375   9.855  1.00  0.00    -0.361 N 
HETATM   14  C5  UNL     1      -0.600   5.377  10.248  1.00  0.00     0.182 A 
ATOM     15  H2  UNL     1       1.038   5.023   8.963  1.00  0.00     0.166 HD
ENDBRANCH   9  10
ENDBRANCH   1   9
BRANCH   4  16
HETATM   16  C8  UNL     1      -4.057   3.170  15.773  1.00  0.00     0.337 C 
BRANCH  16  17
HETATM   17  C9  UNL     1      -5.147   2.398  16.419  1.00  0.00     0.080 A 
HETATM   18  C10 UNL     1      -6.502   2.616  16.454  1.00  0.00     0.036 A 
HETATM   19  C11 UNL     1      -7.046   1.593  17.194  1.00  0.00     0.027 A 
HETATM   20  C12 UNL     1      -5.992   0.797  17.577  1.00  0.00     0.142 A 
HETATM   21  O2  UNL     1      -4.915   1.309  17.101  1.00  0.00    -0.325 OA
ENDBRANCH  16  17
ENDBRANCH   4  16
TORSDOF 5
ENDMDL
MODEL 4
REMARK VINA RESULT: -6.088556567      1.544      1.950
REMARK  5 active torsions:
REMARK  status: ('A' for Active; 'I' for Inactive)
REMARK    1  A    between atoms: O1_1  and  C1_3 
REMARK    2  A    between atoms: C1_3  and  C2_4 
REMARK    3  A    between atoms: C2_4  and  N1_5 
REMARK    4  A    between atoms: N3_13  and  C8_14 
REMARK    5  A    between atoms: C8_14  and  C9_15 
ROOT
HETATM    1  C1  UNL     1      -4.128   2.788  11.525  1.00  0.00     0.077 C 
HETATM    2  C6  UNL     1      -3.738   4.114  12.085  1.00  0.00     0.070 C 
HETATM    3  C7  UNL     1      -4.524   4.534  13.304  1.00  0.00     0.276 C 
HETATM    4  N3  UNL     1      -4.627   3.503  14.286  1.00  0.00     0.094 N 
HETATM    5  C13 UNL     1      -4.001   2.272  13.907  1.00  0.00     0.276 C 
HETATM    6  C14 UNL     1      -4.522   1.792  12.587  1.00  0.00     0.070 C 
ENDROOT
BRANCH   1   7
HETATM    7  O1  UNL     1      -5.180   2.875  10.613  1.00  0.00    -0.388 OA
ATOM      8  H1  UNL     1      -5.568   3.734  10.730  1.00  0.00     0.210 HD
ENDBRANCH   1   7
BRANCH   1   9
HETATM    9  C2  UNL     1      -2.939   2.182  10.762  1.00  0.00     0.167 C 
BRANCH   9  10
HETATM   10  N1  UNL     1      -1.867   3.170  10.615  1.00  0.00    -0.349 N 
HETATM   11  C3  UNL     1      -1.748   4.071   9.623  1.00  0.00     0.108 A 
HETATM   12  C4  UNL     1      -0.609   4.815   9.840  1.00  0.00     0.106 A 
HETATM   13  N2  UNL     1      -0.059   4.340  10.972  1.00  0.00    -0.361 N 
HETATM   14  C5  UNL     1      -0.825   3.334  11.448  1.00  0.00     0.182 A 
ATOM     15  H2  UNL     1       0.799   4.684  11.402  1.00  0.00     0.166 HD
ENDBRANCH   9  10
ENDBRANCH   1   9
BRANCH   4  16
HETATM   16  C8  UNL     1      -5.974   3.248  14.671  1.00  0.00     0.337 C 
BRANCH  16  17
HETATM   17  C9  UNL     1      -6.127   2.595  15.996  1.00  0.00     0.080 A 
HETATM   18  C10 UNL     1      -6.197   3.132  17.257  1.00  0.00     0.036 A 
HETATM   19  C11 UNL     1      -6.337   2.076  18.126  1.00  0.00     0.027 A 
HETATM   20  C12 UNL     1      -6.346   0.941  17.350  1.00  0.00     0.142 A 
HETATM   21  O2  UNL     1      -6.220   1.299  16.123  1.00  0.00    -0.325 OA
ENDBRANCH  16  17
ENDBRANCH   4  16
TORSDOF 5
ENDMDL
MODEL 5
REMARK VINA RESULT: -6.043974141      2.409      3.555
REMARK  5 active torsions:
REMARK  status: ('A' for Active; 'I' for Inactive)
REMARK    1  A    between atoms: O1_1  and  C1_3 
REMARK    2  A    between atoms: C1_3  and  C2_4 
REMARK    3  A    between atoms: C2_4  and  N1_5 
REMARK    4  A    between atoms: N3_13  and  C8_14 
REMARK    5  A    between atoms: C8_14  and  C9_15 
ROOT
HETATM    1  C1  UNL     1      -3.887   4.170  12.394  1.00  0.00     0.077 C 
HETATM    2  C6  UNL     1      -2.907   4.846  13.293  1.00  0.00     0.070 C 
HETATM    3  C7  UNL     1      -3.386   5.032  14.713  1.00  0.00     0.276 C 
HETATM    4  N3  UNL     1      -3.957   3.848  15.271  1.00  0.00     0.094 N 
HETATM    5  C13 UNL     1      -3.995   2.738  14.367  1.00  0.00     0.276 C 
HETATM    6  C14 UNL     1      -4.696   3.109  13.096  1.00  0.00     0.070 C 
ENDROOT
BRANCH   1   7
HETATM    7  O1  UNL     1      -4.781   5.062  11.801  1.00  0.00    -0.388 OA
ATOM      8  H1  UNL     1      -5.560   5.065  12.345  1.00  0.00     0.210 HD
ENDBRANCH   1   7
BRANCH   1   9
HETATM    9  C2  UNL     1      -3.137   3.476  11.245  1.00  0.00     0.167 C 
BRANCH   9  10
HETATM   10  N1  UNL     1      -3.572   2.082  11.119  1.00  0.00    -0.349 N 
HETATM   11  C3  UNL     1      -2.822   0.991  11.362  1.00  0.00     0.108 A 
HETATM   12  C4  UNL     1      -3.587  -0.130  11.127  1.00  0.00     0.106 A 
HETATM   13  N2  UNL     1      -4.797   0.315  10.743  1.00  0.00    -0.361 N 
HETATM   14  C5  UNL     1      -4.791   1.666  10.737  1.00  0.00     0.182 A 
ATOM     15  H2  UNL     1      -5.592  -0.274  10.497  1.00  0.00     0.166 HD
ENDBRANCH   9  10
ENDBRANCH   1   9
BRANCH   4  16
HETATM   16  C8  UNL     1      -5.259   4.069  15.804  1.00  0.00     0.337 C 
BRANCH  16  17
HETATM   17  C9  UNL     1      -5.833   2.911  16.535  1.00  0.00     0.080 A 
HETATM   18  C10 UNL     1      -7.088   2.358  16.494  1.00  0.00     0.036 A 
HETATM   19  C11 UNL     1      -7.081   1.302  17.373  1.00  0.00     0.027 A 
HETATM   20  C12 UNL     1      -5.815   1.261  17.911  1.00  0.00     0.142 A 
HETATM   21  O2  UNL     1      -5.133   2.216  17.390  1.00  0.00    -0.325 OA
ENDBRANCH  16  17
ENDBRANCH   4  16
TORSDOF 5
ENDMDL
