MODEL 1
REMARK VINA RESULT: -7.598540554      0.000      0.000
REMARK  8 active torsions:
REMARK  status: ('A' for Active; 'I' for Inactive)
REMARK    1  A    between atoms: O1_2  and  C2_3 
REMARK    2  A    between atoms: C2_3  and  C3_5 
REMARK    3  A    between atoms: C3_5  and  N1_6 
REMARK    4  A    between atoms: N1_6  and  C4_9 
REMARK    5  A    between atoms: C16_21  and  N2_22 
REMARK       I    between atoms: N2_22  and  C17_24 
REMARK    6  A    between atoms: C17_24  and  O4_26 
REMARK    7  A    between atoms: O4_26  and  C18_27 
REMARK    8  A    between atoms: C23_32  and  C24_33 
ROOT
HETATM    1  C4  UNL     1      12.302  44.860  18.245  1.00  0.00     0.194 C 
HETATM    2  C5  UNL     1      12.090  43.513  17.674  1.00  0.00     0.034 C 
HETATM    3  C6  UNL     1      10.961  42.721  18.271  1.00  0.00     0.012 C 
HETATM    4  C7  UNL     1      11.002  42.701  19.757  1.00  0.00    -0.029 C 
HETATM    5  C8  UNL     1      12.151  41.795  20.160  1.00  0.00     0.016 C 
HETATM    6  C9  UNL     1      11.155  44.089  20.323  1.00  0.00     0.004 C 
HETATM    7  C10 UNL     1      11.179  44.131  21.817  1.00  0.00     0.007 C 
HETATM    8  C11 UNL     1       9.930  43.463  22.412  1.00  0.00     0.006 C 
HETATM    9  C12 UNL     1       9.905  42.091  21.831  1.00  0.00     0.003 C 
HETATM   10  C13 UNL     1       9.017  41.110  22.535  1.00  0.00    -0.002 C 
HETATM   11  C14 UNL     1       7.568  41.397  22.523  1.00  0.00     0.007 C 
HETATM   12  C15 UNL     1       6.876  40.529  23.538  1.00  0.00     0.026 C 
HETATM   13  C16 UNL     1       7.503  39.169  23.697  1.00  0.00     0.087 C 
HETATM   14  C25 UNL     1       8.286  38.726  22.516  1.00  0.00     0.034 C 
HETATM   15  C26 UNL     1       9.312  39.736  22.058  1.00  0.00     0.014 C 
HETATM   16  C27 UNL     1       9.396  39.669  20.580  1.00  0.00    -0.025 C 
HETATM   17  C28 UNL     1       9.578  40.736  19.829  1.00  0.00    -0.020 C 
HETATM   18  C29 UNL     1       9.721  42.111  20.343  1.00  0.00    -0.015 C 
HETATM   19  C30 UNL     1       8.495  42.873  19.907  1.00  0.00     0.021 C 
HETATM   20  C31 UNL     1      12.289  44.873  19.764  1.00  0.00    -0.015 C 
HETATM   21  C32 UNL     1      13.641  44.508  20.256  1.00  0.00     0.017 C 
HETATM   22  C33 UNL     1      12.061  46.345  20.145  1.00  0.00     0.017 C 
ENDROOT
BRANCH  13  23
HETATM   23  N2  UNL     1       6.421  38.229  23.916  1.00  0.00    -0.332 N 
HETATM   24  C17 UNL     1       6.633  36.912  24.382  1.00  0.00     0.361 C 
HETATM   25  O3  UNL     1       7.786  36.526  24.619  1.00  0.00    -0.238 OA
ATOM     26  H2  UNL     1       5.465  38.531  23.725  1.00  0.00     0.165 HD
BRANCH  24  27
HETATM   27  O4  UNL     1       5.593  36.027  24.584  1.00  0.00    -0.295 OA
BRANCH  27  28
HETATM   28  C18 UNL     1       4.305  36.176  24.112  1.00  0.00     0.181 C 
HETATM   29  C19 UNL     1       3.677  34.940  23.540  1.00  0.00     0.068 C 
HETATM   30  C20 UNL     1       2.254  35.066  24.100  1.00  0.00     0.126 C 
HETATM   31  C21 UNL     1       1.583  36.265  23.521  1.00  0.00     0.036 C 
HETATM   32  O7  UNL     1       2.558  35.492  25.411  1.00  0.00    -0.361 OA
HETATM   33  C22 UNL     1       2.190  37.420  24.332  1.00  0.00     0.055 C 
HETATM   34  C23 UNL     1       3.287  36.658  25.080  1.00  0.00     0.175 C 
BRANCH  34  35
HETATM   35  C24 UNL     1       3.788  37.357  26.243  1.00  0.00     0.212 C 
HETATM   36  O5  UNL     1       3.895  36.822  27.389  1.00  0.00    -0.646 OA
HETATM   37  O6  UNL     1       4.177  38.671  26.136  1.00  0.00    -0.646 OA
ENDBRANCH  34  35
ENDBRANCH  27  28
ENDBRANCH  24  27
ENDBRANCH  13  23
BRANCH   1  38
HETATM   38  N1  UNL     1      11.491  45.921  17.700  1.00  0.00    -0.061 N 
ATOM     39  H12 UNL     1      11.623  46.782  18.231  1.00  0.00     0.278 HD
ATOM     40  H11 UNL     1      10.503  45.752  17.889  1.00  0.00     0.278 HD
BRANCH  38  41
HETATM   41  C3  UNL     1      11.702  46.154  16.308  1.00  0.00     0.343 C 
BRANCH  41  42
HETATM   42  C2  UNL     1      10.498  45.832  15.492  1.00  0.00     0.284 C 
HETATM   43  O2  UNL     1      10.492  46.152  14.274  1.00  0.00    -0.263 OA
BRANCH  42  44
HETATM   44  O1  UNL     1       9.375  45.197  15.990  1.00  0.00    -0.325 OA
HETATM   45  C1  UNL     1       8.929  43.980  15.382  1.00  0.00     0.213 C 
ENDBRANCH  42  44
ENDBRANCH  41  42
ENDBRANCH  38  41
ENDBRANCH   1  38
TORSDOF 8
ENDMDL
MODEL 2
REMARK VINA RESULT: -7.487194088      3.732     12.149
REMARK  8 active torsions:
REMARK  status: ('A' for Active; 'I' for Inactive)
REMARK    1  A    between atoms: O1_2  and  C2_3 
REMARK    2  A    between atoms: C2_3  and  C3_5 
REMARK    3  A    between atoms: C3_5  and  N1_6 
REMARK    4  A    between atoms: N1_6  and  C4_9 
REMARK    5  A    between atoms: C16_21  and  N2_22 
REMARK       I    between atoms: N2_22  and  C17_24 
REMARK    6  A    between atoms: C17_24  and  O4_26 
REMARK    7  A    between atoms: O4_26  and  C18_27 
REMARK    8  A    between atoms: C23_32  and  C24_33 
ROOT
HETATM    1  C4  UNL     1       1.090  36.726  26.434  1.00  0.00     0.194 C 
HETATM    2  C5  UNL     1       2.325  35.970  26.732  1.00  0.00     0.034 C 
HETATM    3  C6  UNL     1       3.613  36.717  26.528  1.00  0.00     0.012 C 
HETATM    4  C7  UNL     1       3.676  37.396  25.207  1.00  0.00    -0.029 C 
HETATM    5  C8  UNL     1       3.872  36.316  24.158  1.00  0.00     0.016 C 
HETATM    6  C9  UNL     1       2.436  38.212  24.947  1.00  0.00     0.004 C 
HETATM    7  C10 UNL     1       2.455  38.937  23.641  1.00  0.00     0.007 C 
HETATM    8  C11 UNL     1       3.699  39.829  23.517  1.00  0.00     0.006 C 
HETATM    9  C12 UNL     1       4.858  38.919  23.737  1.00  0.00     0.003 C 
HETATM   10  C13 UNL     1       6.188  39.450  23.294  1.00  0.00    -0.002 C 
HETATM   11  C14 UNL     1       6.693  40.647  23.996  1.00  0.00     0.007 C 
HETATM   12  C15 UNL     1       7.838  41.238  23.220  1.00  0.00     0.026 C 
HETATM   13  C16 UNL     1       8.682  40.211  22.513  1.00  0.00     0.087 C 
HETATM   14  C25 UNL     1       8.601  38.853  23.109  1.00  0.00     0.034 C 
HETATM   15  C26 UNL     1       7.187  38.353  23.284  1.00  0.00     0.014 C 
HETATM   16  C27 UNL     1       7.134  37.545  24.525  1.00  0.00    -0.025 C 
HETATM   17  C28 UNL     1       6.094  37.551  25.335  1.00  0.00    -0.020 C 
HETATM   18  C29 UNL     1       4.870  38.344  25.122  1.00  0.00    -0.015 C 
HETATM   19  C30 UNL     1       4.834  39.396  26.202  1.00  0.00     0.021 C 
HETATM   20  C31 UNL     1       1.154  37.477  25.115  1.00  0.00    -0.015 C 
HETATM   21  C32 UNL     1       0.787  36.546  24.018  1.00  0.00     0.017 C 
HETATM   22  C33 UNL     1       0.032  38.525  25.200  1.00  0.00     0.017 C 
ENDROOT
BRANCH  13  23
HETATM   23  N2  UNL     1      10.056  40.669  22.587  1.00  0.00    -0.332 N 
HETATM   24  C17 UNL     1      10.906  40.725  21.460  1.00  0.00     0.361 C 
HETATM   25  O3  UNL     1      10.478  40.372  20.353  1.00  0.00    -0.238 OA
ATOM     26  H2  UNL     1      10.424  40.964  23.491  1.00  0.00     0.165 HD
BRANCH  24  27
HETATM   27  O4  UNL     1      12.212  41.164  21.546  1.00  0.00    -0.295 OA
BRANCH  27  28
HETATM   28  C18 UNL     1      12.672  42.405  21.157  1.00  0.00     0.181 C 
HETATM   29  C19 UNL     1      11.678  43.524  21.250  1.00  0.00     0.068 C 
HETATM   30  C20 UNL     1      12.570  44.645  21.801  1.00  0.00     0.126 C 
HETATM   31  C21 UNL     1      13.614  45.004  20.799  1.00  0.00     0.036 C 
HETATM   32  O7  UNL     1      13.305  43.908  22.754  1.00  0.00    -0.361 OA
HETATM   33  C22 UNL     1      14.641  43.873  20.957  1.00  0.00     0.055 C 
HETATM   34  C23 UNL     1      13.854  42.940  21.880  1.00  0.00     0.175 C 
BRANCH  34  35
HETATM   35  C24 UNL     1      14.680  41.970  22.565  1.00  0.00     0.212 C 
HETATM   36  O5  UNL     1      14.618  41.754  23.814  1.00  0.00    -0.646 OA
HETATM   37  O6  UNL     1      15.591  41.226  21.854  1.00  0.00    -0.646 OA
ENDBRANCH  34  35
ENDBRANCH  27  28
ENDBRANCH  24  27
ENDBRANCH  13  23
BRANCH   1  38
HETATM   38  N1  UNL     1       0.580  37.562  27.494  1.00  0.00    -0.061 N 
ATOM     39  H12 UNL     1       0.132  38.394  27.109  1.00  0.00     0.278 HD
ATOM     40  H11 UNL     1       1.345  38.000  28.006  1.00  0.00     0.278 HD
BRANCH  38  41
HETATM   41  C3  UNL     1      -0.301  36.886  28.390  1.00  0.00     0.343 C 
BRANCH  41  42
HETATM   42  C2  UNL     1       0.182  36.929  29.797  1.00  0.00     0.284 C 
HETATM   43  O2  UNL     1      -0.663  37.065  30.721  1.00  0.00    -0.263 OA
BRANCH  42  44
HETATM   44  O1  UNL     1       1.513  36.830  30.161  1.00  0.00    -0.325 OA
HETATM   45  C1  UNL     1       2.166  37.962  30.747  1.00  0.00     0.213 C 
ENDBRANCH  42  44
ENDBRANCH  41  42
ENDBRANCH  38  41
ENDBRANCH   1  38
TORSDOF 8
ENDMDL
MODEL 3
REMARK VINA RESULT: -7.448354193      1.505      2.280
REMARK  8 active torsions:
REMARK  status: ('A' for Active; 'I' for Inactive)
REMARK    1  A    between atoms: O1_2  and  C2_3 
REMARK    2  A    between atoms: C2_3  and  C3_5 
REMARK    3  A    between atoms: C3_5  and  N1_6 
REMARK    4  A    between atoms: N1_6  and  C4_9 
REMARK    5  A    between atoms: C16_21  and  N2_22 
REMARK       I    between atoms: N2_22  and  C17_24 
REMARK    6  A    between atoms: C17_24  and  O4_26 
REMARK    7  A    between atoms: O4_26  and  C18_27 
REMARK    8  A    between atoms: C23_32  and  C24_33 
ROOT
HETATM    1  C4  UNL     1      11.646  43.723  18.907  1.00  0.00     0.194 C 
HETATM    2  C5  UNL     1      11.622  42.272  18.625  1.00  0.00     0.034 C 
HETATM    3  C6  UNL     1      10.437  41.523  19.167  1.00  0.00     0.012 C 
HETATM    4  C7  UNL     1      10.180  41.820  20.600  1.00  0.00    -0.029 C 
HETATM    5  C8  UNL     1      11.270  41.131  21.402  1.00  0.00     0.016 C 
HETATM    6  C9  UNL     1      10.147  43.304  20.858  1.00  0.00     0.004 C 
HETATM    7  C10 UNL     1       9.870  43.663  22.282  1.00  0.00     0.007 C 
HETATM    8  C11 UNL     1       8.562  43.022  22.772  1.00  0.00     0.006 C 
HETATM    9  C12 UNL     1       8.723  41.562  22.520  1.00  0.00     0.003 C 
HETATM   10  C13 UNL     1       7.762  40.673  23.251  1.00  0.00    -0.002 C 
HETATM   11  C14 UNL     1       6.333  40.815  22.908  1.00  0.00     0.007 C 
HETATM   12  C15 UNL     1       5.497  40.120  23.947  1.00  0.00     0.026 C 
HETATM   13  C16 UNL     1       6.146  38.888  24.521  1.00  0.00     0.087 C 
HETATM   14  C25 UNL     1       7.172  38.282  23.635  1.00  0.00     0.034 C 
HETATM   15  C26 UNL     1       8.216  39.263  23.158  1.00  0.00     0.014 C 
HETATM   16  C27 UNL     1       8.597  38.894  21.775  1.00  0.00    -0.025 C 
HETATM   17  C28 UNL     1       8.872  39.791  20.849  1.00  0.00    -0.020 C 
HETATM   18  C29 UNL     1       8.840  41.250  21.058  1.00  0.00    -0.015 C 
HETATM   19  C30 UNL     1       7.690  41.785  20.243  1.00  0.00     0.021 C 
HETATM   20  C31 UNL     1      11.329  44.055  20.355  1.00  0.00    -0.015 C 
HETATM   21  C32 UNL     1      12.572  43.930  21.157  1.00  0.00     0.017 C 
HETATM   22  C33 UNL     1      10.956  45.547  20.347  1.00  0.00     0.017 C 
ENDROOT
BRANCH  13  23
HETATM   23  N2  UNL     1       5.091  37.919  24.743  1.00  0.00    -0.332 N 
HETATM   24  C17 UNL     1       4.857  37.316  25.999  1.00  0.00     0.361 C 
HETATM   25  O3  UNL     1       5.573  37.616  26.964  1.00  0.00    -0.238 OA
ATOM     26  H2  UNL     1       4.493  37.661  23.958  1.00  0.00     0.165 HD
BRANCH  24  27
HETATM   27  O4  UNL     1       3.849  36.394  26.195  1.00  0.00    -0.295 OA
BRANCH  27  28
HETATM   28  C18 UNL     1       2.496  36.644  26.090  1.00  0.00     0.181 C 
HETATM   29  C19 UNL     1       2.068  38.043  26.417  1.00  0.00     0.068 C 
HETATM   30  C20 UNL     1       1.024  38.280  25.318  1.00  0.00     0.126 C 
HETATM   31  C21 UNL     1      -0.135  37.360  25.509  1.00  0.00     0.036 C 
HETATM   32  O7  UNL     1       1.700  37.694  24.226  1.00  0.00    -0.361 OA
HETATM   33  C22 UNL     1       0.395  36.027  24.959  1.00  0.00     0.055 C 
HETATM   34  C23 UNL     1       1.868  36.397  24.767  1.00  0.00     0.175 C 
BRANCH  34  35
HETATM   35  C24 UNL     1       2.578  35.505  23.876  1.00  0.00     0.212 C 
HETATM   36  O5  UNL     1       2.514  34.240  23.956  1.00  0.00    -0.646 OA
HETATM   37  O6  UNL     1       3.372  36.023  22.881  1.00  0.00    -0.646 OA
ENDBRANCH  34  35
ENDBRANCH  27  28
ENDBRANCH  24  27
ENDBRANCH  13  23
BRANCH   1  38
HETATM   38  N1  UNL     1      10.909  44.565  17.997  1.00  0.00    -0.061 N 
ATOM     39  H12 UNL     1      11.267  45.520  18.022  1.00  0.00     0.278 HD
ATOM     40  H11 UNL     1       9.963  44.727  18.344  1.00  0.00     0.278 HD
BRANCH  38  41
HETATM   41  C3  UNL     1      10.874  44.077  16.657  1.00  0.00     0.343 C 
BRANCH  41  42
HETATM   42  C2  UNL     1       9.483  43.907  16.154  1.00  0.00     0.284 C 
HETATM   43  O2  UNL     1       9.215  44.280  14.980  1.00  0.00    -0.263 OA
BRANCH  42  44
HETATM   44  O1  UNL     1       8.453  43.359  16.899  1.00  0.00    -0.325 OA
HETATM   45  C1  UNL     1       7.879  42.113  16.490  1.00  0.00     0.213 C 
ENDBRANCH  42  44
ENDBRANCH  41  42
ENDBRANCH  38  41
ENDBRANCH   1  38
TORSDOF 8
ENDMDL
MODEL 4
REMARK VINA RESULT: -7.432099393      2.867     11.671
REMARK  8 active torsions:
REMARK  status: ('A' for Active; 'I' for Inactive)
REMARK    1  A    between atoms: O1_2  and  C2_3 
REMARK    2  A    between atoms: C2_3  and  C3_5 
REMARK    3  A    between atoms: C3_5  and  N1_6 
REMARK    4  A    between atoms: N1_6  and  C4_9 
REMARK    5  A    between atoms: C16_21  and  N2_22 
REMARK       I    between atoms: N2_22  and  C17_24 
REMARK    6  A    between atoms: C17_24  and  O4_26 
REMARK    7  A    between atoms: O4_26  and  C18_27 
REMARK    8  A    between atoms: C23_32  and  C24_33 
ROOT
HETATM    1  C4  UNL     1       5.793  38.373  26.078  1.00  0.00     0.194 C 
HETATM    2  C5  UNL     1       5.615  37.659  24.796  1.00  0.00     0.034 C 
HETATM    3  C6  UNL     1       6.446  38.162  23.649  1.00  0.00     0.012 C 
HETATM    4  C7  UNL     1       6.360  39.637  23.486  1.00  0.00    -0.029 C 
HETATM    5  C8  UNL     1       4.985  39.945  22.922  1.00  0.00     0.016 C 
HETATM    6  C9  UNL     1       6.606  40.350  24.790  1.00  0.00     0.004 C 
HETATM    7  C10 UNL     1       6.555  41.840  24.680  1.00  0.00     0.007 C 
HETATM    8  C11 UNL     1       7.536  42.353  23.615  1.00  0.00     0.006 C 
HETATM    9  C12 UNL     1       7.173  41.627  22.366  1.00  0.00     0.003 C 
HETATM   10  C13 UNL     1       7.715  42.216  21.098  1.00  0.00    -0.002 C 
HETATM   11  C14 UNL     1       9.184  42.228  20.945  1.00  0.00     0.007 C 
HETATM   12  C15 UNL     1       9.562  43.140  19.811  1.00  0.00     0.026 C 
HETATM   13  C16 UNL     1       8.560  43.154  18.686  1.00  0.00     0.087 C 
HETATM   14  C25 UNL     1       7.713  41.936  18.621  1.00  0.00     0.034 C 
HETATM   15  C26 UNL     1       7.043  41.594  19.930  1.00  0.00     0.014 C 
HETATM   16  C27 UNL     1       6.982  40.119  20.047  1.00  0.00    -0.025 C 
HETATM   17  C28 UNL     1       7.142  39.488  21.193  1.00  0.00    -0.020 C 
HETATM   18  C29 UNL     1       7.395  40.149  22.486  1.00  0.00    -0.015 C 
HETATM   19  C30 UNL     1       8.801  39.791  22.895  1.00  0.00     0.021 C 
HETATM   20  C31 UNL     1       5.767  39.885  25.927  1.00  0.00    -0.015 C 
HETATM   21  C32 UNL     1       4.355  40.342  25.927  1.00  0.00     0.017 C 
HETATM   22  C33 UNL     1       6.407  40.422  27.219  1.00  0.00     0.017 C 
ENDROOT
BRANCH  13  23
HETATM   23  N2  UNL     1       9.312  43.264  17.451  1.00  0.00    -0.332 N 
HETATM   24  C17 UNL     1       9.822  44.491  16.973  1.00  0.00     0.361 C 
HETATM   25  O3  UNL     1       9.629  45.529  17.622  1.00  0.00    -0.238 OA
ATOM     26  H2  UNL     1       9.480  42.419  16.905  1.00  0.00     0.165 HD
BRANCH  24  27
HETATM   27  O4  UNL     1      10.536  44.581  15.794  1.00  0.00    -0.295 OA
BRANCH  27  28
HETATM   28  C18 UNL     1      10.052  45.058  14.593  1.00  0.00     0.181 C 
HETATM   29  C19 UNL     1       8.561  45.194  14.502  1.00  0.00     0.068 C 
HETATM   30  C20 UNL     1       8.448  46.530  13.757  1.00  0.00     0.126 C 
HETATM   31  C21 UNL     1       9.008  46.395  12.382  1.00  0.00     0.036 C 
HETATM   32  O7  UNL     1       9.457  47.255  14.426  1.00  0.00    -0.361 OA
HETATM   33  C22 UNL     1      10.523  46.461  12.624  1.00  0.00     0.055 C 
HETATM   34  C23 UNL     1      10.541  46.389  14.153  1.00  0.00     0.175 C 
BRANCH  34  35
HETATM   35  C24 UNL     1      11.784  46.842  14.740  1.00  0.00     0.212 C 
HETATM   36  O5  UNL     1      11.843  47.640  15.724  1.00  0.00    -0.646 OA
HETATM   37  O6  UNL     1      12.981  46.402  14.228  1.00  0.00    -0.646 OA
ENDBRANCH  34  35
ENDBRANCH  27  28
ENDBRANCH  24  27
ENDBRANCH  13  23
BRANCH   1  38
HETATM   38  N1  UNL     1       6.893  37.942  26.904  1.00  0.00    -0.061 N 
ATOM     39  H12 UNL     1       6.989  38.549  27.719  1.00  0.00     0.278 HD
ATOM     40  H11 UNL     1       7.784  38.131  26.444  1.00  0.00     0.278 HD
BRANCH  38  41
HETATM   41  C3  UNL     1       6.816  36.575  27.304  1.00  0.00     0.343 C 
BRANCH  41  42
HETATM   42  C2  UNL     1       8.161  35.965  27.495  1.00  0.00     0.284 C 
HETATM   43  O2  UNL     1       8.936  36.470  28.351  1.00  0.00    -0.263 OA
BRANCH  42  44
HETATM   44  O1  UNL     1       8.621  34.870  26.787  1.00  0.00    -0.325 OA
HETATM   45  C1  UNL     1       9.475  33.922  27.439  1.00  0.00     0.213 C 
ENDBRANCH  42  44
ENDBRANCH  41  42
ENDBRANCH  38  41
ENDBRANCH   1  38
TORSDOF 8
ENDMDL
MODEL 5
REMARK VINA RESULT: -7.397374842      4.275     12.619
REMARK  8 active torsions:
REMARK  status: ('A' for Active; 'I' for Inactive)
REMARK    1  A    between atoms: O1_2  and  C2_3 
REMARK    2  A    between atoms: C2_3  and  C3_5 
REMARK    3  A    between atoms: C3_5  and  N1_6 
REMARK    4  A    between atoms: N1_6  and  C4_9 
REMARK    5  A    between atoms: C16_21  and  N2_22 
REMARK       I    between atoms: N2_22  and  C17_24 
REMARK    6  A    between atoms: C17_24  and  O4_26 
REMARK    7  A    between atoms: O4_26  and  C18_27 
REMARK    8  A    between atoms: C23_32  and  C24_33 
ROOT
HETATM    1  C4  UNL     1      -0.417  37.581  28.889  1.00  0.00     0.194 C 
HETATM    2  C5  UNL     1       0.412  38.753  29.242  1.00  0.00     0.034 C 
HETATM    3  C6  UNL     1       1.265  39.306  28.134  1.00  0.00     0.012 C 
HETATM    4  C7  UNL     1       2.050  38.253  27.439  1.00  0.00    -0.029 C 
HETATM    5  C8  UNL     1       3.157  37.823  28.385  1.00  0.00     0.016 C 
HETATM    6  C9  UNL     1       1.178  37.094  27.032  1.00  0.00     0.004 C 
HETATM    7  C10 UNL     1       1.912  36.013  26.306  1.00  0.00     0.007 C 
HETATM    8  C11 UNL     1       2.645  36.568  25.076  1.00  0.00     0.006 C 
HETATM    9  C12 UNL     1       3.511  37.663  25.597  1.00  0.00     0.003 C 
HETATM   10  C13 UNL     1       4.607  38.110  24.677  1.00  0.00    -0.002 C 
HETATM   11  C14 UNL     1       4.194  38.724  23.399  1.00  0.00     0.007 C 
HETATM   12  C15 UNL     1       5.375  38.795  22.471  1.00  0.00     0.026 C 
HETATM   13  C16 UNL     1       6.685  39.030  23.178  1.00  0.00     0.087 C 
HETATM   14  C25 UNL     1       6.543  39.672  24.509  1.00  0.00     0.034 C 
HETATM   15  C26 UNL     1       5.563  38.969  25.419  1.00  0.00     0.014 C 
HETATM   16  C27 UNL     1       4.871  39.994  26.232  1.00  0.00    -0.025 C 
HETATM   17  C28 UNL     1       3.598  39.903  26.560  1.00  0.00    -0.020 C 
HETATM   18  C29 UNL     1       2.709  38.792  26.171  1.00  0.00    -0.015 C 
HETATM   19  C30 UNL     1       1.699  39.355  25.204  1.00  0.00     0.021 C 
HETATM   20  C31 UNL     1       0.351  36.516  28.125  1.00  0.00    -0.015 C 
HETATM   21  C32 UNL     1       1.067  35.653  29.098  1.00  0.00     0.017 C 
HETATM   22  C33 UNL     1      -0.731  35.641  27.469  1.00  0.00     0.017 C 
ENDROOT
BRANCH  13  23
HETATM   23  N2  UNL     1       7.475  39.897  22.326  1.00  0.00    -0.332 N 
HETATM   24  C17 UNL     1       8.629  39.454  21.642  1.00  0.00     0.361 C 
HETATM   25  O3  UNL     1       8.997  38.277  21.763  1.00  0.00    -0.238 OA
ATOM     26  H2  UNL     1       7.186  40.869  22.215  1.00  0.00     0.165 HD
BRANCH  24  27
HETATM   27  O4  UNL     1       9.372  40.291  20.834  1.00  0.00    -0.295 OA
BRANCH  27  28
HETATM   28  C18 UNL     1       9.010  40.727  19.576  1.00  0.00     0.181 C 
HETATM   29  C19 UNL     1       8.221  39.752  18.754  1.00  0.00     0.068 C 
HETATM   30  C20 UNL     1       7.193  40.695  18.115  1.00  0.00     0.126 C 
HETATM   31  C21 UNL     1       7.880  41.655  17.203  1.00  0.00     0.036 C 
HETATM   32  O7  UNL     1       6.891  41.501  19.234  1.00  0.00    -0.361 OA
HETATM   33  C22 UNL     1       8.474  42.683  18.178  1.00  0.00     0.055 C 
HETATM   34  C23 UNL     1       8.199  41.968  19.503  1.00  0.00     0.175 C 
BRANCH  34  35
HETATM   35  C24 UNL     1       8.258  42.841  20.656  1.00  0.00     0.212 C 
HETATM   36  O5  UNL     1       9.244  43.598  20.911  1.00  0.00    -0.646 OA
HETATM   37  O6  UNL     1       7.205  42.878  21.539  1.00  0.00    -0.646 OA
ENDBRANCH  34  35
ENDBRANCH  27  28
ENDBRANCH  24  27
ENDBRANCH  13  23
BRANCH   1  38
HETATM   38  N1  UNL     1      -1.691  37.860  28.272  1.00  0.00    -0.061 N 
ATOM     39  H12 UNL     1      -1.912  37.151  27.572  1.00  0.00     0.278 HD
ATOM     40  H11 UNL     1      -1.627  38.682  27.671  1.00  0.00     0.278 HD
BRANCH  38  41
HETATM   41  C3  UNL     1      -2.765  38.000  29.201  1.00  0.00     0.343 C 
BRANCH  41  42
HETATM   42  C2  UNL     1      -3.765  36.904  29.077  1.00  0.00     0.284 C 
HETATM   43  O2  UNL     1      -4.334  36.729  27.966  1.00  0.00    -0.263 OA
BRANCH  42  44
HETATM   44  O1  UNL     1      -4.117  36.057  30.113  1.00  0.00    -0.325 OA
HETATM   45  C1  UNL     1      -5.313  35.277  30.005  1.00  0.00     0.213 C 
ENDBRANCH  42  44
ENDBRANCH  41  42
ENDBRANCH  38  41
ENDBRANCH   1  38
TORSDOF 8
ENDMDL
