MODEL 1
REMARK VINA RESULT: -7.089769622      0.000      0.000
REMARK  3 active torsions:
REMARK  status: ('A' for Active; 'I' for Inactive)
REMARK    1  A    between atoms: C4_6  and  C5_7 
REMARK    2  A    between atoms: N3_13  and  N4_14 
REMARK    3  A    between atoms: C7_16  and  C8_17 
ROOT
HETATM    1  C1  UNL     1     -20.891 102.343   1.488  1.00  0.00     0.091 C 
HETATM    2  C2  UNL     1     -22.251 101.725   1.660  1.00  0.00     0.103 A 
HETATM    3  N1  UNL     1     -22.651 100.853   0.803  1.00  0.00    -0.331 N 
ATOM      4  H1  UNL     1     -22.030 100.610   0.032  1.00  0.00     0.168 HD
HETATM    5  C3  UNL     1     -23.916 100.213   0.877  1.00  0.00     0.105 A 
HETATM    6  C4  UNL     1     -24.304  99.312  -0.027  1.00  0.00     0.037 C 
HETATM    7  N2  UNL     1     -24.762 100.572   1.961  1.00  0.00    -0.318 N 
ATOM      8  H2  UNL     1     -25.680 100.140   2.058  1.00  0.00     0.170 HD
HETATM    9  C6  UNL     1     -24.320 101.547   2.923  1.00  0.00     0.200 A 
HETATM   10  S1  UNL     1     -25.256 101.977   4.165  1.00  0.00    -0.038 SA
HETATM   11  N3  UNL     1     -23.028 102.145   2.775  1.00  0.00    -0.218 N 
ENDROOT
BRANCH  11  12
HETATM   12  N4  UNL     1     -22.522 103.088   3.648  1.00  0.00    -0.300 N 
HETATM   13  C7  UNL     1     -21.784 102.800   4.667  1.00  0.00     0.127 C 
ATOM     14  H4  UNL     1     -22.743 104.069   3.478  1.00  0.00     0.186 HD
BRANCH  13  15
HETATM   15  C8  UNL     1     -21.309 103.903   5.520  1.00  0.00     0.028 A 
HETATM   16  S2  UNL     1     -22.243 105.178   6.199  1.00  0.00    -0.093 SA
HETATM   17  C9  UNL     1     -21.007 106.007   7.023  1.00  0.00    -0.014 A 
HETATM   18  C10 UNL     1     -21.138 107.246   7.844  1.00  0.00     0.057 C 
HETATM   19  C11 UNL     1     -19.891 105.260   6.744  1.00  0.00    -0.042 A 
HETATM   20  C12 UNL     1     -18.562 105.705   7.325  1.00  0.00     0.050 C 
HETATM   21  C13 UNL     1     -20.049 104.180   5.973  1.00  0.00    -0.036 A 
HETATM   22  C14 UNL     1     -18.906 103.263   5.583  1.00  0.00     0.050 C 
ENDBRANCH  13  15
ENDBRANCH  11  12
BRANCH   6  23
HETATM   23  C5  UNL     1     -23.460  98.911  -1.165  1.00  0.00     0.145 C 
HETATM   24 CL1  UNL     1     -22.257  97.724  -0.569  1.00  0.00    -0.126 Cl
ENDBRANCH   6  23
TORSDOF 3
ENDMDL
MODEL 2
REMARK VINA RESULT: -7.003343306      4.651      7.721
REMARK  3 active torsions:
REMARK  status: ('A' for Active; 'I' for Inactive)
REMARK    1  A    between atoms: C4_6  and  C5_7 
REMARK    2  A    between atoms: N3_13  and  N4_14 
REMARK    3  A    between atoms: C7_16  and  C8_17 
ROOT
HETATM    1  C1  UNL     1     -27.696 103.108   1.793  1.00  0.00     0.091 C 
HETATM    2  C2  UNL     1     -27.109 103.844   2.965  1.00  0.00     0.103 A 
HETATM    3  N1  UNL     1     -27.799 104.775   3.523  1.00  0.00    -0.331 N 
ATOM      4  H1  UNL     1     -28.725 104.983   3.149  1.00  0.00     0.168 HD
HETATM    5  C3  UNL     1     -27.335 105.527   4.634  1.00  0.00     0.105 A 
HETATM    6  C4  UNL     1     -28.074 106.488   5.193  1.00  0.00     0.037 C 
HETATM    7  N2  UNL     1     -26.041 105.216   5.132  1.00  0.00    -0.318 N 
ATOM      8  H2  UNL     1     -25.664 105.730   5.929  1.00  0.00     0.170 HD
HETATM    9  C6  UNL     1     -25.264 104.177   4.512  1.00  0.00     0.200 A 
HETATM   10  S1  UNL     1     -23.792 103.799   5.054  1.00  0.00    -0.038 SA
HETATM   11  N3  UNL     1     -25.808 103.465   3.396  1.00  0.00    -0.218 N 
ENDROOT
BRANCH  11  12
HETATM   12  N4  UNL     1     -25.135 102.453   2.738  1.00  0.00    -0.300 N 
HETATM   13  C7  UNL     1     -24.397 102.641   1.696  1.00  0.00     0.127 C 
ATOM     14  H4  UNL     1     -25.226 101.503   3.097  1.00  0.00     0.186 HD
BRANCH  13  15
HETATM   15  C8  UNL     1     -23.734 101.474   1.090  1.00  0.00     0.028 A 
HETATM   16  S2  UNL     1     -24.482 100.083   0.406  1.00  0.00    -0.093 SA
HETATM   17  C9  UNL     1     -23.086  99.230  -0.061  1.00  0.00    -0.014 A 
HETATM   18  C10 UNL     1     -23.019  97.900  -0.735  1.00  0.00     0.057 C 
HETATM   19  C11 UNL     1     -22.066 100.060   0.333  1.00  0.00    -0.042 A 
HETATM   20  C12 UNL     1     -20.638  99.620   0.074  1.00  0.00     0.050 C 
HETATM   21  C13 UNL     1     -22.402 101.211   0.922  1.00  0.00    -0.036 A 
HETATM   22  C14 UNL     1     -21.384 102.224   1.408  1.00  0.00     0.050 C 
ENDBRANCH  13  15
ENDBRANCH  11  12
BRANCH   6  23
HETATM   23  C5  UNL     1     -29.418 106.842   4.708  1.00  0.00     0.145 C 
HETATM   24 CL1  UNL     1     -30.594 105.733   5.482  1.00  0.00    -0.126 Cl
ENDBRANCH   6  23
TORSDOF 3
ENDMDL
MODEL 3
REMARK VINA RESULT: -6.820792047      1.272      1.376
REMARK  3 active torsions:
REMARK  status: ('A' for Active; 'I' for Inactive)
REMARK    1  A    between atoms: C4_6  and  C5_7 
REMARK    2  A    between atoms: N3_13  and  N4_14 
REMARK    3  A    between atoms: C7_16  and  C8_17 
ROOT
HETATM    1  C1  UNL     1     -21.122 102.604   2.647  1.00  0.00     0.091 C 
HETATM    2  C2  UNL     1     -22.501 102.005   2.661  1.00  0.00     0.103 A 
HETATM    3  N1  UNL     1     -22.869 101.268   1.674  1.00  0.00    -0.331 N 
ATOM      4  H1  UNL     1     -22.209 101.114   0.912  1.00  0.00     0.168 HD
HETATM    5  C3  UNL     1     -24.147 100.657   1.593  1.00  0.00     0.105 A 
HETATM    6  C4  UNL     1     -24.502  99.896   0.555  1.00  0.00     0.037 C 
HETATM    7  N2  UNL     1     -25.046 100.890   2.669  1.00  0.00    -0.318 N 
ATOM      8  H2  UNL     1     -25.977 100.473   2.657  1.00  0.00     0.170 HD
HETATM    9  C6  UNL     1     -24.641 101.714   3.776  1.00  0.00     0.200 A 
HETATM   10  S1  UNL     1     -25.637 101.998   5.014  1.00  0.00    -0.038 SA
HETATM   11  N3  UNL     1     -23.331 102.292   3.780  1.00  0.00    -0.218 N 
ENDROOT
BRANCH  11  12
HETATM   12  N4  UNL     1     -22.857 103.095   4.799  1.00  0.00    -0.300 N 
HETATM   13  C7  UNL     1     -22.891 104.385   4.771  1.00  0.00     0.127 C 
ATOM     14  H4  UNL     1     -22.457 102.643   5.621  1.00  0.00     0.186 HD
BRANCH  13  15
HETATM   15  C8  UNL     1     -22.351 105.124   5.925  1.00  0.00     0.028 A 
HETATM   16  S2  UNL     1     -23.195 105.616   7.340  1.00  0.00    -0.093 SA
HETATM   17  C9  UNL     1     -21.918 106.384   8.161  1.00  0.00    -0.014 A 
HETATM   18  C10 UNL     1     -21.970 107.052   9.495  1.00  0.00     0.057 C 
HETATM   19  C11 UNL     1     -20.859 106.235   7.301  1.00  0.00    -0.042 A 
HETATM   20  C12 UNL     1     -19.516 106.809   7.706  1.00  0.00     0.050 C 
HETATM   21  C13 UNL     1     -21.084 105.586   6.155  1.00  0.00    -0.036 A 
HETATM   22  C14 UNL     1     -20.011 105.347   5.111  1.00  0.00     0.050 C 
ENDBRANCH  13  15
ENDBRANCH  11  12
BRANCH   6  23
HETATM   23  C5  UNL     1     -23.602  99.630  -0.580  1.00  0.00     0.145 C 
HETATM   24 CL1  UNL     1     -23.202  97.883  -0.569  1.00  0.00    -0.126 Cl
ENDBRANCH   6  23
TORSDOF 3
ENDMDL
MODEL 4
REMARK VINA RESULT: -6.742779118      1.181      1.912
REMARK  3 active torsions:
REMARK  status: ('A' for Active; 'I' for Inactive)
REMARK    1  A    between atoms: C4_6  and  C5_7 
REMARK    2  A    between atoms: N3_13  and  N4_14 
REMARK    3  A    between atoms: C7_16  and  C8_17 
ROOT
HETATM    1  C1  UNL     1     -21.069 102.785   1.872  1.00  0.00     0.091 C 
HETATM    2  C2  UNL     1     -22.398 102.097   2.018  1.00  0.00     0.103 A 
HETATM    3  N1  UNL     1     -22.728 101.193   1.166  1.00  0.00    -0.331 N 
ATOM      4  H1  UNL     1     -22.073 100.973   0.415  1.00  0.00     0.168 HD
HETATM    5  C3  UNL     1     -23.958 100.487   1.217  1.00  0.00     0.105 A 
HETATM    6  C4  UNL     1     -24.273  99.553   0.317  1.00  0.00     0.037 C 
HETATM    7  N2  UNL     1     -24.850 100.816   2.273  1.00  0.00    -0.318 N 
ATOM      8  H2  UNL     1     -25.747 100.336   2.352  1.00  0.00     0.170 HD
HETATM    9  C6  UNL     1     -24.488 101.826   3.230  1.00  0.00     0.200 A 
HETATM   10  S1  UNL     1     -25.478 102.223   4.441  1.00  0.00    -0.038 SA
HETATM   11  N3  UNL     1     -23.226 102.491   3.106  1.00  0.00    -0.218 N 
ENDROOT
BRANCH  11  12
HETATM   12  N4  UNL     1     -22.794 103.473   3.978  1.00  0.00    -0.300 N 
HETATM   13  C7  UNL     1     -22.300 103.229   5.145  1.00  0.00     0.127 C 
ATOM     14  H4  UNL     1     -22.870 104.445   3.681  1.00  0.00     0.186 HD
BRANCH  13  15
HETATM   15  C8  UNL     1     -21.878 104.370   5.976  1.00  0.00     0.028 A 
HETATM   16  S2  UNL     1     -20.278 104.956   6.213  1.00  0.00    -0.093 SA
HETATM   17  C9  UNL     1     -20.619 106.248   7.266  1.00  0.00    -0.014 A 
HETATM   18  C10 UNL     1     -19.645 107.201   7.875  1.00  0.00     0.057 C 
HETATM   19  C11 UNL     1     -21.982 106.186   7.405  1.00  0.00    -0.042 A 
HETATM   20  C12 UNL     1     -22.663 107.208   8.295  1.00  0.00     0.050 C 
HETATM   21  C13 UNL     1     -22.626 105.221   6.741  1.00  0.00    -0.036 A 
HETATM   22  C14 UNL     1     -24.129 105.032   6.801  1.00  0.00     0.050 C 
ENDBRANCH  13  15
ENDBRANCH  11  12
BRANCH   6  23
HETATM   23  C5  UNL     1     -23.378  99.182  -0.792  1.00  0.00     0.145 C 
HETATM   24 CL1  UNL     1     -22.109  98.098  -0.138  1.00  0.00    -0.126 Cl
ENDBRANCH   6  23
TORSDOF 3
ENDMDL
MODEL 5
REMARK VINA RESULT: -6.608300021      4.871      7.874
REMARK  3 active torsions:
REMARK  status: ('A' for Active; 'I' for Inactive)
REMARK    1  A    between atoms: C4_6  and  C5_7 
REMARK    2  A    between atoms: N3_13  and  N4_14 
REMARK    3  A    between atoms: C7_16  and  C8_17 
ROOT
HETATM    1  C1  UNL     1     -27.538 103.133   1.703  1.00  0.00     0.091 C 
HETATM    2  C2  UNL     1     -27.085 103.933   2.893  1.00  0.00     0.103 A 
HETATM    3  N1  UNL     1     -27.875 104.821   3.383  1.00  0.00    -0.331 N 
ATOM      4  H1  UNL     1     -28.787 104.952   2.946  1.00  0.00     0.168 HD
HETATM    5  C3  UNL     1     -27.541 105.626   4.503  1.00  0.00     0.105 A 
HETATM    6  C4  UNL     1     -28.382 106.540   4.991  1.00  0.00     0.037 C 
HETATM    7  N2  UNL     1     -26.264 105.421   5.091  1.00  0.00    -0.318 N 
ATOM      8  H2  UNL     1     -25.977 105.976   5.898  1.00  0.00     0.170 HD
HETATM    9  C6  UNL     1     -25.375 104.430   4.547  1.00  0.00     0.200 A 
HETATM   10  S1  UNL     1     -23.918 104.172   5.191  1.00  0.00    -0.038 SA
HETATM   11  N3  UNL     1     -25.790 103.659   3.415  1.00  0.00    -0.218 N 
ENDROOT
BRANCH  11  12
HETATM   12  N4  UNL     1     -25.004 102.687   2.826  1.00  0.00    -0.300 N 
HETATM   13  C7  UNL     1     -24.460 102.812   1.663  1.00  0.00     0.127 C 
ATOM     14  H4  UNL     1     -24.845 101.821   3.341  1.00  0.00     0.186 HD
BRANCH  13  15
HETATM   15  C8  UNL     1     -23.644 101.698   1.150  1.00  0.00     0.028 A 
HETATM   16  S2  UNL     1     -21.927 101.609   1.069  1.00  0.00    -0.093 SA
HETATM   17  C9  UNL     1     -21.771 100.060   0.382  1.00  0.00    -0.014 A 
HETATM   18  C10 UNL     1     -20.508  99.346   0.035  1.00  0.00     0.057 C 
HETATM   19  C11 UNL     1     -23.073  99.652   0.233  1.00  0.00    -0.042 A 
HETATM   20  C12 UNL     1     -23.335  98.284  -0.365  1.00  0.00     0.050 C 
HETATM   21  C13 UNL     1     -24.031 100.494   0.629  1.00  0.00    -0.036 A 
HETATM   22  C14 UNL     1     -25.511 100.178   0.525  1.00  0.00     0.050 C 
ENDBRANCH  13  15
ENDBRANCH  11  12
BRANCH   6  23
HETATM   23  C5  UNL     1     -29.714 106.785   4.412  1.00  0.00     0.145 C 
HETATM   24 CL1  UNL     1     -30.915 105.879   5.387  1.00  0.00    -0.126 Cl
ENDBRANCH   6  23
TORSDOF 3
ENDMDL
