MODEL 1
REMARK VINA RESULT: -7.740163869      0.000      0.000
REMARK  7 active torsions:
REMARK  status: ('A' for Active; 'I' for Inactive)
REMARK    1  A    between atoms: C6_6  and  N1_7 
REMARK    2  A    between atoms: N1_7  and  C7_9 
REMARK    3  A    between atoms: C7_9  and  S1_10 
REMARK    4  A    between atoms: S1_10  and  C8_11 
REMARK    5  A    between atoms: C8_11  and  N2_12 
REMARK    6  A    between atoms: C18_24  and  N4_25 
REMARK    7  A    between atoms: N4_25  and  N5_27 
ROOT
HETATM    1  N2  UNL     1      48.349  66.058  44.444  1.00  0.00    -0.208 N 
HETATM    2  C9  UNL     1      49.187  66.846  43.576  1.00  0.00     0.142 C 
HETATM    3  C10 UNL     1      49.315  68.231  44.235  1.00  0.00     0.023 C 
HETATM    4  C11 UNL     1      50.249  68.170  45.403  1.00  0.00     0.033 C 
HETATM    5  C12 UNL     1      49.566  68.005  46.714  1.00  0.00     0.047 C 
HETATM    6  C13 UNL     1      48.631  69.147  47.042  1.00  0.00     0.031 C 
HETATM    7  C14 UNL     1      49.424  70.412  47.140  1.00  0.00     0.002 C 
HETATM    8  C15 UNL     1      50.350  70.260  48.354  1.00  0.00     0.000 C 
HETATM    9  C16 UNL     1      51.313  69.114  48.145  1.00  0.00     0.002 C 
HETATM   10  C17 UNL     1      50.630  67.835  47.774  1.00  0.00     0.031 C 
HETATM   11  N3  UNL     1      48.784  66.795  46.712  1.00  0.00    -0.216 N 
ATOM     12  H3  UNL     1      48.570  66.491  47.662  1.00  0.00     0.178 HD
HETATM   13  C18 UNL     1      48.290  66.008  45.858  1.00  0.00     0.691 C 
ENDROOT
BRANCH   1  14
HETATM   14  C8  UNL     1      47.432  65.180  43.773  1.00  0.00     0.216 C 
BRANCH  14  15
HETATM   15  S1  UNL     1      48.019  64.578  42.200  1.00  0.00    -0.129 SA
BRANCH  15  16
HETATM   16  C7  UNL     1      48.075  62.801  42.083  1.00  0.00     0.197 C 
BRANCH  16  17
HETATM   17  N1  UNL     1      46.749  62.211  42.042  1.00  0.00    -0.368 N 
ATOM     18  H1  UNL     1      46.066  62.455  42.759  1.00  0.00     0.161 HD
BRANCH  17  19
HETATM   19  C6  UNL     1      46.393  61.302  41.015  1.00  0.00     0.101 A 
HETATM   20  C5  UNL     1      46.697  61.612  39.686  1.00  0.00     0.048 A 
HETATM   21  C4  UNL     1      46.364  60.749  38.674  1.00  0.00     0.006 A 
HETATM   22  C3  UNL     1      45.724  59.573  39.006  1.00  0.00     0.025 A 
HETATM   23  C2  UNL     1      45.425  59.265  40.314  1.00  0.00     0.007 A 
HETATM   24  C1  UNL     1      44.730  57.977  40.632  1.00  0.00     0.068 C 
HETATM   25  N6  UNL     1      45.770  60.141  41.274  1.00  0.00    -0.347 N 
ATOM     26  H6  UNL     1      45.547  59.913  42.244  1.00  0.00     0.167 HD
ENDBRANCH  17  19
ENDBRANCH  16  17
ENDBRANCH  15  16
ENDBRANCH  14  15
ENDBRANCH   1  14
BRANCH  13  27
HETATM   27  N4  UNL     1      47.561  64.895  46.362  1.00  0.00    -0.139 N 
ATOM     28  H4  UNL     1      47.908  63.953  46.182  1.00  0.00     0.205 HD
BRANCH  27  29
HETATM   29  N5  UNL     1      46.478  65.042  47.039  1.00  0.00    -0.331 N 
ATOM     30  H52 UNL     1      45.777  65.694  46.685  1.00  0.00     0.177 HD
ATOM     31  H51 UNL     1      46.308  64.530  47.904  1.00  0.00     0.177 HD
ENDBRANCH  27  29
ENDBRANCH  13  27
TORSDOF 7
ENDMDL
MODEL 2
REMARK VINA RESULT: -7.734528480      7.551     13.643
REMARK  7 active torsions:
REMARK  status: ('A' for Active; 'I' for Inactive)
REMARK    1  A    between atoms: C6_6  and  N1_7 
REMARK    2  A    between atoms: N1_7  and  C7_9 
REMARK    3  A    between atoms: C7_9  and  S1_10 
REMARK    4  A    between atoms: S1_10  and  C8_11 
REMARK    5  A    between atoms: C8_11  and  N2_12 
REMARK    6  A    between atoms: C18_24  and  N4_25 
REMARK    7  A    between atoms: N4_25  and  N5_27 
ROOT
HETATM    1  N2  UNL     1      49.029  57.830  34.857  1.00  0.00    -0.208 N 
HETATM    2  C9  UNL     1      48.751  58.050  33.460  1.00  0.00     0.142 C 
HETATM    3  C10 UNL     1      49.048  56.722  32.743  1.00  0.00     0.023 C 
HETATM    4  C11 UNL     1      47.957  55.732  33.003  1.00  0.00     0.033 C 
HETATM    5  C12 UNL     1      48.252  54.786  34.112  1.00  0.00     0.047 C 
HETATM    6  C13 UNL     1      49.475  53.935  33.855  1.00  0.00     0.031 C 
HETATM    7  C14 UNL     1      49.237  53.094  32.641  1.00  0.00     0.002 C 
HETATM    8  C15 UNL     1      48.108  52.117  32.995  1.00  0.00     0.000 C 
HETATM    9  C16 UNL     1      46.835  52.869  33.306  1.00  0.00     0.002 C 
HETATM   10  C17 UNL     1      47.023  53.936  34.339  1.00  0.00     0.031 C 
HETATM   11  N3  UNL     1      48.484  55.516  35.333  1.00  0.00    -0.216 N 
ATOM     12  H3  UNL     1      48.373  54.915  36.150  1.00  0.00     0.178 HD
HETATM   13  C18 UNL     1      48.787  56.694  35.668  1.00  0.00     0.691 C 
ENDROOT
BRANCH   1  14
HETATM   14  C8  UNL     1      49.641  58.935  35.538  1.00  0.00     0.216 C 
BRANCH  14  15
HETATM   15  S1  UNL     1      48.742  60.469  35.395  1.00  0.00    -0.129 SA
BRANCH  15  16
HETATM   16  C7  UNL     1      48.505  61.314  36.945  1.00  0.00     0.197 C 
BRANCH  16  17
HETATM   17  N1  UNL     1      47.111  61.339  37.348  1.00  0.00    -0.368 N 
ATOM     18  H1  UNL     1      46.402  61.668  36.693  1.00  0.00     0.161 HD
BRANCH  17  19
HETATM   19  C6  UNL     1      46.724  60.911  38.643  1.00  0.00     0.101 A 
HETATM   20  C5  UNL     1      47.046  61.700  39.753  1.00  0.00     0.048 A 
HETATM   21  C4  UNL     1      46.683  61.308  41.015  1.00  0.00     0.006 A 
HETATM   22  C3  UNL     1      45.996  60.120  41.157  1.00  0.00     0.025 A 
HETATM   23  C2  UNL     1      45.678  59.343  40.066  1.00  0.00     0.007 A 
HETATM   24  C1  UNL     1      44.930  58.060  40.262  1.00  0.00     0.068 C 
HETATM   25  N6  UNL     1      46.054  59.766  38.845  1.00  0.00    -0.347 N 
ATOM     26  H6  UNL     1      45.819  59.189  38.036  1.00  0.00     0.167 HD
ENDBRANCH  17  19
ENDBRANCH  16  17
ENDBRANCH  15  16
ENDBRANCH  14  15
ENDBRANCH   1  14
BRANCH  13  27
HETATM   27  N4  UNL     1      48.911  56.949  37.062  1.00  0.00    -0.139 N 
ATOM     28  H4  UNL     1      48.630  57.859  37.426  1.00  0.00     0.205 HD
BRANCH  27  29
HETATM   29  N5  UNL     1      49.365  56.064  37.877  1.00  0.00    -0.331 N 
ATOM     30  H52 UNL     1      50.187  55.531  37.595  1.00  0.00     0.177 HD
ATOM     31  H51 UNL     1      48.929  55.890  38.783  1.00  0.00     0.177 HD
ENDBRANCH  27  29
ENDBRANCH  13  27
TORSDOF 7
ENDMDL
MODEL 3
REMARK VINA RESULT: -7.515608659      7.495     11.646
REMARK  7 active torsions:
REMARK  status: ('A' for Active; 'I' for Inactive)
REMARK    1  A    between atoms: C6_6  and  N1_7 
REMARK    2  A    between atoms: N1_7  and  C7_9 
REMARK    3  A    between atoms: C7_9  and  S1_10 
REMARK    4  A    between atoms: S1_10  and  C8_11 
REMARK    5  A    between atoms: C8_11  and  N2_12 
REMARK    6  A    between atoms: C18_24  and  N4_25 
REMARK    7  A    between atoms: N4_25  and  N5_27 
ROOT
HETATM    1  N2  UNL     1      48.937  61.770  34.618  1.00  0.00    -0.208 N 
HETATM    2  C9  UNL     1      50.257  61.726  35.193  1.00  0.00     0.142 C 
HETATM    3  C10 UNL     1      50.381  60.362  35.894  1.00  0.00     0.023 C 
HETATM    4  C11 UNL     1      50.574  59.272  34.886  1.00  0.00     0.033 C 
HETATM    5  C12 UNL     1      49.318  58.565  34.514  1.00  0.00     0.047 C 
HETATM    6  C13 UNL     1      48.657  57.877  35.687  1.00  0.00     0.031 C 
HETATM    7  C14 UNL     1      49.583  56.831  36.223  1.00  0.00     0.002 C 
HETATM    8  C15 UNL     1      49.723  55.764  35.129  1.00  0.00     0.000 C 
HETATM    9  C16 UNL     1      50.348  56.357  33.888  1.00  0.00     0.002 C 
HETATM   10  C17 UNL     1      49.645  57.588  33.409  1.00  0.00     0.031 C 
HETATM   11  N3  UNL     1      48.367  59.503  33.973  1.00  0.00    -0.216 N 
ATOM     12  H3  UNL     1      47.648  59.028  33.429  1.00  0.00     0.178 HD
HETATM   13  C18 UNL     1      48.181  60.751  33.988  1.00  0.00     0.691 C 
ENDROOT
BRANCH   1  14
HETATM   14  C8  UNL     1      48.284  63.047  34.687  1.00  0.00     0.216 C 
BRANCH  14  15
HETATM   15  S1  UNL     1      48.029  63.646  36.347  1.00  0.00    -0.129 SA
BRANCH  15  16
HETATM   16  C7  UNL     1      46.645  62.895  37.180  1.00  0.00     0.197 C 
BRANCH  16  17
HETATM   17  N1  UNL     1      46.873  61.491  37.468  1.00  0.00    -0.368 N 
ATOM     18  H1  UNL     1      47.263  60.885  36.746  1.00  0.00     0.161 HD
BRANCH  17  19
HETATM   19  C6  UNL     1      46.561  60.953  38.741  1.00  0.00     0.101 A 
HETATM   20  C5  UNL     1      46.954  61.641  39.894  1.00  0.00     0.048 A 
HETATM   21  C4  UNL     1      46.663  61.142  41.137  1.00  0.00     0.006 A 
HETATM   22  C3  UNL     1      45.976  59.949  41.216  1.00  0.00     0.025 A 
HETATM   23  C2  UNL     1      45.587  59.270  40.083  1.00  0.00     0.007 A 
HETATM   24  C1  UNL     1      44.842  57.978  40.212  1.00  0.00     0.068 C 
HETATM   25  N6  UNL     1      45.894  59.796  38.883  1.00  0.00    -0.347 N 
ATOM     26  H6  UNL     1      45.606  59.293  38.043  1.00  0.00     0.167 HD
ENDBRANCH  17  19
ENDBRANCH  16  17
ENDBRANCH  15  16
ENDBRANCH  14  15
ENDBRANCH   1  14
BRANCH  13  27
HETATM   27  N4  UNL     1      47.050  61.235  33.273  1.00  0.00    -0.139 N 
ATOM     28  H4  UNL     1      46.827  62.230  33.314  1.00  0.00     0.205 HD
BRANCH  27  29
HETATM   29  N5  UNL     1      46.301  60.457  32.577  1.00  0.00    -0.331 N 
ATOM     30  H52 UNL     1      46.716  59.606  32.198  1.00  0.00     0.177 HD
ATOM     31  H51 UNL     1      45.319  60.669  32.400  1.00  0.00     0.177 HD
ENDBRANCH  27  29
ENDBRANCH  13  27
TORSDOF 7
ENDMDL
MODEL 4
REMARK VINA RESULT: -7.357991802      0.904      1.579
REMARK  7 active torsions:
REMARK  status: ('A' for Active; 'I' for Inactive)
REMARK    1  A    between atoms: C6_6  and  N1_7 
REMARK    2  A    between atoms: N1_7  and  C7_9 
REMARK    3  A    between atoms: C7_9  and  S1_10 
REMARK    4  A    between atoms: S1_10  and  C8_11 
REMARK    5  A    between atoms: C8_11  and  N2_12 
REMARK    6  A    between atoms: C18_24  and  N4_25 
REMARK    7  A    between atoms: N4_25  and  N5_27 
ROOT
HETATM    1  N2  UNL     1      48.076  65.856  43.929  1.00  0.00    -0.208 N 
HETATM    2  C9  UNL     1      49.040  66.587  43.146  1.00  0.00     0.142 C 
HETATM    3  C10 UNL     1      49.211  67.954  43.831  1.00  0.00     0.023 C 
HETATM    4  C11 UNL     1      50.035  67.817  45.073  1.00  0.00     0.033 C 
HETATM    5  C12 UNL     1      49.232  67.694  46.319  1.00  0.00     0.047 C 
HETATM    6  C13 UNL     1      48.358  68.899  46.582  1.00  0.00     0.031 C 
HETATM    7  C14 UNL     1      49.229  70.102  46.764  1.00  0.00     0.002 C 
HETATM    8  C15 UNL     1      50.034  69.874  48.049  1.00  0.00     0.000 C 
HETATM    9  C16 UNL     1      50.926  68.662  47.908  1.00  0.00     0.002 C 
HETATM   10  C17 UNL     1      50.186  67.440  47.464  1.00  0.00     0.031 C 
HETATM   11  N3  UNL     1      48.367  66.544  46.236  1.00  0.00    -0.216 N 
ATOM     12  H3  UNL     1      48.052  66.251  47.160  1.00  0.00     0.178 HD
HETATM   13  C18 UNL     1      47.893  65.801  45.333  1.00  0.00     0.691 C 
ENDROOT
BRANCH   1  14
HETATM   14  C8  UNL     1      47.159  65.053  43.171  1.00  0.00     0.216 C 
BRANCH  14  15
HETATM   15  S1  UNL     1      47.806  63.461  42.695  1.00  0.00    -0.129 SA
BRANCH  15  16
HETATM   16  C7  UNL     1      46.740  62.095  43.107  1.00  0.00     0.197 C 
BRANCH  16  17
HETATM   17  N1  UNL     1      45.686  61.906  42.127  1.00  0.00    -0.368 N 
ATOM     18  H1  UNL     1      44.789  62.374  42.255  1.00  0.00     0.161 HD
BRANCH  17  19
HETATM   19  C6  UNL     1      45.891  61.078  40.995  1.00  0.00     0.101 A 
HETATM   20  C5  UNL     1      45.396  59.770  41.001  1.00  0.00     0.048 A 
HETATM   21  C4  UNL     1      45.581  58.950  39.918  1.00  0.00     0.006 A 
HETATM   22  C3  UNL     1      46.265  59.451  38.830  1.00  0.00     0.025 A 
HETATM   23  C2  UNL     1      46.752  60.739  38.822  1.00  0.00     0.007 A 
HETATM   24  C1  UNL     1      47.489  61.246  37.621  1.00  0.00     0.068 C 
HETATM   25  N6  UNL     1      46.548  61.509  39.906  1.00  0.00    -0.347 N 
ATOM     26  H6  UNL     1      46.910  62.463  39.901  1.00  0.00     0.167 HD
ENDBRANCH  17  19
ENDBRANCH  16  17
ENDBRANCH  15  16
ENDBRANCH  14  15
ENDBRANCH   1  14
BRANCH  13  27
HETATM   27  N4  UNL     1      47.044  64.742  45.758  1.00  0.00    -0.139 N 
ATOM     28  H4  UNL     1      46.863  63.966  45.121  1.00  0.00     0.205 HD
BRANCH  27  29
HETATM   29  N5  UNL     1      46.500  64.733  46.923  1.00  0.00    -0.331 N 
ATOM     30  H52 UNL     1      47.105  64.606  47.733  1.00  0.00     0.177 HD
ATOM     31  H51 UNL     1      45.494  64.848  47.049  1.00  0.00     0.177 HD
ENDBRANCH  27  29
ENDBRANCH  13  27
TORSDOF 7
ENDMDL
MODEL 5
REMARK VINA RESULT: -7.353220647      3.433      5.064
REMARK  7 active torsions:
REMARK  status: ('A' for Active; 'I' for Inactive)
REMARK    1  A    between atoms: C6_6  and  N1_7 
REMARK    2  A    between atoms: N1_7  and  C7_9 
REMARK    3  A    between atoms: C7_9  and  S1_10 
REMARK    4  A    between atoms: S1_10  and  C8_11 
REMARK    5  A    between atoms: C8_11  and  N2_12 
REMARK    6  A    between atoms: C18_24  and  N4_25 
REMARK    7  A    between atoms: N4_25  and  N5_27 
ROOT
HETATM    1  N2  UNL     1      50.273  69.372  46.528  1.00  0.00    -0.208 N 
HETATM    2  C9  UNL     1      51.601  68.867  46.288  1.00  0.00     0.142 C 
HETATM    3  C10 UNL     1      52.428  69.201  47.542  1.00  0.00     0.023 C 
HETATM    4  C11 UNL     1      52.071  68.278  48.664  1.00  0.00     0.033 C 
HETATM    5  C12 UNL     1      51.070  68.839  49.612  1.00  0.00     0.047 C 
HETATM    6  C13 UNL     1      51.548  70.097  50.300  1.00  0.00     0.031 C 
HETATM    7  C14 UNL     1      52.761  69.776  51.115  1.00  0.00     0.002 C 
HETATM    8  C15 UNL     1      52.304  68.829  52.232  1.00  0.00     0.000 C 
HETATM    9  C16 UNL     1      51.772  67.540  51.649  1.00  0.00     0.002 C 
HETATM   10  C17 UNL     1      50.719  67.759  50.609  1.00  0.00     0.031 C 
HETATM   11  N3  UNL     1      49.856  69.167  48.908  1.00  0.00    -0.216 N 
ATOM     12  H3  UNL     1      49.067  69.246  49.549  1.00  0.00     0.178 HD
HETATM   13  C18 UNL     1      49.502  69.383  47.717  1.00  0.00     0.691 C 
ENDROOT
BRANCH   1  14
HETATM   14  C8  UNL     1      49.626  69.952  45.386  1.00  0.00     0.216 C 
BRANCH  14  15
HETATM   15  S1  UNL     1      50.320  69.451  43.822  1.00  0.00    -0.129 SA
BRANCH  15  16
HETATM   16  C7  UNL     1      49.627  67.943  43.175  1.00  0.00     0.197 C 
BRANCH  16  17
HETATM   17  N1  UNL     1      49.002  67.138  44.209  1.00  0.00    -0.368 N 
ATOM     18  H1  UNL     1      49.007  67.465  45.175  1.00  0.00     0.161 HD
BRANCH  17  19
HETATM   19  C6  UNL     1      48.384  65.903  43.889  1.00  0.00     0.101 A 
HETATM   20  C5  UNL     1      48.401  65.447  42.567  1.00  0.00     0.048 A 
HETATM   21  C4  UNL     1      47.811  64.256  42.232  1.00  0.00     0.006 A 
HETATM   22  C3  UNL     1      47.204  63.526  43.232  1.00  0.00     0.025 A 
HETATM   23  C2  UNL     1      47.186  63.972  44.535  1.00  0.00     0.007 A 
HETATM   24  C1  UNL     1      46.517  63.149  45.592  1.00  0.00     0.068 C 
HETATM   25  N6  UNL     1      47.777  65.147  44.818  1.00  0.00    -0.347 N 
ATOM     26  H6  UNL     1      47.764  65.479  45.783  1.00  0.00     0.167 HD
ENDBRANCH  17  19
ENDBRANCH  16  17
ENDBRANCH  15  16
ENDBRANCH  14  15
ENDBRANCH   1  14
BRANCH  13  27
HETATM   27  N4  UNL     1      48.128  69.683  47.504  1.00  0.00    -0.139 N 
ATOM     28  H4  UNL     1      47.762  69.683  46.552  1.00  0.00     0.205 HD
BRANCH  27  29
HETATM   29  N5  UNL     1      47.333  69.955  48.477  1.00  0.00    -0.331 N 
ATOM     30  H52 UNL     1      47.471  70.832  48.978  1.00  0.00     0.177 HD
ATOM     31  H51 UNL     1      46.581  69.322  48.753  1.00  0.00     0.177 HD
ENDBRANCH  27  29
ENDBRANCH  13  27
TORSDOF 7
ENDMDL
