MODEL 1
REMARK VINA RESULT: -5.686213494      0.000      0.000
REMARK  3 active torsions:
REMARK  status: ('A' for Active; 'I' for Inactive)
REMARK    1  A    between atoms: C4_4  and  C5_5 
REMARK    2  A    between atoms: C5_5  and  O1_6 
REMARK    3  A    between atoms: C7_9  and  C9_11 
ROOT
HETATM    1  C9  UNL     1     -10.830  10.865  -0.245  1.00  0.00     0.161 C 
HETATM    2  C10 UNL     1     -10.548  10.756  -1.650  1.00  0.00     0.062 C 
HETATM    3  N1  UNL     1     -10.323  10.648  -2.777  1.00  0.00    -0.197 NA
ENDROOT
BRANCH   1   4
HETATM    4  C7  UNL     1     -12.043  11.701   0.076  1.00  0.00     0.077 C 
HETATM    5  C6  UNL     1     -12.110  11.922   1.585  1.00  0.00     0.111 C 
HETATM    6  C5  UNL     1     -13.579  11.682   1.962  1.00  0.00     0.186 C 
HETATM    7  O3  UNL     1     -13.815  10.346   1.589  1.00  0.00    -0.327 OA
HETATM    8  C11 UNL     1     -13.876  10.282   0.221  1.00  0.00     0.343 C 
HETATM    9  O2  UNL     1     -13.202  11.239  -0.460  1.00  0.00    -0.355 OA
HETATM   10  C8  UNL     1     -11.778  13.089  -0.526  1.00  0.00     0.047 C 
BRANCH   6  11
HETATM   11  C4  UNL     1     -13.805  11.881   3.398  1.00  0.00     0.042 C 
HETATM   12  C2  UNL     1     -14.945  11.552   3.942  1.00  0.00    -0.086 C 
HETATM   13  C1  UNL     1     -16.053  10.966   3.141  1.00  0.00     0.043 C 
HETATM   14  C3  UNL     1     -15.184  11.751   5.396  1.00  0.00     0.043 C 
ENDBRANCH   6  11
BRANCH   6  15
HETATM   15  O1  UNL     1     -14.382  12.525   1.164  1.00  0.00    -0.362 OA
ATOM     16  H1  UNL     1     -15.270  12.200   1.069  1.00  0.00     0.213 HD
ENDBRANCH   6  15
ENDBRANCH   1   4
TORSDOF 3
ENDMDL
MODEL 2
REMARK VINA RESULT: -5.632067190      1.756      2.287
REMARK  3 active torsions:
REMARK  status: ('A' for Active; 'I' for Inactive)
REMARK    1  A    between atoms: C4_4  and  C5_5 
REMARK    2  A    between atoms: C5_5  and  O1_6 
REMARK    3  A    between atoms: C7_9  and  C9_11 
ROOT
HETATM    1  C9  UNL     1     -12.422  12.727  -0.258  1.00  0.00     0.161 C 
HETATM    2  C10 UNL     1     -11.353  11.770  -0.184  1.00  0.00     0.062 C 
HETATM    3  N1  UNL     1     -10.480  11.016  -0.131  1.00  0.00    -0.197 NA
ENDROOT
BRANCH   1   4
HETATM    4  C7  UNL     1     -13.113  12.981   1.058  1.00  0.00     0.077 C 
HETATM    5  C6  UNL     1     -12.946  11.755   1.953  1.00  0.00     0.111 C 
HETATM    6  C5  UNL     1     -14.332  11.510   2.564  1.00  0.00     0.186 C 
HETATM    7  O3  UNL     1     -15.161  11.272   1.452  1.00  0.00    -0.327 OA
HETATM    8  C11 UNL     1     -15.363  12.461   0.800  1.00  0.00     0.343 C 
HETATM    9  O2  UNL     1     -14.399  13.401   0.944  1.00  0.00    -0.355 OA
HETATM   10  C8  UNL     1     -12.321  14.099   1.749  1.00  0.00     0.047 C 
BRANCH   6  11
HETATM   11  C4  UNL     1     -14.322  10.361   3.476  1.00  0.00     0.042 C 
HETATM   12  C2  UNL     1     -13.750  10.448   4.646  1.00  0.00    -0.086 C 
HETATM   13  C1  UNL     1     -13.091  11.701   5.103  1.00  0.00     0.043 C 
HETATM   14  C3  UNL     1     -13.735   9.289   5.578  1.00  0.00     0.043 C 
ENDBRANCH   6  11
BRANCH   6  15
HETATM   15  O1  UNL     1     -14.751  12.701   3.196  1.00  0.00    -0.362 OA
ATOM     16  H1  UNL     1     -14.046  13.330   3.294  1.00  0.00     0.213 HD
ENDBRANCH   6  15
ENDBRANCH   1   4
TORSDOF 3
ENDMDL
MODEL 3
REMARK VINA RESULT: -5.620543450      3.305      5.376
REMARK  3 active torsions:
REMARK  status: ('A' for Active; 'I' for Inactive)
REMARK    1  A    between atoms: C4_4  and  C5_5 
REMARK    2  A    between atoms: C5_5  and  O1_6 
REMARK    3  A    between atoms: C7_9  and  C9_11 
ROOT
HETATM    1  C9  UNL     1     -16.765  13.550   0.711  1.00  0.00     0.161 C 
HETATM    2  C10 UNL     1     -18.058  13.417   1.324  1.00  0.00     0.062 C 
HETATM    3  N1  UNL     1     -19.104  13.304   1.798  1.00  0.00    -0.197 NA
ENDROOT
BRANCH   1   4
HETATM    4  C7  UNL     1     -15.672  12.776   1.406  1.00  0.00     0.077 C 
HETATM    5  C6  UNL     1     -14.355  13.003   0.668  1.00  0.00     0.111 C 
HETATM    6  C5  UNL     1     -13.711  11.613   0.558  1.00  0.00     0.186 C 
HETATM    7  O3  UNL     1     -14.639  10.862  -0.186  1.00  0.00    -0.327 OA
HETATM    8  C11 UNL     1     -15.720  10.594   0.612  1.00  0.00     0.343 C 
HETATM    9  O2  UNL     1     -15.960  11.467   1.619  1.00  0.00    -0.355 OA
HETATM   10  C8  UNL     1     -15.487  13.437   2.779  1.00  0.00     0.047 C 
BRANCH   6  11
HETATM   11  C4  UNL     1     -12.411  11.675  -0.118  1.00  0.00     0.042 C 
HETATM   12  C2  UNL     1     -11.823  10.584  -0.527  1.00  0.00    -0.086 C 
HETATM   13  C1  UNL     1     -12.438   9.244  -0.328  1.00  0.00     0.043 C 
HETATM   14  C3  UNL     1     -10.505  10.636  -1.213  1.00  0.00     0.043 C 
ENDBRANCH   6  11
BRANCH   6  15
HETATM   15  O1  UNL     1     -13.622  11.066   1.857  1.00  0.00    -0.362 OA
ATOM     16  H1  UNL     1     -14.265  10.383   2.010  1.00  0.00     0.213 HD
ENDBRANCH   6  15
ENDBRANCH   1   4
TORSDOF 3
ENDMDL
MODEL 4
REMARK VINA RESULT: -5.583579667      1.149      1.597
REMARK  3 active torsions:
REMARK  status: ('A' for Active; 'I' for Inactive)
REMARK    1  A    between atoms: C4_4  and  C5_5 
REMARK    2  A    between atoms: C5_5  and  O1_6 
REMARK    3  A    between atoms: C7_9  and  C9_11 
ROOT
HETATM    1  C9  UNL     1     -10.898  10.804  -0.209  1.00  0.00     0.161 C 
HETATM    2  C10 UNL     1     -10.590  10.673  -1.606  1.00  0.00     0.062 C 
HETATM    3  N1  UNL     1     -10.344  10.546  -2.728  1.00  0.00    -0.197 NA
ENDROOT
BRANCH   1   4
HETATM    4  C7  UNL     1     -12.058  11.724   0.080  1.00  0.00     0.077 C 
HETATM    5  C6  UNL     1     -12.037  12.102   1.560  1.00  0.00     0.111 C 
HETATM    6  C5  UNL     1     -13.491  11.968   2.031  1.00  0.00     0.186 C 
HETATM    7  O3  UNL     1     -13.801  10.613   1.811  1.00  0.00    -0.327 OA
HETATM    8  C11 UNL     1     -13.937  10.412   0.463  1.00  0.00     0.343 C 
HETATM    9  O2  UNL     1     -13.261  11.262  -0.347  1.00  0.00    -0.355 OA
HETATM   10  C8  UNL     1     -11.770  13.029  -0.676  1.00  0.00     0.047 C 
BRANCH   6  11
HETATM   11  C4  UNL     1     -13.633  12.325   3.446  1.00  0.00     0.042 C 
HETATM   12  C2  UNL     1     -13.322  13.522   3.864  1.00  0.00    -0.086 C 
HETATM   13  C1  UNL     1     -12.817  14.567   2.933  1.00  0.00     0.043 C 
HETATM   14  C3  UNL     1     -13.462  13.892   5.298  1.00  0.00     0.043 C 
ENDBRANCH   6  11
BRANCH   6  15
HETATM   15  O1  UNL     1     -14.301  12.761   1.188  1.00  0.00    -0.362 OA
ATOM     16  H1  UNL     1     -13.796  13.239   0.541  1.00  0.00     0.213 HD
ENDBRANCH   6  15
ENDBRANCH   1   4
TORSDOF 3
ENDMDL
MODEL 5
REMARK VINA RESULT: -5.564877368      2.079      2.786
REMARK  3 active torsions:
REMARK  status: ('A' for Active; 'I' for Inactive)
REMARK    1  A    between atoms: C4_4  and  C5_5 
REMARK    2  A    between atoms: C5_5  and  O1_6 
REMARK    3  A    between atoms: C7_9  and  C9_11 
ROOT
HETATM    1  C9  UNL     1     -11.016  12.256  -0.886  1.00  0.00     0.161 C 
HETATM    2  C10 UNL     1     -10.629  11.276  -1.863  1.00  0.00     0.062 C 
HETATM    3  N1  UNL     1     -10.297  10.491  -2.642  1.00  0.00    -0.197 NA
ENDROOT
BRANCH   1   4
HETATM    4  C7  UNL     1     -11.999  11.748   0.139  1.00  0.00     0.077 C 
HETATM    5  C6  UNL     1     -13.352  12.417  -0.095  1.00  0.00     0.111 C 
HETATM    6  C5  UNL     1     -13.843  12.831   1.299  1.00  0.00     0.186 C 
HETATM    7  O3  UNL     1     -12.858  13.725   1.759  1.00  0.00    -0.327 OA
HETATM    8  C11 UNL     1     -11.734  13.007   2.073  1.00  0.00     0.343 C 
HETATM    9  O2  UNL     1     -11.565  11.831   1.422  1.00  0.00    -0.355 OA
HETATM   10  C8  UNL     1     -12.221  10.263  -0.179  1.00  0.00     0.047 C 
BRANCH   6  11
HETATM   11  C4  UNL     1     -15.159  13.475   1.236  1.00  0.00     0.042 C 
HETATM   12  C2  UNL     1     -16.182  12.847   0.722  1.00  0.00    -0.086 C 
HETATM   13  C1  UNL     1     -16.061  11.466   0.185  1.00  0.00     0.043 C 
HETATM   14  C3  UNL     1     -17.520  13.493   0.654  1.00  0.00     0.043 C 
ENDBRANCH   6  11
BRANCH   6  15
HETATM   15  O1  UNL     1     -13.839  11.686   2.125  1.00  0.00    -0.362 OA
ATOM     16  H1  UNL     1     -12.972  11.307   2.219  1.00  0.00     0.213 HD
ENDBRANCH   6  15
ENDBRANCH   1   4
TORSDOF 3
ENDMDL
