MODEL 1
REMARK VINA RESULT: -9.883645775      0.000      0.000
REMARK  11 active torsions:
REMARK  status: ('A' for Active; 'I' for Inactive)
REMARK    1  A    between atoms: N5_15  and  C6_16 
REMARK    2  A    between atoms: C6_16  and  C7_17 
REMARK    3  A    between atoms: C7_17  and  O1_18 
REMARK    4  A    between atoms: C7_17  and  C8_20 
REMARK    5  A    between atoms: C8_20  and  N6_21 
REMARK       I    between atoms: C9_23  and  N8_25 
REMARK    6  A    between atoms: N12_38  and  C15_39 
REMARK    7  A    between atoms: C16_41  and  C17_42 
REMARK    8  A    between atoms: C17_42  and  N13_43 
REMARK    9  A    between atoms: C17_42  and  C18_47 
REMARK   10  A    between atoms: C19_50  and  O4_51 
REMARK   11  A    between atoms: C20_53  and  O5_54 
ROOT
HETATM    1  N6  UNL     1     -19.266  25.661 -19.710  1.00  0.00    -0.362 N 
ATOM      2  H6  UNL     1     -19.241  24.697 -20.041  1.00  0.00     0.162 HD
HETATM    3  C9  UNL     1     -18.386  26.010 -18.866  1.00  0.00     0.189 C 
HETATM    4  N7  UNL     1     -18.389  27.345 -18.384  1.00  0.00    -0.063 NA
HETATM    5  N8  UNL     1     -17.423  25.073 -18.423  1.00  0.00    -0.315 N 
ATOM      6  H8  UNL     1     -16.534  24.981 -18.914  1.00  0.00     0.170 HD
HETATM    7  C10 UNL     1     -17.675  24.340 -17.399  1.00  0.00     0.139 A 
HETATM    8  N9  UNL     1     -18.839  24.461 -16.759  1.00  0.00    -0.337 N 
ATOM      9  H9  UNL     1     -19.506  25.148 -17.111  1.00  0.00     0.168 HD
HETATM   10  C11 UNL     1     -19.193  23.742 -15.683  1.00  0.00     0.183 A 
HETATM   11  N10 UNL     1     -18.295  22.834 -15.231  1.00  0.00    -0.336 N 
ATOM     12  H10 UNL     1     -18.535  22.271 -14.415  1.00  0.00     0.168 HD
HETATM   13  C12 UNL     1     -17.101  22.647 -15.816  1.00  0.00     0.142 A 
HETATM   14  C13 UNL     1     -16.769  23.414 -16.932  1.00  0.00     0.122 A 
HETATM   15  N11 UNL     1     -15.554  23.042 -17.315  1.00  0.00    -0.346 N 
ATOM     16  H11 UNL     1     -15.046  23.432 -18.110  1.00  0.00     0.167 HD
HETATM   17  C14 UNL     1     -15.091  22.079 -16.505  1.00  0.00     0.188 A 
HETATM   18  N12 UNL     1     -16.047  21.843 -15.587  1.00  0.00    -0.297 N 
ENDROOT
BRANCH   1  19
HETATM   19  C8  UNL     1     -20.294  26.516 -20.237  1.00  0.00     0.155 C 
BRANCH  19  20
HETATM   20  C7  UNL     1     -20.770  25.919 -21.543  1.00  0.00     0.154 C 
BRANCH  20  21
HETATM   21  C6  UNL     1     -19.654  26.067 -22.553  1.00  0.00     0.164 C 
BRANCH  21  22
HETATM   22  N5  UNL     1     -18.971  24.796 -22.679  1.00  0.00    -0.325 N 
HETATM   23  C3  UNL     1     -17.645  24.574 -22.681  1.00  0.00     0.140 A 
HETATM   24  N3  UNL     1     -16.566  25.382 -22.575  1.00  0.00    -0.336 N 
HETATM   25  C4  UNL     1     -17.370  23.225 -22.823  1.00  0.00     0.122 A 
HETATM   26  C2  UNL     1     -15.319  24.909 -22.606  1.00  0.00     0.183 A 
ATOM     27  H3  UNL     1     -16.710  26.386 -22.469  1.00  0.00     0.168 HD
HETATM   28  N2  UNL     1     -15.060  23.593 -22.744  1.00  0.00    -0.337 N 
HETATM   29  C1  UNL     1     -16.084  22.742 -22.854  1.00  0.00     0.131 A 
ATOM     30  H2  UNL     1     -14.099  23.253 -22.763  1.00  0.00     0.168 HD
HETATM   31  N1  UNL     1     -15.848  21.489 -22.984  1.00  0.00    -0.383 N 
ATOM     32  H12 UNL     1     -14.893  21.131 -23.007  1.00  0.00     0.157 HD
ATOM     33  H11 UNL     1     -16.629  20.840 -23.069  1.00  0.00     0.157 HD
HETATM   34  N4  UNL     1     -18.596  22.635 -22.907  1.00  0.00    -0.346 N 
HETATM   35  C5  UNL     1     -19.540  23.586 -22.820  1.00  0.00     0.185 A 
ATOM     36  H4  UNL     1     -18.769  21.636 -23.017  1.00  0.00     0.167 HD
ENDBRANCH  21  22
ENDBRANCH  20  21
BRANCH  20  37
HETATM   37  O1  UNL     1     -21.937  26.535 -21.963  1.00  0.00    -0.392 OA
ATOM     38  H1  UNL     1     -22.165  27.279 -21.418  1.00  0.00     0.210 HD
ENDBRANCH  20  37
ENDBRANCH  19  20
ENDBRANCH   1  19
BRANCH  18  39
HETATM   39  C15 UNL     1     -15.978  20.875 -14.507  1.00  0.00     0.262 C 
HETATM   40  O2  UNL     1     -17.143  20.187 -14.323  1.00  0.00    -0.353 OA
HETATM   41  C16 UNL     1     -17.502  20.211 -13.006  1.00  0.00     0.195 C 
HETATM   42  C19 UNL     1     -16.267  20.568 -12.203  1.00  0.00     0.182 C 
HETATM   43  C20 UNL     1     -15.573  21.502 -13.204  1.00  0.00     0.198 C 
BRANCH  41  44
HETATM   44  C17 UNL     1     -18.120  18.916 -12.529  1.00  0.00     0.303 C 
BRANCH  44  45
HETATM   45  N13 UNL     1     -17.270  17.841 -13.058  1.00  0.00    -0.064 N 
ATOM     46 3H13 UNL     1     -16.292  18.112 -13.167  1.00  0.00     0.275 HD
ATOM     47 2H13 UNL     1     -17.114  17.081 -12.396  1.00  0.00     0.275 HD
ATOM     48 1H13 UNL     1     -17.707  17.539 -13.929  1.00  0.00     0.275 HD
ENDBRANCH  44  45
BRANCH  44  49
HETATM   49  C18 UNL     1     -19.469  18.766 -13.117  1.00  0.00     0.264 C 
HETATM   50  N14 UNL     1     -20.476  19.746 -12.956  1.00  0.00    -0.060 NA
HETATM   51  O3  UNL     1     -19.754  17.745 -13.783  1.00  0.00    -0.274 OA
ENDBRANCH  44  49
ENDBRANCH  41  44
BRANCH  42  52
HETATM   52  O4  UNL     1     -15.448  19.453 -12.009  1.00  0.00    -0.390 OA
ATOM     53  H4  UNL     1     -15.511  19.130 -11.118  1.00  0.00     0.210 HD
ENDBRANCH  42  52
BRANCH  43  54
HETATM   54  O5  UNL     1     -14.201  21.501 -13.011  1.00  0.00    -0.388 OA
ATOM     55  H5  UNL     1     -13.957  21.622 -12.100  1.00  0.00     0.210 HD
ENDBRANCH  43  54
ENDBRANCH  18  39
TORSDOF 11
ENDMDL
MODEL 2
REMARK VINA RESULT: -9.787559431      2.517     10.558
REMARK  11 active torsions:
REMARK  status: ('A' for Active; 'I' for Inactive)
REMARK    1  A    between atoms: N5_15  and  C6_16 
REMARK    2  A    between atoms: C6_16  and  C7_17 
REMARK    3  A    between atoms: C7_17  and  O1_18 
REMARK    4  A    between atoms: C7_17  and  C8_20 
REMARK    5  A    between atoms: C8_20  and  N6_21 
REMARK       I    between atoms: C9_23  and  N8_25 
REMARK    6  A    between atoms: N12_38  and  C15_39 
REMARK    7  A    between atoms: C16_41  and  C17_42 
REMARK    8  A    between atoms: C17_42  and  N13_43 
REMARK    9  A    between atoms: C17_42  and  C18_47 
REMARK   10  A    between atoms: C19_50  and  O4_51 
REMARK   11  A    between atoms: C20_53  and  O5_54 
ROOT
HETATM    1  N6  UNL     1     -17.877  20.591 -14.027  1.00  0.00    -0.362 N 
ATOM      2  H6  UNL     1     -18.894  20.635 -14.076  1.00  0.00     0.162 HD
HETATM    3  C9  UNL     1     -17.226  21.553 -14.534  1.00  0.00     0.189 C 
HETATM    4  N7  UNL     1     -15.808  21.527 -14.483  1.00  0.00    -0.063 NA
HETATM    5  N8  UNL     1     -17.917  22.631 -15.137  1.00  0.00    -0.315 N 
ATOM      6  H8  UNL     1     -18.178  23.447 -14.583  1.00  0.00     0.170 HD
HETATM    7  C10 UNL     1     -18.215  22.576 -16.386  1.00  0.00     0.139 A 
HETATM    8  N9  UNL     1     -17.875  21.507 -17.108  1.00  0.00    -0.337 N 
ATOM      9  H9  UNL     1     -17.378  20.751 -16.635  1.00  0.00     0.168 HD
HETATM   10  C11 UNL     1     -18.140  21.357 -18.414  1.00  0.00     0.183 A 
HETATM   11  N10 UNL     1     -18.802  22.369 -19.024  1.00  0.00    -0.336 N 
ATOM     12  H10 UNL     1     -19.020  22.285 -20.017  1.00  0.00     0.168 HD
HETATM   13  C12 UNL     1     -19.182  23.480 -18.372  1.00  0.00     0.142 A 
HETATM   14  C13 UNL     1     -18.887  23.599 -17.015  1.00  0.00     0.122 A 
HETATM   15  N11 UNL     1     -19.362  24.772 -16.612  1.00  0.00    -0.346 N 
ATOM     16  H11 UNL     1     -19.294  25.135 -15.662  1.00  0.00     0.167 HD
HETATM   17  C14 UNL     1     -19.944  25.408 -17.638  1.00  0.00     0.188 A 
HETATM   18  N12 UNL     1     -19.829  24.608 -18.715  1.00  0.00    -0.297 N 
ENDROOT
BRANCH   1  19
HETATM   19  C8  UNL     1     -17.294  19.442 -13.388  1.00  0.00     0.155 C 
BRANCH  19  20
HETATM   20  C7  UNL     1     -18.382  18.748 -12.600  1.00  0.00     0.154 C 
BRANCH  20  21
HETATM   21  C6  UNL     1     -18.182  19.083 -11.139  1.00  0.00     0.164 C 
BRANCH  21  22
HETATM   22  N5  UNL     1     -19.443  19.540 -10.591  1.00  0.00    -0.325 N 
HETATM   23  C3  UNL     1     -20.106  20.671 -10.893  1.00  0.00     0.140 A 
HETATM   24  N3  UNL     1     -19.861  21.696 -11.740  1.00  0.00    -0.336 N 
HETATM   25  C4  UNL     1     -21.279  20.765 -10.164  1.00  0.00     0.122 A 
HETATM   26  C2  UNL     1     -20.695  22.730 -11.864  1.00  0.00     0.183 A 
ATOM     27  H3  UNL     1     -19.010  21.678 -12.303  1.00  0.00     0.168 HD
HETATM   28  N2  UNL     1     -21.835  22.814 -11.149  1.00  0.00    -0.337 N 
HETATM   29  C1  UNL     1     -22.135  21.832 -10.294  1.00  0.00     0.131 A 
ATOM     30  H2  UNL     1     -22.459  23.613 -11.260  1.00  0.00     0.168 HD
HETATM   31  N1  UNL     1     -23.217  21.903  -9.611  1.00  0.00    -0.383 N 
ATOM     32  H12 UNL     1     -23.852  22.695  -9.708  1.00  0.00     0.157 HD
ATOM     33  H11 UNL     1     -23.445  21.153  -8.958  1.00  0.00     0.157 HD
HETATM   34  N4  UNL     1     -21.297  19.635  -9.402  1.00  0.00    -0.346 N 
HETATM   35  C5  UNL     1     -20.195  18.916  -9.668  1.00  0.00     0.185 A 
ATOM     36  H4  UNL     1     -22.028  19.377  -8.738  1.00  0.00     0.167 HD
ENDBRANCH  21  22
ENDBRANCH  20  21
BRANCH  20  37
HETATM   37  O1  UNL     1     -18.354  17.382 -12.830  1.00  0.00    -0.392 OA
ATOM     38  H1  UNL     1     -17.610  16.965 -12.412  1.00  0.00     0.210 HD
ENDBRANCH  20  37
ENDBRANCH  19  20
ENDBRANCH   1  19
BRANCH  18  39
HETATM   39  C15 UNL     1     -20.319  24.893 -20.052  1.00  0.00     0.262 C 
HETATM   40  O2  UNL     1     -19.772  24.090 -21.010  1.00  0.00    -0.353 OA
HETATM   41  C16 UNL     1     -19.306  24.844 -22.049  1.00  0.00     0.195 C 
HETATM   42  C19 UNL     1     -19.980  26.199 -21.967  1.00  0.00     0.182 C 
HETATM   43  C20 UNL     1     -20.109  26.328 -20.442  1.00  0.00     0.198 C 
BRANCH  41  44
HETATM   44  C17 UNL     1     -19.516  24.200 -23.401  1.00  0.00     0.303 C 
BRANCH  44  45
HETATM   45  N13 UNL     1     -18.768  22.935 -23.366  1.00  0.00    -0.064 N 
ATOM     46 3H13 UNL     1     -17.775  23.055 -23.168  1.00  0.00     0.275 HD
ATOM     47 2H13 UNL     1     -18.986  22.355 -22.555  1.00  0.00     0.275 HD
ATOM     48 1H13 UNL     1     -18.953  22.474 -24.257  1.00  0.00     0.275 HD
ENDBRANCH  44  45
BRANCH  44  49
HETATM   49  C18 UNL     1     -18.924  25.054 -24.453  1.00  0.00     0.264 C 
HETATM   50  N14 UNL     1     -17.527  25.242 -24.576  1.00  0.00    -0.060 NA
HETATM   51  O3  UNL     1     -19.663  25.642 -25.275  1.00  0.00    -0.274 OA
ENDBRANCH  44  49
ENDBRANCH  41  44
BRANCH  42  52
HETATM   52  O4  UNL     1     -21.267  26.159 -22.510  1.00  0.00    -0.390 OA
ATOM     53  H4  UNL     1     -21.619  25.277 -22.497  1.00  0.00     0.210 HD
ENDBRANCH  42  52
BRANCH  43  54
HETATM   54  O5  UNL     1     -21.181  27.139 -20.105  1.00  0.00    -0.388 OA
ATOM     55  H5  UNL     1     -21.015  28.059 -20.276  1.00  0.00     0.210 HD
ENDBRANCH  43  54
ENDBRANCH  18  39
TORSDOF 11
ENDMDL
MODEL 3
REMARK VINA RESULT: -9.720577386      1.688      1.868
REMARK  11 active torsions:
REMARK  status: ('A' for Active; 'I' for Inactive)
REMARK    1  A    between atoms: N5_15  and  C6_16 
REMARK    2  A    between atoms: C6_16  and  C7_17 
REMARK    3  A    between atoms: C7_17  and  O1_18 
REMARK    4  A    between atoms: C7_17  and  C8_20 
REMARK    5  A    between atoms: C8_20  and  N6_21 
REMARK       I    between atoms: C9_23  and  N8_25 
REMARK    6  A    between atoms: N12_38  and  C15_39 
REMARK    7  A    between atoms: C16_41  and  C17_42 
REMARK    8  A    between atoms: C17_42  and  N13_43 
REMARK    9  A    between atoms: C17_42  and  C18_47 
REMARK   10  A    between atoms: C19_50  and  O4_51 
REMARK   11  A    between atoms: C20_53  and  O5_54 
ROOT
HETATM    1  N6  UNL     1     -19.380  25.672 -19.641  1.00  0.00    -0.362 N 
ATOM      2  H6  UNL     1     -19.379  24.708 -19.973  1.00  0.00     0.162 HD
HETATM    3  C9  UNL     1     -18.471  26.008 -18.824  1.00  0.00     0.189 C 
HETATM    4  N7  UNL     1     -18.440  27.341 -18.340  1.00  0.00    -0.063 NA
HETATM    5  N8  UNL     1     -17.507  25.056 -18.411  1.00  0.00    -0.315 N 
ATOM      6  H8  UNL     1     -16.635  24.952 -18.929  1.00  0.00     0.170 HD
HETATM    7  C10 UNL     1     -17.738  24.325 -17.380  1.00  0.00     0.139 A 
HETATM    8  N9  UNL     1     -18.881  24.462 -16.705  1.00  0.00    -0.337 N 
ATOM      9  H9  UNL     1     -19.549  25.158 -17.036  1.00  0.00     0.168 HD
HETATM   10  C11 UNL     1     -19.211  23.746 -15.620  1.00  0.00     0.183 A 
HETATM   11  N10 UNL     1     -18.313  22.826 -15.196  1.00  0.00    -0.336 N 
ATOM     12  H10 UNL     1     -18.536  22.265 -14.374  1.00  0.00     0.168 HD
HETATM   13  C12 UNL     1     -17.140  22.623 -15.817  1.00  0.00     0.142 A 
HETATM   14  C13 UNL     1     -16.832  23.387 -16.942  1.00  0.00     0.122 A 
HETATM   15  N11 UNL     1     -15.634  22.998 -17.362  1.00  0.00    -0.346 N 
ATOM     16  H11 UNL     1     -15.145  23.382 -18.172  1.00  0.00     0.167 HD
HETATM   17  C14 UNL     1     -15.160  22.028 -16.568  1.00  0.00     0.188 A 
HETATM   18  N12 UNL     1     -16.091  21.803 -15.621  1.00  0.00    -0.297 N 
ENDROOT
BRANCH   1  19
HETATM   19  C8  UNL     1     -20.412  26.541 -20.135  1.00  0.00     0.155 C 
BRANCH  19  20
HETATM   20  C7  UNL     1     -20.809  26.055 -21.511  1.00  0.00     0.154 C 
BRANCH  20  21
HETATM   21  C6  UNL     1     -19.661  26.339 -22.453  1.00  0.00     0.164 C 
BRANCH  21  22
HETATM   22  N5  UNL     1     -19.589  25.273 -23.431  1.00  0.00    -0.325 N 
HETATM   23  C3  UNL     1     -19.008  25.310 -24.644  1.00  0.00     0.140 A 
HETATM   24  N3  UNL     1     -18.339  26.267 -25.326  1.00  0.00    -0.336 N 
HETATM   25  C4  UNL     1     -19.144  24.096 -25.294  1.00  0.00     0.122 A 
HETATM   26  C2  UNL     1     -17.844  26.054 -26.547  1.00  0.00     0.183 A 
ATOM     27  H3  UNL     1     -18.209  27.182 -24.894  1.00  0.00     0.168 HD
HETATM   28  N2  UNL     1     -17.981  24.867 -27.173  1.00  0.00    -0.337 N 
HETATM   29  C1  UNL     1     -18.633  23.880 -26.552  1.00  0.00     0.131 A 
ATOM     30  H2  UNL     1     -17.594  24.726 -28.106  1.00  0.00     0.168 HD
HETATM   31  N1  UNL     1     -18.767  22.750 -27.139  1.00  0.00    -0.383 N 
ATOM     32  H12 UNL     1     -18.388  22.590 -28.072  1.00  0.00     0.157 HD
ATOM     33  H11 UNL     1     -19.265  21.997 -26.664  1.00  0.00     0.157 HD
HETATM   34  N4  UNL     1     -19.838  23.316 -24.417  1.00  0.00    -0.346 N 
HETATM   35  C5  UNL     1     -20.096  24.034 -23.312  1.00  0.00     0.185 A 
ATOM     36  H4  UNL     1     -20.116  22.347 -24.575  1.00  0.00     0.167 HD
ENDBRANCH  21  22
ENDBRANCH  20  21
BRANCH  20  37
HETATM   37  O1  UNL     1     -21.983  26.664 -21.923  1.00  0.00    -0.392 OA
ATOM     38  H1  UNL     1     -21.907  27.611 -21.940  1.00  0.00     0.210 HD
ENDBRANCH  20  37
ENDBRANCH  19  20
ENDBRANCH   1  19
BRANCH  18  39
HETATM   39  C15 UNL     1     -16.003  20.834 -14.545  1.00  0.00     0.262 C 
HETATM   40  O2  UNL     1     -17.167  20.150 -14.337  1.00  0.00    -0.353 OA
HETATM   41  C16 UNL     1     -17.497  20.172 -13.012  1.00  0.00     0.195 C 
HETATM   42  C19 UNL     1     -16.243  20.523 -12.235  1.00  0.00     0.182 C 
HETATM   43  C20 UNL     1     -15.567  21.456 -13.250  1.00  0.00     0.198 C 
BRANCH  41  44
HETATM   44  C17 UNL     1     -18.110  18.880 -12.524  1.00  0.00     0.303 C 
BRANCH  44  45
HETATM   45  N13 UNL     1     -17.267  17.803 -13.062  1.00  0.00    -0.064 N 
ATOM     46 3H13 UNL     1     -16.938  17.979 -14.011  1.00  0.00     0.275 HD
ATOM     47 2H13 UNL     1     -16.348  17.747 -12.622  1.00  0.00     0.275 HD
ATOM     48 1H13 UNL     1     -17.813  16.946 -12.973  1.00  0.00     0.275 HD
ENDBRANCH  44  45
BRANCH  44  49
HETATM   49  C18 UNL     1     -19.466  18.729 -13.095  1.00  0.00     0.264 C 
HETATM   50  N14 UNL     1     -20.471  19.709 -12.922  1.00  0.00    -0.060 NA
HETATM   51  O3  UNL     1     -19.760  17.707 -13.756  1.00  0.00    -0.274 OA
ENDBRANCH  44  49
ENDBRANCH  41  44
BRANCH  42  52
HETATM   52  O4  UNL     1     -15.425  19.405 -12.061  1.00  0.00    -0.390 OA
ATOM     53  H4  UNL     1     -15.313  18.929 -12.876  1.00  0.00     0.210 HD
ENDBRANCH  42  52
BRANCH  43  54
HETATM   54  O5  UNL     1     -14.192  21.449 -13.086  1.00  0.00    -0.388 OA
ATOM     55  H5  UNL     1     -13.839  20.575 -12.969  1.00  0.00     0.210 HD
ENDBRANCH  43  54
ENDBRANCH  18  39
TORSDOF 11
ENDMDL
MODEL 4
REMARK VINA RESULT: -9.683019339      2.776      9.632
REMARK  11 active torsions:
REMARK  status: ('A' for Active; 'I' for Inactive)
REMARK    1  A    between atoms: N5_15  and  C6_16 
REMARK    2  A    between atoms: C6_16  and  C7_17 
REMARK    3  A    between atoms: C7_17  and  O1_18 
REMARK    4  A    between atoms: C7_17  and  C8_20 
REMARK    5  A    between atoms: C8_20  and  N6_21 
REMARK       I    between atoms: C9_23  and  N8_25 
REMARK    6  A    between atoms: N12_38  and  C15_39 
REMARK    7  A    between atoms: C16_41  and  C17_42 
REMARK    8  A    between atoms: C17_42  and  N13_43 
REMARK    9  A    between atoms: C17_42  and  C18_47 
REMARK   10  A    between atoms: C19_50  and  O4_51 
REMARK   11  A    between atoms: C20_53  and  O5_54 
ROOT
HETATM    1  N6  UNL     1     -13.609  23.965 -15.105  1.00  0.00    -0.362 N 
ATOM      2  H6  UNL     1     -14.517  23.918 -14.643  1.00  0.00     0.162 HD
HETATM    3  C9  UNL     1     -13.524  24.672 -16.153  1.00  0.00     0.189 C 
HETATM    4  N7  UNL     1     -12.276  24.762 -16.822  1.00  0.00    -0.063 NA
HETATM    5  N8  UNL     1     -14.665  25.356 -16.636  1.00  0.00    -0.315 N 
ATOM      6  H8  UNL     1     -14.860  26.309 -16.329  1.00  0.00     0.170 HD
HETATM    7  C10 UNL     1     -15.454  24.770 -17.464  1.00  0.00     0.139 A 
HETATM    8  N9  UNL     1     -15.198  23.523 -17.864  1.00  0.00    -0.337 N 
ATOM      9  H9  UNL     1     -14.366  23.065 -17.491  1.00  0.00     0.168 HD
HETATM   10  C11 UNL     1     -15.960  22.830 -18.723  1.00  0.00     0.183 A 
HETATM   11  N10 UNL     1     -17.061  23.453 -19.205  1.00  0.00    -0.336 N 
ATOM     12  H10 UNL     1     -17.662  22.951 -19.860  1.00  0.00     0.168 HD
HETATM   13  C12 UNL     1     -17.393  24.706 -18.856  1.00  0.00     0.142 A 
HETATM   14  C13 UNL     1     -16.575  25.395 -17.961  1.00  0.00     0.122 A 
HETATM   15  N11 UNL     1     -17.115  26.595 -17.782  1.00  0.00    -0.346 N 
ATOM     16  H11 UNL     1     -16.735  27.323 -17.176  1.00  0.00     0.167 HD
HETATM   17  C14 UNL     1     -18.232  26.710 -18.513  1.00  0.00     0.188 A 
HETATM   18  N12 UNL     1     -18.396  25.546 -19.170  1.00  0.00    -0.297 N 
ENDROOT
BRANCH   1  19
HETATM   19  C8  UNL     1     -12.528  23.224 -14.515  1.00  0.00     0.155 C 
BRANCH  19  20
HETATM   20  C7  UNL     1     -12.889  21.756 -14.563  1.00  0.00     0.154 C 
BRANCH  20  21
HETATM   21  C6  UNL     1     -13.611  21.414 -13.280  1.00  0.00     0.164 C 
BRANCH  21  22
HETATM   22  N5  UNL     1     -14.953  20.977 -13.605  1.00  0.00    -0.325 N 
HETATM   23  C3  UNL     1     -15.710  20.087 -12.938  1.00  0.00     0.140 A 
HETATM   24  N3  UNL     1     -15.512  19.347 -11.824  1.00  0.00    -0.336 N 
HETATM   25  C4  UNL     1     -16.940  19.926 -13.553  1.00  0.00     0.122 A 
HETATM   26  C2  UNL     1     -16.442  18.515 -11.350  1.00  0.00     0.183 A 
ATOM     27  H3  UNL     1     -14.624  19.425 -11.331  1.00  0.00     0.168 HD
HETATM   28  N2  UNL     1     -17.638  18.365 -11.956  1.00  0.00    -0.337 N 
HETATM   29  C1  UNL     1     -17.895  19.069 -13.062  1.00  0.00     0.131 A 
ATOM     30  H2  UNL     1     -18.334  17.724 -11.575  1.00  0.00     0.168 HD
HETATM   31  N1  UNL     1     -19.028  18.933 -13.643  1.00  0.00    -0.383 N 
ATOM     32  H12 UNL     1     -19.737  18.297 -13.278  1.00  0.00     0.157 HD
ATOM     33  H11 UNL     1     -19.224  19.470 -14.488  1.00  0.00     0.157 HD
HETATM   34  N4  UNL     1     -16.894  20.763 -14.629  1.00  0.00    -0.346 N 
HETATM   35  C5  UNL     1     -15.702  21.381 -14.645  1.00  0.00     0.185 A 
ATOM     36  H4  UNL     1     -17.642  20.897 -15.309  1.00  0.00     0.167 HD
ENDBRANCH  21  22
ENDBRANCH  20  21
BRANCH  20  37
HETATM   37  O1  UNL     1     -11.755  20.981 -14.746  1.00  0.00    -0.392 OA
ATOM     38  H1  UNL     1     -11.515  20.911 -15.663  1.00  0.00     0.210 HD
ENDBRANCH  20  37
ENDBRANCH  19  20
ENDBRANCH   1  19
BRANCH  18  39
HETATM   39  C15 UNL     1     -19.477  25.220 -20.082  1.00  0.00     0.262 C 
HETATM   40  O2  UNL     1     -19.095  24.393 -21.099  1.00  0.00    -0.353 OA
HETATM   41  C16 UNL     1     -19.509  24.899 -22.298  1.00  0.00     0.195 C 
HETATM   42  C19 UNL     1     -20.609  25.901 -22.016  1.00  0.00     0.182 C 
HETATM   43  C20 UNL     1     -20.120  26.445 -20.666  1.00  0.00     0.198 C 
BRANCH  41  44
HETATM   44  C17 UNL     1     -19.960  23.837 -23.274  1.00  0.00     0.303 C 
BRANCH  44  45
HETATM   45  N13 UNL     1     -19.188  22.630 -22.946  1.00  0.00    -0.064 N 
ATOM     46 3H13 UNL     1     -18.684  22.698 -22.062  1.00  0.00     0.275 HD
ATOM     47 2H13 UNL     1     -19.769  21.830 -22.696  1.00  0.00     0.275 HD
ATOM     48 1H13 UNL     1     -18.581  22.457 -23.748  1.00  0.00     0.275 HD
ENDBRANCH  44  45
BRANCH  44  49
HETATM   49  C18 UNL     1     -19.608  24.247 -24.651  1.00  0.00     0.264 C 
HETATM   50  N14 UNL     1     -20.387  23.875 -25.772  1.00  0.00    -0.060 NA
HETATM   51  O3  UNL     1     -18.590  24.946 -24.857  1.00  0.00    -0.274 OA
ENDBRANCH  44  49
ENDBRANCH  41  44
BRANCH  42  52
HETATM   52  O4  UNL     1     -21.835  25.264 -21.809  1.00  0.00    -0.390 OA
ATOM     53  H4  UNL     1     -22.523  25.893 -21.625  1.00  0.00     0.210 HD
ENDBRANCH  42  52
BRANCH  43  54
HETATM   54  O5  UNL     1     -21.181  26.909 -19.907  1.00  0.00    -0.388 OA
ATOM     55  H5  UNL     1     -21.283  27.853 -19.954  1.00  0.00     0.210 HD
ENDBRANCH  43  54
ENDBRANCH  18  39
TORSDOF 11
ENDMDL
MODEL 5
REMARK VINA RESULT: -9.573856084      2.608     10.816
REMARK  11 active torsions:
REMARK  status: ('A' for Active; 'I' for Inactive)
REMARK    1  A    between atoms: N5_15  and  C6_16 
REMARK    2  A    between atoms: C6_16  and  C7_17 
REMARK    3  A    between atoms: C7_17  and  O1_18 
REMARK    4  A    between atoms: C7_17  and  C8_20 
REMARK    5  A    between atoms: C8_20  and  N6_21 
REMARK       I    between atoms: C9_23  and  N8_25 
REMARK    6  A    between atoms: N12_38  and  C15_39 
REMARK    7  A    between atoms: C16_41  and  C17_42 
REMARK    8  A    between atoms: C17_42  and  N13_43 
REMARK    9  A    between atoms: C17_42  and  C18_47 
REMARK   10  A    between atoms: C19_50  and  O4_51 
REMARK   11  A    between atoms: C20_53  and  O5_54 
ROOT
HETATM    1  N6  UNL     1     -17.577  20.733 -14.107  1.00  0.00    -0.362 N 
ATOM      2  H6  UNL     1     -18.587  20.862 -14.051  1.00  0.00     0.162 HD
HETATM    3  C9  UNL     1     -16.911  21.611 -14.733  1.00  0.00     0.189 C 
HETATM    4  N7  UNL     1     -15.502  21.465 -14.830  1.00  0.00    -0.063 NA
HETATM    5  N8  UNL     1     -17.575  22.715 -15.318  1.00  0.00    -0.315 N 
ATOM      6  H8  UNL     1     -17.706  23.575 -14.786  1.00  0.00     0.170 HD
HETATM    7  C10 UNL     1     -18.011  22.628 -16.523  1.00  0.00     0.139 A 
HETATM    8  N9  UNL     1     -17.839  21.501 -17.217  1.00  0.00    -0.337 N 
ATOM      9  H9  UNL     1     -17.356  20.728 -16.758  1.00  0.00     0.168 HD
HETATM   10  C11 UNL     1     -18.258  21.314 -18.478  1.00  0.00     0.183 A 
HETATM   11  N10 UNL     1     -18.899  22.350 -19.070  1.00  0.00    -0.336 N 
ATOM     12  H10 UNL     1     -19.230  22.239 -20.028  1.00  0.00     0.168 HD
HETATM   13  C12 UNL     1     -19.114  23.519 -18.444  1.00  0.00     0.142 A 
HETATM   14  C13 UNL     1     -18.663  23.675 -17.134  1.00  0.00     0.122 A 
HETATM   15  N11 UNL     1     -18.995  24.901 -16.749  1.00  0.00    -0.346 N 
ATOM     16  H11 UNL     1     -18.794  25.302 -15.833  1.00  0.00     0.167 HD
HETATM   17  C14 UNL     1     -19.634  25.537 -17.742  1.00  0.00     0.188 A 
HETATM   18  N12 UNL     1     -19.702  24.681 -18.779  1.00  0.00    -0.297 N 
ENDROOT
BRANCH   1  19
HETATM   19  C8  UNL     1     -17.022  19.569 -13.470  1.00  0.00     0.155 C 
BRANCH  19  20
HETATM   20  C7  UNL     1     -18.120  18.915 -12.662  1.00  0.00     0.154 C 
BRANCH  20  21
HETATM   21  C6  UNL     1     -18.039  19.450 -11.250  1.00  0.00     0.164 C 
BRANCH  21  22
HETATM   22  N5  UNL     1     -19.198  20.282 -11.002  1.00  0.00    -0.325 N 
HETATM   23  C3  UNL     1     -20.226  20.031 -10.172  1.00  0.00     0.140 A 
HETATM   24  N3  UNL     1     -20.523  19.005  -9.343  1.00  0.00    -0.336 N 
HETATM   25  C4  UNL     1     -21.149  21.062 -10.202  1.00  0.00     0.122 A 
HETATM   26  C2  UNL     1     -21.634  18.989  -8.604  1.00  0.00     0.183 A 
ATOM     27  H3  UNL     1     -19.878  18.218  -9.281  1.00  0.00     0.168 HD
HETATM   28  N2  UNL     1     -22.528  19.998  -8.639  1.00  0.00    -0.337 N 
HETATM   29  C1  UNL     1     -22.292  21.041  -9.439  1.00  0.00     0.131 A 
ATOM     30  H2  UNL     1     -23.369  19.965  -8.065  1.00  0.00     0.168 HD
HETATM   31  N1  UNL     1     -23.135  22.005  -9.479  1.00  0.00    -0.383 N 
ATOM     32  H12 UNL     1     -23.983  21.989  -8.913  1.00  0.00     0.157 HD
ATOM     33  H11 UNL     1     -22.955  22.801 -10.091  1.00  0.00     0.157 HD
HETATM   34  N4  UNL     1     -20.632  21.955 -11.094  1.00  0.00    -0.346 N 
HETATM   35  C5  UNL     1     -19.468  21.474 -11.561  1.00  0.00     0.185 A 
ATOM     36  H4  UNL     1     -21.058  22.843 -11.361  1.00  0.00     0.167 HD
ENDBRANCH  21  22
ENDBRANCH  20  21
BRANCH  20  37
HETATM   37  O1  UNL     1     -17.999  17.535 -12.704  1.00  0.00    -0.392 OA
ATOM     38  H1  UNL     1     -18.716  17.100 -12.256  1.00  0.00     0.210 HD
ENDBRANCH  20  37
ENDBRANCH  19  20
ENDBRANCH   1  19
BRANCH  18  39
HETATM   39  C15 UNL     1     -20.311  24.945 -20.070  1.00  0.00     0.262 C 
HETATM   40  O2  UNL     1     -19.785  24.191 -21.079  1.00  0.00    -0.353 OA
HETATM   41  C16 UNL     1     -19.453  24.986 -22.139  1.00  0.00     0.195 C 
HETATM   42  C19 UNL     1     -20.210  26.290 -21.985  1.00  0.00     0.182 C 
HETATM   43  C20 UNL     1     -20.231  26.395 -20.453  1.00  0.00     0.198 C 
BRANCH  41  44
HETATM   44  C17 UNL     1     -19.721  24.343 -23.480  1.00  0.00     0.303 C 
BRANCH  44  45
HETATM   45  N13 UNL     1     -19.223  22.964 -23.374  1.00  0.00    -0.064 N 
ATOM     46 3H13 UNL     1     -19.963  22.263 -23.374  1.00  0.00     0.275 HD
ATOM     47 2H13 UNL     1     -18.745  22.638 -24.214  1.00  0.00     0.275 HD
ATOM     48 1H13 UNL     1     -18.639  22.939 -22.538  1.00  0.00     0.275 HD
ENDBRANCH  44  45
BRANCH  44  49
HETATM   49  C18 UNL     1     -18.936  25.034 -24.526  1.00  0.00     0.264 C 
HETATM   50  N14 UNL     1     -17.522  25.036 -24.531  1.00  0.00    -0.060 NA
HETATM   51  O3  UNL     1     -19.521  25.645 -25.449  1.00  0.00    -0.274 OA
ENDBRANCH  44  49
ENDBRANCH  41  44
BRANCH  42  52
HETATM   52  O4  UNL     1     -21.528  26.167 -22.430  1.00  0.00    -0.390 OA
ATOM     53  H4  UNL     1     -21.768  25.255 -22.548  1.00  0.00     0.210 HD
ENDBRANCH  42  52
BRANCH  43  54
HETATM   54  O5  UNL     1     -21.326  27.126 -20.024  1.00  0.00    -0.388 OA
ATOM     55  H5  UNL     1     -21.548  26.957 -19.115  1.00  0.00     0.210 HD
ENDBRANCH  43  54
ENDBRANCH  18  39
TORSDOF 11
ENDMDL
