MODEL 1
REMARK VINA RESULT: -7.042020374      0.000      0.000
REMARK  11 active torsions:
REMARK  status: ('A' for Active; 'I' for Inactive)
REMARK    1  A    between atoms: O1_2  and  C2_3 
REMARK    2  A    between atoms: C2_3  and  C3_5 
REMARK    3  A    between atoms: C5_7  and  O3_8 
REMARK    4  A    between atoms: C6_10  and  C7_11 
REMARK    5  A    between atoms: C7_11  and  N1_12 
REMARK       I    between atoms: N1_12  and  C8_14 
REMARK    6  A    between atoms: C8_14  and  C9_16 
REMARK    7  A    between atoms: C9_16  and  N2_17 
REMARK    8  A    between atoms: C9_16  and  C12_22 
REMARK       I    between atoms: N2_17  and  C10_19 
REMARK    9  A    between atoms: C15_31  and  O6_32 
REMARK   10  A    between atoms: C16_34  and  N7_35 
REMARK   11  A    between atoms: C20_44  and  O7_45 
ROOT
HETATM    1  C3  UNL     1      33.145  10.085 -23.734  1.00  0.00     0.166 C 
HETATM    2  C4  UNL     1      34.612  10.238 -23.427  1.00  0.00     0.086 C 
HETATM    3  C5  UNL     1      34.708  11.598 -22.811  1.00  0.00     0.130 C 
HETATM    4  C6  UNL     1      34.215  12.685 -23.741  1.00  0.00     0.150 C 
HETATM    5  N5  UNL     1      32.857  12.311 -23.903  1.00  0.00    -0.151 NA
HETATM    6  N6  UNL     1      32.577  11.181 -23.046  1.00  0.00    -0.170 NA
HETATM    7  C15 UNL     1      33.416  11.608 -21.960  1.00  0.00     0.201 C 
HETATM    8  C16 UNL     1      33.494  11.005 -20.671  1.00  0.00     0.236 C 
HETATM    9  N8  UNL     1      32.846   9.768 -20.376  1.00  0.00    -0.340 N 
ATOM     10  H8  UNL     1      32.586   9.777 -19.390  1.00  0.00     0.164 HD
HETATM   11  C19 UNL     1      32.477   8.682 -20.859  1.00  0.00     0.187 C 
HETATM   12  N9  UNL     1      31.822   7.771 -19.974  1.00  0.00    -0.064 NA
HETATM   13  N10 UNL     1      32.600   8.175 -22.201  1.00  0.00    -0.336 N 
ATOM     14  H10 UNL     1      32.702   7.160 -22.216  1.00  0.00     0.164 HD
HETATM   15  C20 UNL     1      32.616   8.716 -23.477  1.00  0.00     0.254 C 
ENDROOT
BRANCH   4  16
HETATM   16  C7  UNL     1      35.035  12.842 -24.965  1.00  0.00     0.148 C 
BRANCH  16  17
HETATM   17  N1  UNL     1      34.200  13.299 -26.052  1.00  0.00    -0.357 N 
HETATM   18  C8  UNL     1      34.356  12.722 -27.333  1.00  0.00     0.246 C 
HETATM   19  O4  UNL     1      35.226  11.801 -27.452  1.00  0.00    -0.271 OA
ATOM     20  H1  UNL     1      33.506  14.030 -25.897  1.00  0.00     0.162 HD
BRANCH  18  21
HETATM   21  C9  UNL     1      33.586  13.103 -28.545  1.00  0.00     0.228 C 
BRANCH  21  22
HETATM   22  N2  UNL     1      34.261  14.093 -29.340  1.00  0.00    -0.343 N 
HETATM   23  C10 UNL     1      34.185  15.463 -29.012  1.00  0.00     0.214 C 
HETATM   24  C11 UNL     1      34.886  16.481 -29.847  1.00  0.00     0.117 C 
HETATM   25  O5  UNL     1      33.522  15.810 -28.014  1.00  0.00    -0.274 OA
ATOM     26  H2  UNL     1      34.802  13.801 -30.154  1.00  0.00     0.163 HD
ENDBRANCH  21  22
BRANCH  21  27
HETATM   27  C12 UNL     1      33.051  11.996 -29.325  1.00  0.00     0.058 A 
HETATM   28  C13 UNL     1      32.710  11.955 -30.673  1.00  0.00     0.116 A 
HETATM   29  N3  UNL     1      32.261  10.758 -31.011  1.00  0.00    -0.360 N 
HETATM   30  C14 UNL     1      32.296   9.993 -29.891  1.00  0.00     0.180 A 
ATOM     31  H3  UNL     1      31.947  10.467 -31.936  1.00  0.00     0.166 HD
HETATM   32  N4  UNL     1      32.775  10.750 -28.881  1.00  0.00    -0.352 N 
ATOM     33  H4  UNL     1      32.909  10.428 -27.922  1.00  0.00     0.166 HD
ENDBRANCH  21  27
ENDBRANCH  18  21
ENDBRANCH  16  17
ENDBRANCH   4  16
BRANCH   3  34
HETATM   34  O3  UNL     1      35.834  11.869 -22.135  1.00  0.00    -0.383 OA
ATOM     35  H3  UNL     1      35.823  11.683 -21.204  1.00  0.00     0.210 HD
ENDBRANCH   3  34
BRANCH   7  36
HETATM   36  O6  UNL     1      33.018  12.976 -21.777  1.00  0.00    -0.368 OA
ATOM     37  H6  UNL     1      32.068  13.001 -21.743  1.00  0.00     0.212 HD
ENDBRANCH   7  36
BRANCH   1  38
HETATM   38  C2  UNL     1      32.859  10.187 -25.196  1.00  0.00     0.287 C 
HETATM   39  O2  UNL     1      33.472   9.478 -26.015  1.00  0.00    -0.263 OA
BRANCH  38  40
HETATM   40  O1  UNL     1      31.903  11.072 -25.688  1.00  0.00    -0.325 OA
HETATM   41  C1  UNL     1      30.742  10.563 -26.313  1.00  0.00     0.213 C 
ENDBRANCH  38  40
ENDBRANCH   1  38
BRANCH   8  42
HETATM   42  N7  UNL     1      33.087  11.897 -19.598  1.00  0.00    -0.397 N 
HETATM   43  C17 UNL     1      31.806  11.780 -19.064  1.00  0.00     0.144 C 
HETATM   44  C18 UNL     1      34.093  12.326 -18.713  1.00  0.00     0.144 C 
ENDBRANCH   8  42
BRANCH  15  45
HETATM   45  O7  UNL     1      31.341   8.625 -24.061  1.00  0.00    -0.374 OA
ATOM     46  H7  UNL     1      30.954   7.799 -23.795  1.00  0.00     0.212 HD
ENDBRANCH  15  45
TORSDOF 11
ENDMDL
MODEL 2
REMARK VINA RESULT: -6.944044215      2.001      8.261
REMARK  11 active torsions:
REMARK  status: ('A' for Active; 'I' for Inactive)
REMARK    1  A    between atoms: O1_2  and  C2_3 
REMARK    2  A    between atoms: C2_3  and  C3_5 
REMARK    3  A    between atoms: C5_7  and  O3_8 
REMARK    4  A    between atoms: C6_10  and  C7_11 
REMARK    5  A    between atoms: C7_11  and  N1_12 
REMARK       I    between atoms: N1_12  and  C8_14 
REMARK    6  A    between atoms: C8_14  and  C9_16 
REMARK    7  A    between atoms: C9_16  and  N2_17 
REMARK    8  A    between atoms: C9_16  and  C12_22 
REMARK       I    between atoms: N2_17  and  C10_19 
REMARK    9  A    between atoms: C15_31  and  O6_32 
REMARK   10  A    between atoms: C16_34  and  N7_35 
REMARK   11  A    between atoms: C20_44  and  O7_45 
ROOT
HETATM    1  C3  UNL     1      33.688  12.813 -29.398  1.00  0.00     0.166 C 
HETATM    2  C4  UNL     1      34.481  11.690 -28.783  1.00  0.00     0.086 C 
HETATM    3  C5  UNL     1      33.446  10.854 -28.097  1.00  0.00     0.130 C 
HETATM    4  C6  UNL     1      32.678  11.635 -27.052  1.00  0.00     0.150 C 
HETATM    5  N5  UNL     1      32.061  12.629 -27.853  1.00  0.00    -0.151 NA
HETATM    6  N6  UNL     1      32.357  12.362 -29.243  1.00  0.00    -0.170 NA
HETATM    7  C15 UNL     1      32.300  10.930 -29.134  1.00  0.00     0.201 C 
HETATM    8  C16 UNL     1      32.351  10.002 -30.214  1.00  0.00     0.236 C 
HETATM    9  N8  UNL     1      32.646  10.414 -31.548  1.00  0.00    -0.340 N 
ATOM     10  H8  UNL     1      32.156   9.787 -32.186  1.00  0.00     0.164 HD
HETATM   11  C19 UNL     1      33.272  11.243 -32.234  1.00  0.00     0.187 C 
HETATM   12  N9  UNL     1      33.160  11.123 -33.654  1.00  0.00    -0.064 NA
HETATM   13  N10 UNL     1      34.113  12.337 -31.824  1.00  0.00    -0.336 N 
ATOM     14  H10 UNL     1      34.864  12.511 -32.493  1.00  0.00     0.164 HD
HETATM   15  C20 UNL     1      34.162  13.214 -30.752  1.00  0.00     0.254 C 
ENDROOT
BRANCH   4  16
HETATM   16  C7  UNL     1      33.511  12.089 -25.915  1.00  0.00     0.148 C 
BRANCH  16  17
HETATM   17  N1  UNL     1      33.488  11.093 -24.870  1.00  0.00    -0.357 N 
HETATM   18  C8  UNL     1      33.121  11.473 -23.558  1.00  0.00     0.246 C 
HETATM   19  O4  UNL     1      32.806  12.693 -23.376  1.00  0.00    -0.271 OA
ATOM     20  H1  UNL     1      33.734  10.124 -25.075  1.00  0.00     0.162 HD
BRANCH  18  21
HETATM   21  C9  UNL     1      33.072  10.566 -22.384  1.00  0.00     0.228 C 
BRANCH  21  22
HETATM   22  N2  UNL     1      32.078  10.959 -21.422  1.00  0.00    -0.343 N 
HETATM   23  C10 UNL     1      32.448  11.405 -20.137  1.00  0.00     0.214 C 
HETATM   24  C11 UNL     1      31.407  11.806 -19.146  1.00  0.00     0.117 C 
HETATM   25  O5  UNL     1      33.658  11.457 -19.840  1.00  0.00    -0.274 OA
ATOM     26  H2  UNL     1      31.090  10.914 -21.674  1.00  0.00     0.163 HD
ENDBRANCH  21  22
BRANCH  21  27
HETATM   27  C12 UNL     1      33.056   9.142 -22.689  1.00  0.00     0.058 A 
HETATM   28  C13 UNL     1      34.107   8.230 -22.678  1.00  0.00     0.116 A 
HETATM   29  N3  UNL     1      33.687   7.021 -23.010  1.00  0.00    -0.360 N 
HETATM   30  C14 UNL     1      32.354   7.117 -23.246  1.00  0.00     0.180 A 
ATOM     31  H3  UNL     1      34.255   6.177 -23.076  1.00  0.00     0.166 HD
HETATM   32  N4  UNL     1      31.985   8.401 -23.048  1.00  0.00    -0.352 N 
ATOM     33  H4  UNL     1      31.036   8.760 -23.155  1.00  0.00     0.166 HD
ENDBRANCH  21  27
ENDBRANCH  18  21
ENDBRANCH  16  17
ENDBRANCH   4  16
BRANCH   3  34
HETATM   34  O3  UNL     1      33.815   9.613 -27.750  1.00  0.00    -0.383 OA
ATOM     35  H3  UNL     1      33.614   8.923 -28.371  1.00  0.00     0.210 HD
ENDBRANCH   3  34
BRANCH   7  36
HETATM   36  O6  UNL     1      31.061  10.719 -28.439  1.00  0.00    -0.368 OA
ATOM     37  H6  UNL     1      30.393  10.519 -29.085  1.00  0.00     0.212 HD
ENDBRANCH   7  36
BRANCH   1  38
HETATM   38  C2  UNL     1      33.883  14.106 -28.677  1.00  0.00     0.287 C 
HETATM   39  O2  UNL     1      34.978  14.384 -28.157  1.00  0.00    -0.263 OA
BRANCH  38  40
HETATM   40  O1  UNL     1      32.853  15.037 -28.564  1.00  0.00    -0.325 OA
HETATM   41  C1  UNL     1      33.164  16.384 -28.272  1.00  0.00     0.213 C 
ENDBRANCH  38  40
ENDBRANCH   1  38
BRANCH   8  42
HETATM   42  N7  UNL     1      31.146   9.200 -30.336  1.00  0.00    -0.397 N 
HETATM   43  C17 UNL     1      30.374   9.300 -31.491  1.00  0.00     0.144 C 
HETATM   44  C18 UNL     1      31.151   7.946 -29.699  1.00  0.00     0.144 C 
ENDBRANCH   8  42
BRANCH  15  45
HETATM   45  O7  UNL     1      33.544  14.430 -31.088  1.00  0.00    -0.374 OA
ATOM     46  H7  UNL     1      33.718  14.606 -32.006  1.00  0.00     0.212 HD
ENDBRANCH  15  45
TORSDOF 11
ENDMDL
MODEL 3
REMARK VINA RESULT: -6.923956702      1.946      8.513
REMARK  11 active torsions:
REMARK  status: ('A' for Active; 'I' for Inactive)
REMARK    1  A    between atoms: O1_2  and  C2_3 
REMARK    2  A    between atoms: C2_3  and  C3_5 
REMARK    3  A    between atoms: C5_7  and  O3_8 
REMARK    4  A    between atoms: C6_10  and  C7_11 
REMARK    5  A    between atoms: C7_11  and  N1_12 
REMARK       I    between atoms: N1_12  and  C8_14 
REMARK    6  A    between atoms: C8_14  and  C9_16 
REMARK    7  A    between atoms: C9_16  and  N2_17 
REMARK    8  A    between atoms: C9_16  and  C12_22 
REMARK       I    between atoms: N2_17  and  C10_19 
REMARK    9  A    between atoms: C15_31  and  O6_32 
REMARK   10  A    between atoms: C16_34  and  N7_35 
REMARK   11  A    between atoms: C20_44  and  O7_45 
ROOT
HETATM    1  C3  UNL     1      33.671  12.787 -29.376  1.00  0.00     0.166 C 
HETATM    2  C4  UNL     1      34.448  11.656 -28.753  1.00  0.00     0.086 C 
HETATM    3  C5  UNL     1      33.398  10.830 -28.080  1.00  0.00     0.130 C 
HETATM    4  C6  UNL     1      32.624  11.617 -27.043  1.00  0.00     0.150 C 
HETATM    5  N5  UNL     1      32.025  12.616 -27.851  1.00  0.00    -0.151 NA
HETATM    6  N6  UNL     1      32.335  12.347 -29.237  1.00  0.00    -0.170 NA
HETATM    7  C15 UNL     1      32.264  10.916 -29.130  1.00  0.00     0.201 C 
HETATM    8  C16 UNL     1      32.320   9.988 -30.210  1.00  0.00     0.236 C 
HETATM    9  N8  UNL     1      32.633  10.398 -31.540  1.00  0.00    -0.340 N 
ATOM     10  H8  UNL     1      32.145   9.775 -32.184  1.00  0.00     0.164 HD
HETATM   11  C19 UNL     1      33.274  11.222 -32.218  1.00  0.00     0.187 C 
HETATM   12  N9  UNL     1      33.178  11.104 -33.639  1.00  0.00    -0.064 NA
HETATM   13  N10 UNL     1      34.120  12.309 -31.798  1.00  0.00    -0.336 N 
ATOM     14  H10 UNL     1      34.880  12.476 -32.458  1.00  0.00     0.164 HD
HETATM   15  C20 UNL     1      34.164  13.185 -30.725  1.00  0.00     0.254 C 
ENDROOT
BRANCH   4  16
HETATM   16  C7  UNL     1      33.448  12.063 -25.896  1.00  0.00     0.148 C 
BRANCH  16  17
HETATM   17  N1  UNL     1      33.433  11.051 -24.866  1.00  0.00    -0.357 N 
HETATM   18  C8  UNL     1      33.089  11.414 -23.544  1.00  0.00     0.246 C 
HETATM   19  O4  UNL     1      32.789  12.634 -23.338  1.00  0.00    -0.271 OA
ATOM     20  H1  UNL     1      33.667  10.084 -25.090  1.00  0.00     0.162 HD
BRANCH  18  21
HETATM   21  C9  UNL     1      33.051  10.490 -22.383  1.00  0.00     0.228 C 
BRANCH  21  22
HETATM   22  N2  UNL     1      34.240   9.690 -22.272  1.00  0.00    -0.343 N 
HETATM   23  C10 UNL     1      34.327   8.427 -22.895  1.00  0.00     0.214 C 
HETATM   24  C11 UNL     1      35.564   7.604 -22.770  1.00  0.00     0.117 C 
HETATM   25  O5  UNL     1      33.351   8.008 -23.550  1.00  0.00    -0.274 OA
ATOM     26  H2  UNL     1      35.034  10.040 -21.735  1.00  0.00     0.163 HD
ENDBRANCH  21  22
BRANCH  21  27
HETATM   27  C12 UNL     1      32.628  11.082 -21.121  1.00  0.00     0.058 A 
HETATM   28  C13 UNL     1      33.397  11.700 -20.139  1.00  0.00     0.116 A 
HETATM   29  N3  UNL     1      32.640  12.115 -19.138  1.00  0.00    -0.360 N 
HETATM   30  C14 UNL     1      31.362  11.776 -19.442  1.00  0.00     0.180 A 
ATOM     31  H3  UNL     1      32.956  12.598 -18.298  1.00  0.00     0.166 HD
HETATM   32  N4  UNL     1      31.367  11.153 -20.640  1.00  0.00    -0.352 N 
ATOM     33  H4  UNL     1      30.540  10.790 -21.114  1.00  0.00     0.166 HD
ENDBRANCH  21  27
ENDBRANCH  18  21
ENDBRANCH  16  17
ENDBRANCH   4  16
BRANCH   3  34
HETATM   34  O3  UNL     1      33.752   9.585 -27.729  1.00  0.00    -0.383 OA
ATOM     35  H3  UNL     1      34.055   9.019 -28.429  1.00  0.00     0.210 HD
ENDBRANCH   3  34
BRANCH   7  36
HETATM   36  O6  UNL     1      31.015  10.715 -28.449  1.00  0.00    -0.368 OA
ATOM     37  H6  UNL     1      30.551  11.544 -28.440  1.00  0.00     0.212 HD
ENDBRANCH   7  36
BRANCH   1  38
HETATM   38  C2  UNL     1      33.870  14.078 -28.653  1.00  0.00     0.287 C 
HETATM   39  O2  UNL     1      34.961  14.346 -28.120  1.00  0.00    -0.263 OA
BRANCH  38  40
HETATM   40  O1  UNL     1      32.846  15.017 -28.551  1.00  0.00    -0.325 OA
HETATM   41  C1  UNL     1      33.166  16.364 -28.262  1.00  0.00     0.213 C 
ENDBRANCH  38  40
ENDBRANCH   1  38
BRANCH   8  42
HETATM   42  N7  UNL     1      31.109   9.197 -30.346  1.00  0.00    -0.397 N 
HETATM   43  C17 UNL     1      30.353   9.301 -31.512  1.00  0.00     0.144 C 
HETATM   44  C18 UNL     1      31.094   7.944 -29.706  1.00  0.00     0.144 C 
ENDBRANCH   8  42
BRANCH  15  45
HETATM   45  O7  UNL     1      33.560  14.406 -31.067  1.00  0.00    -0.374 OA
ATOM     46  H7  UNL     1      33.518  14.458 -32.015  1.00  0.00     0.212 HD
ENDBRANCH  15  45
TORSDOF 11
ENDMDL
MODEL 4
REMARK VINA RESULT: -6.914268480      2.057      8.403
REMARK  11 active torsions:
REMARK  status: ('A' for Active; 'I' for Inactive)
REMARK    1  A    between atoms: O1_2  and  C2_3 
REMARK    2  A    between atoms: C2_3  and  C3_5 
REMARK    3  A    between atoms: C5_7  and  O3_8 
REMARK    4  A    between atoms: C6_10  and  C7_11 
REMARK    5  A    between atoms: C7_11  and  N1_12 
REMARK       I    between atoms: N1_12  and  C8_14 
REMARK    6  A    between atoms: C8_14  and  C9_16 
REMARK    7  A    between atoms: C9_16  and  N2_17 
REMARK    8  A    between atoms: C9_16  and  C12_22 
REMARK       I    between atoms: N2_17  and  C10_19 
REMARK    9  A    between atoms: C15_31  and  O6_32 
REMARK   10  A    between atoms: C16_34  and  N7_35 
REMARK   11  A    between atoms: C20_44  and  O7_45 
ROOT
HETATM    1  C3  UNL     1      33.901  11.844 -25.015  1.00  0.00     0.166 C 
HETATM    2  C4  UNL     1      34.950  10.805 -25.313  1.00  0.00     0.086 C 
HETATM    3  C5  UNL     1      34.171   9.668 -25.897  1.00  0.00     0.130 C 
HETATM    4  C6  UNL     1      33.118   9.144 -24.945  1.00  0.00     0.150 C 
HETATM    5  N5  UNL     1      32.291  10.286 -24.798  1.00  0.00    -0.151 NA
HETATM    6  N6  UNL     1      32.767  11.327 -25.681  1.00  0.00    -0.170 NA
HETATM    7  C15 UNL     1      33.145  10.448 -26.754  1.00  0.00     0.201 C 
HETATM    8  C16 UNL     1      33.568  10.844 -28.056  1.00  0.00     0.236 C 
HETATM    9  N8  UNL     1      33.828  12.210 -28.381  1.00  0.00    -0.340 N 
ATOM     10  H8  UNL     1      33.609  12.345 -29.367  1.00  0.00     0.164 HD
HETATM   11  C19 UNL     1      34.220  13.299 -27.924  1.00  0.00     0.187 C 
HETATM   12  N9  UNL     1      34.267  14.402 -28.832  1.00  0.00    -0.064 NA
HETATM   13  N10 UNL     1      34.647  13.646 -26.593  1.00  0.00    -0.336 N 
ATOM     14  H10 UNL     1      35.359  14.377 -26.600  1.00  0.00     0.164 HD
HETATM   15  C20 UNL     1      34.336  13.239 -25.305  1.00  0.00     0.254 C 
ENDROOT
BRANCH   4  16
HETATM   16  C7  UNL     1      33.675   8.536 -23.714  1.00  0.00     0.148 C 
BRANCH  16  17
HETATM   17  N1  UNL     1      32.943   9.013 -22.564  1.00  0.00    -0.357 N 
HETATM   18  C8  UNL     1      32.799   8.171 -21.438  1.00  0.00     0.246 C 
HETATM   19  O4  UNL     1      33.351   7.025 -21.497  1.00  0.00    -0.271 OA
ATOM     20  H1  UNL     1      32.535   9.948 -22.564  1.00  0.00     0.162 HD
BRANCH  18  21
HETATM   21  C9  UNL     1      32.060   8.517 -20.197  1.00  0.00     0.228 C 
BRANCH  21  22
HETATM   22  N2  UNL     1      32.461   7.716 -19.073  1.00  0.00    -0.343 N 
HETATM   23  C10 UNL     1      31.703   7.702 -17.884  1.00  0.00     0.214 C 
HETATM   24  C11 UNL     1      32.130   6.870 -16.722  1.00  0.00     0.117 C 
HETATM   25  O5  UNL     1      30.669   8.398 -17.817  1.00  0.00    -0.274 OA
ATOM     26  H2  UNL     1      33.306   7.148 -19.136  1.00  0.00     0.163 HD
ENDBRANCH  21  22
BRANCH  21  27
HETATM   27  C12 UNL     1      31.967   9.939 -19.895  1.00  0.00     0.058 A 
HETATM   28  C13 UNL     1      32.957  10.809 -19.448  1.00  0.00     0.116 A 
HETATM   29  N3  UNL     1      32.477  12.031 -19.295  1.00  0.00    -0.360 N 
HETATM   30  C14 UNL     1      31.165  11.986 -19.636  1.00  0.00     0.180 A 
ATOM     31  H3  UNL     1      32.995  12.851 -18.980  1.00  0.00     0.166 HD
HETATM   32  N4  UNL     1      30.869  10.719 -19.997  1.00  0.00    -0.352 N 
ATOM     33  H4  UNL     1      29.950  10.398 -20.303  1.00  0.00     0.166 HD
ENDBRANCH  21  27
ENDBRANCH  18  21
ENDBRANCH  16  17
ENDBRANCH   4  16
BRANCH   3  34
HETATM   34  O3  UNL     1      34.876   8.742 -26.562  1.00  0.00    -0.383 OA
ATOM     35  H3  UNL     1      34.452   7.903 -26.695  1.00  0.00     0.210 HD
ENDBRANCH   3  34
BRANCH   7  36
HETATM   36  O6  UNL     1      31.980   9.623 -26.908  1.00  0.00    -0.368 OA
ATOM     37  H6  UNL     1      31.218  10.152 -26.700  1.00  0.00     0.212 HD
ENDBRANCH   7  36
BRANCH   1  38
HETATM   38  C2  UNL     1      33.629  11.972 -23.553  1.00  0.00     0.287 C 
HETATM   39  O2  UNL     1      32.472  12.155 -23.135  1.00  0.00    -0.263 OA
BRANCH  38  40
HETATM   40  O1  UNL     1      34.655  11.893 -22.614  1.00  0.00    -0.325 OA
HETATM   41  C1  UNL     1      34.854  12.961 -21.710  1.00  0.00     0.213 C 
ENDBRANCH  38  40
ENDBRANCH   1  38
BRANCH   8  42
HETATM   42  N7  UNL     1      32.683  10.379 -29.110  1.00  0.00    -0.397 N 
HETATM   43  C17 UNL     1      31.793  11.275 -29.698  1.00  0.00     0.144 C 
HETATM   44  C18 UNL     1      33.168   9.351 -29.938  1.00  0.00     0.144 C 
ENDBRANCH   8  42
BRANCH  15  45
HETATM   45  O7  UNL     1      33.401  14.116 -24.729  1.00  0.00    -0.374 OA
ATOM     46  H7  UNL     1      32.813  13.605 -24.186  1.00  0.00     0.212 HD
ENDBRANCH  15  45
TORSDOF 11
ENDMDL
MODEL 5
REMARK VINA RESULT: -6.785376045      2.492      8.297
REMARK  11 active torsions:
REMARK  status: ('A' for Active; 'I' for Inactive)
REMARK    1  A    between atoms: O1_2  and  C2_3 
REMARK    2  A    between atoms: C2_3  and  C3_5 
REMARK    3  A    between atoms: C5_7  and  O3_8 
REMARK    4  A    between atoms: C6_10  and  C7_11 
REMARK    5  A    between atoms: C7_11  and  N1_12 
REMARK       I    between atoms: N1_12  and  C8_14 
REMARK    6  A    between atoms: C8_14  and  C9_16 
REMARK    7  A    between atoms: C9_16  and  N2_17 
REMARK    8  A    between atoms: C9_16  and  C12_22 
REMARK       I    between atoms: N2_17  and  C10_19 
REMARK    9  A    between atoms: C15_31  and  O6_32 
REMARK   10  A    between atoms: C16_34  and  N7_35 
REMARK   11  A    between atoms: C20_44  and  O7_45 
ROOT
HETATM    1  C3  UNL     1      34.281  12.657 -25.690  1.00  0.00     0.166 C 
HETATM    2  C4  UNL     1      33.215  13.053 -24.701  1.00  0.00     0.086 C 
HETATM    3  C5  UNL     1      33.966  13.234 -23.419  1.00  0.00     0.130 C 
HETATM    4  C6  UNL     1      34.685  11.972 -22.992  1.00  0.00     0.150 C 
HETATM    5  N5  UNL     1      35.586  11.793 -24.072  1.00  0.00    -0.151 NA
HETATM    6  N6  UNL     1      35.470  12.919 -24.971  1.00  0.00    -0.170 NA
HETATM    7  C15 UNL     1      35.257  13.905 -23.947  1.00  0.00     0.201 C 
HETATM    8  C16 UNL     1      35.213  15.317 -24.136  1.00  0.00     0.236 C 
HETATM    9  N8  UNL     1      35.210  15.904 -25.437  1.00  0.00    -0.340 N 
ATOM     10  H8  UNL     1      35.677  16.808 -25.374  1.00  0.00     0.164 HD
HETATM   11  C19 UNL     1      34.856  15.737 -26.618  1.00  0.00     0.187 C 
HETATM   12  N9  UNL     1      35.168  16.785 -27.539  1.00  0.00    -0.064 NA
HETATM   13  N10 UNL     1      34.167  14.632 -27.232  1.00  0.00    -0.336 N 
ATOM     14  H10 UNL     1      33.574  14.936 -28.005  1.00  0.00     0.164 HD
HETATM   15  C20 UNL     1      34.105  13.261 -27.040  1.00  0.00     0.254 C 
ENDROOT
BRANCH   4  16
HETATM   16  C7  UNL     1      33.776  10.850 -22.662  1.00  0.00     0.148 C 
BRANCH  16  17
HETATM   17  N1  UNL     1      33.790  10.619 -21.237  1.00  0.00    -0.357 N 
HETATM   18  C8  UNL     1      32.741  11.133 -20.441  1.00  0.00     0.246 C 
HETATM   19  O4  UNL     1      31.816  11.768 -21.043  1.00  0.00    -0.271 OA
ATOM     20  H1  UNL     1      34.550  10.089 -20.808  1.00  0.00     0.162 HD
BRANCH  18  21
HETATM   21  C9  UNL     1      32.633  10.992 -18.968  1.00  0.00     0.228 C 
BRANCH  21  22
HETATM   22  N2  UNL     1      32.565   9.619 -18.546  1.00  0.00    -0.343 N 
HETATM   23  C10 UNL     1      31.487   9.151 -17.767  1.00  0.00     0.214 C 
HETATM   24  C11 UNL     1      31.429   7.726 -17.333  1.00  0.00     0.117 C 
HETATM   25  O5  UNL     1      30.583   9.948 -17.445  1.00  0.00    -0.274 OA
ATOM     26  H2  UNL     1      33.308   8.974 -18.815  1.00  0.00     0.163 HD
ENDBRANCH  21  22
BRANCH  21  27
HETATM   27  C12 UNL     1      33.567  11.795 -18.188  1.00  0.00     0.058 A 
HETATM   28  C13 UNL     1      34.281  11.449 -17.046  1.00  0.00     0.116 A 
HETATM   29  N3  UNL     1      35.032  12.457 -16.635  1.00  0.00    -0.360 N 
HETATM   30  C14 UNL     1      34.823  13.482 -17.498  1.00  0.00     0.180 A 
ATOM     31  H3  UNL     1      35.650  12.462 -15.824  1.00  0.00     0.166 HD
HETATM   32  N4  UNL     1      33.938  13.071 -18.431  1.00  0.00    -0.352 N 
ATOM     33  H4  UNL     1      33.599  13.641 -19.207  1.00  0.00     0.166 HD
ENDBRANCH  21  27
ENDBRANCH  18  21
ENDBRANCH  16  17
ENDBRANCH   4  16
BRANCH   3  34
HETATM   34  O3  UNL     1      33.334  13.908 -22.448  1.00  0.00    -0.383 OA
ATOM     35  H3  UNL     1      33.883  14.398 -21.848  1.00  0.00     0.210 HD
ENDBRANCH   3  34
BRANCH   7  36
HETATM   36  O6  UNL     1      36.314  13.622 -23.017  1.00  0.00    -0.368 OA
ATOM     37  H6  UNL     1      37.080  14.115 -23.287  1.00  0.00     0.212 HD
ENDBRANCH   7  36
BRANCH   1  38
HETATM   38  C2  UNL     1      34.205  11.212 -26.057  1.00  0.00     0.287 C 
HETATM   39  O2  UNL     1      33.107  10.633 -26.136  1.00  0.00    -0.263 OA
BRANCH  38  40
HETATM   40  O1  UNL     1      35.354  10.469 -26.320  1.00  0.00    -0.325 OA
HETATM   41  C1  UNL     1      35.231   9.116 -26.709  1.00  0.00     0.213 C 
ENDBRANCH  38  40
ENDBRANCH   1  38
BRANCH   8  42
HETATM   42  N7  UNL     1      36.263  16.020 -23.419  1.00  0.00    -0.397 N 
HETATM   43  C17 UNL     1      37.326  16.571 -24.132  1.00  0.00     0.144 C 
HETATM   44  C18 UNL     1      35.885  16.698 -22.245  1.00  0.00     0.144 C 
ENDBRANCH   8  42
BRANCH  15  45
HETATM   45  O7  UNL     1      34.973  12.605 -27.929  1.00  0.00    -0.374 OA
ATOM     46  H7  UNL     1      35.865  12.778 -27.651  1.00  0.00     0.212 HD
ENDBRANCH  15  45
TORSDOF 11
ENDMDL
