MODEL 1
REMARK VINA RESULT: -7.303582667      0.000      0.000
REMARK  13 active torsions:
REMARK  status: ('A' for Active; 'I' for Inactive)
REMARK    1  A    between atoms: C1_2  and  C2_4 
REMARK    2  A    between atoms: C4_6  and  O2_7 
REMARK    3  A    between atoms: C5_9  and  N2_10 
REMARK       I    between atoms: N2_10  and  C6_12 
REMARK    4  A    between atoms: C6_12  and  C7_14 
REMARK    5  A    between atoms: C7_14  and  N3_15 
REMARK    6  A    between atoms: N3_15  and  C8_17 
REMARK    7  A    between atoms: C8_17  and  C9_18 
REMARK    8  A    between atoms: C9_18  and  O4_19 
REMARK    9  A    between atoms: C9_18  and  C10_21 
REMARK   10  A    between atoms: C12_25  and  O7_26 
REMARK   11  A    between atoms: C17_36  and  N5_37 
REMARK   12  A    between atoms: C19_43  and  O11_44 
REMARK   13  A    between atoms: C20_46  and  O12_47 
ROOT
HETATM    1  C2  UNL     1      33.907  12.861 -25.863  1.00  0.00     0.144 C 
HETATM    2  C3  UNL     1      34.375  14.216 -26.102  1.00  0.00     0.009 A 
HETATM    3  C4  UNL     1      35.135  14.700 -25.058  1.00  0.00     0.100 A 
HETATM    4  C5  UNL     1      35.690  15.980 -25.041  1.00  0.00     0.071 A 
HETATM    5  C11 UNL     1      35.449  16.758 -26.130  1.00  0.00     0.070 A 
HETATM    6  C12 UNL     1      34.686  16.315 -27.218  1.00  0.00     0.082 A 
HETATM    7  C13 UNL     1      34.161  15.040 -27.177  1.00  0.00     0.055 A 
HETATM    8  C14 UNL     1      33.425  14.811 -28.409  1.00  0.00     0.189 C 
HETATM    9  O8  UNL     1      32.975  15.858 -28.993  1.00  0.00    -0.290 OA
HETATM   10  C15 UNL     1      33.121  13.540 -29.084  1.00  0.00     0.204 C 
HETATM   11  N4  UNL     1      33.492  13.503 -30.479  1.00  0.00    -0.344 N 
ATOM     12  H4  UNL     1      33.484  14.382 -30.997  1.00  0.00     0.163 HD
HETATM   13  C16 UNL     1      33.864  12.338 -31.170  1.00  0.00     0.256 C 
HETATM   14  O9  UNL     1      33.703  12.169 -32.403  1.00  0.00    -0.271 OA
HETATM   15  C17 UNL     1      34.492  11.226 -30.409  1.00  0.00     0.346 C 
HETATM   16  C18 UNL     1      33.808  11.158 -29.090  1.00  0.00     0.205 C 
HETATM   17  O10 UNL     1      33.335  10.116 -28.730  1.00  0.00    -0.292 OA
HETATM   18  C19 UNL     1      33.758  12.414 -28.302  1.00  0.00     0.175 C 
HETATM   19  C20 UNL     1      33.040  12.319 -27.005  1.00  0.00     0.180 C 
ENDROOT
BRANCH   4  20
HETATM   20  N2  UNL     1      36.456  16.391 -23.921  1.00  0.00    -0.320 N 
HETATM   21  C6  UNL     1      36.309  17.588 -23.191  1.00  0.00     0.261 C 
HETATM   22  O3  UNL     1      35.480  18.499 -23.402  1.00  0.00    -0.267 OA
ATOM     23  H2  UNL     1      37.190  15.753 -23.610  1.00  0.00     0.169 HD
BRANCH  21  24
HETATM   24  C7  UNL     1      37.253  17.785 -22.036  1.00  0.00     0.158 C 
BRANCH  24  25
HETATM   25  N3  UNL     1      36.790  17.109 -20.889  1.00  0.00    -0.392 N 
ATOM     26  H3  UNL     1      35.907  17.331 -20.428  1.00  0.00     0.159 HD
BRANCH  25  27
HETATM   27  C8  UNL     1      37.667  16.090 -20.437  1.00  0.00     0.156 C 
BRANCH  27  28
HETATM   28  C9  UNL     1      36.960  14.750 -20.667  1.00  0.00     0.196 C 
BRANCH  28  29
HETATM   29  O4  UNL     1      37.286  14.359 -21.966  1.00  0.00    -0.389 OA
ATOM     30  H4  UNL     1      36.970  13.468 -22.060  1.00  0.00     0.210 HD
ENDBRANCH  28  29
BRANCH  28  31
HETATM   31  C10 UNL     1      35.484  14.971 -20.496  1.00  0.00     0.363 A 
HETATM   32  O5  UNL     1      34.705  15.169 -21.546  1.00  0.00    -0.200 OA
HETATM   33  O6  UNL     1      34.659  13.970 -20.995  1.00  0.00    -0.200 OA
ENDBRANCH  28  31
ENDBRANCH  27  28
ENDBRANCH  25  27
ENDBRANCH  24  25
ENDBRANCH  21  24
ENDBRANCH   4  20
BRANCH   3  34
HETATM   34  O2  UNL     1      35.323  13.849 -24.016  1.00  0.00    -0.358 OA
ATOM     35  H2  UNL     1      34.534  13.496 -23.622  1.00  0.00     0.217 HD
ENDBRANCH   3  34
BRANCH   6  36
HETATM   36  O7  UNL     1      34.499  17.175 -28.270  1.00  0.00    -0.360 OA
ATOM     37  H7  UNL     1      33.678  17.131 -28.744  1.00  0.00     0.217 HD
ENDBRANCH   6  36
BRANCH   1  38
HETATM   38  C1  UNL     1      33.142  12.633 -24.641  1.00  0.00     0.242 C 
HETATM   39  N1  UNL     1      33.507  11.624 -23.721  1.00  0.00    -0.061 NA
HETATM   40  O1  UNL     1      32.138  13.332 -24.378  1.00  0.00    -0.276 OA
ENDBRANCH   1  38
BRANCH  19  41
HETATM   41  O12 UNL     1      32.692  11.013 -26.638  1.00  0.00    -0.391 OA
ATOM     42  H12 UNL     1      32.375  10.595 -27.430  1.00  0.00     0.210 HD
ENDBRANCH  19  41
BRANCH  18  43
HETATM   43  O11 UNL     1      35.094  12.786 -28.080  1.00  0.00    -0.377 OA
ATOM     44  H11 UNL     1      35.590  12.472 -28.828  1.00  0.00     0.211 HD
ENDBRANCH  18  43
BRANCH  15  45
HETATM   45  N5  UNL     1      34.415   9.966 -31.118  1.00  0.00    -0.059 N 
ATOM     46  H53 UNL     1      34.151  10.107 -32.093  1.00  0.00     0.275 HD
ATOM     47  H52 UNL     1      35.342   9.563 -31.258  1.00  0.00     0.275 HD
ATOM     48  H51 UNL     1      33.791   9.303 -30.659  1.00  0.00     0.275 HD
ENDBRANCH  15  45
TORSDOF 13
ENDMDL
MODEL 2
REMARK VINA RESULT: -7.246107161      3.313      7.720
REMARK  13 active torsions:
REMARK  status: ('A' for Active; 'I' for Inactive)
REMARK    1  A    between atoms: C1_2  and  C2_4 
REMARK    2  A    between atoms: C4_6  and  O2_7 
REMARK    3  A    between atoms: C5_9  and  N2_10 
REMARK       I    between atoms: N2_10  and  C6_12 
REMARK    4  A    between atoms: C6_12  and  C7_14 
REMARK    5  A    between atoms: C7_14  and  N3_15 
REMARK    6  A    between atoms: N3_15  and  C8_17 
REMARK    7  A    between atoms: C8_17  and  C9_18 
REMARK    8  A    between atoms: C9_18  and  O4_19 
REMARK    9  A    between atoms: C9_18  and  C10_21 
REMARK   10  A    between atoms: C12_25  and  O7_26 
REMARK   11  A    between atoms: C17_36  and  N5_37 
REMARK   12  A    between atoms: C19_43  and  O11_44 
REMARK   13  A    between atoms: C20_46  and  O12_47 
ROOT
HETATM    1  C2  UNL     1      32.926  11.351 -23.166  1.00  0.00     0.144 C 
HETATM    2  C3  UNL     1      33.815  12.489 -22.997  1.00  0.00     0.009 A 
HETATM    3  C4  UNL     1      33.693  13.406 -24.020  1.00  0.00     0.100 A 
HETATM    4  C5  UNL     1      34.446  14.579 -24.094  1.00  0.00     0.071 A 
HETATM    5  C11 UNL     1      35.333  14.792 -23.087  1.00  0.00     0.070 A 
HETATM    6  C12 UNL     1      35.496  13.894 -22.023  1.00  0.00     0.082 A 
HETATM    7  C13 UNL     1      34.725  12.750 -22.004  1.00  0.00     0.055 A 
HETATM    8  C14 UNL     1      35.065  11.992 -20.813  1.00  0.00     0.189 C 
HETATM    9  O8  UNL     1      36.239  12.189 -20.342  1.00  0.00    -0.290 OA
HETATM   10  C15 UNL     1      34.247  11.023 -20.066  1.00  0.00     0.204 C 
HETATM   11  N4  UNL     1      34.153  11.289 -18.651  1.00  0.00    -0.344 N 
ATOM     12  H4  UNL     1      34.938  11.761 -18.202  1.00  0.00     0.163 HD
HETATM   13  C16 UNL     1      33.053  10.941 -17.850  1.00  0.00     0.256 C 
HETATM   14  O9  UNL     1      33.126  10.694 -16.622  1.00  0.00    -0.271 OA
HETATM   15  C17 UNL     1      31.709  10.859 -18.480  1.00  0.00     0.346 C 
HETATM   16  C18 UNL     1      31.896  10.272 -19.834  1.00  0.00     0.205 C 
HETATM   17  O10 UNL     1      31.257   9.307 -20.147  1.00  0.00    -0.292 OA
HETATM   18  C19 UNL     1      32.884  10.940 -20.716  1.00  0.00     0.175 C 
HETATM   19  C20 UNL     1      33.070  10.311 -22.049  1.00  0.00     0.180 C 
ENDROOT
BRANCH   4  20
HETATM   20  N2  UNL     1      34.251  15.461 -25.186  1.00  0.00    -0.320 N 
HETATM   21  C6  UNL     1      34.826  16.738 -25.352  1.00  0.00     0.261 C 
HETATM   22  O3  UNL     1      35.606  17.318 -24.567  1.00  0.00    -0.267 OA
ATOM     23  H2  UNL     1      33.630  15.139 -25.930  1.00  0.00     0.169 HD
BRANCH  21  24
HETATM   24  C7  UNL     1      34.456  17.477 -26.610  1.00  0.00     0.158 C 
BRANCH  24  25
HETATM   25  N3  UNL     1      33.999  16.584 -27.600  1.00  0.00    -0.392 N 
ATOM     26  H3  UNL     1      33.044  16.226 -27.630  1.00  0.00     0.159 HD
BRANCH  25  27
HETATM   27  C8  UNL     1      34.992  16.230 -28.549  1.00  0.00     0.156 C 
BRANCH  27  28
HETATM   28  C9  UNL     1      34.392  15.141 -29.446  1.00  0.00     0.196 C 
BRANCH  28  29
HETATM   29  O4  UNL     1      33.081  15.538 -29.711  1.00  0.00    -0.389 OA
ATOM     30  H4  UNL     1      32.625  14.759 -30.006  1.00  0.00     0.210 HD
ENDBRANCH  28  29
BRANCH  28  31
HETATM   31  C10 UNL     1      34.448  13.841 -28.694  1.00  0.00     0.363 A 
HETATM   32  O5  UNL     1      34.775  13.814 -27.413  1.00  0.00    -0.200 OA
HETATM   33  O6  UNL     1      33.494  13.674 -27.699  1.00  0.00    -0.200 OA
ENDBRANCH  28  31
ENDBRANCH  27  28
ENDBRANCH  25  27
ENDBRANCH  24  25
ENDBRANCH  21  24
ENDBRANCH   4  20
BRANCH   3  34
HETATM   34  O2  UNL     1      32.778  13.107 -24.979  1.00  0.00    -0.358 OA
ATOM     35  H2  UNL     1      32.171  13.802 -25.204  1.00  0.00     0.217 HD
ENDBRANCH   3  34
BRANCH   6  36
HETATM   36  O7  UNL     1      36.418  14.199 -21.055  1.00  0.00    -0.360 OA
ATOM     37  H7  UNL     1      37.054  13.536 -20.817  1.00  0.00     0.217 HD
ENDBRANCH   6  36
BRANCH   1  38
HETATM   38  C1  UNL     1      33.036  10.608 -24.416  1.00  0.00     0.242 C 
HETATM   39  N1  UNL     1      34.268  10.062 -24.842  1.00  0.00    -0.061 NA
HETATM   40  O1  UNL     1      32.034  10.436 -25.146  1.00  0.00    -0.276 OA
ENDBRANCH   1  38
BRANCH  19  41
HETATM   41  O12 UNL     1      32.143   9.303 -22.340  1.00  0.00    -0.391 OA
ATOM     42  H12 UNL     1      32.645   8.500 -22.416  1.00  0.00     0.210 HD
ENDBRANCH  19  41
BRANCH  18  43
HETATM   43  O11 UNL     1      32.435  12.261 -20.872  1.00  0.00    -0.377 OA
ATOM     44  H11 UNL     1      31.821  12.424 -20.164  1.00  0.00     0.211 HD
ENDBRANCH  18  43
BRANCH  15  45
HETATM   45  N5  UNL     1      30.779  10.084 -17.685  1.00  0.00    -0.059 N 
ATOM     46  H53 UNL     1      30.328  10.663 -16.976  1.00  0.00     0.275 HD
ATOM     47  H52 UNL     1      29.956   9.822 -18.228  1.00  0.00     0.275 HD
ATOM     48  H51 UNL     1      31.220   9.265 -17.266  1.00  0.00     0.275 HD
ENDBRANCH  15  45
TORSDOF 13
ENDMDL
MODEL 3
REMARK VINA RESULT: -7.066866563      2.032      8.244
REMARK  13 active torsions:
REMARK  status: ('A' for Active; 'I' for Inactive)
REMARK    1  A    between atoms: C1_2  and  C2_4 
REMARK    2  A    between atoms: C4_6  and  O2_7 
REMARK    3  A    between atoms: C5_9  and  N2_10 
REMARK       I    between atoms: N2_10  and  C6_12 
REMARK    4  A    between atoms: C6_12  and  C7_14 
REMARK    5  A    between atoms: C7_14  and  N3_15 
REMARK    6  A    between atoms: N3_15  and  C8_17 
REMARK    7  A    between atoms: C8_17  and  C9_18 
REMARK    8  A    between atoms: C9_18  and  O4_19 
REMARK    9  A    between atoms: C9_18  and  C10_21 
REMARK   10  A    between atoms: C12_25  and  O7_26 
REMARK   11  A    between atoms: C17_36  and  N5_37 
REMARK   12  A    between atoms: C19_43  and  O11_44 
REMARK   13  A    between atoms: C20_46  and  O12_47 
ROOT
HETATM    1  C2  UNL     1      35.104  15.302 -25.886  1.00  0.00     0.144 C 
HETATM    2  C3  UNL     1      34.382  14.108 -25.479  1.00  0.00     0.009 A 
HETATM    3  C4  UNL     1      34.016  13.325 -26.554  1.00  0.00     0.100 A 
HETATM    4  C5  UNL     1      33.304  12.132 -26.428  1.00  0.00     0.071 A 
HETATM    5  C11 UNL     1      32.975  11.754 -25.165  1.00  0.00     0.070 A 
HETATM    6  C12 UNL     1      33.325  12.510 -24.038  1.00  0.00     0.082 A 
HETATM    7  C13 UNL     1      34.027  13.683 -24.225  1.00  0.00     0.055 A 
HETATM    8  C14 UNL     1      34.276  14.276 -22.922  1.00  0.00     0.189 C 
HETATM    9  O8  UNL     1      33.448  13.963 -21.998  1.00  0.00    -0.290 OA
HETATM   10  C15 UNL     1      35.352  15.192 -22.512  1.00  0.00     0.204 C 
HETATM   11  N4  UNL     1      36.083  14.766 -21.342  1.00  0.00    -0.344 N 
ATOM     12  H4  UNL     1      35.587  14.203 -20.650  1.00  0.00     0.163 HD
HETATM   13  C16 UNL     1      37.430  15.075 -21.092  1.00  0.00     0.256 C 
HETATM   14  O9  UNL     1      37.930  15.171 -19.945  1.00  0.00    -0.271 OA
HETATM   15  C17 UNL     1      38.336  15.302 -22.248  1.00  0.00     0.346 C 
HETATM   16  C18 UNL     1      37.554  16.033 -23.281  1.00  0.00     0.205 C 
HETATM   17  O10 UNL     1      37.985  17.061 -23.722  1.00  0.00    -0.292 OA
HETATM   18  C19 UNL     1      36.266  15.423 -23.694  1.00  0.00     0.175 C 
HETATM   19  C20 UNL     1      35.495  16.195 -24.702  1.00  0.00     0.180 C 
ENDROOT
BRANCH   4  20
HETATM   20  N2  UNL     1      32.970  11.396 -27.594  1.00  0.00    -0.320 N 
HETATM   21  C6  UNL     1      31.713  11.348 -28.230  1.00  0.00     0.261 C 
HETATM   22  O3  UNL     1      30.672  11.944 -27.881  1.00  0.00    -0.267 OA
ATOM     23  H2  UNL     1      33.717  10.843 -28.015  1.00  0.00     0.169 HD
BRANCH  21  24
HETATM   24  C7  UNL     1      31.621  10.487 -29.461  1.00  0.00     0.158 C 
BRANCH  24  25
HETATM   25  N3  UNL     1      32.013  11.208 -30.607  1.00  0.00    -0.392 N 
ATOM     26  H3  UNL     1      31.498  12.013 -30.964  1.00  0.00     0.159 HD
BRANCH  25  27
HETATM   27  C8  UNL     1      33.192  10.707 -31.217  1.00  0.00     0.156 C 
BRANCH  27  28
HETATM   28  C9  UNL     1      34.274  11.782 -31.060  1.00  0.00     0.196 C 
BRANCH  28  29
HETATM   29  O4  UNL     1      34.789  11.627 -29.773  1.00  0.00    -0.389 OA
ATOM     30  H4  UNL     1      35.622  11.182 -29.875  1.00  0.00     0.210 HD
ENDBRANCH  28  29
BRANCH  28  31
HETATM   31  C10 UNL     1      33.623  13.123 -31.251  1.00  0.00     0.363 A 
HETATM   32  O5  UNL     1      33.208  13.827 -30.211  1.00  0.00    -0.200 OA
HETATM   33  O6  UNL     1      34.337  14.216 -30.774  1.00  0.00    -0.200 OA
ENDBRANCH  28  31
ENDBRANCH  27  28
ENDBRANCH  25  27
ENDBRANCH  24  25
ENDBRANCH  21  24
ENDBRANCH   4  20
BRANCH   3  34
HETATM   34  O2  UNL     1      34.391  13.784 -27.777  1.00  0.00    -0.358 OA
ATOM     35  H2  UNL     1      34.005  13.338 -28.523  1.00  0.00     0.217 HD
ENDBRANCH   3  34
BRANCH   6  36
HETATM   36  O7  UNL     1      32.947  12.044 -22.804  1.00  0.00    -0.360 OA
ATOM     37  H7  UNL     1      33.414  11.299 -22.446  1.00  0.00     0.217 HD
ENDBRANCH   6  36
BRANCH   1  38
HETATM   38  C1  UNL     1      34.438  16.181 -26.842  1.00  0.00     0.242 C 
HETATM   39  N1  UNL     1      35.066  16.566 -28.048  1.00  0.00    -0.061 NA
HETATM   40  O1  UNL     1      33.287  16.617 -26.614  1.00  0.00    -0.276 OA
ENDBRANCH   1  38
BRANCH  19  41
HETATM   41  O12 UNL     1      36.193  17.277 -25.250  1.00  0.00    -0.391 OA
ATOM     42  H12 UNL     1      35.532  17.860 -25.606  1.00  0.00     0.210 HD
ENDBRANCH  19  41
BRANCH  18  43
HETATM   43  O11 UNL     1      36.585  14.155 -24.206  1.00  0.00    -0.377 OA
ATOM     44  H11 UNL     1      36.233  13.519 -23.593  1.00  0.00     0.211 HD
ENDBRANCH  18  43
BRANCH  15  45
HETATM   45  N5  UNL     1      39.533  16.025 -21.871  1.00  0.00    -0.059 N 
ATOM     46  H53 UNL     1      39.521  16.266 -20.880  1.00  0.00     0.275 HD
ATOM     47  H52 UNL     1      40.351  15.416 -21.881  1.00  0.00     0.275 HD
ATOM     48  H51 UNL     1      39.682  16.852 -22.450  1.00  0.00     0.275 HD
ENDBRANCH  15  45
TORSDOF 13
ENDMDL
MODEL 4
REMARK VINA RESULT: -6.848734905      2.731      3.725
REMARK  13 active torsions:
REMARK  status: ('A' for Active; 'I' for Inactive)
REMARK    1  A    between atoms: C1_2  and  C2_4 
REMARK    2  A    between atoms: C4_6  and  O2_7 
REMARK    3  A    between atoms: C5_9  and  N2_10 
REMARK       I    between atoms: N2_10  and  C6_12 
REMARK    4  A    between atoms: C6_12  and  C7_14 
REMARK    5  A    between atoms: C7_14  and  N3_15 
REMARK    6  A    between atoms: N3_15  and  C8_17 
REMARK    7  A    between atoms: C8_17  and  C9_18 
REMARK    8  A    between atoms: C9_18  and  O4_19 
REMARK    9  A    between atoms: C9_18  and  C10_21 
REMARK   10  A    between atoms: C12_25  and  O7_26 
REMARK   11  A    between atoms: C17_36  and  N5_37 
REMARK   12  A    between atoms: C19_43  and  O11_44 
REMARK   13  A    between atoms: C20_46  and  O12_47 
ROOT
HETATM    1  C2  UNL     1      33.042  11.086 -28.430  1.00  0.00     0.144 C 
HETATM    2  C3  UNL     1      33.674  12.382 -28.245  1.00  0.00     0.009 A 
HETATM    3  C4  UNL     1      33.971  12.636 -26.922  1.00  0.00     0.100 A 
HETATM    4  C5  UNL     1      34.571  13.817 -26.482  1.00  0.00     0.071 A 
HETATM    5  C11 UNL     1      34.865  14.738 -27.438  1.00  0.00     0.070 A 
HETATM    6  C12 UNL     1      34.587  14.529 -28.795  1.00  0.00     0.082 A 
HETATM    7  C13 UNL     1      33.991  13.343 -29.170  1.00  0.00     0.055 A 
HETATM    8  C14 UNL     1      33.814  13.358 -30.612  1.00  0.00     0.189 C 
HETATM    9  O8  UNL     1      33.732  14.516 -31.153  1.00  0.00    -0.290 OA
HETATM   10  C15 UNL     1      33.715  12.225 -31.546  1.00  0.00     0.204 C 
HETATM   11  N4  UNL     1      34.625  12.294 -32.664  1.00  0.00    -0.344 N 
ATOM     12  H4  UNL     1      34.902  13.217 -32.996  1.00  0.00     0.163 HD
HETATM   13  C16 UNL     1      35.154  11.173 -33.326  1.00  0.00     0.256 C 
HETATM   14  O9  UNL     1      35.503  11.167 -34.531  1.00  0.00    -0.271 OA
HETATM   15  C17 UNL     1      35.319   9.907 -32.565  1.00  0.00     0.346 C 
HETATM   16  C18 UNL     1      34.147   9.786 -31.656  1.00  0.00     0.205 C 
HETATM   17  O10 UNL     1      33.486   8.787 -31.684  1.00  0.00    -0.292 OA
HETATM   18  C19 UNL     1      33.878  10.941 -30.764  1.00  0.00     0.175 C 
HETATM   19  C20 UNL     1      32.683  10.801 -29.893  1.00  0.00     0.180 C 
ENDROOT
BRANCH   4  20
HETATM   20  N2  UNL     1      34.836  13.989 -25.100  1.00  0.00    -0.320 N 
HETATM   21  C6  UNL     1      33.885  14.047 -24.060  1.00  0.00     0.261 C 
HETATM   22  O3  UNL     1      32.644  13.959 -24.172  1.00  0.00    -0.267 OA
ATOM     23  H2  UNL     1      35.816  14.080 -24.830  1.00  0.00     0.169 HD
BRANCH  21  24
HETATM   24  C7  UNL     1      34.430  14.235 -22.670  1.00  0.00     0.158 C 
BRANCH  24  25
HETATM   25  N3  UNL     1      33.747  13.416 -21.749  1.00  0.00    -0.392 N 
ATOM     26  H3  UNL     1      33.016  13.763 -21.127  1.00  0.00     0.159 HD
BRANCH  25  27
HETATM   27  C8  UNL     1      34.171  12.062 -21.768  1.00  0.00     0.156 C 
BRANCH  27  28
HETATM   28  C9  UNL     1      32.923  11.194 -21.572  1.00  0.00     0.196 C 
BRANCH  28  29
HETATM   29  O4  UNL     1      32.073  11.494 -22.637  1.00  0.00    -0.389 OA
ATOM     30  H4  UNL     1      32.000  12.441 -22.657  1.00  0.00     0.210 HD
ENDBRANCH  28  29
BRANCH  28  31
HETATM   31  C10 UNL     1      32.315  11.551 -20.245  1.00  0.00     0.363 A 
HETATM   32  O5  UNL     1      31.195  12.251 -20.181  1.00  0.00    -0.200 OA
HETATM   33  O6  UNL     1      31.095  10.954 -19.957  1.00  0.00    -0.200 OA
ENDBRANCH  28  31
ENDBRANCH  27  28
ENDBRANCH  25  27
ENDBRANCH  24  25
ENDBRANCH  21  24
ENDBRANCH   4  20
BRANCH   3  34
HETATM   34  O2  UNL     1      33.642  11.655 -26.040  1.00  0.00    -0.358 OA
ATOM     35  H2  UNL     1      34.247  11.527 -25.319  1.00  0.00     0.217 HD
ENDBRANCH   3  34
BRANCH   6  36
HETATM   36  O7  UNL     1      34.922  15.519 -29.684  1.00  0.00    -0.360 OA
ATOM     37  H7  UNL     1      35.381  15.272 -30.478  1.00  0.00     0.217 HD
ENDBRANCH   6  36
BRANCH   1  38
HETATM   38  C1  UNL     1      31.825  10.832 -27.666  1.00  0.00     0.242 C 
HETATM   39  N1  UNL     1      30.702  11.686 -27.764  1.00  0.00    -0.061 NA
HETATM   40  O1  UNL     1      31.746   9.844 -26.902  1.00  0.00    -0.276 OA
ENDBRANCH   1  38
BRANCH  19  41
HETATM   41  O12 UNL     1      32.110   9.524 -29.907  1.00  0.00    -0.391 OA
ATOM     42  H12 UNL     1      31.371   9.563 -29.311  1.00  0.00     0.210 HD
ENDBRANCH  19  41
BRANCH  18  43
HETATM   43  O11 UNL     1      35.028  11.097 -29.974  1.00  0.00    -0.377 OA
ATOM     44  H11 UNL     1      34.775  10.884 -29.083  1.00  0.00     0.211 HD
ENDBRANCH  18  43
BRANCH  15  45
HETATM   45  N5  UNL     1      35.440   8.757 -33.437  1.00  0.00    -0.059 N 
ATOM     46  H53 UNL     1      35.289   7.888 -32.925  1.00  0.00     0.275 HD
ATOM     47  H52 UNL     1      34.655   8.701 -34.087  1.00  0.00     0.275 HD
ATOM     48  H51 UNL     1      36.331   8.743 -33.934  1.00  0.00     0.275 HD
ENDBRANCH  15  45
TORSDOF 13
ENDMDL
MODEL 5
REMARK VINA RESULT: -6.805943781      3.010      5.886
REMARK  13 active torsions:
REMARK  status: ('A' for Active; 'I' for Inactive)
REMARK    1  A    between atoms: C1_2  and  C2_4 
REMARK    2  A    between atoms: C4_6  and  O2_7 
REMARK    3  A    between atoms: C5_9  and  N2_10 
REMARK       I    between atoms: N2_10  and  C6_12 
REMARK    4  A    between atoms: C6_12  and  C7_14 
REMARK    5  A    between atoms: C7_14  and  N3_15 
REMARK    6  A    between atoms: N3_15  and  C8_17 
REMARK    7  A    between atoms: C8_17  and  C9_18 
REMARK    8  A    between atoms: C9_18  and  O4_19 
REMARK    9  A    between atoms: C9_18  and  C10_21 
REMARK   10  A    between atoms: C12_25  and  O7_26 
REMARK   11  A    between atoms: C17_36  and  N5_37 
REMARK   12  A    between atoms: C19_43  and  O11_44 
REMARK   13  A    between atoms: C20_46  and  O12_47 
ROOT
HETATM    1  C2  UNL     1      34.655  14.153 -23.634  1.00  0.00     0.144 C 
HETATM    2  C3  UNL     1      34.194  12.807 -23.929  1.00  0.00     0.009 A 
HETATM    3  C4  UNL     1      33.534  12.233 -22.862  1.00  0.00     0.100 A 
HETATM    4  C5  UNL     1      33.006  10.942 -22.890  1.00  0.00     0.071 A 
HETATM    5  C11 UNL     1      33.170  10.246 -24.047  1.00  0.00     0.070 A 
HETATM    6  C12 UNL     1      33.831  10.782 -25.160  1.00  0.00     0.082 A 
HETATM    7  C13 UNL     1      34.333  12.064 -25.073  1.00  0.00     0.055 A 
HETATM    8  C14 UNL     1      34.959  12.394 -26.342  1.00  0.00     0.189 C 
HETATM    9  O8  UNL     1      35.378  11.401 -27.034  1.00  0.00    -0.290 OA
HETATM   10  C15 UNL     1      35.182  13.715 -26.950  1.00  0.00     0.204 C 
HETATM   11  N4  UNL     1      34.694  13.839 -28.303  1.00  0.00    -0.344 N 
ATOM     12  H4  UNL     1      34.676  12.998 -28.880  1.00  0.00     0.163 HD
HETATM   13  C16 UNL     1      34.244  15.039 -28.877  1.00  0.00     0.256 C 
HETATM   14  O9  UNL     1      34.298  15.295 -30.104  1.00  0.00    -0.271 OA
HETATM   15  C17 UNL     1      33.661  16.080 -27.991  1.00  0.00     0.346 C 
HETATM   16  C18 UNL     1      34.452  16.075 -26.731  1.00  0.00     0.205 C 
HETATM   17  O10 UNL     1      34.933  17.101 -26.339  1.00  0.00    -0.292 OA
HETATM   18  C19 UNL     1      34.591  14.770 -26.040  1.00  0.00     0.175 C 
HETATM   19  C20 UNL     1      35.414  14.793 -24.803  1.00  0.00     0.180 C 
ENDROOT
BRANCH   4  20
HETATM   20  N2  UNL     1      32.344  10.437 -21.742  1.00  0.00    -0.320 N 
HETATM   21  C6  UNL     1      32.591   9.206 -21.100  1.00  0.00     0.261 C 
HETATM   22  O3  UNL     1      33.432   8.343 -21.428  1.00  0.00    -0.267 OA
ATOM     23  H2  UNL     1      31.615  11.025 -21.339  1.00  0.00     0.169 HD
BRANCH  21  24
HETATM   24  C7  UNL     1      31.746   8.905 -19.891  1.00  0.00     0.158 C 
BRANCH  24  25
HETATM   25  N3  UNL     1      31.024  10.046 -19.487  1.00  0.00    -0.392 N 
ATOM     26  H3  UNL     1      30.280  10.463 -20.048  1.00  0.00     0.159 HD
BRANCH  25  27
HETATM   27  C8  UNL     1      31.429  10.560 -18.229  1.00  0.00     0.156 C 
BRANCH  27  28
HETATM   28  C9  UNL     1      31.942  11.984 -18.466  1.00  0.00     0.196 C 
BRANCH  28  29
HETATM   29  O4  UNL     1      31.500  12.347 -19.739  1.00  0.00    -0.389 OA
ATOM     30  H4  UNL     1      32.087  13.033 -20.035  1.00  0.00     0.210 HD
ENDBRANCH  28  29
BRANCH  28  31
HETATM   31  C10 UNL     1      33.441  11.957 -18.374  1.00  0.00     0.363 A 
HETATM   32  O5  UNL     1      34.182  11.797 -19.458  1.00  0.00    -0.200 OA
HETATM   33  O6  UNL     1      34.105  13.022 -18.972  1.00  0.00    -0.200 OA
ENDBRANCH  28  31
ENDBRANCH  27  28
ENDBRANCH  25  27
ENDBRANCH  24  25
ENDBRANCH  21  24
ENDBRANCH   4  20
BRANCH   3  34
HETATM   34  O2  UNL     1      33.418  13.006 -21.751  1.00  0.00    -0.358 OA
ATOM     35  H2  UNL     1      32.534  13.135 -21.426  1.00  0.00     0.217 HD
ENDBRANCH   3  34
BRANCH   6  36
HETATM   36  O7  UNL     1      33.944  10.000 -26.282  1.00  0.00    -0.360 OA
ATOM     37  H7  UNL     1      34.781   9.982 -26.731  1.00  0.00     0.217 HD
ENDBRANCH   6  36
BRANCH   1  38
HETATM   38  C1  UNL     1      35.515  14.315 -22.467  1.00  0.00     0.242 C 
HETATM   39  N1  UNL     1      35.167  15.188 -21.411  1.00  0.00    -0.061 NA
HETATM   40  O1  UNL     1      36.589  13.679 -22.373  1.00  0.00    -0.276 OA
ENDBRANCH   1  38
BRANCH  19  41
HETATM   41  O12 UNL     1      35.766  16.079 -24.375  1.00  0.00    -0.391 OA
ATOM     42  H12 UNL     1      35.646  16.082 -23.432  1.00  0.00     0.210 HD
ENDBRANCH  19  41
BRANCH  18  43
HETATM   43  O11 UNL     1      33.286  14.350 -25.736  1.00  0.00    -0.377 OA
ATOM     44  H11 UNL     1      33.089  13.631 -26.326  1.00  0.00     0.211 HD
ENDBRANCH  18  43
BRANCH  15  45
HETATM   45  N5  UNL     1      33.655  17.387 -28.614  1.00  0.00    -0.059 N 
ATOM     46  H53 UNL     1      33.411  17.323 -29.603  1.00  0.00     0.275 HD
ATOM     47  H52 UNL     1      32.867  17.948 -28.288  1.00  0.00     0.275 HD
ATOM     48  H51 UNL     1      34.538  17.880 -28.483  1.00  0.00     0.275 HD
ENDBRANCH  15  45
TORSDOF 13
ENDMDL
