MODEL 1
REMARK VINA RESULT: -9.348597399      0.000      0.000
REMARK  2 active torsions:
REMARK  status: ('A' for Active; 'I' for Inactive)
REMARK    1  A    between atoms: C7_13  and  S1_14 
REMARK    2  A    between atoms: S1_14  and  C8_17 
ROOT
HETATM    1  O1  UNL     1      21.473  38.007  21.971  1.00  0.00    -0.260 OA
HETATM    2  C1  UNL     1      21.795  37.970  20.757  1.00  0.00     0.291 A 
HETATM    3  N1  UNL     1      22.006  36.847  20.077  1.00  0.00    -0.284 N 
ATOM      4  H1  UNL     1      21.895  35.972  20.589  1.00  0.00     0.172 HD
HETATM    5  C2  UNL     1      22.346  36.750  18.797  1.00  0.00     0.260 A 
HETATM    6  O2  UNL     1      22.501  35.567  18.333  1.00  0.00    -0.267 OA
HETATM    7  C3  UNL     1      22.551  37.775  17.915  1.00  0.00     0.052 A 
HETATM    8  C4  UNL     1      22.909  37.492  16.591  1.00  0.00     0.021 A 
HETATM    9  C5  UNL     1      23.127  38.486  15.661  1.00  0.00     0.033 A 
HETATM   10  C6  UNL     1      22.997  39.813  16.014  1.00  0.00     0.062 A 
HETATM   11  N2  UNL     1      23.125  41.001  15.407  1.00  0.00    -0.331 N 
ATOM     12  H2  UNL     1      23.382  41.119  14.426  1.00  0.00     0.168 HD
HETATM   13  C7  UNL     1      22.875  42.014  16.249  1.00  0.00     0.209 A 
HETATM   14  N3  UNL     1      22.569  41.472  17.460  1.00  0.00    -0.330 N 
ATOM     15  H3  UNL     1      22.331  41.985  18.310  1.00  0.00     0.168 HD
HETATM   16  C14 UNL     1      22.641  40.135  17.330  1.00  0.00     0.079 A 
HETATM   17  C15 UNL     1      22.436  39.117  18.213  1.00  0.00     0.054 A 
HETATM   18  S2  UNL     1      21.993  39.405  19.855  1.00  0.00    -0.026 SA
ENDROOT
BRANCH  13  19
HETATM   19  S1  UNL     1      22.940  43.701  15.822  1.00  0.00     0.238 S 
HETATM   20  O3  UNL     1      23.504  44.499  16.971  1.00  0.00    -0.214 OA
HETATM   21  O4  UNL     1      23.746  43.933  14.568  1.00  0.00    -0.214 OA
BRANCH  19  22
HETATM   22  C8  UNL     1      21.302  44.233  15.461  1.00  0.00     0.068 A 
HETATM   23  C9  UNL     1      20.916  45.535  15.672  1.00  0.00     0.024 A 
HETATM   24  C10 UNL     1      19.629  45.898  15.375  1.00  0.00     0.003 A 
HETATM   25  C11 UNL     1      18.700  45.008  14.872  1.00  0.00     0.019 A 
HETATM   26  C12 UNL     1      19.097  43.702  14.664  1.00  0.00     0.012 A 
HETATM   27 BR1  UNL     1      17.873  42.398  13.968  1.00  0.00    -0.051 Br
HETATM   28  C13 UNL     1      20.385  43.337  14.960  1.00  0.00     0.043 A 
ENDBRANCH  19  22
ENDBRANCH  13  19
TORSDOF 2
ENDMDL
MODEL 2
REMARK VINA RESULT: -8.983221031      3.045      7.340
REMARK  2 active torsions:
REMARK  status: ('A' for Active; 'I' for Inactive)
REMARK    1  A    between atoms: C7_13  and  S1_14 
REMARK    2  A    between atoms: S1_14  and  C8_17 
ROOT
HETATM    1  O1  UNL     1      21.540  47.359  17.911  1.00  0.00    -0.260 OA
HETATM    2  C1  UNL     1      21.217  46.389  17.181  1.00  0.00     0.291 A 
HETATM    3  N1  UNL     1      20.288  46.450  16.230  1.00  0.00    -0.284 N 
ATOM      4  H1  UNL     1      19.820  47.348  16.102  1.00  0.00     0.172 HD
HETATM    5  C2  UNL     1      19.909  45.460  15.431  1.00  0.00     0.260 A 
HETATM    6  O2  UNL     1      18.992  45.730  14.578  1.00  0.00    -0.267 OA
HETATM    7  C3  UNL     1      20.387  44.179  15.416  1.00  0.00     0.052 A 
HETATM    8  C4  UNL     1      19.870  43.254  14.500  1.00  0.00     0.021 A 
HETATM    9  C5  UNL     1      20.315  41.951  14.441  1.00  0.00     0.033 A 
HETATM   10  C6  UNL     1      21.301  41.511  15.299  1.00  0.00     0.062 A 
HETATM   11  N2  UNL     1      21.958  40.365  15.526  1.00  0.00    -0.331 N 
ATOM     12  H2  UNL     1      21.797  39.500  15.008  1.00  0.00     0.168 HD
HETATM   13  C7  UNL     1      22.851  40.496  16.516  1.00  0.00     0.209 A 
HETATM   14  N3  UNL     1      22.781  41.781  16.962  1.00  0.00    -0.330 N 
ATOM     15  H3  UNL     1      23.338  42.192  17.712  1.00  0.00     0.168 HD
HETATM   16  C14 UNL     1      21.843  42.408  16.230  1.00  0.00     0.079 A 
HETATM   17  C15 UNL     1      21.369  43.686  16.249  1.00  0.00     0.054 A 
HETATM   18  S2  UNL     1      21.968  44.867  17.354  1.00  0.00    -0.026 SA
ENDROOT
BRANCH  13  19
HETATM   19  S1  UNL     1      23.891  39.223  17.093  1.00  0.00     0.238 S 
HETATM   20  O3  UNL     1      24.507  38.495  15.925  1.00  0.00    -0.214 OA
HETATM   21  O4  UNL     1      24.962  39.747  18.017  1.00  0.00    -0.214 OA
BRANCH  19  22
HETATM   22  C8  UNL     1      22.912  38.116  18.049  1.00  0.00     0.068 A 
HETATM   23  C9  UNL     1      22.902  36.768  17.784  1.00  0.00     0.024 A 
HETATM   24  C10 UNL     1      22.122  35.949  18.557  1.00  0.00     0.003 A 
HETATM   25  C11 UNL     1      21.345  36.422  19.596  1.00  0.00     0.019 A 
HETATM   26  C12 UNL     1      21.361  37.778  19.855  1.00  0.00     0.012 A 
HETATM   27 BR1  UNL     1      20.312  38.523  21.278  1.00  0.00    -0.051 Br
HETATM   28  C13 UNL     1      22.141  38.599  19.082  1.00  0.00     0.043 A 
ENDBRANCH  19  22
ENDBRANCH  13  19
TORSDOF 2
ENDMDL
MODEL 3
REMARK VINA RESULT: -8.883972128      1.568      1.859
REMARK  2 active torsions:
REMARK  status: ('A' for Active; 'I' for Inactive)
REMARK    1  A    between atoms: C7_13  and  S1_14 
REMARK    2  A    between atoms: S1_14  and  C8_17 
ROOT
HETATM    1  O1  UNL     1      20.893  38.752  21.649  1.00  0.00    -0.260 OA
HETATM    2  C1  UNL     1      21.386  38.484  20.526  1.00  0.00     0.291 A 
HETATM    3  N1  UNL     1      21.805  37.274  20.166  1.00  0.00    -0.284 N 
ATOM      4  H1  UNL     1      21.712  36.531  20.859  1.00  0.00     0.172 HD
HETATM    5  C2  UNL     1      22.331  36.936  18.995  1.00  0.00     0.260 A 
HETATM    6  O2  UNL     1      22.671  35.710  18.852  1.00  0.00    -0.267 OA
HETATM    7  C3  UNL     1      22.554  37.752  17.921  1.00  0.00     0.052 A 
HETATM    8  C4  UNL     1      23.124  37.227  16.754  1.00  0.00     0.021 A 
HETATM    9  C5  UNL     1      23.370  38.004  15.642  1.00  0.00     0.033 A 
HETATM   10  C6  UNL     1      23.057  39.347  15.647  1.00  0.00     0.062 A 
HETATM   11  N2  UNL     1      23.148  40.373  14.789  1.00  0.00    -0.331 N 
ATOM     12  H2  UNL     1      23.528  40.299  13.845  1.00  0.00     0.168 HD
HETATM   13  C7  UNL     1      22.678  41.508  15.327  1.00  0.00     0.209 A 
HETATM   14  N3  UNL     1      22.260  41.219  16.590  1.00  0.00    -0.330 N 
ATOM     15  H3  UNL     1      21.853  41.875  17.258  1.00  0.00     0.168 HD
HETATM   16  C14 UNL     1      22.486  39.909  16.796  1.00  0.00     0.079 A 
HETATM   17  C15 UNL     1      22.262  39.099  17.870  1.00  0.00     0.054 A 
HETATM   18  S2  UNL     1      21.564  39.690  19.332  1.00  0.00    -0.026 SA
ENDROOT
BRANCH  13  19
HETATM   19  S1  UNL     1      22.632  43.048  14.515  1.00  0.00     0.238 S 
HETATM   20  O3  UNL     1      23.882  43.831  14.827  1.00  0.00    -0.214 OA
HETATM   21  O4  UNL     1      22.460  42.893  13.025  1.00  0.00    -0.214 OA
BRANCH  19  22
HETATM   22  C8  UNL     1      21.214  43.920  15.087  1.00  0.00     0.068 A 
HETATM   23  C9  UNL     1      19.955  43.597  14.642  1.00  0.00     0.024 A 
HETATM   24  C10 UNL     1      18.885  44.307  15.119  1.00  0.00     0.003 A 
HETATM   25  C11 UNL     1      19.017  45.335  16.030  1.00  0.00     0.019 A 
HETATM   26  C12 UNL     1      20.286  45.654  16.471  1.00  0.00     0.012 A 
HETATM   27 BR1  UNL     1      20.565  47.069  17.737  1.00  0.00    -0.051 Br
HETATM   28  C13 UNL     1      21.359  44.944  15.996  1.00  0.00     0.043 A 
ENDBRANCH  19  22
ENDBRANCH  13  19
TORSDOF 2
ENDMDL
MODEL 4
REMARK VINA RESULT: -8.804246515      3.381      7.466
REMARK  2 active torsions:
REMARK  status: ('A' for Active; 'I' for Inactive)
REMARK    1  A    between atoms: C7_13  and  S1_14 
REMARK    2  A    between atoms: S1_14  and  C8_17 
ROOT
HETATM    1  O1  UNL     1      17.265  42.204  13.010  1.00  0.00    -0.260 OA
HETATM    2  C1  UNL     1      17.966  42.956  13.731  1.00  0.00     0.291 A 
HETATM    3  N1  UNL     1      17.861  44.281  13.749  1.00  0.00    -0.284 N 
ATOM      4  H1  UNL     1      17.163  44.695  13.130  1.00  0.00     0.172 HD
HETATM    5  C2  UNL     1      18.573  45.121  14.490  1.00  0.00     0.260 A 
HETATM    6  O2  UNL     1      18.313  46.368  14.355  1.00  0.00    -0.267 OA
HETATM    7  C3  UNL     1      19.558  44.805  15.385  1.00  0.00     0.052 A 
HETATM    8  C4  UNL     1      20.213  45.824  16.088  1.00  0.00     0.021 A 
HETATM    9  C5  UNL     1      21.212  45.562  17.001  1.00  0.00     0.033 A 
HETATM   10  C6  UNL     1      21.603  44.263  17.253  1.00  0.00     0.062 A 
HETATM   11  N2  UNL     1      22.499  43.650  18.039  1.00  0.00    -0.331 N 
ATOM     12  H2  UNL     1      23.133  44.136  18.674  1.00  0.00     0.168 HD
HETATM   13  C7  UNL     1      22.459  42.319  17.885  1.00  0.00     0.209 A 
HETATM   14  N3  UNL     1      21.498  42.043  16.961  1.00  0.00    -0.330 N 
ATOM     15  H3  UNL     1      21.227  41.118  16.626  1.00  0.00     0.168 HD
HETATM   16  C14 UNL     1      20.971  43.217  16.569  1.00  0.00     0.079 A 
HETATM   17  C15 UNL     1      19.989  43.528  15.676  1.00  0.00     0.054 A 
HETATM   18  S2  UNL     1      19.148  42.315  14.783  1.00  0.00    -0.026 SA
ENDROOT
BRANCH  13  19
HETATM   19  S1  UNL     1      23.474  41.188  18.737  1.00  0.00     0.238 S 
HETATM   20  O3  UNL     1      24.921  41.584  18.588  1.00  0.00    -0.214 OA
HETATM   21  O4  UNL     1      23.099  41.084  20.195  1.00  0.00    -0.214 OA
BRANCH  19  22
HETATM   22  C8  UNL     1      23.208  39.593  18.044  1.00  0.00     0.068 A 
HETATM   23  C9  UNL     1      23.614  39.298  16.765  1.00  0.00     0.024 A 
HETATM   24  C10 UNL     1      23.383  38.041  16.273  1.00  0.00     0.003 A 
HETATM   25  C11 UNL     1      22.757  37.054  17.008  1.00  0.00     0.019 A 
HETATM   26  C12 UNL     1      22.352  37.359  18.292  1.00  0.00     0.012 A 
HETATM   27 BR1  UNL     1      21.474  36.050  19.388  1.00  0.00    -0.051 Br
HETATM   28  C13 UNL     1      22.582  38.617  18.788  1.00  0.00     0.043 A 
ENDBRANCH  19  22
ENDBRANCH  13  19
TORSDOF 2
ENDMDL
MODEL 5
REMARK VINA RESULT: -8.780481680      1.979      2.838
REMARK  2 active torsions:
REMARK  status: ('A' for Active; 'I' for Inactive)
REMARK    1  A    between atoms: C7_13  and  S1_14 
REMARK    2  A    between atoms: S1_14  and  C8_17 
ROOT
HETATM    1  O1  UNL     1      22.034  36.794  17.507  1.00  0.00    -0.260 OA
HETATM    2  C1  UNL     1      22.554  37.823  18.004  1.00  0.00     0.291 A 
HETATM    3  N1  UNL     1      23.312  37.821  19.098  1.00  0.00    -0.284 N 
ATOM      4  H1  UNL     1      23.467  36.918  19.547  1.00  0.00     0.172 HD
HETATM    5  C2  UNL     1      23.885  38.875  19.665  1.00  0.00     0.260 A 
HETATM    6  O2  UNL     1      24.577  38.655  20.719  1.00  0.00    -0.267 OA
HETATM    7  C3  UNL     1      23.820  40.176  19.248  1.00  0.00     0.052 A 
HETATM    8  C4  UNL     1      24.490  41.172  19.970  1.00  0.00     0.021 A 
HETATM    9  C5  UNL     1      24.458  42.499  19.596  1.00  0.00     0.033 A 
HETATM   10  C6  UNL     1      23.752  42.891  18.478  1.00  0.00     0.062 A 
HETATM   11  N2  UNL     1      23.503  44.040  17.835  1.00  0.00    -0.331 N 
ATOM     12  H2  UNL     1      23.861  44.950  18.127  1.00  0.00     0.168 HD
HETATM   13  C7  UNL     1      22.726  43.845  16.760  1.00  0.00     0.209 A 
HETATM   14  N3  UNL     1      22.451  42.513  16.691  1.00  0.00    -0.330 N 
ATOM     15  H3  UNL     1      21.881  42.049  15.983  1.00  0.00     0.168 HD
HETATM   16  C14 UNL     1      23.068  41.923  17.731  1.00  0.00     0.079 A 
HETATM   17  C15 UNL     1      23.130  40.625  18.142  1.00  0.00     0.054 A 
HETATM   18  S2  UNL     1      22.326  39.357  17.293  1.00  0.00    -0.026 SA
ENDROOT
BRANCH  13  19
HETATM   19  S1  UNL     1      22.193  45.101  15.677  1.00  0.00     0.238 S 
HETATM   20  O3  UNL     1      22.297  46.443  16.356  1.00  0.00    -0.214 OA
HETATM   21  O4  UNL     1      22.971  45.097  14.385  1.00  0.00    -0.214 OA
BRANCH  19  22
HETATM   22  C8  UNL     1      20.519  44.770  15.247  1.00  0.00     0.068 A 
HETATM   23  C9  UNL     1      19.694  45.767  14.786  1.00  0.00     0.024 A 
HETATM   24  C10 UNL     1      18.399  45.457  14.465  1.00  0.00     0.003 A 
HETATM   25  C11 UNL     1      17.885  44.181  14.585  1.00  0.00     0.019 A 
HETATM   26  C12 UNL     1      18.721  43.185  15.049  1.00  0.00     0.012 A 
HETATM   27 BR1  UNL     1      18.093  41.382  15.248  1.00  0.00    -0.051 Br
HETATM   28  C13 UNL     1      20.018  43.493  15.371  1.00  0.00     0.043 A 
ENDBRANCH  19  22
ENDBRANCH  13  19
TORSDOF 2
ENDMDL
