MODEL 1
REMARK VINA RESULT: -6.167399375      0.000      0.000
REMARK  8 active torsions:
REMARK  status: ('A' for Active; 'I' for Inactive)
REMARK    1  A    between atoms: C2_2  and  C3_3 
REMARK    2  A    between atoms: C3_3  and  O1_5 
REMARK    3  A    between atoms: C3_3  and  C5_7 
REMARK    4  A    between atoms: C8_10  and  C9_11 
REMARK    5  A    between atoms: C9_11  and  O2_12 
REMARK    6  A    between atoms: C11_15  and  O3_16 
REMARK    7  A    between atoms: C12_18  and  O4_19 
REMARK    8  A    between atoms: C20_29  and  O5_31 
ROOT
HETATM    1  C5  UNL     1      -9.341   5.452 -20.323  1.00  0.00     0.025 C 
HETATM    2  C6  UNL     1     -10.168   6.249 -19.333  1.00  0.00     0.022 C 
HETATM    3  C7  UNL     1     -11.595   6.355 -19.889  1.00  0.00     0.010 C 
HETATM    4  C8  UNL     1     -12.643   6.425 -18.833  1.00  0.00     0.024 C 
HETATM    5  C10 UNL     1     -13.775   5.469 -18.935  1.00  0.00     0.042 C 
HETATM    6  C11 UNL     1     -13.986   4.686 -20.163  1.00  0.00     0.148 C 
HETATM    7  C12 UNL     1     -12.885   4.770 -21.214  1.00  0.00     0.156 C 
HETATM    8  C13 UNL     1     -11.614   4.934 -20.492  1.00  0.00    -0.000 C 
HETATM    9  C14 UNL     1     -11.663   3.830 -19.519  1.00  0.00     0.019 C 
HETATM   10  C15 UNL     1     -10.295   4.787 -21.230  1.00  0.00     0.008 C 
HETATM   11  C16 UNL     1     -10.293   4.985 -22.680  1.00  0.00     0.063 C 
HETATM   12  C17 UNL     1      -9.709   6.235 -23.267  1.00  0.00     0.187 C 
HETATM   13  C18 UNL     1      -8.313   6.187 -23.576  1.00  0.00     0.101 C 
HETATM   14  N1  UNL     1      -7.203   6.153 -23.845  1.00  0.00    -0.194 NA
HETATM   15  C19 UNL     1     -10.524   6.800 -24.455  1.00  0.00     0.098 C 
HETATM   16  C20 UNL     1     -10.203   8.298 -24.526  1.00  0.00     0.076 C 
HETATM   17  C21 UNL     1      -9.865   8.530 -26.014  1.00  0.00     0.050 C 
HETATM   18  C22 UNL     1     -11.319   9.164 -24.142  1.00  0.00     0.010 C 
HETATM   19  C23 UNL     1     -11.562   9.737 -22.961  1.00  0.00    -0.005 C 
HETATM   20  C24 UNL     1     -10.837   9.698 -21.720  1.00  0.00    -0.024 C 
HETATM   21  C25 UNL     1     -10.807   8.638 -20.729  1.00  0.00     0.069 C 
HETATM   22  C26 UNL     1     -11.756   7.447 -20.893  1.00  0.00     0.104 C 
HETATM   23  C27 UNL     1     -13.064   8.080 -21.113  1.00  0.00     0.050 C 
HETATM   24  O6  UNL     1     -11.330   6.953 -22.138  1.00  0.00    -0.227 OA
HETATM   25  O7  UNL     1     -10.076   7.199 -22.331  1.00  0.00    -0.213 OA
ENDROOT
BRANCH  16  26
HETATM   26  O5  UNL     1      -9.028   8.635 -23.874  1.00  0.00    -0.386 OA
ATOM     27  H5  UNL     1      -8.542   9.324 -24.311  1.00  0.00     0.211 HD
ENDBRANCH  16  26
BRANCH   1  28
HETATM   28  C3  UNL     1      -8.247   4.630 -19.675  1.00  0.00     0.058 C 
HETATM   29  C4  UNL     1      -8.315   4.815 -18.121  1.00  0.00     0.046 C 
BRANCH  28  30
HETATM   30  C2  UNL     1      -6.860   5.133 -19.936  1.00  0.00     0.033 C 
HETATM   31  C1  UNL     1      -6.221   4.129 -20.904  1.00  0.00     0.008 C 
ENDBRANCH  28  30
BRANCH  28  32
HETATM   32  O1  UNL     1      -8.386   3.262 -19.773  1.00  0.00    -0.390 OA
ATOM     33  H1  UNL     1      -8.470   2.939 -20.663  1.00  0.00     0.210 HD
ENDBRANCH  28  32
ENDBRANCH   1  28
BRANCH   7  34
HETATM   34  O4  UNL     1     -12.860   3.482 -21.812  1.00  0.00    -0.392 OA
ATOM     35  H4  UNL     1     -11.990   3.147 -21.626  1.00  0.00     0.210 HD
ENDBRANCH   7  34
BRANCH   4  36
HETATM   36  C9  UNL     1     -12.140   6.554 -17.404  1.00  0.00     0.169 C 
BRANCH  36  37
HETATM   37  O2  UNL     1     -12.090   7.960 -17.161  1.00  0.00    -0.400 OA
ATOM     38  H2  UNL     1     -12.994   8.248 -17.219  1.00  0.00     0.209 HD
ENDBRANCH  36  37
ENDBRANCH   4  36
BRANCH   6  39
HETATM   39  O3  UNL     1     -15.178   5.168 -20.789  1.00  0.00    -0.393 OA
ATOM     40  H3  UNL     1     -15.784   4.440 -20.858  1.00  0.00     0.210 HD
ENDBRANCH   6  39
TORSDOF 8
ENDMDL
MODEL 2
REMARK VINA RESULT: -6.134165110      2.614      5.910
REMARK  8 active torsions:
REMARK  status: ('A' for Active; 'I' for Inactive)
REMARK    1  A    between atoms: C2_2  and  C3_3 
REMARK    2  A    between atoms: C3_3  and  O1_5 
REMARK    3  A    between atoms: C3_3  and  C5_7 
REMARK    4  A    between atoms: C8_10  and  C9_11 
REMARK    5  A    between atoms: C9_11  and  O2_12 
REMARK    6  A    between atoms: C11_15  and  O3_16 
REMARK    7  A    between atoms: C12_18  and  O4_19 
REMARK    8  A    between atoms: C20_29  and  O5_31 
ROOT
HETATM    1  C5  UNL     1     -10.101   4.745 -19.315  1.00  0.00     0.025 C 
HETATM    2  C6  UNL     1     -10.315   3.886 -20.545  1.00  0.00     0.022 C 
HETATM    3  C7  UNL     1     -11.478   4.489 -21.345  1.00  0.00     0.010 C 
HETATM    4  C8  UNL     1     -11.365   4.277 -22.815  1.00  0.00     0.024 C 
HETATM    5  C10 UNL     1     -11.497   5.472 -23.686  1.00  0.00     0.042 C 
HETATM    6  C11 UNL     1     -11.985   6.748 -23.140  1.00  0.00     0.148 C 
HETATM    7  C12 UNL     1     -12.151   6.814 -21.626  1.00  0.00     0.156 C 
HETATM    8  C13 UNL     1     -11.108   5.958 -21.042  1.00  0.00    -0.000 C 
HETATM    9  C14 UNL     1      -9.889   6.457 -21.702  1.00  0.00     0.019 C 
HETATM   10  C15 UNL     1     -10.829   6.007 -19.550  1.00  0.00     0.008 C 
HETATM   11  C16 UNL     1     -11.890   6.497 -18.669  1.00  0.00     0.063 C 
HETATM   12  C17 UNL     1     -12.656   5.536 -17.810  1.00  0.00     0.187 C 
HETATM   13  C18 UNL     1     -12.110   5.285 -16.512  1.00  0.00     0.101 C 
HETATM   14  N1  UNL     1     -11.692   5.093 -15.465  1.00  0.00    -0.194 NA
HETATM   15  C19 UNL     1     -14.168   5.852 -17.726  1.00  0.00     0.098 C 
HETATM   16  C20 UNL     1     -14.867   4.532 -17.380  1.00  0.00     0.076 C 
HETATM   17  C21 UNL     1     -15.797   4.907 -16.206  1.00  0.00     0.050 C 
HETATM   18  C22 UNL     1     -15.667   3.978 -18.474  1.00  0.00     0.010 C 
HETATM   19  C23 UNL     1     -15.330   3.040 -19.361  1.00  0.00    -0.005 C 
HETATM   20  C24 UNL     1     -14.117   2.287 -19.532  1.00  0.00    -0.024 C 
HETATM   21  C25 UNL     1     -12.870   2.716 -20.138  1.00  0.00     0.069 C 
HETATM   22  C26 UNL     1     -12.819   4.080 -20.834  1.00  0.00     0.104 C 
HETATM   23  C27 UNL     1     -13.987   4.054 -21.725  1.00  0.00     0.050 C 
HETATM   24  O6  UNL     1     -13.147   4.925 -19.760  1.00  0.00    -0.227 OA
HETATM   25  O7  UNL     1     -12.758   4.419 -18.636  1.00  0.00    -0.213 OA
ENDROOT
BRANCH  16  26
HETATM   26  O5  UNL     1     -14.014   3.593 -16.825  1.00  0.00    -0.386 OA
ATOM     27  H5  UNL     1     -14.014   3.602 -15.875  1.00  0.00     0.211 HD
ENDBRANCH  16  26
BRANCH   1  28
HETATM   28  C3  UNL     1      -8.659   4.803 -18.859  1.00  0.00     0.058 C 
HETATM   29  C4  UNL     1      -8.222   6.300 -18.713  1.00  0.00     0.046 C 
BRANCH  28  30
HETATM   30  C2  UNL     1      -7.668   4.342 -19.885  1.00  0.00     0.033 C 
HETATM   31  C1  UNL     1      -6.363   5.089 -19.578  1.00  0.00     0.008 C 
ENDBRANCH  28  30
BRANCH  28  32
HETATM   32  O1  UNL     1      -8.413   4.342 -17.583  1.00  0.00    -0.390 OA
ATOM     33  H1  UNL     1      -7.748   4.830 -17.111  1.00  0.00     0.210 HD
ENDBRANCH  28  32
ENDBRANCH   1  28
BRANCH   7  34
HETATM   34  O4  UNL     1     -11.827   8.154 -21.286  1.00  0.00    -0.392 OA
ATOM     35  H4  UNL     1     -12.359   8.344 -20.522  1.00  0.00     0.210 HD
ENDBRANCH   7  34
BRANCH   4  36
HETATM   36  C9  UNL     1     -10.235   3.367 -23.271  1.00  0.00     0.169 C 
BRANCH  36  37
HETATM   37  O2  UNL     1     -10.849   2.093 -23.464  1.00  0.00    -0.400 OA
ATOM     38  H2  UNL     1     -10.282   1.480 -23.009  1.00  0.00     0.209 HD
ENDBRANCH  36  37
ENDBRANCH   4  36
BRANCH   6  39
HETATM   39  O3  UNL     1     -13.279   6.996 -23.697  1.00  0.00    -0.393 OA
ATOM     40  H3  UNL     1     -13.484   7.913 -23.556  1.00  0.00     0.210 HD
ENDBRANCH   6  39
TORSDOF 8
ENDMDL
MODEL 3
REMARK VINA RESULT: -6.042780087      0.957      1.053
REMARK  8 active torsions:
REMARK  status: ('A' for Active; 'I' for Inactive)
REMARK    1  A    between atoms: C2_2  and  C3_3 
REMARK    2  A    between atoms: C3_3  and  O1_5 
REMARK    3  A    between atoms: C3_3  and  C5_7 
REMARK    4  A    between atoms: C8_10  and  C9_11 
REMARK    5  A    between atoms: C9_11  and  O2_12 
REMARK    6  A    between atoms: C11_15  and  O3_16 
REMARK    7  A    between atoms: C12_18  and  O4_19 
REMARK    8  A    between atoms: C20_29  and  O5_31 
ROOT
HETATM    1  C5  UNL     1      -8.977   5.445 -20.573  1.00  0.00     0.025 C 
HETATM    2  C6  UNL     1      -9.822   6.469 -19.841  1.00  0.00     0.022 C 
HETATM    3  C7  UNL     1     -11.213   6.481 -20.488  1.00  0.00     0.010 C 
HETATM    4  C8  UNL     1     -12.311   6.819 -19.539  1.00  0.00     0.024 C 
HETATM    5  C10 UNL     1     -13.472   5.895 -19.487  1.00  0.00     0.042 C 
HETATM    6  C11 UNL     1     -13.650   4.857 -20.514  1.00  0.00     0.148 C 
HETATM    7  C12 UNL     1     -12.495   4.668 -21.490  1.00  0.00     0.156 C 
HETATM    8  C13 UNL     1     -11.257   4.961 -20.752  1.00  0.00    -0.000 C 
HETATM    9  C14 UNL     1     -11.397   4.111 -19.558  1.00  0.00     0.019 C 
HETATM   10  C15 UNL     1      -9.909   4.614 -21.359  1.00  0.00     0.008 C 
HETATM   11  C16 UNL     1      -9.826   4.474 -22.813  1.00  0.00     0.063 C 
HETATM   12  C17 UNL     1      -9.164   5.540 -23.634  1.00  0.00     0.187 C 
HETATM   13  C18 UNL     1      -7.758   5.386 -23.843  1.00  0.00     0.101 C 
HETATM   14  N1  UNL     1      -6.637   5.262 -24.031  1.00  0.00    -0.194 NA
HETATM   15  C19 UNL     1      -9.895   5.838 -24.965  1.00  0.00     0.098 C 
HETATM   16  C20 UNL     1      -9.513   7.270 -25.356  1.00  0.00     0.076 C 
HETATM   17  C21 UNL     1      -9.092   7.146 -26.836  1.00  0.00     0.050 C 
HETATM   18  C22 UNL     1     -10.613   8.230 -25.246  1.00  0.00     0.010 C 
HETATM   19  C23 UNL     1     -10.894   9.065 -24.243  1.00  0.00    -0.005 C 
HETATM   20  C24 UNL     1     -10.235   9.294 -22.986  1.00  0.00    -0.024 C 
HETATM   21  C25 UNL     1     -10.296   8.489 -21.779  1.00  0.00     0.069 C 
HETATM   22  C26 UNL     1     -11.281   7.317 -21.723  1.00  0.00     0.104 C 
HETATM   23  C27 UNL     1     -12.551   7.916 -22.157  1.00  0.00     0.050 C 
HETATM   24  O6  UNL     1     -10.811   6.540 -22.796  1.00  0.00    -0.227 OA
HETATM   25  O7  UNL     1      -9.541   6.702 -22.966  1.00  0.00    -0.213 OA
ENDROOT
BRANCH  16  26
HETATM   26  O5  UNL     1      -8.361   7.718 -24.731  1.00  0.00    -0.386 OA
ATOM     27  H5  UNL     1      -7.656   7.080 -24.745  1.00  0.00     0.211 HD
ENDBRANCH  16  26
BRANCH   1  28
HETATM   28  C3  UNL     1      -7.950   4.765 -19.692  1.00  0.00     0.058 C 
HETATM   29  C4  UNL     1      -7.681   5.655 -18.432  1.00  0.00     0.046 C 
BRANCH  28  30
HETATM   30  C2  UNL     1      -6.571   4.717 -20.276  1.00  0.00     0.033 C 
HETATM   31  C1  UNL     1      -5.616   5.093 -19.135  1.00  0.00     0.008 C 
ENDBRANCH  28  30
BRANCH  28  32
HETATM   32  O1  UNL     1      -8.356   3.593 -19.091  1.00  0.00    -0.390 OA
ATOM     33  H1  UNL     1      -8.054   3.485 -18.197  1.00  0.00     0.210 HD
ENDBRANCH  28  32
ENDBRANCH   1  28
BRANCH   7  34
HETATM   34  O4  UNL     1     -12.489   3.277 -21.777  1.00  0.00    -0.392 OA
ATOM     35  H4  UNL     1     -12.561   2.856 -20.928  1.00  0.00     0.210 HD
ENDBRANCH   7  34
BRANCH   4  36
HETATM   36  C9  UNL     1     -11.876   7.259 -18.150  1.00  0.00     0.169 C 
BRANCH  36  37
HETATM   37  O2  UNL     1     -12.003   8.681 -18.163  1.00  0.00    -0.400 OA
ATOM     38  H2  UNL     1     -11.385   8.985 -17.508  1.00  0.00     0.209 HD
ENDBRANCH  36  37
ENDBRANCH   4  36
BRANCH   6  39
HETATM   39  O3  UNL     1     -14.789   5.213 -21.302  1.00  0.00    -0.393 OA
ATOM     40  H3  UNL     1     -14.515   5.240 -22.212  1.00  0.00     0.210 HD
ENDBRANCH   6  39
TORSDOF 8
ENDMDL
MODEL 4
REMARK VINA RESULT: -6.013232556      2.833      6.487
REMARK  8 active torsions:
REMARK  status: ('A' for Active; 'I' for Inactive)
REMARK    1  A    between atoms: C2_2  and  C3_3 
REMARK    2  A    between atoms: C3_3  and  O1_5 
REMARK    3  A    between atoms: C3_3  and  C5_7 
REMARK    4  A    between atoms: C8_10  and  C9_11 
REMARK    5  A    between atoms: C9_11  and  O2_12 
REMARK    6  A    between atoms: C11_15  and  O3_16 
REMARK    7  A    between atoms: C12_18  and  O4_19 
REMARK    8  A    between atoms: C20_29  and  O5_31 
ROOT
HETATM    1  C5  UNL     1     -12.837   4.504 -19.835  1.00  0.00     0.025 C 
HETATM    2  C6  UNL     1     -12.306   5.615 -20.719  1.00  0.00     0.022 C 
HETATM    3  C7  UNL     1     -11.209   6.353 -19.941  1.00  0.00     0.010 C 
HETATM    4  C8  UNL     1     -10.141   6.923 -20.809  1.00  0.00     0.024 C 
HETATM    5  C10 UNL     1      -8.735   6.594 -20.461  1.00  0.00     0.042 C 
HETATM    6  C11 UNL     1      -8.410   5.968 -19.171  1.00  0.00     0.148 C 
HETATM    7  C12 UNL     1      -9.592   5.511 -18.325  1.00  0.00     0.156 C 
HETATM    8  C13 UNL     1     -10.648   5.088 -19.257  1.00  0.00    -0.000 C 
HETATM    9  C14 UNL     1      -9.930   4.152 -20.139  1.00  0.00     0.019 C 
HETATM   10  C15 UNL     1     -11.861   4.332 -18.742  1.00  0.00     0.008 C 
HETATM   11  C16 UNL     1     -12.209   4.474 -17.327  1.00  0.00     0.063 C 
HETATM   12  C17 UNL     1     -13.393   5.300 -16.924  1.00  0.00     0.187 C 
HETATM   13  C18 UNL     1     -14.642   4.607 -16.849  1.00  0.00     0.101 C 
HETATM   14  N1  UNL     1     -15.642   4.059 -16.768  1.00  0.00    -0.194 NA
HETATM   15  C19 UNL     1     -13.150   6.149 -15.653  1.00  0.00     0.098 C 
HETATM   16  C20 UNL     1     -14.127   7.328 -15.728  1.00  0.00     0.076 C 
HETATM   17  C21 UNL     1     -14.790   7.344 -14.334  1.00  0.00     0.050 C 
HETATM   18  C22 UNL     1     -13.483   8.620 -15.973  1.00  0.00     0.010 C 
HETATM   19  C23 UNL     1     -13.325   9.268 -17.129  1.00  0.00    -0.005 C 
HETATM   20  C24 UNL     1     -13.721   8.928 -18.469  1.00  0.00    -0.024 C 
HETATM   21  C25 UNL     1     -13.088   7.997 -19.385  1.00  0.00     0.069 C 
HETATM   22  C26 UNL     1     -11.744   7.373 -18.992  1.00  0.00     0.104 C 
HETATM   23  C27 UNL     1     -10.932   8.532 -18.596  1.00  0.00     0.050 C 
HETATM   24  O6  UNL     1     -12.110   6.710 -17.808  1.00  0.00    -0.227 OA
HETATM   25  O7  UNL     1     -13.349   6.346 -17.842  1.00  0.00    -0.213 OA
ENDROOT
BRANCH  16  26
HETATM   26  O5  UNL     1     -15.191   7.101 -16.586  1.00  0.00    -0.386 OA
ATOM     27  H5  UNL     1     -15.073   7.498 -17.442  1.00  0.00     0.211 HD
ENDBRANCH  16  26
BRANCH   1  28
HETATM   28  C3  UNL     1     -13.300   3.285 -20.605  1.00  0.00     0.058 C 
HETATM   29  C4  UNL     1     -12.847   3.415 -22.098  1.00  0.00     0.046 C 
BRANCH  28  30
HETATM   30  C2  UNL     1     -14.785   3.200 -20.791  1.00  0.00     0.033 C 
HETATM   31  C1  UNL     1     -15.267   2.093 -19.845  1.00  0.00     0.008 C 
ENDBRANCH  28  30
BRANCH  28  32
HETATM   32  O1  UNL     1     -12.700   2.093 -20.261  1.00  0.00    -0.390 OA
ATOM     33  H1  UNL     1     -12.017   2.173 -19.604  1.00  0.00     0.210 HD
ENDBRANCH  28  32
ENDBRANCH   1  28
BRANCH   7  34
HETATM   34  O4  UNL     1      -9.131   4.342 -17.662  1.00  0.00    -0.392 OA
ATOM     35  H4  UNL     1      -9.598   4.334 -16.835  1.00  0.00     0.210 HD
ENDBRANCH   7  34
BRANCH   4  36
HETATM   36  C9  UNL     1     -10.387   6.838 -22.307  1.00  0.00     0.169 C 
BRANCH  36  37
HETATM   37  O2  UNL     1      -9.102   6.577 -22.873  1.00  0.00    -0.400 OA
ATOM     38  H2  UNL     1      -9.214   5.771 -23.365  1.00  0.00     0.209 HD
ENDBRANCH  36  37
ENDBRANCH   4  36
BRANCH   6  39
HETATM   39  O3  UNL     1      -7.702   6.931 -18.385  1.00  0.00    -0.393 OA
ATOM     40  H3  UNL     1      -8.285   7.664 -18.231  1.00  0.00     0.210 HD
ENDBRANCH   6  39
TORSDOF 8
ENDMDL
MODEL 5
REMARK VINA RESULT: -5.972598097      3.307      6.753
REMARK  8 active torsions:
REMARK  status: ('A' for Active; 'I' for Inactive)
REMARK    1  A    between atoms: C2_2  and  C3_3 
REMARK    2  A    between atoms: C3_3  and  O1_5 
REMARK    3  A    between atoms: C3_3  and  C5_7 
REMARK    4  A    between atoms: C8_10  and  C9_11 
REMARK    5  A    between atoms: C9_11  and  O2_12 
REMARK    6  A    between atoms: C11_15  and  O3_16 
REMARK    7  A    between atoms: C12_18  and  O4_19 
REMARK    8  A    between atoms: C20_29  and  O5_31 
ROOT
HETATM    1  C5  UNL     1     -11.781   6.948 -18.586  1.00  0.00     0.025 C 
HETATM    2  C6  UNL     1     -11.616   5.452 -18.760  1.00  0.00     0.022 C 
HETATM    3  C7  UNL     1     -13.008   4.849 -18.997  1.00  0.00     0.010 C 
HETATM    4  C8  UNL     1     -12.994   3.637 -19.863  1.00  0.00     0.024 C 
HETATM    5  C10 UNL     1     -13.918   3.622 -21.025  1.00  0.00     0.042 C 
HETATM    6  C11 UNL     1     -14.980   4.631 -21.151  1.00  0.00     0.148 C 
HETATM    7  C12 UNL     1     -14.945   5.777 -20.146  1.00  0.00     0.156 C 
HETATM    8  C13 UNL     1     -13.531   6.034 -19.838  1.00  0.00    -0.000 C 
HETATM    9  C14 UNL     1     -12.939   6.173 -21.179  1.00  0.00     0.019 C 
HETATM   10  C15 UNL     1     -13.133   7.283 -19.071  1.00  0.00     0.008 C 
HETATM   11  C16 UNL     1     -14.147   7.928 -18.236  1.00  0.00     0.063 C 
HETATM   12  C17 UNL     1     -14.079   7.808 -16.744  1.00  0.00     0.187 C 
HETATM   13  C18 UNL     1     -13.319   8.814 -16.068  1.00  0.00     0.101 C 
HETATM   14  N1  UNL     1     -12.729   9.624 -15.518  1.00  0.00    -0.194 NA
HETATM   15  C19 UNL     1     -15.461   7.612 -16.076  1.00  0.00     0.098 C 
HETATM   16  C20 UNL     1     -15.199   6.912 -14.737  1.00  0.00     0.076 C 
HETATM   17  C21 UNL     1     -16.002   7.753 -13.721  1.00  0.00     0.050 C 
HETATM   18  C22 UNL     1     -15.663   5.525 -14.691  1.00  0.00     0.010 C 
HETATM   19  C23 UNL     1     -14.965   4.405 -14.893  1.00  0.00    -0.005 C 
HETATM   20  C24 UNL     1     -13.579   4.195 -15.209  1.00  0.00    -0.024 C 
HETATM   21  C25 UNL     1     -12.917   4.343 -16.492  1.00  0.00     0.069 C 
HETATM   22  C26 UNL     1     -13.770   4.612 -17.736  1.00  0.00     0.104 C 
HETATM   23  C27 UNL     1     -14.809   3.576 -17.669  1.00  0.00     0.050 C 
HETATM   24  O6  UNL     1     -14.380   5.823 -17.367  1.00  0.00    -0.227 OA
HETATM   25  O7  UNL     1     -13.620   6.504 -16.574  1.00  0.00    -0.213 OA
ENDROOT
BRANCH  16  26
HETATM   26  O5  UNL     1     -13.891   7.044 -14.300  1.00  0.00    -0.386 OA
ATOM     27  H5  UNL     1     -13.311   6.379 -14.652  1.00  0.00     0.211 HD
ENDBRANCH  16  26
BRANCH   1  28
HETATM   28  C3  UNL     1     -10.599   7.750 -19.089  1.00  0.00     0.058 C 
HETATM   29  C4  UNL     1     -11.090   8.763 -20.178  1.00  0.00     0.046 C 
BRANCH  28  30
HETATM   30  C2  UNL     1      -9.614   6.959 -19.895  1.00  0.00     0.033 C 
HETATM   31  C1  UNL     1      -9.737   7.473 -21.336  1.00  0.00     0.008 C 
ENDBRANCH  28  30
BRANCH  28  32
HETATM   32  O1  UNL     1     -10.028   8.614 -18.180  1.00  0.00    -0.390 OA
ATOM     33  H1  UNL     1     -10.512   9.421 -18.048  1.00  0.00     0.210 HD
ENDBRANCH  28  32
ENDBRANCH   1  28
BRANCH   7  34
HETATM   34  O4  UNL     1     -15.425   6.903 -20.866  1.00  0.00    -0.392 OA
ATOM     35  H4  UNL     1     -16.271   6.632 -21.203  1.00  0.00     0.210 HD
ENDBRANCH   7  34
BRANCH   4  36
HETATM   36  C9  UNL     1     -11.621   3.095 -20.226  1.00  0.00     0.169 C 
BRANCH  36  37
HETATM   37  O2  UNL     1     -11.687   1.701 -19.921  1.00  0.00    -0.400 OA
ATOM     38  H2  UNL     1     -11.351   1.632 -19.034  1.00  0.00     0.209 HD
ENDBRANCH  36  37
ENDBRANCH   4  36
BRANCH   6  39
HETATM   39  O3  UNL     1     -16.235   3.971 -20.964  1.00  0.00    -0.393 OA
ATOM     40  H3  UNL     1     -16.921   4.571 -21.233  1.00  0.00     0.210 HD
ENDBRANCH   6  39
TORSDOF 8
ENDMDL
