MODEL 1
REMARK VINA RESULT: -8.282485074      0.000      0.000
REMARK  7 active torsions:
REMARK  status: ('A' for Active; 'I' for Inactive)
REMARK    1  A    between atoms: C6_10  and  C7_11 
REMARK    2  A    between atoms: C7_11  and  N3_12 
REMARK    3  A    between atoms: N3_12  and  C8_14 
REMARK    4  A    between atoms: C9_15  and  C10_16 
REMARK    5  A    between atoms: C10_16  and  C11_17 
REMARK    6  A    between atoms: C11_17  and  C12_18 
REMARK    7  A    between atoms: C12_18  and  C13_19 
ROOT
HETATM    1  N1  UNL     1     -12.983   8.027 -21.230  1.00  0.00    -0.064 NA
HETATM    2  C1  UNL     1     -12.064   9.119 -21.259  1.00  0.00     0.189 A 
HETATM    3  N2  UNL     1     -11.438   9.464 -22.299  1.00  0.00    -0.360 N 
ATOM      4  H2  UNL     1     -11.625   8.921 -23.142  1.00  0.00     0.162 HD
HETATM    5  C2  UNL     1     -10.496  10.531 -22.425  1.00  0.00     0.166 A 
HETATM    6  C3  UNL     1     -10.368  11.398 -21.232  1.00  0.00     0.025 A 
HETATM    7  C4  UNL     1      -9.600  12.565 -21.256  1.00  0.00     0.127 A 
HETATM    8  F1  UNL     1      -8.952  12.884 -22.388  1.00  0.00    -0.205 F 
HETATM    9  C5  UNL     1      -9.537  13.351 -20.099  1.00  0.00     0.051 A 
HETATM   10  C6  UNL     1     -10.196  13.028 -18.936  1.00  0.00    -0.035 A 
HETATM   11  C19 UNL     1     -10.942  11.863 -18.953  1.00  0.00     0.039 A 
HETATM   12  C20 UNL     1     -11.025  11.060 -20.093  1.00  0.00     0.046 A 
HETATM   13  N4  UNL     1     -11.888   9.921 -20.066  1.00  0.00    -0.330 N 
ATOM     14  H4  UNL     1     -12.379   9.672 -19.207  1.00  0.00     0.168 HD
ENDROOT
BRANCH  10  15
HETATM   15  C7  UNL     1     -10.271  13.878 -17.736  1.00  0.00     0.157 C 
BRANCH  15  16
HETATM   16  N3  UNL     1      -9.688  13.314 -16.537  1.00  0.00    -0.395 N 
ATOM     17  H3  UNL     1      -9.661  12.313 -16.342  1.00  0.00     0.159 HD
BRANCH  16  18
HETATM   18  C8  UNL     1      -9.161  14.291 -15.663  1.00  0.00     0.079 C 
HETATM   19  C9  UNL     1      -8.276  15.357 -16.078  1.00  0.00    -0.010 C 
BRANCH  19  20
HETATM   20  C10 UNL     1      -6.947  15.203 -16.636  1.00  0.00     0.029 C 
BRANCH  20  21
HETATM   21  C11 UNL     1      -6.889  15.065 -18.156  1.00  0.00     0.008 C 
BRANCH  21  22
HETATM   22  C12 UNL     1      -5.789  14.029 -18.380  1.00  0.00     0.039 C 
BRANCH  22  23
HETATM   23  C13 UNL     1      -6.219  12.752 -18.913  1.00  0.00    -0.058 A 
HETATM   24  C14 UNL     1      -5.916  12.391 -20.214  1.00  0.00     0.007 A 
HETATM   25  C15 UNL     1      -6.309  11.144 -20.682  1.00  0.00     0.001 A 
HETATM   26  C16 UNL     1      -6.988  10.258 -19.904  1.00  0.00     0.000 A 
HETATM   27  C17 UNL     1      -7.297  10.614 -18.601  1.00  0.00     0.001 A 
HETATM   28  C18 UNL     1      -6.919  11.836 -18.119  1.00  0.00     0.007 A 
ENDBRANCH  22  23
ENDBRANCH  21  22
ENDBRANCH  20  21
ENDBRANCH  19  20
ENDBRANCH  16  18
ENDBRANCH  15  16
ENDBRANCH  10  15
TORSDOF 7
ENDMDL
MODEL 2
REMARK VINA RESULT: -8.227582169      2.034      3.890
REMARK  7 active torsions:
REMARK  status: ('A' for Active; 'I' for Inactive)
REMARK    1  A    between atoms: C6_10  and  C7_11 
REMARK    2  A    between atoms: C7_11  and  N3_12 
REMARK    3  A    between atoms: N3_12  and  C8_14 
REMARK    4  A    between atoms: C9_15  and  C10_16 
REMARK    5  A    between atoms: C10_16  and  C11_17 
REMARK    6  A    between atoms: C11_17  and  C12_18 
REMARK    7  A    between atoms: C12_18  and  C13_19 
ROOT
HETATM    1  N1  UNL     1     -11.115   9.553 -23.821  1.00  0.00    -0.064 NA
HETATM    2  C1  UNL     1     -11.131  10.047 -22.481  1.00  0.00     0.189 A 
HETATM    3  N2  UNL     1     -11.421   9.327 -21.486  1.00  0.00    -0.360 N 
ATOM      4  H2  UNL     1     -11.643   8.351 -21.682  1.00  0.00     0.162 HD
HETATM    5  C2  UNL     1     -11.473   9.729 -20.115  1.00  0.00     0.166 A 
HETATM    6  C3  UNL     1     -10.991  11.103 -19.847  1.00  0.00     0.025 A 
HETATM    7  C4  UNL     1     -10.842  11.583 -18.544  1.00  0.00     0.127 A 
HETATM    8  F1  UNL     1     -11.168  10.776 -17.521  1.00  0.00    -0.205 F 
HETATM    9  C5  UNL     1     -10.362  12.886 -18.359  1.00  0.00     0.051 A 
HETATM   10  C6  UNL     1     -10.030  13.717 -19.402  1.00  0.00    -0.035 A 
HETATM   11  C19 UNL     1     -10.195  13.205 -20.677  1.00  0.00     0.039 A 
HETATM   12  C20 UNL     1     -10.669  11.909 -20.891  1.00  0.00     0.046 A 
HETATM   13  N4  UNL     1     -10.727  11.415 -22.232  1.00  0.00    -0.330 N 
ATOM     14  H4  UNL     1     -10.484  12.026 -23.012  1.00  0.00     0.168 HD
ENDROOT
BRANCH  10  15
HETATM   15  C7  UNL     1      -9.401  15.042 -19.266  1.00  0.00     0.157 C 
BRANCH  15  16
HETATM   16  N3  UNL     1      -8.736  15.539 -20.453  1.00  0.00    -0.395 N 
ATOM     17  H3  UNL     1      -9.223  15.745 -21.325  1.00  0.00     0.159 HD
BRANCH  16  18
HETATM   18  C8  UNL     1      -7.345  15.710 -20.279  1.00  0.00     0.079 C 
HETATM   19  C9  UNL     1      -6.373  14.650 -20.424  1.00  0.00    -0.010 C 
BRANCH  19  20
HETATM   20  C10 UNL     1      -6.282  13.450 -19.613  1.00  0.00     0.029 C 
BRANCH  20  21
HETATM   21  C11 UNL     1      -5.832  13.671 -18.170  1.00  0.00     0.008 C 
BRANCH  21  22
HETATM   22  C12 UNL     1      -6.795  12.803 -17.359  1.00  0.00     0.039 C 
BRANCH  22  23
HETATM   23  C13 UNL     1      -7.553  13.488 -16.332  1.00  0.00    -0.058 A 
HETATM   24  C14 UNL     1      -8.169  12.779 -15.316  1.00  0.00     0.007 A 
HETATM   25  C15 UNL     1      -8.856  13.469 -14.326  1.00  0.00     0.001 A 
HETATM   26  C16 UNL     1      -8.948  14.826 -14.318  1.00  0.00     0.000 A 
HETATM   27  C17 UNL     1      -8.337  15.543 -15.333  1.00  0.00     0.001 A 
HETATM   28  C18 UNL     1      -7.654  14.885 -16.318  1.00  0.00     0.007 A 
ENDBRANCH  22  23
ENDBRANCH  21  22
ENDBRANCH  20  21
ENDBRANCH  19  20
ENDBRANCH  16  18
ENDBRANCH  15  16
ENDBRANCH  10  15
TORSDOF 7
ENDMDL
MODEL 3
REMARK VINA RESULT: -8.173588010      2.130      4.157
REMARK  7 active torsions:
REMARK  status: ('A' for Active; 'I' for Inactive)
REMARK    1  A    between atoms: C6_10  and  C7_11 
REMARK    2  A    between atoms: C7_11  and  N3_12 
REMARK    3  A    between atoms: N3_12  and  C8_14 
REMARK    4  A    between atoms: C9_15  and  C10_16 
REMARK    5  A    between atoms: C10_16  and  C11_17 
REMARK    6  A    between atoms: C11_17  and  C12_18 
REMARK    7  A    between atoms: C12_18  and  C13_19 
ROOT
HETATM    1  N1  UNL     1     -11.927   9.144 -23.275  1.00  0.00    -0.064 NA
HETATM    2  C1  UNL     1     -11.238   9.663 -22.137  1.00  0.00     0.189 A 
HETATM    3  N2  UNL     1     -11.700   9.601 -20.965  1.00  0.00    -0.360 N 
ATOM      4  H2  UNL     1     -12.607   9.148 -20.858  1.00  0.00     0.162 HD
HETATM    5  C2  UNL     1     -11.092  10.098 -19.770  1.00  0.00     0.166 A 
HETATM    6  C3  UNL     1      -9.711  10.604 -19.933  1.00  0.00     0.025 A 
HETATM    7  C4  UNL     1      -8.936  10.981 -18.834  1.00  0.00     0.127 A 
HETATM    8  F1  UNL     1      -9.478  10.899 -17.608  1.00  0.00    -0.205 F 
HETATM    9  C5  UNL     1      -7.629  11.433 -19.056  1.00  0.00     0.051 A 
HETATM   10  C6  UNL     1      -7.070  11.523 -20.309  1.00  0.00    -0.035 A 
HETATM   11  C19 UNL     1      -7.871  11.142 -21.371  1.00  0.00     0.039 A 
HETATM   12  C20 UNL     1      -9.177  10.687 -21.180  1.00  0.00     0.046 A 
HETATM   13  N4  UNL     1      -9.914  10.224 -22.314  1.00  0.00    -0.330 N 
ATOM     14  H4  UNL     1      -9.508  10.289 -23.248  1.00  0.00     0.168 HD
ENDROOT
BRANCH  10  15
HETATM   15  C7  UNL     1      -5.666  11.864 -20.591  1.00  0.00     0.157 C 
BRANCH  15  16
HETATM   16  N3  UNL     1      -5.079  12.856 -19.715  1.00  0.00    -0.395 N 
ATOM     17  H3  UNL     1      -4.711  12.640 -18.788  1.00  0.00     0.159 HD
BRANCH  16  18
HETATM   18  C8  UNL     1      -5.066  14.153 -20.274  1.00  0.00     0.079 C 
HETATM   19  C9  UNL     1      -6.037  15.178 -19.965  1.00  0.00    -0.010 C 
BRANCH  19  20
HETATM   20  C10 UNL     1      -7.461  15.124 -20.236  1.00  0.00     0.029 C 
BRANCH  20  21
HETATM   21  C11 UNL     1      -8.358  15.059 -19.001  1.00  0.00     0.008 C 
BRANCH  21  22
HETATM   22  C12 UNL     1      -7.372  15.145 -17.837  1.00  0.00     0.039 C 
BRANCH  22  23
HETATM   23  C13 UNL     1      -7.845  14.634 -16.566  1.00  0.00    -0.058 A 
HETATM   24  C14 UNL     1      -8.492  15.463 -15.667  1.00  0.00     0.007 A 
HETATM   25  C15 UNL     1      -8.968  14.933 -14.476  1.00  0.00     0.001 A 
HETATM   26  C16 UNL     1      -8.819  13.620 -14.155  1.00  0.00     0.000 A 
HETATM   27  C17 UNL     1      -8.169  12.784 -15.048  1.00  0.00     0.001 A 
HETATM   28  C18 UNL     1      -7.693  13.284 -16.229  1.00  0.00     0.007 A 
ENDBRANCH  22  23
ENDBRANCH  21  22
ENDBRANCH  20  21
ENDBRANCH  19  20
ENDBRANCH  16  18
ENDBRANCH  15  16
ENDBRANCH  10  15
TORSDOF 7
ENDMDL
MODEL 4
REMARK VINA RESULT: -8.140806519      1.776      2.435
REMARK  7 active torsions:
REMARK  status: ('A' for Active; 'I' for Inactive)
REMARK    1  A    between atoms: C6_10  and  C7_11 
REMARK    2  A    between atoms: C7_11  and  N3_12 
REMARK    3  A    between atoms: N3_12  and  C8_14 
REMARK    4  A    between atoms: C9_15  and  C10_16 
REMARK    5  A    between atoms: C10_16  and  C11_17 
REMARK    6  A    between atoms: C11_17  and  C12_18 
REMARK    7  A    between atoms: C12_18  and  C13_19 
ROOT
HETATM    1  N1  UNL     1      -8.477  12.562 -24.416  1.00  0.00    -0.064 NA
HETATM    2  C1  UNL     1      -9.141  12.073 -23.250  1.00  0.00     0.189 A 
HETATM    3  N2  UNL     1      -9.565  10.889 -23.145  1.00  0.00    -0.360 N 
ATOM      4  H2  UNL     1      -9.403  10.277 -23.944  1.00  0.00     0.162 HD
HETATM    5  C2  UNL     1     -10.246  10.312 -22.028  1.00  0.00     0.166 A 
HETATM    6  C3  UNL     1     -10.322  11.174 -20.828  1.00  0.00     0.025 A 
HETATM    7  C4  UNL     1     -10.824  10.695 -19.615  1.00  0.00     0.127 A 
HETATM    8  F1  UNL     1     -11.265   9.427 -19.558  1.00  0.00    -0.205 F 
HETATM    9  C5  UNL     1     -10.849  11.556 -18.511  1.00  0.00     0.051 A 
HETATM   10  C6  UNL     1     -10.403  12.855 -18.563  1.00  0.00    -0.035 A 
HETATM   11  C19 UNL     1      -9.916  13.292 -19.783  1.00  0.00     0.039 A 
HETATM   12  C20 UNL     1      -9.877  12.455 -20.900  1.00  0.00     0.046 A 
HETATM   13  N4  UNL     1      -9.277  12.945 -22.102  1.00  0.00    -0.330 N 
ATOM     14  H4  UNL     1      -8.944  13.908 -22.150  1.00  0.00     0.168 HD
ENDROOT
BRANCH  10  15
HETATM   15  C7  UNL     1     -10.285  13.761 -17.409  1.00  0.00     0.157 C 
BRANCH  15  16
HETATM   16  N3  UNL     1      -9.508  13.254 -16.297  1.00  0.00    -0.395 N 
ATOM     17  H3  UNL     1      -9.412  12.261 -16.085  1.00  0.00     0.159 HD
BRANCH  16  18
HETATM   18  C8  UNL     1      -8.897  14.275 -15.535  1.00  0.00     0.079 C 
HETATM   19  C9  UNL     1      -8.112  15.349 -16.100  1.00  0.00    -0.010 C 
BRANCH  19  20
HETATM   20  C10 UNL     1      -6.868  15.212 -16.832  1.00  0.00     0.029 C 
BRANCH  20  21
HETATM   21  C11 UNL     1      -7.014  15.045 -18.343  1.00  0.00     0.008 C 
BRANCH  21  22
HETATM   22  C12 UNL     1      -5.877  14.093 -18.710  1.00  0.00     0.039 C 
BRANCH  22  23
HETATM   23  C13 UNL     1      -6.273  12.772 -19.153  1.00  0.00    -0.058 A 
HETATM   24  C14 UNL     1      -6.035  12.360 -20.452  1.00  0.00     0.007 A 
HETATM   25  C15 UNL     1      -6.392  11.074 -20.834  1.00  0.00     0.001 A 
HETATM   26  C16 UNL     1      -6.974  10.197 -19.973  1.00  0.00     0.000 A 
HETATM   27  C17 UNL     1      -7.220  10.603 -18.671  1.00  0.00     0.001 A 
HETATM   28  C18 UNL     1      -6.875  11.864 -18.273  1.00  0.00     0.007 A 
ENDBRANCH  22  23
ENDBRANCH  21  22
ENDBRANCH  20  21
ENDBRANCH  19  20
ENDBRANCH  16  18
ENDBRANCH  15  16
ENDBRANCH  10  15
TORSDOF 7
ENDMDL
MODEL 5
REMARK VINA RESULT: -8.037963746      1.685      2.560
REMARK  7 active torsions:
REMARK  status: ('A' for Active; 'I' for Inactive)
REMARK    1  A    between atoms: C6_10  and  C7_11 
REMARK    2  A    between atoms: C7_11  and  N3_12 
REMARK    3  A    between atoms: N3_12  and  C8_14 
REMARK    4  A    between atoms: C9_15  and  C10_16 
REMARK    5  A    between atoms: C10_16  and  C11_17 
REMARK    6  A    between atoms: C11_17  and  C12_18 
REMARK    7  A    between atoms: C12_18  and  C13_19 
ROOT
HETATM    1  N1  UNL     1     -10.360  10.155 -24.069  1.00  0.00    -0.064 NA
HETATM    2  C1  UNL     1     -10.567  10.497 -22.698  1.00  0.00     0.189 A 
HETATM    3  N2  UNL     1     -10.946   9.662 -21.831  1.00  0.00    -0.360 N 
ATOM      4  H2  UNL     1     -11.095   8.707 -22.155  1.00  0.00     0.162 HD
HETATM    5  C2  UNL     1     -11.188   9.909 -20.444  1.00  0.00     0.166 A 
HETATM    6  C3  UNL     1     -10.809  11.260 -19.972  1.00  0.00     0.025 A 
HETATM    7  C4  UNL     1     -10.847  11.599 -18.618  1.00  0.00     0.127 A 
HETATM    8  F1  UNL     1     -11.261  10.674 -17.736  1.00  0.00    -0.205 F 
HETATM    9  C5  UNL     1     -10.456  12.888 -18.236  1.00  0.00     0.051 A 
HETATM   10  C6  UNL     1     -10.035  13.840 -19.133  1.00  0.00    -0.035 A 
HETATM   11  C19 UNL     1     -10.014  13.466 -20.466  1.00  0.00     0.039 A 
HETATM   12  C20 UNL     1     -10.397  12.187 -20.875  1.00  0.00     0.046 A 
HETATM   13  N4  UNL     1     -10.262  11.842 -22.256  1.00  0.00    -0.330 N 
ATOM     14  H4  UNL     1      -9.952  12.543 -22.930  1.00  0.00     0.168 HD
ENDROOT
BRANCH  10  15
HETATM   15  C7  UNL     1      -9.491  15.162 -18.779  1.00  0.00     0.157 C 
BRANCH  15  16
HETATM   16  N3  UNL     1      -8.416  15.152 -17.809  1.00  0.00    -0.395 N 
ATOM     17  H3  UNL     1      -7.447  14.938 -18.045  1.00  0.00     0.159 HD
BRANCH  16  18
HETATM   18  C8  UNL     1      -8.847  15.470 -16.501  1.00  0.00     0.079 C 
HETATM   19  C9  UNL     1      -8.230  14.959 -15.298  1.00  0.00    -0.010 C 
BRANCH  19  20
HETATM   20  C10 UNL     1      -8.162  13.569 -14.890  1.00  0.00     0.029 C 
BRANCH  20  21
HETATM   21  C11 UNL     1      -8.431  12.550 -15.995  1.00  0.00     0.008 C 
BRANCH  21  22
HETATM   22  C12 UNL     1      -7.033  12.196 -16.503  1.00  0.00     0.039 C 
BRANCH  22  23
HETATM   23  C13 UNL     1      -6.937  11.853 -17.907  1.00  0.00    -0.058 A 
HETATM   24  C14 UNL     1      -7.353  10.615 -18.364  1.00  0.00     0.007 A 
HETATM   25  C15 UNL     1      -7.285  10.333 -19.721  1.00  0.00     0.001 A 
HETATM   26  C16 UNL     1      -6.817  11.234 -20.627  1.00  0.00     0.000 A 
HETATM   27  C17 UNL     1      -6.396  12.475 -20.178  1.00  0.00     0.001 A 
HETATM   28  C18 UNL     1      -6.456  12.775 -18.845  1.00  0.00     0.007 A 
ENDBRANCH  22  23
ENDBRANCH  21  22
ENDBRANCH  20  21
ENDBRANCH  19  20
ENDBRANCH  16  18
ENDBRANCH  15  16
ENDBRANCH  10  15
TORSDOF 7
ENDMDL
