MODEL 1
REMARK VINA RESULT: -10.362625268      0.000      0.000
REMARK  8 active torsions:
REMARK  status: ('A' for Active; 'I' for Inactive)
REMARK    1  A    between atoms: C2_2  and  C3_3 
REMARK    2  A    between atoms: C2_2  and  O4_36 
REMARK    3  A    between atoms: C4_4  and  C5_5 
REMARK    4  A    between atoms: C5_5  and  C6_6 
REMARK    5  A    between atoms: C13_14  and  C14_15 
REMARK    6  A    between atoms: O4_36  and  C27_37 
REMARK    7  A    between atoms: N4_40  and  C30_41 
REMARK    8  A    between atoms: C30_41  and  C31_42 
ROOT
HETATM    1  C6  UNL     1      -2.686 -20.198  39.079  1.00  0.00    -0.027 C 
HETATM    2  C7  UNL     1      -2.767 -21.531  38.367  1.00  0.00     0.016 C 
HETATM    3  C8  UNL     1      -1.700 -20.059  40.142  1.00  0.00     0.061 C 
HETATM    4  C9  UNL     1      -0.325 -20.487  39.584  1.00  0.00     0.018 C 
HETATM    5  C10 UNL     1      -1.882 -20.811  41.393  1.00  0.00     0.142 C 
HETATM    6  O1  UNL     1      -1.698 -22.037  41.241  1.00  0.00    -0.297 OA
HETATM    7  C11 UNL     1      -2.227 -20.338  42.726  1.00  0.00     0.051 C 
HETATM    8  C12 UNL     1      -1.374 -19.195  43.200  1.00  0.00     0.026 C 
HETATM    9  C13 UNL     1      -1.959 -21.483  43.745  1.00  0.00     0.189 C 
HETATM   10  N2  UNL     1      -2.821 -22.610  43.337  1.00  0.00    -0.346 N 
ATOM     11  H2  UNL     1      -2.445 -23.556  43.290  1.00  0.00     0.163 HD
HETATM   12  C15 UNL     1      -4.168 -22.365  43.011  1.00  0.00     0.229 C 
HETATM   13  O3  UNL     1      -4.964 -23.340  42.996  1.00  0.00    -0.273 OA
HETATM   14  C16 UNL     1      -4.658 -21.039  42.695  1.00  0.00     0.075 C 
HETATM   15  C17 UNL     1      -5.847 -20.763  43.672  1.00  0.00     0.252 C 
HETATM   16  N3  UNL     1      -6.483 -19.647  43.058  1.00  0.00    -0.069 N 
ATOM     17  H31 UNL     1      -6.271 -18.771  43.537  1.00  0.00     0.277 HD
ATOM     18  H32 UNL     1      -7.492 -19.651  43.202  1.00  0.00     0.277 HD
HETATM   19  C18 UNL     1      -6.128 -19.602  41.653  1.00  0.00     0.195 C 
HETATM   20  C19 UNL     1      -5.066 -18.552  41.437  1.00  0.00     0.017 C 
HETATM   21  C20 UNL     1      -4.385 -18.622  40.107  1.00  0.00     0.012 C 
HETATM   22  C21 UNL     1      -4.160 -19.959  39.538  1.00  0.00    -0.001 C 
HETATM   23  C22 UNL     1      -4.838 -21.126  40.131  1.00  0.00    -0.006 C 
HETATM   24  C23 UNL     1      -6.028 -21.568  39.223  1.00  0.00     0.011 C 
HETATM   25  C24 UNL     1      -5.468 -20.924  41.458  1.00  0.00     0.040 C 
HETATM   26  C25 UNL     1      -4.054 -18.581  42.580  1.00  0.00     0.013 C 
HETATM   27  C26 UNL     1      -3.678 -19.978  42.976  1.00  0.00     0.024 C 
ENDROOT
BRANCH   1  28
HETATM   28  C5  UNL     1      -2.505 -19.119  38.032  1.00  0.00     0.037 C 
BRANCH  28  29
HETATM   29  C4  UNL     1      -3.001 -19.330  36.694  1.00  0.00    -0.027 C 
HETATM   30  C3  UNL     1      -2.399 -18.763  35.650  1.00  0.00     0.000 C 
BRANCH  30  31
HETATM   31  C2  UNL     1      -2.787 -18.883  34.228  1.00  0.00     0.140 C 
HETATM   32  C1  UNL     1      -3.560 -20.186  34.132  1.00  0.00     0.044 C 
BRANCH  31  33
HETATM   33  O4  UNL     1      -3.344 -17.807  33.723  1.00  0.00    -0.375 OA
BRANCH  33  34
HETATM   34  C27 UNL     1      -2.737 -16.694  33.247  1.00  0.00     0.150 C 
HETATM   35  C28 UNL     1      -1.261 -16.939  33.005  1.00  0.00     0.064 C 
HETATM   36  C29 UNL     1      -0.908 -17.164  31.581  1.00  0.00     0.275 C 
HETATM   37  N4  UNL     1      -0.017 -16.081  31.148  1.00  0.00     0.090 N 
HETATM   38  C34 UNL     1      -0.691 -15.155  30.306  1.00  0.00     0.300 C 
HETATM   39  C35 UNL     1      -2.174 -15.123  30.310  1.00  0.00     0.266 C 
HETATM   40  N5  UNL     1      -2.818 -14.830  31.574  1.00  0.00    -0.071 N 
HETATM   41  C36 UNL     1      -3.978 -13.979  31.150  1.00  0.00     0.272 C 
HETATM   42  C37 UNL     1      -2.074 -13.993  32.439  1.00  0.00     0.272 C 
HETATM   43  C38 UNL     1      -3.440 -15.992  32.150  1.00  0.00     0.268 C 
BRANCH  37  44
HETATM   44  C30 UNL     1       1.125 -16.638  30.463  1.00  0.00     0.277 C 
BRANCH  44  45
HETATM   45  C31 UNL     1       1.572 -17.993  30.762  1.00  0.00     0.014 A 
HETATM   46  C32 UNL     1       2.880 -18.544  30.303  1.00  0.00     0.007 A 
HETATM   47  C33 UNL     1       2.622 -18.296  31.774  1.00  0.00     0.007 A 
ENDBRANCH  44  45
ENDBRANCH  37  44
ENDBRANCH  33  34
ENDBRANCH  31  33
ENDBRANCH  30  31
ENDBRANCH  28  29
ENDBRANCH   1  28
BRANCH   9  48
HETATM   48  C14 UNL     1      -2.204 -21.122  45.129  1.00  0.00     0.255 C 
HETATM   49  N1  UNL     1      -1.508 -20.138  45.857  1.00  0.00    -0.060 NA
HETATM   50  O2  UNL     1      -3.124 -21.715  45.810  1.00  0.00    -0.275 OA
ENDBRANCH   9  48
TORSDOF 8
ENDMDL
MODEL 2
REMARK VINA RESULT: -9.331235214      6.470     14.162
REMARK  8 active torsions:
REMARK  status: ('A' for Active; 'I' for Inactive)
REMARK    1  A    between atoms: C2_2  and  C3_3 
REMARK    2  A    between atoms: C2_2  and  O4_36 
REMARK    3  A    between atoms: C4_4  and  C5_5 
REMARK    4  A    between atoms: C5_5  and  C6_6 
REMARK    5  A    between atoms: C13_14  and  C14_15 
REMARK    6  A    between atoms: O4_36  and  C27_37 
REMARK    7  A    between atoms: N4_40  and  C30_41 
REMARK    8  A    between atoms: C30_41  and  C31_42 
ROOT
HETATM    1  C6  UNL     1       6.584 -19.156  31.609  1.00  0.00    -0.027 C 
HETATM    2  C7  UNL     1       7.442 -20.365  31.909  1.00  0.00     0.016 C 
HETATM    3  C8  UNL     1       6.076 -19.007  30.251  1.00  0.00     0.061 C 
HETATM    4  C9  UNL     1       5.364 -20.319  29.856  1.00  0.00     0.018 C 
HETATM    5  C10 UNL     1       7.019 -18.712  29.161  1.00  0.00     0.142 C 
HETATM    6  O1  UNL     1       7.753 -19.687  28.892  1.00  0.00    -0.297 OA
HETATM    7  C11 UNL     1       7.200 -17.493  28.386  1.00  0.00     0.051 C 
HETATM    8  C12 UNL     1       5.922 -16.947  27.814  1.00  0.00     0.026 C 
HETATM    9  C13 UNL     1       8.081 -17.819  27.145  1.00  0.00     0.189 C 
HETATM   10  N2  UNL     1       9.369 -18.315  27.673  1.00  0.00    -0.346 N 
ATOM     11  H2  UNL     1       9.798 -19.152  27.281  1.00  0.00     0.163 HD
HETATM   12  C15 UNL     1       9.998 -17.620  28.722  1.00  0.00     0.229 C 
HETATM   13  O3  UNL     1      11.220 -17.837  28.932  1.00  0.00    -0.273 OA
HETATM   14  C16 UNL     1       9.288 -16.675  29.559  1.00  0.00     0.075 C 
HETATM   15  C17 UNL     1      10.082 -15.331  29.480  1.00  0.00     0.252 C 
HETATM   16  N3  UNL     1       9.552 -14.607  30.585  1.00  0.00    -0.069 N 
ATOM     17  H31 UNL     1       8.887 -13.890  30.293  1.00  0.00     0.277 HD
ATOM     18  H32 UNL     1      10.246 -13.995  31.014  1.00  0.00     0.277 HD
HETATM   19  C18 UNL     1       8.974 -15.535  31.537  1.00  0.00     0.195 C 
HETATM   20  C19 UNL     1       7.472 -15.537  31.387  1.00  0.00     0.017 C 
HETATM   21  C20 UNL     1       6.781 -16.671  32.075  1.00  0.00     0.012 C 
HETATM   22  C21 UNL     1       7.475 -17.968  32.092  1.00  0.00    -0.001 C 
HETATM   23  C22 UNL     1       8.895 -18.039  31.703  1.00  0.00    -0.006 C 
HETATM   24  C23 UNL     1       9.788 -18.191  32.974  1.00  0.00     0.011 C 
HETATM   25  C24 UNL     1       9.456 -16.848  31.022  1.00  0.00     0.040 C 
HETATM   26  C25 UNL     1       7.088 -15.467  29.911  1.00  0.00     0.013 C 
HETATM   27  C26 UNL     1       7.943 -16.354  29.054  1.00  0.00     0.024 C 
ENDROOT
BRANCH   1  28
HETATM   28  C5  UNL     1       5.450 -19.126  32.613  1.00  0.00     0.037 C 
BRANCH  28  29
HETATM   29  C4  UNL     1       4.228 -18.431  32.291  1.00  0.00    -0.027 C 
HETATM   30  C3  UNL     1       3.047 -19.030  32.434  1.00  0.00     0.000 C 
BRANCH  30  31
HETATM   31  C2  UNL     1       1.716 -18.453  32.147  1.00  0.00     0.140 C 
HETATM   32  C1  UNL     1       1.706 -18.198  30.649  1.00  0.00     0.044 C 
BRANCH  31  33
HETATM   33  O4  UNL     1       0.710 -19.125  32.655  1.00  0.00    -0.375 OA
BRANCH  33  34
HETATM   34  C27 UNL     1      -0.335 -18.651  33.374  1.00  0.00     0.150 C 
HETATM   35  C28 UNL     1      -0.349 -17.136  33.383  1.00  0.00     0.064 C 
HETATM   36  C29 UNL     1      -1.332 -16.532  32.448  1.00  0.00     0.275 C 
HETATM   37  N4  UNL     1      -2.319 -15.783  33.235  1.00  0.00     0.090 N 
HETATM   38  C34 UNL     1      -3.564 -16.467  33.298  1.00  0.00     0.300 C 
HETATM   39  C35 UNL     1      -3.609 -17.915  32.981  1.00  0.00     0.266 C 
HETATM   40  N5  UNL     1      -2.800 -18.789  33.806  1.00  0.00    -0.071 N 
HETATM   41  C36 UNL     1      -3.678 -19.998  33.945  1.00  0.00     0.272 C 
HETATM   42  C37 UNL     1      -2.613 -18.344  35.137  1.00  0.00     0.272 C 
HETATM   43  C38 UNL     1      -1.646 -19.285  33.105  1.00  0.00     0.268 C 
BRANCH  37  44
HETATM   44  C30 UNL     1      -2.499 -14.470  32.664  1.00  0.00     0.277 C 
BRANCH  44  45
HETATM   45  C31 UNL     1      -1.935 -14.154  31.357  1.00  0.00     0.014 A 
HETATM   46  C32 UNL     1      -2.766 -13.933  30.138  1.00  0.00     0.007 A 
HETATM   47  C33 UNL     1      -1.989 -12.792  30.758  1.00  0.00     0.007 A 
ENDBRANCH  44  45
ENDBRANCH  37  44
ENDBRANCH  33  34
ENDBRANCH  31  33
ENDBRANCH  30  31
ENDBRANCH  28  29
ENDBRANCH   1  28
BRANCH   9  48
HETATM   48  C14 UNL     1       8.290 -16.698  26.248  1.00  0.00     0.255 C 
HETATM   49  N1  UNL     1       7.316 -16.130  25.404  1.00  0.00    -0.060 NA
HETATM   50  O2  UNL     1       9.442 -16.127  26.166  1.00  0.00    -0.275 OA
ENDBRANCH   9  48
TORSDOF 8
ENDMDL
MODEL 3
REMARK VINA RESULT: -8.802393774      6.272     14.436
REMARK  8 active torsions:
REMARK  status: ('A' for Active; 'I' for Inactive)
REMARK    1  A    between atoms: C2_2  and  C3_3 
REMARK    2  A    between atoms: C2_2  and  O4_36 
REMARK    3  A    between atoms: C4_4  and  C5_5 
REMARK    4  A    between atoms: C5_5  and  C6_6 
REMARK    5  A    between atoms: C13_14  and  C14_15 
REMARK    6  A    between atoms: O4_36  and  C27_37 
REMARK    7  A    between atoms: N4_40  and  C30_41 
REMARK    8  A    between atoms: C30_41  and  C31_42 
ROOT
HETATM    1  C6  UNL     1       4.702 -17.562  28.530  1.00  0.00    -0.027 C 
HETATM    2  C7  UNL     1       4.496 -18.883  27.822  1.00  0.00     0.016 C 
HETATM    3  C8  UNL     1       5.290 -16.469  27.764  1.00  0.00     0.061 C 
HETATM    4  C9  UNL     1       4.471 -16.295  26.467  1.00  0.00     0.018 C 
HETATM    5  C10 UNL     1       6.697 -16.562  27.347  1.00  0.00     0.142 C 
HETATM    6  O1  UNL     1       6.872 -17.419  26.456  1.00  0.00    -0.297 OA
HETATM    7  C11 UNL     1       7.859 -15.817  27.809  1.00  0.00     0.051 C 
HETATM    8  C12 UNL     1       7.659 -14.327  27.813  1.00  0.00     0.026 C 
HETATM    9  C13 UNL     1       9.031 -16.056  26.813  1.00  0.00     0.189 C 
HETATM   10  N2  UNL     1       9.289 -17.511  26.821  1.00  0.00    -0.346 N 
ATOM     11  H2  UNL     1       9.412 -18.017  25.944  1.00  0.00     0.163 HD
HETATM   12  C15 UNL     1       9.363 -18.192  28.049  1.00  0.00     0.229 C 
HETATM   13  O3  UNL     1       9.905 -19.328  28.069  1.00  0.00    -0.273 OA
HETATM   14  C16 UNL     1       8.838 -17.630  29.278  1.00  0.00     0.075 C 
HETATM   15  C17 UNL     1      10.018 -17.633  30.304  1.00  0.00     0.252 C 
HETATM   16  N3  UNL     1       9.337 -17.431  31.538  1.00  0.00    -0.069 N 
ATOM     17  H31 UNL     1       9.432 -16.474  31.878  1.00  0.00     0.277 HD
ATOM     18  H32 UNL     1       9.797 -17.908  32.314  1.00  0.00     0.277 HD
HETATM   19  C18 UNL     1       7.950 -17.828  31.395  1.00  0.00     0.195 C 
HETATM   20  C19 UNL     1       7.091 -16.598  31.231  1.00  0.00     0.017 C 
HETATM   21  C20 UNL     1       5.700 -16.870  30.756  1.00  0.00     0.012 C 
HETATM   22  C21 UNL     1       5.522 -17.969  29.795  1.00  0.00    -0.001 C 
HETATM   23  C22 UNL     1       6.628 -18.915  29.558  1.00  0.00    -0.006 C 
HETATM   24  C23 UNL     1       6.338 -20.266  30.283  1.00  0.00     0.011 C 
HETATM   25  C24 UNL     1       7.960 -18.520  30.075  1.00  0.00     0.040 C 
HETATM   26  C25 UNL     1       7.793 -15.579  30.335  1.00  0.00     0.013 C 
HETATM   27  C26 UNL     1       8.448 -16.217  29.146  1.00  0.00     0.024 C 
ENDROOT
BRANCH   1  28
HETATM   28  C5  UNL     1       3.379 -17.143  29.135  1.00  0.00     0.037 C 
BRANCH  28  29
HETATM   29  C4  UNL     1       2.662 -18.057  29.990  1.00  0.00    -0.027 C 
HETATM   30  C3  UNL     1       2.392 -17.736  31.254  1.00  0.00     0.000 C 
BRANCH  30  31
HETATM   31  C2  UNL     1       1.673 -18.561  32.247  1.00  0.00     0.140 C 
HETATM   32  C1  UNL     1       2.571 -19.761  32.496  1.00  0.00     0.044 C 
BRANCH  31  33
HETATM   33  O4  UNL     1       1.240 -17.900  33.295  1.00  0.00    -0.375 OA
BRANCH  33  34
HETATM   34  C27 UNL     1       0.012 -17.945  33.865  1.00  0.00     0.150 C 
HETATM   35  C28 UNL     1      -0.823 -16.746  33.460  1.00  0.00     0.064 C 
HETATM   36  C29 UNL     1      -1.825 -17.033  32.403  1.00  0.00     0.275 C 
HETATM   37  N4  UNL     1      -3.163 -16.812  32.963  1.00  0.00     0.090 N 
HETATM   38  C34 UNL     1      -3.832 -18.040  33.219  1.00  0.00     0.300 C 
HETATM   39  C35 UNL     1      -3.037 -19.289  33.310  1.00  0.00     0.266 C 
HETATM   40  N5  UNL     1      -2.016 -19.340  34.336  1.00  0.00    -0.071 N 
HETATM   41  C36 UNL     1      -2.108 -20.762  34.806  1.00  0.00     0.272 C 
HETATM   42  C37 UNL     1      -2.299 -18.575  35.493  1.00  0.00     0.272 C 
HETATM   43  C38 UNL     1      -0.689 -19.247  33.789  1.00  0.00     0.268 C 
BRANCH  37  44
HETATM   44  C30 UNL     1      -3.940 -16.000  32.056  1.00  0.00     0.277 C 
BRANCH  44  45
HETATM   45  C31 UNL     1      -3.624 -14.588  31.880  1.00  0.00     0.014 A 
HETATM   46  C32 UNL     1      -3.087 -14.021  30.609  1.00  0.00     0.007 A 
HETATM   47  C33 UNL     1      -4.476 -13.658  31.089  1.00  0.00     0.007 A 
ENDBRANCH  44  45
ENDBRANCH  37  44
ENDBRANCH  33  34
ENDBRANCH  31  33
ENDBRANCH  30  31
ENDBRANCH  28  29
ENDBRANCH   1  28
BRANCH   9  48
HETATM   48  C14 UNL     1      10.241 -15.318  27.124  1.00  0.00     0.255 C 
HETATM   49  N1  UNL     1      10.649 -14.116  26.514  1.00  0.00    -0.060 NA
HETATM   50  O2  UNL     1      11.058 -15.743  28.025  1.00  0.00    -0.275 OA
ENDBRANCH   9  48
TORSDOF 8
ENDMDL
MODEL 4
REMARK VINA RESULT: -8.705320056      1.632      2.989
REMARK  8 active torsions:
REMARK  status: ('A' for Active; 'I' for Inactive)
REMARK    1  A    between atoms: C2_2  and  C3_3 
REMARK    2  A    between atoms: C2_2  and  O4_36 
REMARK    3  A    between atoms: C4_4  and  C5_5 
REMARK    4  A    between atoms: C5_5  and  C6_6 
REMARK    5  A    between atoms: C13_14  and  C14_15 
REMARK    6  A    between atoms: O4_36  and  C27_37 
REMARK    7  A    between atoms: N4_40  and  C30_41 
REMARK    8  A    between atoms: C30_41  and  C31_42 
ROOT
HETATM    1  C6  UNL     1      -2.826 -20.190  38.818  1.00  0.00    -0.027 C 
HETATM    2  C7  UNL     1      -2.904 -21.548  38.156  1.00  0.00     0.016 C 
HETATM    3  C8  UNL     1      -1.802 -19.991  39.835  1.00  0.00     0.061 C 
HETATM    4  C9  UNL     1      -0.440 -20.409  39.237  1.00  0.00     0.018 C 
HETATM    5  C10 UNL     1      -1.917 -20.702  41.117  1.00  0.00     0.142 C 
HETATM    6  O1  UNL     1      -1.711 -21.929  41.000  1.00  0.00    -0.297 OA
HETATM    7  C11 UNL     1      -2.220 -20.190  42.446  1.00  0.00     0.051 C 
HETATM    8  C12 UNL     1      -1.376 -19.013  42.846  1.00  0.00     0.026 C 
HETATM    9  C13 UNL     1      -1.886 -21.293  43.492  1.00  0.00     0.189 C 
HETATM   10  N2  UNL     1      -2.738 -22.452  43.157  1.00  0.00    -0.346 N 
ATOM     11  H2  UNL     1      -2.341 -23.391  43.129  1.00  0.00     0.163 HD
HETATM   12  C15 UNL     1      -4.101 -22.248  42.878  1.00  0.00     0.229 C 
HETATM   13  O3  UNL     1      -4.874 -23.240  42.929  1.00  0.00    -0.273 OA
HETATM   14  C16 UNL     1      -4.634 -20.945  42.536  1.00  0.00     0.075 C 
HETATM   15  C17 UNL     1      -5.790 -20.661  43.550  1.00  0.00     0.252 C 
HETATM   16  N3  UNL     1      -6.475 -19.581  42.924  1.00  0.00    -0.069 N 
ATOM     17  H31 UNL     1      -6.265 -18.685  43.364  1.00  0.00     0.277 HD
ATOM     18  H32 UNL     1      -7.477 -19.602  43.108  1.00  0.00     0.277 HD
HETATM   19  C18 UNL     1      -6.177 -19.578  41.505  1.00  0.00     0.195 C 
HETATM   20  C19 UNL     1      -5.148 -18.514  41.211  1.00  0.00     0.017 C 
HETATM   21  C20 UNL     1      -4.519 -18.615  39.858  1.00  0.00     0.012 C 
HETATM   22  C21 UNL     1      -4.285 -19.967  39.327  1.00  0.00    -0.001 C 
HETATM   23  C22 UNL     1      -4.913 -21.126  39.986  1.00  0.00    -0.006 C 
HETATM   24  C23 UNL     1      -6.127 -21.626  39.142  1.00  0.00     0.011 C 
HETATM   25  C24 UNL     1      -5.494 -20.891  41.330  1.00  0.00     0.040 C 
HETATM   26  C25 UNL     1      -4.092 -18.480  42.313  1.00  0.00     0.013 C 
HETATM   27  C26 UNL     1      -3.668 -19.854  42.742  1.00  0.00     0.024 C 
ENDROOT
BRANCH   1  28
HETATM   28  C5  UNL     1      -2.711 -19.144  37.728  1.00  0.00     0.037 C 
BRANCH  28  29
HETATM   29  C4  UNL     1      -2.435 -19.551  36.372  1.00  0.00    -0.027 C 
HETATM   30  C3  UNL     1      -1.650 -18.815  35.588  1.00  0.00     0.000 C 
BRANCH  30  31
HETATM   31  C2  UNL     1      -1.277 -19.098  34.185  1.00  0.00     0.140 C 
HETATM   32  C1  UNL     1      -2.588 -19.109  33.418  1.00  0.00     0.044 C 
BRANCH  31  33
HETATM   33  O4  UNL     1      -0.306 -18.349  33.718  1.00  0.00    -0.375 OA
BRANCH  33  34
HETATM   34  C27 UNL     1       0.531 -18.611  32.686  1.00  0.00     0.150 C 
HETATM   35  C28 UNL     1      -0.027 -18.078  31.381  1.00  0.00     0.064 C 
HETATM   36  C29 UNL     1       0.587 -16.803  30.934  1.00  0.00     0.275 C 
HETATM   37  N4  UNL     1       1.271 -17.042  29.658  1.00  0.00     0.090 N 
HETATM   38  C34 UNL     1       2.683 -17.075  29.821  1.00  0.00     0.300 C 
HETATM   39  C35 UNL     1       3.249 -17.291  31.175  1.00  0.00     0.266 C 
HETATM   40  N5  UNL     1       2.890 -18.525  31.843  1.00  0.00    -0.071 N 
HETATM   41  C36 UNL     1       4.166 -18.892  32.541  1.00  0.00     0.272 C 
HETATM   42  C37 UNL     1       2.642 -19.618  30.978  1.00  0.00     0.272 C 
HETATM   43  C38 UNL     1       1.962 -18.310  32.921  1.00  0.00     0.268 C 
BRANCH  37  44
HETATM   44  C30 UNL     1       0.902 -16.017  28.710  1.00  0.00     0.277 C 
BRANCH  44  45
HETATM   45  C31 UNL     1      -0.485 -15.580  28.605  1.00  0.00     0.014 A 
HETATM   46  C32 UNL     1      -0.978 -14.673  27.528  1.00  0.00     0.007 A 
HETATM   47  C33 UNL     1      -1.429 -16.117  27.587  1.00  0.00     0.007 A 
ENDBRANCH  44  45
ENDBRANCH  37  44
ENDBRANCH  33  34
ENDBRANCH  31  33
ENDBRANCH  30  31
ENDBRANCH  28  29
ENDBRANCH   1  28
BRANCH   9  48
HETATM   48  C14 UNL     1      -2.085 -20.889  44.872  1.00  0.00     0.255 C 
HETATM   49  N1  UNL     1      -1.308 -19.946  45.571  1.00  0.00    -0.060 NA
HETATM   50  O2  UNL     1      -3.037 -21.398  45.575  1.00  0.00    -0.275 OA
ENDBRANCH   9  48
TORSDOF 8
ENDMDL
MODEL 5
REMARK VINA RESULT: -8.305387086      7.050     12.811
REMARK  8 active torsions:
REMARK  status: ('A' for Active; 'I' for Inactive)
REMARK    1  A    between atoms: C2_2  and  C3_3 
REMARK    2  A    between atoms: C2_2  and  O4_36 
REMARK    3  A    between atoms: C4_4  and  C5_5 
REMARK    4  A    between atoms: C5_5  and  C6_6 
REMARK    5  A    between atoms: C13_14  and  C14_15 
REMARK    6  A    between atoms: O4_36  and  C27_37 
REMARK    7  A    between atoms: N4_40  and  C30_41 
REMARK    8  A    between atoms: C30_41  and  C31_42 
ROOT
HETATM    1  C6  UNL     1       5.379 -17.947  28.971  1.00  0.00    -0.027 C 
HETATM    2  C7  UNL     1       4.652 -19.251  28.728  1.00  0.00     0.016 C 
HETATM    3  C8  UNL     1       6.770 -17.858  28.543  1.00  0.00     0.061 C 
HETATM    4  C9  UNL     1       6.845 -18.279  27.059  1.00  0.00     0.018 C 
HETATM    5  C10 UNL     1       7.788 -18.654  29.244  1.00  0.00     0.142 C 
HETATM    6  O1  UNL     1       7.684 -19.875  29.004  1.00  0.00    -0.297 OA
HETATM    7  C11 UNL     1       8.858 -18.227  30.135  1.00  0.00     0.051 C 
HETATM    8  C12 UNL     1       9.698 -17.112  29.578  1.00  0.00     0.026 C 
HETATM    9  C13 UNL     1       9.848 -19.412  30.327  1.00  0.00     0.189 C 
HETATM   10  N2  UNL     1       9.064 -20.514  30.920  1.00  0.00    -0.346 N 
ATOM     11  H2  UNL     1       9.149 -21.462  30.555  1.00  0.00     0.163 HD
HETATM   12  C15 UNL     1       8.197 -20.243  31.994  1.00  0.00     0.229 C 
HETATM   13  O3  UNL     1       7.802 -21.208  32.699  1.00  0.00    -0.273 OA
HETATM   14  C16 UNL     1       7.751 -18.901  32.309  1.00  0.00     0.075 C 
HETATM   15  C17 UNL     1       8.127 -18.649  33.805  1.00  0.00     0.252 C 
HETATM   16  N3  UNL     1       7.342 -17.504  34.119  1.00  0.00    -0.069 N 
ATOM     17  H31 UNL     1       7.898 -16.649  34.142  1.00  0.00     0.277 HD
ATOM     18  H32 UNL     1       7.034 -17.503  35.092  1.00  0.00     0.277 HD
HETATM   19  C18 UNL     1       6.231 -17.410  33.192  1.00  0.00     0.195 C 
HETATM   20  C19 UNL     1       6.536 -16.365  32.148  1.00  0.00     0.017 C 
HETATM   21  C20 UNL     1       5.631 -16.392  30.958  1.00  0.00     0.012 C 
HETATM   22  C21 UNL     1       5.165 -17.710  30.500  1.00  0.00    -0.001 C 
HETATM   23  C22 UNL     1       5.361 -18.890  31.361  1.00  0.00    -0.006 C 
HETATM   24  C23 UNL     1       4.011 -19.286  32.037  1.00  0.00     0.011 C 
HETATM   25  C24 UNL     1       6.291 -18.731  32.504  1.00  0.00     0.040 C 
HETATM   26  C25 UNL     1       8.003 -16.447  31.731  1.00  0.00     0.013 C 
HETATM   27  C26 UNL     1       8.469 -17.862  31.553  1.00  0.00     0.024 C 
ENDROOT
BRANCH   1  28
HETATM   28  C5  UNL     1       4.556 -16.831  28.362  1.00  0.00     0.037 C 
BRANCH  28  29
HETATM   29  C4  UNL     1       3.154 -16.722  28.679  1.00  0.00    -0.027 C 
HETATM   30  C3  UNL     1       2.423 -15.721  28.193  1.00  0.00     0.000 C 
BRANCH  30  31
HETATM   31  C2  UNL     1       0.984 -15.474  28.427  1.00  0.00     0.140 C 
HETATM   32  C1  UNL     1       0.258 -16.425  27.491  1.00  0.00     0.044 C 
BRANCH  31  33
HETATM   33  O4  UNL     1       0.629 -15.477  29.690  1.00  0.00    -0.375 OA
BRANCH  33  34
HETATM   34  C27 UNL     1      -0.612 -15.630  30.211  1.00  0.00     0.150 C 
HETATM   35  C28 UNL     1      -0.699 -16.886  31.055  1.00  0.00     0.064 C 
HETATM   36  C29 UNL     1      -0.633 -16.640  32.518  1.00  0.00     0.275 C 
HETATM   37  N4  UNL     1      -1.902 -17.069  33.117  1.00  0.00     0.090 N 
HETATM   38  C34 UNL     1      -2.709 -15.957  33.482  1.00  0.00     0.300 C 
HETATM   39  C35 UNL     1      -2.426 -14.631  32.881  1.00  0.00     0.266 C 
HETATM   40  N5  UNL     1      -2.506 -14.538  31.437  1.00  0.00    -0.071 N 
HETATM   41  C36 UNL     1      -3.114 -13.181  31.239  1.00  0.00     0.272 C 
HETATM   42  C37 UNL     1      -3.433 -15.423  30.835  1.00  0.00     0.272 C 
HETATM   43  C38 UNL     1      -1.209 -14.422  30.827  1.00  0.00     0.268 C 
BRANCH  37  44
HETATM   44  C30 UNL     1      -1.638 -17.894  34.272  1.00  0.00     0.277 C 
BRANCH  44  45
HETATM   45  C31 UNL     1      -2.374 -19.137  34.469  1.00  0.00     0.014 A 
HETATM   46  C32 UNL     1      -3.791 -19.185  34.933  1.00  0.00     0.007 A 
HETATM   47  C33 UNL     1      -3.424 -19.616  33.529  1.00  0.00     0.007 A 
ENDBRANCH  44  45
ENDBRANCH  37  44
ENDBRANCH  33  34
ENDBRANCH  31  33
ENDBRANCH  30  31
ENDBRANCH  28  29
ENDBRANCH   1  28
BRANCH   9  48
HETATM   48  C14 UNL     1      11.002 -19.101  31.149  1.00  0.00     0.255 C 
HETATM   49  N1  UNL     1      11.307 -19.690  32.392  1.00  0.00    -0.060 NA
HETATM   50  O2  UNL     1      11.861 -18.218  30.771  1.00  0.00    -0.275 OA
ENDBRANCH   9  48
TORSDOF 8
ENDMDL
