MODEL 1
REMARK VINA RESULT: -6.205699206      0.000      0.000
REMARK  9 active torsions:
REMARK  status: ('A' for Active; 'I' for Inactive)
REMARK    1  A    between atoms: C2_2  and  C3_3 
REMARK    2  A    between atoms: C4_4  and  C5_5 
REMARK    3  A    between atoms: C6_6  and  C7_7 
REMARK    4  A    between atoms: C7_7  and  O1_8 
REMARK    5  A    between atoms: O1_8  and  C8_9 
REMARK    6  A    between atoms: C9_11  and  O3_12 
REMARK    7  A    between atoms: C10_14  and  O4_15 
REMARK    8  A    between atoms: C11_17  and  C12_18 
REMARK    9  A    between atoms: C12_18  and  O5_19 
ROOT
HETATM    1  C8  UNL     1     -20.706   3.001 105.193  1.00  0.00     0.416 C 
HETATM    2  O2  UNL     1     -21.356   4.046 105.844  1.00  0.00    -0.306 OA
HETATM    3  C9  UNL     1     -20.650   4.464 106.954  1.00  0.00     0.293 C 
HETATM    4  C10 UNL     1     -20.074   3.246 107.639  1.00  0.00     0.204 C 
HETATM    5  C11 UNL     1     -20.793   1.985 107.265  1.00  0.00     0.184 C 
HETATM    6  O6  UNL     1     -20.963   1.833 105.909  1.00  0.00    -0.329 OA
ENDROOT
BRANCH   1   7
HETATM    7  O1  UNL     1     -21.166   2.816 103.911  1.00  0.00    -0.327 OA
BRANCH   7   8
HETATM    8  C7  UNL     1     -20.357   3.425 102.951  1.00  0.00     0.268 C 
BRANCH   8   9
HETATM    9  C6  UNL     1     -20.976   4.718 102.609  1.00  0.00    -0.066 C 
HETATM   10  C5  UNL     1     -21.473   5.779 102.310  1.00  0.00    -0.013 C 
BRANCH  10  11
HETATM   11  C4  UNL     1     -22.032   7.032 101.957  1.00  0.00    -0.015 C 
HETATM   12  C3  UNL     1     -22.489   8.107 101.650  1.00  0.00    -0.093 C 
BRANCH  12  13
HETATM   13  C2  UNL     1     -23.031   9.423 101.263  1.00  0.00     0.090 C 
HETATM   14  C1  UNL     1     -24.237   9.689 102.121  1.00  0.00     0.018 C 
ENDBRANCH  12  13
ENDBRANCH  10  11
ENDBRANCH   8   9
ENDBRANCH   7   8
ENDBRANCH   1   7
BRANCH   3  15
HETATM   15  O3  UNL     1     -19.614   5.329 106.559  1.00  0.00    -0.368 OA
ATOM     16  H3  UNL     1     -19.729   6.176 106.974  1.00  0.00     0.212 HD
ENDBRANCH   3  15
BRANCH   5  17
HETATM   17  C12 UNL     1     -22.184   1.978 107.902  1.00  0.00     0.199 C 
BRANCH  17  18
HETATM   18  O5  UNL     1     -22.211   1.088 108.951  1.00  0.00    -0.398 OA
ATOM     19  H5  UNL     1     -21.546   0.422 108.825  1.00  0.00     0.209 HD
ENDBRANCH  17  18
ENDBRANCH   5  17
BRANCH   4  20
HETATM   20  O4  UNL     1     -20.099   3.432 109.004  1.00  0.00    -0.388 OA
ATOM     21  H4  UNL     1     -20.525   2.690 109.416  1.00  0.00     0.210 HD
ENDBRANCH   4  20
TORSDOF 9
ENDMDL
MODEL 2
REMARK VINA RESULT: -6.194093014      1.471      2.370
REMARK  9 active torsions:
REMARK  status: ('A' for Active; 'I' for Inactive)
REMARK    1  A    between atoms: C2_2  and  C3_3 
REMARK    2  A    between atoms: C4_4  and  C5_5 
REMARK    3  A    between atoms: C6_6  and  C7_7 
REMARK    4  A    between atoms: C7_7  and  O1_8 
REMARK    5  A    between atoms: O1_8  and  C8_9 
REMARK    6  A    between atoms: C9_11  and  O3_12 
REMARK    7  A    between atoms: C10_14  and  O4_15 
REMARK    8  A    between atoms: C11_17  and  C12_18 
REMARK    9  A    between atoms: C12_18  and  O5_19 
ROOT
HETATM    1  C8  UNL     1     -20.908   4.099 105.917  1.00  0.00     0.416 C 
HETATM    2  O2  UNL     1     -21.449   2.929 105.393  1.00  0.00    -0.306 OA
HETATM    3  C9  UNL     1     -22.297   2.318 106.295  1.00  0.00     0.293 C 
HETATM    4  C10 UNL     1     -21.697   2.448 107.676  1.00  0.00     0.204 C 
HETATM    5  C11 UNL     1     -20.224   2.718 107.637  1.00  0.00     0.184 C 
HETATM    6  O6  UNL     1     -19.876   3.737 106.781  1.00  0.00    -0.329 OA
ENDROOT
BRANCH   1   7
HETATM    7  O1  UNL     1     -20.375   4.912 104.945  1.00  0.00    -0.327 OA
BRANCH   7   8
HETATM    8  C7  UNL     1     -20.647   4.463 103.653  1.00  0.00     0.268 C 
BRANCH   8   9
HETATM    9  C6  UNL     1     -21.286   5.573 102.925  1.00  0.00    -0.066 C 
HETATM   10  C5  UNL     1     -21.816   6.493 102.346  1.00  0.00    -0.013 C 
BRANCH  10  11
HETATM   11  C4  UNL     1     -22.456   7.568 101.682  1.00  0.00    -0.015 C 
HETATM   12  C3  UNL     1     -22.986   8.498 101.121  1.00  0.00    -0.093 C 
BRANCH  12  13
HETATM   13  C2  UNL     1     -23.614   9.643 100.436  1.00  0.00     0.090 C 
HETATM   14  C1  UNL     1     -23.951   9.207  99.036  1.00  0.00     0.018 C 
ENDBRANCH  12  13
ENDBRANCH  10  11
ENDBRANCH   8   9
ENDBRANCH   7   8
ENDBRANCH   1   7
BRANCH   3  15
HETATM   15  O3  UNL     1     -23.558   2.941 106.256  1.00  0.00    -0.368 OA
ATOM     16  H3  UNL     1     -24.238   2.281 106.181  1.00  0.00     0.212 HD
ENDBRANCH   3  15
BRANCH   5  17
HETATM   17  C12 UNL     1     -19.482   1.463 107.176  1.00  0.00     0.199 C 
BRANCH  17  18
HETATM   18  O5  UNL     1     -18.173   1.774 106.888  1.00  0.00    -0.398 OA
ATOM     19  H5  UNL     1     -17.614   1.506 107.607  1.00  0.00     0.209 HD
ENDBRANCH  17  18
ENDBRANCH   5  17
BRANCH   4  20
HETATM   20  O4  UNL     1     -21.962   1.306 108.400  1.00  0.00    -0.388 OA
ATOM     21  H4  UNL     1     -22.900   1.163 108.433  1.00  0.00     0.210 HD
ENDBRANCH   4  20
TORSDOF 9
ENDMDL
MODEL 3
REMARK VINA RESULT: -6.113527198      1.844      2.643
REMARK  9 active torsions:
REMARK  status: ('A' for Active; 'I' for Inactive)
REMARK    1  A    between atoms: C2_2  and  C3_3 
REMARK    2  A    between atoms: C4_4  and  C5_5 
REMARK    3  A    between atoms: C6_6  and  C7_7 
REMARK    4  A    between atoms: C7_7  and  O1_8 
REMARK    5  A    between atoms: O1_8  and  C8_9 
REMARK    6  A    between atoms: C9_11  and  O3_12 
REMARK    7  A    between atoms: C10_14  and  O4_15 
REMARK    8  A    between atoms: C11_17  and  C12_18 
REMARK    9  A    between atoms: C12_18  and  O5_19 
ROOT
HETATM    1  C8  UNL     1     -20.930   4.415 105.097  1.00  0.00     0.416 C 
HETATM    2  O2  UNL     1     -21.606   3.243 104.773  1.00  0.00    -0.306 OA
HETATM    3  C9  UNL     1     -22.560   2.933 105.722  1.00  0.00     0.293 C 
HETATM    4  C10 UNL     1     -21.997   3.256 107.087  1.00  0.00     0.204 C 
HETATM    5  C11 UNL     1     -20.500   3.324 107.086  1.00  0.00     0.184 C 
HETATM    6  O6  UNL     1     -19.987   4.102 106.075  1.00  0.00    -0.329 OA
ENDROOT
BRANCH   1   7
HETATM    7  O1  UNL     1     -20.258   4.946 104.022  1.00  0.00    -0.327 OA
BRANCH   7   8
HETATM    8  C7  UNL     1     -20.122   6.333 104.098  1.00  0.00     0.268 C 
BRANCH   8   9
HETATM    9  C6  UNL     1     -21.041   6.921 103.108  1.00  0.00    -0.066 C 
HETATM   10  C5  UNL     1     -21.794   7.386 102.284  1.00  0.00    -0.013 C 
BRANCH  10  11
HETATM   11  C4  UNL     1     -22.660   7.925 101.301  1.00  0.00    -0.015 C 
HETATM   12  C3  UNL     1     -23.385   8.378 100.448  1.00  0.00    -0.093 C 
BRANCH  12  13
HETATM   13  C2  UNL     1     -24.260   8.920  99.391  1.00  0.00     0.090 C 
HETATM   14  C1  UNL     1     -24.505   7.820  98.395  1.00  0.00     0.018 C 
ENDBRANCH  12  13
ENDBRANCH  10  11
ENDBRANCH   8   9
ENDBRANCH   7   8
ENDBRANCH   1   7
BRANCH   3  15
HETATM   15  O3  UNL     1     -23.723   3.691 105.489  1.00  0.00    -0.368 OA
ATOM     16  H3  UNL     1     -23.738   3.983 104.586  1.00  0.00     0.212 HD
ENDBRANCH   3  15
BRANCH   5  17
HETATM   17  C12 UNL     1     -19.920   1.919 106.919  1.00  0.00     0.199 C 
BRANCH  17  18
HETATM   18  O5  UNL     1     -18.547   1.972 106.969  1.00  0.00    -0.398 OA
ATOM     19  H5  UNL     1     -18.204   1.142 107.276  1.00  0.00     0.209 HD
ENDBRANCH  17  18
ENDBRANCH   5  17
BRANCH   4  20
HETATM   20  O4  UNL     1     -22.440   2.323 107.998  1.00  0.00    -0.388 OA
ATOM     21  H4  UNL     1     -23.199   2.663 108.456  1.00  0.00     0.210 HD
ENDBRANCH   4  20
TORSDOF 9
ENDMDL
MODEL 4
REMARK VINA RESULT: -6.104323801      1.325      1.898
REMARK  9 active torsions:
REMARK  status: ('A' for Active; 'I' for Inactive)
REMARK    1  A    between atoms: C2_2  and  C3_3 
REMARK    2  A    between atoms: C4_4  and  C5_5 
REMARK    3  A    between atoms: C6_6  and  C7_7 
REMARK    4  A    between atoms: C7_7  and  O1_8 
REMARK    5  A    between atoms: O1_8  and  C8_9 
REMARK    6  A    between atoms: C9_11  and  O3_12 
REMARK    7  A    between atoms: C10_14  and  O4_15 
REMARK    8  A    between atoms: C11_17  and  C12_18 
REMARK    9  A    between atoms: C12_18  and  O5_19 
ROOT
HETATM    1  C8  UNL     1     -20.940   2.736 104.649  1.00  0.00     0.416 C 
HETATM    2  O2  UNL     1     -21.834   2.057 105.472  1.00  0.00    -0.306 OA
HETATM    3  C9  UNL     1     -22.093   2.766 106.628  1.00  0.00     0.293 C 
HETATM    4  C10 UNL     1     -20.804   3.404 107.094  1.00  0.00     0.204 C 
HETATM    5  C11 UNL     1     -19.593   2.729 106.525  1.00  0.00     0.184 C 
HETATM    6  O6  UNL     1     -19.659   2.540 105.165  1.00  0.00    -0.329 OA
ENDROOT
BRANCH   1   7
HETATM    7  O1  UNL     1     -20.949   2.260 103.359  1.00  0.00    -0.327 OA
BRANCH   7   8
HETATM    8  C7  UNL     1     -20.192   3.042 102.487  1.00  0.00     0.268 C 
BRANCH   8   9
HETATM    9  C6  UNL     1     -20.884   4.334 102.337  1.00  0.00    -0.066 C 
HETATM   10  C5  UNL     1     -21.446   5.400 102.234  1.00  0.00    -0.013 C 
BRANCH  10  11
HETATM   11  C4  UNL     1     -22.114   6.645 102.134  1.00  0.00    -0.015 C 
HETATM   12  C3  UNL     1     -22.696   7.701 102.065  1.00  0.00    -0.093 C 
BRANCH  12  13
HETATM   13  C2  UNL     1     -23.413   8.988 102.002  1.00  0.00     0.090 C 
HETATM   14  C1  UNL     1     -22.930   9.718 100.778  1.00  0.00     0.018 C 
ENDBRANCH  12  13
ENDBRANCH  10  11
ENDBRANCH   8   9
ENDBRANCH   7   8
ENDBRANCH   1   7
BRANCH   3  15
HETATM   15  O3  UNL     1     -23.055   3.759 106.369  1.00  0.00    -0.368 OA
ATOM     16  H3  UNL     1     -22.731   4.351 105.699  1.00  0.00     0.212 HD
ENDBRANCH   3  15
BRANCH   5  17
HETATM   17  C12 UNL     1     -19.420   1.352 107.169  1.00  0.00     0.199 C 
BRANCH  17  18
HETATM   18  O5  UNL     1     -18.107   1.169 107.533  1.00  0.00    -0.398 OA
ATOM     19  H5  UNL     1     -18.057   0.937 108.452  1.00  0.00     0.209 HD
ENDBRANCH  17  18
ENDBRANCH   5  17
BRANCH   4  20
HETATM   20  O4  UNL     1     -20.761   3.397 108.471  1.00  0.00    -0.388 OA
ATOM     21  H4  UNL     1     -20.352   4.197 108.778  1.00  0.00     0.210 HD
ENDBRANCH   4  20
TORSDOF 9
ENDMDL
MODEL 5
REMARK VINA RESULT: -6.007080457      1.860      2.520
REMARK  9 active torsions:
REMARK  status: ('A' for Active; 'I' for Inactive)
REMARK    1  A    between atoms: C2_2  and  C3_3 
REMARK    2  A    between atoms: C4_4  and  C5_5 
REMARK    3  A    between atoms: C6_6  and  C7_7 
REMARK    4  A    between atoms: C7_7  and  O1_8 
REMARK    5  A    between atoms: O1_8  and  C8_9 
REMARK    6  A    between atoms: C9_11  and  O3_12 
REMARK    7  A    between atoms: C10_14  and  O4_15 
REMARK    8  A    between atoms: C11_17  and  C12_18 
REMARK    9  A    between atoms: C12_18  and  O5_19 
ROOT
HETATM    1  C8  UNL     1     -20.966   4.273 105.068  1.00  0.00     0.416 C 
HETATM    2  O2  UNL     1     -21.653   3.088 104.822  1.00  0.00    -0.306 OA
HETATM    3  C9  UNL     1     -22.583   2.831 105.810  1.00  0.00     0.293 C 
HETATM    4  C10 UNL     1     -21.984   3.222 107.141  1.00  0.00     0.204 C 
HETATM    5  C11 UNL     1     -20.487   3.285 107.100  1.00  0.00     0.184 C 
HETATM    6  O6  UNL     1     -19.999   4.008 106.037  1.00  0.00    -0.329 OA
ENDROOT
BRANCH   1   7
HETATM    7  O1  UNL     1     -20.320   4.747 103.951  1.00  0.00    -0.327 OA
BRANCH   7   8
HETATM    8  C7  UNL     1     -20.634   4.028 102.797  1.00  0.00     0.268 C 
BRANCH   8   9
HETATM    9  C6  UNL     1     -21.458   4.901 101.943  1.00  0.00    -0.066 C 
HETATM   10  C5  UNL     1     -22.146   5.601 101.237  1.00  0.00    -0.013 C 
BRANCH  10  11
HETATM   11  C4  UNL     1     -22.951   6.405 100.393  1.00  0.00    -0.015 C 
HETATM   12  C3  UNL     1     -23.642   7.073  99.662  1.00  0.00    -0.093 C 
BRANCH  12  13
HETATM   13  C2  UNL     1     -24.496   7.871  98.762  1.00  0.00     0.090 C 
HETATM   14  C1  UNL     1     -24.060   9.306  98.876  1.00  0.00     0.018 C 
ENDBRANCH  12  13
ENDBRANCH  10  11
ENDBRANCH   8   9
ENDBRANCH   7   8
ENDBRANCH   1   7
BRANCH   3  15
HETATM   15  O3  UNL     1     -23.749   3.580 105.568  1.00  0.00    -0.368 OA
ATOM     16  H3  UNL     1     -24.032   4.000 106.372  1.00  0.00     0.212 HD
ENDBRANCH   3  15
BRANCH   5  17
HETATM   17  C12 UNL     1     -19.915   1.870 106.990  1.00  0.00     0.199 C 
BRANCH  17  18
HETATM   18  O5  UNL     1     -18.542   1.927 106.932  1.00  0.00    -0.398 OA
ATOM     19  H5  UNL     1     -18.177   1.742 107.788  1.00  0.00     0.209 HD
ENDBRANCH  17  18
ENDBRANCH   5  17
BRANCH   4  20
HETATM   20  O4  UNL     1     -22.406   2.337 108.111  1.00  0.00    -0.388 OA
ATOM     21  H4  UNL     1     -22.563   1.488 107.716  1.00  0.00     0.210 HD
ENDBRANCH   4  20
TORSDOF 9
ENDMDL
