MODEL 1
REMARK VINA RESULT: -8.057532826      0.000      0.000
REMARK  11 active torsions:
REMARK  status: ('A' for Active; 'I' for Inactive)
REMARK    1  A    between atoms: C2_2  and  C3_3 
REMARK    2  A    between atoms: C3_3  and  N1_4 
REMARK    3  A    between atoms: N1_4  and  C4_6 
REMARK    4  A    between atoms: C7_12  and  N3_13 
REMARK    5  A    between atoms: N3_13  and  C8_15 
REMARK    6  A    between atoms: C8_15  and  C9_16 
REMARK    7  A    between atoms: C9_16  and  O1_17 
REMARK    8  A    between atoms: O1_17  and  C10_18 
REMARK    9  A    between atoms: C16_26  and  N5_27 
REMARK   10  A    between atoms: C17_31  and  O3_32 
REMARK   11  A    between atoms: C19_34  and  O4_35 
ROOT
HETATM    1  C10 UNL     1      26.954   4.461   0.281  1.00  0.00     0.120 A 
HETATM    2  C11 UNL     1      27.587   5.588  -0.230  1.00  0.00     0.102 A 
HETATM    3  C12 UNL     1      28.606   5.643  -1.225  1.00  0.00     0.104 C 
HETATM    4  N4  UNL     1      29.418   5.707  -2.017  1.00  0.00    -0.191 NA
HETATM    5  C13 UNL     1      27.021   6.660   0.431  1.00  0.00     0.167 A 
HETATM    6  O2  UNL     1      26.132   6.228   1.259  1.00  0.00    -0.323 OA
HETATM    7  C14 UNL     1      26.042   4.907   1.218  1.00  0.00     0.083 A 
HETATM    8  C15 UNL     1      25.101   4.133   2.064  1.00  0.00     0.079 C 
ENDROOT
BRANCH   1   9
HETATM    9  O1  UNL     1      27.174   3.141  -0.065  1.00  0.00    -0.344 OA
BRANCH   9  10
HETATM   10  C9  UNL     1      28.379   2.463   0.258  1.00  0.00     0.210 C 
BRANCH  10  11
HETATM   11  C8  UNL     1      28.529   1.136  -0.437  1.00  0.00     0.091 C 
HETATM   12  C16 UNL     1      28.894   1.534  -1.897  1.00  0.00     0.245 C 
HETATM   13  C17 UNL     1      29.214   0.322  -2.714  1.00  0.00     0.182 C 
HETATM   14  C19 UNL     1      29.639  -0.881  -1.944  1.00  0.00     0.150 C 
HETATM   15  C20 UNL     1      30.438  -0.465  -0.766  1.00  0.00     0.045 C 
HETATM   16  C21 UNL     1      29.720   0.441   0.193  1.00  0.00    -0.016 C 
HETATM   17  C22 UNL     1      30.703   1.392   0.835  1.00  0.00     0.018 C 
HETATM   18  C23 UNL     1      29.191  -0.426   1.314  1.00  0.00     0.018 C 
BRANCH  11  19
HETATM   19  N3  UNL     1      27.486   0.289  -0.501  1.00  0.00    -0.361 N 
ATOM     20  H3  UNL     1      27.714  -0.296  -1.305  1.00  0.00     0.162 HD
BRANCH  19  21
HETATM   21  C7  UNL     1      26.421  -0.163  -0.127  1.00  0.00     0.120 A 
HETATM   22  C6  UNL     1      26.189  -1.401   0.457  1.00  0.00     0.091 A 
HETATM   23  C5  UNL     1      24.936  -1.798   0.842  1.00  0.00     0.122 A 
HETATM   24  N2  UNL     1      23.860  -0.991   0.667  1.00  0.00    -0.181 N 
HETATM   25 CL1  UNL     1      24.681  -3.360   1.573  1.00  0.00    -0.064 Cl
HETATM   26  C4  UNL     1      24.062   0.204   0.106  1.00  0.00     0.684 A 
ATOM     27  H2  UNL     1      22.927  -1.287   0.953  1.00  0.00     0.185 HD
HETATM   28  N6  UNL     1      25.323   0.599  -0.278  1.00  0.00    -0.177 N 
ATOM     29  H6  UNL     1      25.431   1.520  -0.702  1.00  0.00     0.186 HD
BRANCH  26  30
HETATM   30  N1  UNL     1      23.083   1.005  -0.079  1.00  0.00    -0.202 N 
ATOM     31  H1  UNL     1      22.832   1.197  -1.049  1.00  0.00     0.183 HD
BRANCH  30  32
HETATM   32  C3  UNL     1      22.314   1.647   0.902  1.00  0.00     0.105 C 
BRANCH  32  33
HETATM   33  C2  UNL     1      21.877   3.004   0.492  1.00  0.00     0.007 C 
HETATM   34  C1  UNL     1      20.610   3.339   0.568  1.00  0.00     0.012 C 
ENDBRANCH  32  33
ENDBRANCH  30  32
ENDBRANCH  26  30
ENDBRANCH  19  21
ENDBRANCH  11  19
BRANCH  12  35
HETATM   35  N5  UNL     1      29.933   2.500  -1.957  1.00  0.00    -0.070 N 
ATOM     36  H53 UNL     1      29.670   3.285  -2.553  1.00  0.00     0.274 HD
ATOM     37  H52 UNL     1      30.027   2.993  -1.068  1.00  0.00     0.274 HD
ATOM     38  H51 UNL     1      30.824   2.099  -2.249  1.00  0.00     0.274 HD
ENDBRANCH  12  35
BRANCH  13  39
HETATM   39  O3  UNL     1      28.145  -0.037  -3.519  1.00  0.00    -0.386 OA
HETATM   40  C18 UNL     1      27.518   1.082  -4.071  1.00  0.00     0.202 C 
ENDBRANCH  13  39
BRANCH  14  41
HETATM   41  O4  UNL     1      30.503  -1.627  -2.782  1.00  0.00    -0.393 OA
ATOM     42  H4  UNL     1      30.071  -1.712  -3.623  1.00  0.00     0.210 HD
ENDBRANCH  14  41
ENDBRANCH  10  11
ENDBRANCH   9  10
ENDBRANCH   1   9
TORSDOF 11
ENDMDL
MODEL 2
REMARK VINA RESULT: -8.052775006      0.708      1.862
REMARK  11 active torsions:
REMARK  status: ('A' for Active; 'I' for Inactive)
REMARK    1  A    between atoms: C2_2  and  C3_3 
REMARK    2  A    between atoms: C3_3  and  N1_4 
REMARK    3  A    between atoms: N1_4  and  C4_6 
REMARK    4  A    between atoms: C7_12  and  N3_13 
REMARK    5  A    between atoms: N3_13  and  C8_15 
REMARK    6  A    between atoms: C8_15  and  C9_16 
REMARK    7  A    between atoms: C9_16  and  O1_17 
REMARK    8  A    between atoms: O1_17  and  C10_18 
REMARK    9  A    between atoms: C16_26  and  N5_27 
REMARK   10  A    between atoms: C17_31  and  O3_32 
REMARK   11  A    between atoms: C19_34  and  O4_35 
ROOT
HETATM    1  C10 UNL     1      26.897   4.426   0.234  1.00  0.00     0.120 A 
HETATM    2  C11 UNL     1      25.992   4.441   1.289  1.00  0.00     0.102 A 
HETATM    3  C12 UNL     1      25.409   3.326   1.955  1.00  0.00     0.104 C 
HETATM    4  N4  UNL     1      24.934   2.448   2.500  1.00  0.00    -0.191 NA
HETATM    5  C13 UNL     1      25.770   5.775   1.565  1.00  0.00     0.167 A 
HETATM    6  O2  UNL     1      26.471   6.499   0.759  1.00  0.00    -0.323 OA
HETATM    7  C14 UNL     1      27.175   5.744  -0.072  1.00  0.00     0.083 A 
HETATM    8  C15 UNL     1      28.073   6.305  -1.111  1.00  0.00     0.079 C 
ENDROOT
BRANCH   1   9
HETATM    9  O1  UNL     1      27.431   3.322  -0.404  1.00  0.00    -0.344 OA
BRANCH   9  10
HETATM   10  C9  UNL     1      28.412   2.495   0.204  1.00  0.00     0.210 C 
BRANCH  10  11
HETATM   11  C8  UNL     1      28.571   1.155  -0.464  1.00  0.00     0.091 C 
HETATM   12  C16 UNL     1      28.922   1.527  -1.934  1.00  0.00     0.245 C 
HETATM   13  C17 UNL     1      29.249   0.302  -2.728  1.00  0.00     0.182 C 
HETATM   14  C19 UNL     1      29.691  -0.881  -1.937  1.00  0.00     0.150 C 
HETATM   15  C20 UNL     1      30.494  -0.432  -0.774  1.00  0.00     0.045 C 
HETATM   16  C21 UNL     1      29.773   0.486   0.172  1.00  0.00    -0.016 C 
HETATM   17  C22 UNL     1      30.751   1.460   0.788  1.00  0.00     0.018 C 
HETATM   18  C23 UNL     1      29.261  -0.363   1.314  1.00  0.00     0.018 C 
BRANCH  11  19
HETATM   19  N3  UNL     1      27.537   0.297  -0.503  1.00  0.00    -0.361 N 
ATOM     20  H3  UNL     1      27.788  -0.330  -1.268  1.00  0.00     0.162 HD
BRANCH  19  21
HETATM   21  C7  UNL     1      26.466  -0.142  -0.129  1.00  0.00     0.120 A 
HETATM   22  C6  UNL     1      26.221  -1.377   0.458  1.00  0.00     0.091 A 
HETATM   23  C5  UNL     1      24.963  -1.759   0.844  1.00  0.00     0.122 A 
HETATM   24  N2  UNL     1      23.896  -0.941   0.667  1.00  0.00    -0.181 N 
HETATM   25 CL1  UNL     1      24.691  -3.317   1.578  1.00  0.00    -0.064 Cl
HETATM   26  C4  UNL     1      24.112   0.251   0.104  1.00  0.00     0.684 A 
ATOM     27  H2  UNL     1      22.960  -1.226   0.954  1.00  0.00     0.185 HD
HETATM   28  N6  UNL     1      25.377   0.631  -0.282  1.00  0.00    -0.177 N 
ATOM     29  H6  UNL     1      25.495   1.550  -0.708  1.00  0.00     0.186 HD
BRANCH  26  30
HETATM   30  N1  UNL     1      23.141   1.061  -0.083  1.00  0.00    -0.202 N 
ATOM     31  H1  UNL     1      23.256   1.740  -0.836  1.00  0.00     0.183 HD
BRANCH  30  32
HETATM   32  C3  UNL     1      21.935   1.122   0.630  1.00  0.00     0.105 C 
BRANCH  32  33
HETATM   33  C2  UNL     1      21.586   2.500   1.053  1.00  0.00     0.007 C 
HETATM   34  C1  UNL     1      22.026   3.530   0.370  1.00  0.00     0.012 C 
ENDBRANCH  32  33
ENDBRANCH  30  32
ENDBRANCH  26  30
ENDBRANCH  19  21
ENDBRANCH  11  19
BRANCH  12  35
HETATM   35  N5  UNL     1      29.951   2.502  -2.021  1.00  0.00    -0.070 N 
ATOM     36  H53 UNL     1      29.635   3.401  -1.656  1.00  0.00     0.274 HD
ATOM     37  H52 UNL     1      30.698   2.307  -1.354  1.00  0.00     0.274 HD
ATOM     38  H51 UNL     1      30.320   2.599  -2.967  1.00  0.00     0.274 HD
ENDBRANCH  12  35
BRANCH  13  39
HETATM   39  O3  UNL     1      28.178  -0.084  -3.519  1.00  0.00    -0.386 OA
HETATM   40  C18 UNL     1      27.525   1.018  -4.075  1.00  0.00     0.202 C 
ENDBRANCH  13  39
BRANCH  14  41
HETATM   41  O4  UNL     1      30.557  -1.635  -2.765  1.00  0.00    -0.393 OA
ATOM     42  H4  UNL     1      31.010  -2.253  -2.205  1.00  0.00     0.210 HD
ENDBRANCH  14  41
ENDBRANCH  10  11
ENDBRANCH   9  10
ENDBRANCH   1   9
TORSDOF 11
ENDMDL
MODEL 3
REMARK VINA RESULT: -7.623333008      1.550      2.933
REMARK  11 active torsions:
REMARK  status: ('A' for Active; 'I' for Inactive)
REMARK    1  A    between atoms: C2_2  and  C3_3 
REMARK    2  A    between atoms: C3_3  and  N1_4 
REMARK    3  A    between atoms: N1_4  and  C4_6 
REMARK    4  A    between atoms: C7_12  and  N3_13 
REMARK    5  A    between atoms: N3_13  and  C8_15 
REMARK    6  A    between atoms: C8_15  and  C9_16 
REMARK    7  A    between atoms: C9_16  and  O1_17 
REMARK    8  A    between atoms: O1_17  and  C10_18 
REMARK    9  A    between atoms: C16_26  and  N5_27 
REMARK   10  A    between atoms: C17_31  and  O3_32 
REMARK   11  A    between atoms: C19_34  and  O4_35 
ROOT
HETATM    1  C10 UNL     1      27.068   4.560   0.223  1.00  0.00     0.120 A 
HETATM    2  C11 UNL     1      27.745   5.672  -0.262  1.00  0.00     0.102 A 
HETATM    3  C12 UNL     1      28.794   5.705  -1.225  1.00  0.00     0.104 C 
HETATM    4  N4  UNL     1      29.631   5.752  -1.993  1.00  0.00    -0.191 NA
HETATM    5  C13 UNL     1      27.188   6.755   0.388  1.00  0.00     0.167 A 
HETATM    6  O2  UNL     1      26.263   6.342   1.187  1.00  0.00    -0.323 OA
HETATM    7  C14 UNL     1      26.140   5.024   1.136  1.00  0.00     0.083 A 
HETATM    8  C15 UNL     1      25.154   4.271   1.948  1.00  0.00     0.079 C 
ENDROOT
BRANCH   1   9
HETATM    9  O1  UNL     1      27.264   3.236  -0.123  1.00  0.00    -0.344 OA
BRANCH   9  10
HETATM   10  C9  UNL     1      28.411   2.505   0.287  1.00  0.00     0.210 C 
BRANCH  10  11
HETATM   11  C8  UNL     1      28.548   1.168  -0.390  1.00  0.00     0.091 C 
HETATM   12  C16 UNL     1      28.858   1.545  -1.869  1.00  0.00     0.245 C 
HETATM   13  C17 UNL     1      29.161   0.322  -2.677  1.00  0.00     0.182 C 
HETATM   14  C19 UNL     1      29.624  -0.864  -1.903  1.00  0.00     0.150 C 
HETATM   15  C20 UNL     1      30.460  -0.420  -0.761  1.00  0.00     0.045 C 
HETATM   16  C21 UNL     1      29.767   0.495   0.208  1.00  0.00    -0.016 C 
HETATM   17  C22 UNL     1      30.763   1.466   0.800  1.00  0.00     0.018 C 
HETATM   18  C23 UNL     1      29.286  -0.357   1.362  1.00  0.00     0.018 C 
BRANCH  11  19
HETATM   19  N3  UNL     1      27.512   0.312  -0.404  1.00  0.00    -0.361 N 
ATOM     20  H3  UNL     1      27.784  -0.367  -1.116  1.00  0.00     0.162 HD
BRANCH  19  21
HETATM   21  C7  UNL     1      26.429  -0.099  -0.034  1.00  0.00     0.120 A 
HETATM   22  C6  UNL     1      25.228   0.597  -0.006  1.00  0.00     0.091 A 
HETATM   23  C5  UNL     1      24.065   0.020   0.432  1.00  0.00     0.122 A 
HETATM   24  N2  UNL     1      24.038  -1.267   0.859  1.00  0.00    -0.181 N 
HETATM   25 CL1  UNL     1      22.575   0.924   0.454  1.00  0.00    -0.064 Cl
HETATM   26  C4  UNL     1      25.184  -1.954   0.839  1.00  0.00     0.684 A 
ATOM     27  H2  UNL     1      23.172  -1.696   1.184  1.00  0.00     0.185 HD
HETATM   28  N6  UNL     1      26.349  -1.370   0.399  1.00  0.00    -0.177 N 
ATOM     29  H6  UNL     1      27.200  -1.932   0.401  1.00  0.00     0.186 HD
BRANCH  26  30
HETATM   30  N1  UNL     1      25.213  -3.171   1.229  1.00  0.00    -0.202 N 
ATOM     31  H1  UNL     1      26.114  -3.521   1.553  1.00  0.00     0.183 HD
BRANCH  30  32
HETATM   32  C3  UNL     1      24.144  -4.079   1.260  1.00  0.00     0.105 C 
BRANCH  32  33
HETATM   33  C2  UNL     1      24.591  -5.489   1.366  1.00  0.00     0.007 C 
HETATM   34  C1  UNL     1      23.733  -6.429   1.689  1.00  0.00     0.012 C 
ENDBRANCH  32  33
ENDBRANCH  30  32
ENDBRANCH  26  30
ENDBRANCH  19  21
ENDBRANCH  11  19
BRANCH  12  35
HETATM   35  N5  UNL     1      29.885   2.519  -1.981  1.00  0.00    -0.070 N 
ATOM     36  H53 UNL     1      30.269   2.539  -2.927  1.00  0.00     0.274 HD
ATOM     37  H52 UNL     1      29.501   3.463  -1.939  1.00  0.00     0.274 HD
ATOM     38  H51 UNL     1      30.623   2.392  -1.288  1.00  0.00     0.274 HD
ENDBRANCH  12  35
BRANCH  13  39
HETATM   39  O3  UNL     1      28.067  -0.060  -3.438  1.00  0.00    -0.386 OA
HETATM   40  C18 UNL     1      27.453   1.039  -4.044  1.00  0.00     0.202 C 
ENDBRANCH  13  39
BRANCH  14  41
HETATM   41  O4  UNL     1      30.465  -1.616  -2.757  1.00  0.00    -0.393 OA
ATOM     42  H4  UNL     1      30.236  -2.530  -2.641  1.00  0.00     0.210 HD
ENDBRANCH  14  41
ENDBRANCH  10  11
ENDBRANCH   9  10
ENDBRANCH   1   9
TORSDOF 11
ENDMDL
MODEL 4
REMARK VINA RESULT: -7.562512519      1.716      3.439
REMARK  11 active torsions:
REMARK  status: ('A' for Active; 'I' for Inactive)
REMARK    1  A    between atoms: C2_2  and  C3_3 
REMARK    2  A    between atoms: C3_3  and  N1_4 
REMARK    3  A    between atoms: N1_4  and  C4_6 
REMARK    4  A    between atoms: C7_12  and  N3_13 
REMARK    5  A    between atoms: N3_13  and  C8_15 
REMARK    6  A    between atoms: C8_15  and  C9_16 
REMARK    7  A    between atoms: C9_16  and  O1_17 
REMARK    8  A    between atoms: O1_17  and  C10_18 
REMARK    9  A    between atoms: C16_26  and  N5_27 
REMARK   10  A    between atoms: C17_31  and  O3_32 
REMARK   11  A    between atoms: C19_34  and  O4_35 
ROOT
HETATM    1  C10 UNL     1      27.061   4.578   0.131  1.00  0.00     0.120 A 
HETATM    2  C11 UNL     1      26.213   4.833   1.202  1.00  0.00     0.102 A 
HETATM    3  C12 UNL     1      25.520   3.888   2.012  1.00  0.00     0.104 C 
HETATM    4  N4  UNL     1      24.959   3.150   2.670  1.00  0.00    -0.191 NA
HETATM    5  C13 UNL     1      26.177   6.208   1.325  1.00  0.00     0.167 A 
HETATM    6  O2  UNL     1      26.930   6.735   0.420  1.00  0.00    -0.323 OA
HETATM    7  C14 UNL     1      27.493   5.804  -0.336  1.00  0.00     0.083 A 
HETATM    8  C15 UNL     1      28.411   6.119  -1.458  1.00  0.00     0.079 C 
ENDROOT
BRANCH   1   9
HETATM    9  O1  UNL     1      27.420   3.347  -0.386  1.00  0.00    -0.344 OA
BRANCH   9  10
HETATM   10  C9  UNL     1      28.437   2.546   0.196  1.00  0.00     0.210 C 
BRANCH  10  11
HETATM   11  C8  UNL     1      28.572   1.188  -0.438  1.00  0.00     0.091 C 
HETATM   12  C16 UNL     1      28.905   1.517  -1.923  1.00  0.00     0.245 C 
HETATM   13  C17 UNL     1      29.209   0.267  -2.689  1.00  0.00     0.182 C 
HETATM   14  C19 UNL     1      29.650  -0.898  -1.873  1.00  0.00     0.150 C 
HETATM   15  C20 UNL     1      30.474  -0.427  -0.733  1.00  0.00     0.045 C 
HETATM   16  C21 UNL     1      29.777   0.523   0.198  1.00  0.00    -0.016 C 
HETATM   17  C22 UNL     1      30.773   1.503   0.774  1.00  0.00     0.018 C 
HETATM   18  C23 UNL     1      29.273  -0.290   1.370  1.00  0.00     0.018 C 
BRANCH  11  19
HETATM   19  N3  UNL     1      27.529   0.340  -0.440  1.00  0.00    -0.361 N 
ATOM     20  H3  UNL     1      27.786  -0.340  -1.156  1.00  0.00     0.162 HD
BRANCH  19  21
HETATM   21  C7  UNL     1      26.447  -0.063  -0.058  1.00  0.00     0.120 A 
HETATM   22  C6  UNL     1      25.250   0.641  -0.023  1.00  0.00     0.091 A 
HETATM   23  C5  UNL     1      24.088   0.073   0.428  1.00  0.00     0.122 A 
HETATM   24  N2  UNL     1      24.058  -1.211   0.864  1.00  0.00    -0.181 N 
HETATM   25 CL1  UNL     1      22.603   0.986   0.458  1.00  0.00    -0.064 Cl
HETATM   26  C4  UNL     1      25.199  -1.905   0.838  1.00  0.00     0.684 A 
ATOM     27  H2  UNL     1      23.192  -1.633   1.200  1.00  0.00     0.185 HD
HETATM   28  N6  UNL     1      26.363  -1.330   0.384  1.00  0.00    -0.177 N 
ATOM     29  H6  UNL     1      27.212  -1.897   0.382  1.00  0.00     0.186 HD
BRANCH  26  30
HETATM   30  N1  UNL     1      25.224  -3.120   1.235  1.00  0.00    -0.202 N 
ATOM     31  H1  UNL     1      26.120  -3.464   1.582  1.00  0.00     0.183 HD
BRANCH  30  32
HETATM   32  C3  UNL     1      24.160  -4.032   1.246  1.00  0.00     0.105 C 
BRANCH  32  33
HETATM   33  C2  UNL     1      24.608  -5.436   1.419  1.00  0.00     0.007 C 
HETATM   34  C1  UNL     1      23.728  -6.384   1.644  1.00  0.00     0.012 C 
ENDBRANCH  32  33
ENDBRANCH  30  32
ENDBRANCH  26  30
ENDBRANCH  19  21
ENDBRANCH  11  19
BRANCH  12  35
HETATM   35  N5  UNL     1      29.943   2.478  -2.050  1.00  0.00    -0.070 N 
ATOM     36  H53 UNL     1      29.561   3.422  -2.126  1.00  0.00     0.274 HD
ATOM     37  H52 UNL     1      30.458   2.579  -1.175  1.00  0.00     0.274 HD
ATOM     38  H51 UNL     1      30.573   2.274  -2.825  1.00  0.00     0.274 HD
ENDBRANCH  12  35
BRANCH  13  39
HETATM   39  O3  UNL     1      28.122  -0.128  -3.453  1.00  0.00    -0.386 OA
HETATM   40  C18 UNL     1      27.507   0.960  -4.076  1.00  0.00     0.202 C 
ENDBRANCH  13  39
BRANCH  14  41
HETATM   41  O4  UNL     1      30.497  -1.683  -2.693  1.00  0.00    -0.393 OA
ATOM     42  H4  UNL     1      31.150  -2.074  -2.125  1.00  0.00     0.210 HD
ENDBRANCH  14  41
ENDBRANCH  10  11
ENDBRANCH   9  10
ENDBRANCH   1   9
TORSDOF 11
ENDMDL
MODEL 5
REMARK VINA RESULT: -7.245672734      3.185      6.538
REMARK  11 active torsions:
REMARK  status: ('A' for Active; 'I' for Inactive)
REMARK    1  A    between atoms: C2_2  and  C3_3 
REMARK    2  A    between atoms: C3_3  and  N1_4 
REMARK    3  A    between atoms: N1_4  and  C4_6 
REMARK    4  A    between atoms: C7_12  and  N3_13 
REMARK    5  A    between atoms: N3_13  and  C8_15 
REMARK    6  A    between atoms: C8_15  and  C9_16 
REMARK    7  A    between atoms: C9_16  and  O1_17 
REMARK    8  A    between atoms: O1_17  and  C10_18 
REMARK    9  A    between atoms: C16_26  and  N5_27 
REMARK   10  A    between atoms: C17_31  and  O3_32 
REMARK   11  A    between atoms: C19_34  and  O4_35 
ROOT
HETATM    1  C10 UNL     1      27.839   0.521  -1.372  1.00  0.00     0.120 A 
HETATM    2  C11 UNL     1      28.495   1.348  -2.276  1.00  0.00     0.102 A 
HETATM    3  C12 UNL     1      28.320   2.749  -2.464  1.00  0.00     0.104 C 
HETATM    4  N4  UNL     1      28.196   3.867  -2.629  1.00  0.00    -0.191 NA
HETATM    5  C13 UNL     1      29.365   0.526  -2.964  1.00  0.00     0.167 A 
HETATM    6  O2  UNL     1      29.249  -0.681  -2.522  1.00  0.00    -0.323 OA
HETATM    7  C14 UNL     1      28.342  -0.752  -1.559  1.00  0.00     0.083 A 
HETATM    8  C15 UNL     1      27.998  -2.016  -0.863  1.00  0.00     0.079 C 
ENDROOT
BRANCH   1   9
HETATM    9  O1  UNL     1      26.868   0.877  -0.455  1.00  0.00    -0.344 OA
BRANCH   9  10
HETATM   10  C9  UNL     1      25.503   0.519  -0.616  1.00  0.00     0.210 C 
BRANCH  10  11
HETATM   11  C8  UNL     1      24.608   1.047   0.472  1.00  0.00     0.091 C 
HETATM   12  C16 UNL     1      23.241   1.237  -0.249  1.00  0.00     0.245 C 
HETATM   13  C17 UNL     1      22.178   1.637   0.726  1.00  0.00     0.182 C 
HETATM   14  C19 UNL     1      22.438   1.278   2.148  1.00  0.00     0.150 C 
HETATM   15  C20 UNL     1      23.146  -0.023   2.213  1.00  0.00     0.045 C 
HETATM   16  C21 UNL     1      24.469  -0.056   1.502  1.00  0.00    -0.016 C 
HETATM   17  C22 UNL     1      24.718  -1.438   0.944  1.00  0.00     0.018 C 
HETATM   18  C23 UNL     1      25.542   0.168   2.545  1.00  0.00     0.018 C 
BRANCH  11  19
HETATM   19  N3  UNL     1      24.904   2.208   1.081  1.00  0.00    -0.361 N 
ATOM     20  H3  UNL     1      24.623   2.039   2.047  1.00  0.00     0.162 HD
BRANCH  19  21
HETATM   21  C7  UNL     1      25.323   3.350   1.114  1.00  0.00     0.120 A 
HETATM   22  C6  UNL     1      26.558   3.807   0.674  1.00  0.00     0.091 A 
HETATM   23  C5  UNL     1      26.915   5.127   0.761  1.00  0.00     0.122 A 
HETATM   24  N2  UNL     1      26.069   6.049   1.285  1.00  0.00    -0.181 N 
HETATM   25 CL1  UNL     1      28.475   5.667   0.199  1.00  0.00    -0.064 Cl
HETATM   26  C4  UNL     1      24.876   5.629   1.713  1.00  0.00     0.684 A 
ATOM     27  H2  UNL     1      26.336   7.032   1.349  1.00  0.00     0.185 HD
HETATM   28  N6  UNL     1      24.522   4.303   1.624  1.00  0.00    -0.177 N 
ATOM     29  H6  UNL     1      23.601   4.026   1.963  1.00  0.00     0.186 HD
BRANCH  26  30
HETATM   30  N1  UNL     1      24.041   6.458   2.212  1.00  0.00    -0.202 N 
ATOM     31  H1  UNL     1      23.058   6.192   2.168  1.00  0.00     0.183 HD
BRANCH  30  32
HETATM   32  C3  UNL     1      24.326   7.692   2.814  1.00  0.00     0.105 C 
BRANCH  32  33
HETATM   33  C2  UNL     1      24.262   8.826   1.859  1.00  0.00     0.007 C 
HETATM   34  C1  UNL     1      25.346   9.510   1.576  1.00  0.00     0.012 C 
ENDBRANCH  32  33
ENDBRANCH  30  32
ENDBRANCH  26  30
ENDBRANCH  19  21
ENDBRANCH  11  19
BRANCH  12  35
HETATM   35  N5  UNL     1      22.859   0.098  -1.006  1.00  0.00    -0.070 N 
ATOM     36  H53 UNL     1      22.444   0.372  -1.897  1.00  0.00     0.274 HD
ATOM     37  H52 UNL     1      23.678  -0.403  -1.353  1.00  0.00     0.274 HD
ATOM     38  H51 UNL     1      22.240  -0.527  -0.489  1.00  0.00     0.274 HD
ENDBRANCH  12  35
BRANCH  13  39
HETATM   39  O3  UNL     1      21.929   3.000   0.664  1.00  0.00    -0.386 OA
HETATM   40  C18 UNL     1      20.585   3.266   0.394  1.00  0.00     0.202 C 
ENDBRANCH  13  39
BRANCH  14  41
HETATM   41  O4  UNL     1      21.178   1.089   2.766  1.00  0.00    -0.393 OA
ATOM     42  H4  UNL     1      20.723   1.922   2.733  1.00  0.00     0.210 HD
ENDBRANCH  14  41
ENDBRANCH  10  11
ENDBRANCH   9  10
ENDBRANCH   1   9
TORSDOF 11
ENDMDL
