MODEL 1
REMARK VINA RESULT: -9.261204704      0.000      0.000
REMARK  8 active torsions:
REMARK  status: ('A' for Active; 'I' for Inactive)
REMARK    1  A    between atoms: N2_7  and  C5_8 
REMARK    2  A    between atoms: C5_8  and  C6_9 
REMARK    3  A    between atoms: C6_9  and  C7_10 
REMARK    4  A    between atoms: C7_10  and  N3_11 
REMARK    5  A    between atoms: N3_11  and  C8_14 
REMARK    6  A    between atoms: C8_14  and  C9_15 
REMARK    7  A    between atoms: C9_15  and  N4_16 
REMARK    8  A    between atoms: N4_16  and  C10_19 
ROOT
HETATM    1  C1  UNL     1      19.103  12.374   9.750  1.00  0.00     0.043 C 
HETATM    2  C2  UNL     1      19.217  13.562   8.868  1.00  0.00    -0.085 C 
HETATM    3  C3  UNL     1      18.287  13.819   7.975  1.00  0.00     0.003 C 
HETATM    4  C4  UNL     1      18.251  14.957   7.023  1.00  0.00     0.136 C 
HETATM    5  N1  UNL     1      17.132  15.811   7.402  1.00  0.00    -0.329 N 
ATOM      6  H1  UNL     1      16.807  15.739   8.366  1.00  0.00     0.180 HD
HETATM    7  N2  UNL     1      16.500  16.662   6.632  1.00  0.00    -0.327 N 
HETATM    8  C15 UNL     1      16.901  18.090   6.592  1.00  0.00     0.182 C 
HETATM    9  C16 UNL     1      18.370  17.963   6.210  1.00  0.00    -0.013 A 
HETATM   10  C17 UNL     1      18.858  18.855   5.277  1.00  0.00     0.043 A 
HETATM   11 CL1  UNL     1      17.935  20.169   4.729  1.00  0.00    -0.084 Cl
HETATM   12  C18 UNL     1      20.167  18.508   4.869  1.00  0.00     0.044 A 
HETATM   13  C19 UNL     1      20.890  17.427   5.324  1.00  0.00     0.023 A 
HETATM   14 CL2  UNL     1      22.485  17.087   4.727  1.00  0.00    -0.088 Cl
HETATM   15  C20 UNL     1      20.396  16.494   6.294  1.00  0.00     0.076 A 
HETATM   16  C21 UNL     1      19.070  16.958   6.625  1.00  0.00    -0.048 A 
HETATM   17  C22 UNL     1      19.504  15.802   7.269  1.00  0.00     0.022 A 
HETATM   18  C23 UNL     1      19.905  15.854   8.709  1.00  0.00     0.022 C 
HETATM   19  C24 UNL     1      20.401  14.443   9.024  1.00  0.00     0.034 C 
ENDROOT
BRANCH   7  20
HETATM   20  C5  UNL     1      15.961  16.253   5.366  1.00  0.00     0.144 C 
BRANCH  20  21
HETATM   21  C6  UNL     1      15.269  17.438   4.738  1.00  0.00     0.049 C 
BRANCH  21  22
HETATM   22  C7  UNL     1      13.789  17.416   4.789  1.00  0.00     0.234 C 
BRANCH  22  23
HETATM   23  N3  UNL     1      13.223  18.550   5.534  1.00  0.00    -0.073 N 
ATOM     24  H32 UNL     1      13.762  19.402   5.381  1.00  0.00     0.277 HD
ATOM     25  H31 UNL     1      12.333  18.851   5.135  1.00  0.00     0.277 HD
BRANCH  23  26
HETATM   26  C8  UNL     1      13.099  18.254   6.918  1.00  0.00     0.259 C 
BRANCH  26  27
HETATM   27  C9  UNL     1      12.639  16.856   7.173  1.00  0.00     0.260 C 
BRANCH  27  28
HETATM   28  N4  UNL     1      13.451  16.226   8.216  1.00  0.00    -0.069 N 
ATOM     29  H42 UNL     1      14.446  16.279   7.999  1.00  0.00     0.277 HD
ATOM     30  H41 UNL     1      13.448  16.775   9.075  1.00  0.00     0.277 HD
BRANCH  28  31
HETATM   31  C10 UNL     1      13.037  14.881   8.453  1.00  0.00     0.190 C 
HETATM   32  C11 UNL     1      14.264  14.008   8.599  1.00  0.00     0.059 C 
HETATM   33  C12 UNL     1      14.383  13.071   7.444  1.00  0.00     0.169 C 
HETATM   34  O1  UNL     1      13.319  12.232   7.222  1.00  0.00    -0.391 OA
HETATM   35  C13 UNL     1      12.091  12.792   7.527  1.00  0.00     0.169 C 
HETATM   36  C14 UNL     1      12.165  14.329   7.387  1.00  0.00     0.059 C 
ENDBRANCH  28  31
ENDBRANCH  27  28
ENDBRANCH  26  27
ENDBRANCH  23  26
ENDBRANCH  22  23
ENDBRANCH  21  22
ENDBRANCH  20  21
ENDBRANCH   7  20
TORSDOF 8
ENDMDL
MODEL 2
REMARK VINA RESULT: -9.141568914      3.521      5.918
REMARK  8 active torsions:
REMARK  status: ('A' for Active; 'I' for Inactive)
REMARK    1  A    between atoms: N2_7  and  C5_8 
REMARK    2  A    between atoms: C5_8  and  C6_9 
REMARK    3  A    between atoms: C6_9  and  C7_10 
REMARK    4  A    between atoms: C7_10  and  N3_11 
REMARK    5  A    between atoms: N3_11  and  C8_14 
REMARK    6  A    between atoms: C8_14  and  C9_15 
REMARK    7  A    between atoms: C9_15  and  N4_16 
REMARK    8  A    between atoms: N4_16  and  C10_19 
ROOT
HETATM    1  C1  UNL     1      21.172  20.724   5.162  1.00  0.00     0.043 C 
HETATM    2  C2  UNL     1      20.656  19.445   5.711  1.00  0.00    -0.085 C 
HETATM    3  C3  UNL     1      19.421  19.361   6.151  1.00  0.00     0.003 C 
HETATM    4  C4  UNL     1      18.755  18.166   6.726  1.00  0.00     0.136 C 
HETATM    5  N1  UNL     1      17.707  17.757   5.798  1.00  0.00    -0.329 N 
ATOM      6  H1  UNL     1      17.809  18.061   4.830  1.00  0.00     0.180 HD
HETATM    7  N2  UNL     1      16.648  17.040   6.080  1.00  0.00    -0.327 N 
HETATM    8  C15 UNL     1      16.660  15.567   5.899  1.00  0.00     0.182 C 
HETATM    9  C16 UNL     1      17.851  15.184   6.768  1.00  0.00    -0.013 A 
HETATM   10  C17 UNL     1      17.717  14.062   7.561  1.00  0.00     0.043 A 
HETATM   11 CL1  UNL     1      16.378  13.029   7.430  1.00  0.00    -0.084 Cl
HETATM   12  C18 UNL     1      18.807  13.930   8.454  1.00  0.00     0.044 A 
HETATM   13  C19 UNL     1      19.877  14.793   8.546  1.00  0.00     0.023 A 
HETATM   14 CL2  UNL     1      21.147  14.541   9.706  1.00  0.00    -0.088 Cl
HETATM   15  C20 UNL     1      20.030  15.959   7.728  1.00  0.00     0.076 A 
HETATM   16  C21 UNL     1      18.869  15.974   6.870  1.00  0.00    -0.048 A 
HETATM   17  C22 UNL     1      19.773  17.022   6.713  1.00  0.00     0.022 A 
HETATM   18  C23 UNL     1      20.679  17.054   5.523  1.00  0.00     0.022 C 
HETATM   19  C24 UNL     1      21.570  18.277   5.748  1.00  0.00     0.034 C 
ENDROOT
BRANCH   7  20
HETATM   20  C5  UNL     1      15.769  17.410   7.153  1.00  0.00     0.144 C 
BRANCH  20  21
HETATM   21  C6  UNL     1      14.525  16.561   7.063  1.00  0.00     0.049 C 
BRANCH  21  22
HETATM   22  C7  UNL     1      13.242  17.300   7.091  1.00  0.00     0.234 C 
BRANCH  22  23
HETATM   23  N3  UNL     1      13.402  18.714   7.457  1.00  0.00    -0.073 N 
ATOM     24  H32 UNL     1      13.101  18.889   8.415  1.00  0.00     0.277 HD
ATOM     25  H31 UNL     1      14.387  18.966   7.552  1.00  0.00     0.277 HD
BRANCH  23  26
HETATM   26  C8  UNL     1      12.734  19.569   6.538  1.00  0.00     0.259 C 
BRANCH  26  27
HETATM   27  C9  UNL     1      13.180  19.365   5.127  1.00  0.00     0.260 C 
BRANCH  27  28
HETATM   28  N4  UNL     1      14.495  19.967   4.908  1.00  0.00    -0.069 N 
ATOM     29  H42 UNL     1      14.766  20.570   5.686  1.00  0.00     0.277 HD
ATOM     30  H41 UNL     1      15.241  19.275   4.980  1.00  0.00     0.277 HD
BRANCH  28  31
HETATM   31  C10 UNL     1      14.545  20.663   3.663  1.00  0.00     0.190 C 
HETATM   32  C11 UNL     1      15.988  20.784   3.225  1.00  0.00     0.059 C 
HETATM   33  C12 UNL     1      16.440  22.205   3.285  1.00  0.00     0.169 C 
HETATM   34  O1  UNL     1      15.720  23.109   2.544  1.00  0.00    -0.391 OA
HETATM   35  C13 UNL     1      14.368  22.821   2.467  1.00  0.00     0.169 C 
HETATM   36  C14 UNL     1      13.932  22.014   3.710  1.00  0.00     0.059 C 
ENDBRANCH  28  31
ENDBRANCH  27  28
ENDBRANCH  26  27
ENDBRANCH  23  26
ENDBRANCH  22  23
ENDBRANCH  21  22
ENDBRANCH  20  21
ENDBRANCH   7  20
TORSDOF 8
ENDMDL
MODEL 3
REMARK VINA RESULT: -8.996442081      1.825      3.184
REMARK  8 active torsions:
REMARK  status: ('A' for Active; 'I' for Inactive)
REMARK    1  A    between atoms: N2_7  and  C5_8 
REMARK    2  A    between atoms: C5_8  and  C6_9 
REMARK    3  A    between atoms: C6_9  and  C7_10 
REMARK    4  A    between atoms: C7_10  and  N3_11 
REMARK    5  A    between atoms: N3_11  and  C8_14 
REMARK    6  A    between atoms: C8_14  and  C9_15 
REMARK    7  A    between atoms: C9_15  and  N4_16 
REMARK    8  A    between atoms: N4_16  and  C10_19 
ROOT
HETATM    1  C1  UNL     1      19.669  12.630  10.035  1.00  0.00     0.043 C 
HETATM    2  C2  UNL     1      19.618  13.761   9.074  1.00  0.00    -0.085 C 
HETATM    3  C3  UNL     1      18.678  13.814   8.158  1.00  0.00     0.003 C 
HETATM    4  C4  UNL     1      18.488  14.867   7.130  1.00  0.00     0.136 C 
HETATM    5  N1  UNL     1      17.245  15.564   7.440  1.00  0.00    -0.329 N 
ATOM      6  H1  UNL     1      16.917  15.507   8.403  1.00  0.00     0.180 HD
HETATM    7  N2  UNL     1      16.507  16.256   6.608  1.00  0.00    -0.327 N 
HETATM    8  C15 UNL     1      16.688  17.723   6.475  1.00  0.00     0.182 C 
HETATM    9  C16 UNL     1      18.166  17.796   6.116  1.00  0.00    -0.013 A 
HETATM   10  C17 UNL     1      18.531  18.689   5.128  1.00  0.00     0.043 A 
HETATM   11 CL1  UNL     1      17.431  19.808   4.484  1.00  0.00    -0.084 Cl
HETATM   12  C18 UNL     1      19.886  18.520   4.758  1.00  0.00     0.044 A 
HETATM   13  C19 UNL     1      20.755  17.593   5.292  1.00  0.00     0.023 A 
HETATM   14 CL2  UNL     1      22.395  17.462   4.733  1.00  0.00    -0.088 Cl
HETATM   15  C20 UNL     1      20.390  16.662   6.318  1.00  0.00     0.076 A 
HETATM   16  C21 UNL     1      19.002  16.940   6.604  1.00  0.00    -0.048 A 
HETATM   17  C22 UNL     1      19.594  15.908   7.329  1.00  0.00     0.022 A 
HETATM   18  C23 UNL     1      19.954  16.116   8.766  1.00  0.00     0.022 C 
HETATM   19  C24 UNL     1      20.652  14.820   9.181  1.00  0.00     0.034 C 
ENDROOT
BRANCH   7  20
HETATM   20  C5  UNL     1      16.061  15.687   5.368  1.00  0.00     0.144 C 
BRANCH  20  21
HETATM   21  C6  UNL     1      15.475  14.325   5.653  1.00  0.00     0.049 C 
BRANCH  21  22
HETATM   22  C7  UNL     1      14.052  14.314   6.063  1.00  0.00     0.234 C 
BRANCH  22  23
HETATM   23  N3  UNL     1      13.870  14.040   7.495  1.00  0.00    -0.073 N 
ATOM     24  H32 UNL     1      13.197  13.289   7.649  1.00  0.00     0.277 HD
ATOM     25  H31 UNL     1      14.696  13.597   7.899  1.00  0.00     0.277 HD
BRANCH  23  26
HETATM   26  C8  UNL     1      13.509  15.215   8.209  1.00  0.00     0.259 C 
BRANCH  26  27
HETATM   27  C9  UNL     1      12.628  16.126   7.418  1.00  0.00     0.260 C 
BRANCH  27  28
HETATM   28  N4  UNL     1      13.166  17.487   7.411  1.00  0.00    -0.069 N 
ATOM     29  H42 UNL     1      13.076  17.930   8.326  1.00  0.00     0.277 HD
ATOM     30  H41 UNL     1      14.182  17.487   7.334  1.00  0.00     0.277 HD
BRANCH  28  31
HETATM   31  C10 UNL     1      12.563  18.275   6.385  1.00  0.00     0.190 C 
HETATM   32  C11 UNL     1      13.024  17.764   5.038  1.00  0.00     0.059 C 
HETATM   33  C12 UNL     1      13.910  18.762   4.371  1.00  0.00     0.169 C 
HETATM   34  O1  UNL     1      13.380  20.012   4.165  1.00  0.00    -0.391 OA
HETATM   35  C13 UNL     1      12.511  20.423   5.160  1.00  0.00     0.169 C 
HETATM   36  C14 UNL     1      12.867  19.724   6.491  1.00  0.00     0.059 C 
ENDBRANCH  28  31
ENDBRANCH  27  28
ENDBRANCH  26  27
ENDBRANCH  23  26
ENDBRANCH  22  23
ENDBRANCH  21  22
ENDBRANCH  20  21
ENDBRANCH   7  20
TORSDOF 8
ENDMDL
MODEL 4
REMARK VINA RESULT: -8.961046022      3.835      6.265
REMARK  8 active torsions:
REMARK  status: ('A' for Active; 'I' for Inactive)
REMARK    1  A    between atoms: N2_7  and  C5_8 
REMARK    2  A    between atoms: C5_8  and  C6_9 
REMARK    3  A    between atoms: C6_9  and  C7_10 
REMARK    4  A    between atoms: C7_10  and  N3_11 
REMARK    5  A    between atoms: N3_11  and  C8_14 
REMARK    6  A    between atoms: C8_14  and  C9_15 
REMARK    7  A    between atoms: C9_15  and  N4_16 
REMARK    8  A    between atoms: N4_16  and  C10_19 
ROOT
HETATM    1  C1  UNL     1      21.326  21.069   5.838  1.00  0.00     0.043 C 
HETATM    2  C2  UNL     1      20.529  19.830   6.019  1.00  0.00    -0.085 C 
HETATM    3  C3  UNL     1      19.312  19.887   6.512  1.00  0.00     0.003 C 
HETATM    4  C4  UNL     1      18.390  18.750   6.754  1.00  0.00     0.136 C 
HETATM    5  N1  UNL     1      17.267  18.890   5.834  1.00  0.00    -0.329 N 
ATOM      6  H1  UNL     1      17.430  19.450   4.997  1.00  0.00     0.180 HD
HETATM    7  N2  UNL     1      16.072  18.373   5.973  1.00  0.00    -0.327 N 
HETATM    8  C15 UNL     1      15.737  17.064   5.358  1.00  0.00     0.182 C 
HETATM    9  C16 UNL     1      16.813  16.178   5.973  1.00  0.00    -0.013 A 
HETATM   10  C17 UNL     1      16.427  14.924   6.402  1.00  0.00     0.043 A 
HETATM   11 CL1  UNL     1      14.882  14.304   6.076  1.00  0.00    -0.084 Cl
HETATM   12  C18 UNL     1      17.463  14.286   7.123  1.00  0.00     0.044 A 
HETATM   13  C19 UNL     1      18.707  14.819   7.383  1.00  0.00     0.023 A 
HETATM   14 CL2  UNL     1      19.891  13.946   8.307  1.00  0.00    -0.088 Cl
HETATM   15  C20 UNL     1      19.121  16.118   6.942  1.00  0.00     0.076 A 
HETATM   16  C21 UNL     1      17.988  16.653   6.225  1.00  0.00    -0.048 A 
HETATM   17  C22 UNL     1      19.111  17.472   6.317  1.00  0.00     0.022 A 
HETATM   18  C23 UNL     1      19.989  17.672   5.122  1.00  0.00     0.022 C 
HETATM   19  C24 UNL     1      21.143  18.536   5.630  1.00  0.00     0.034 C 
ENDROOT
BRANCH   7  20
HETATM   20  C5  UNL     1      15.314  18.576   7.175  1.00  0.00     0.144 C 
BRANCH  20  21
HETATM   21  C6  UNL     1      13.860  18.304   6.872  1.00  0.00     0.049 C 
BRANCH  21  22
HETATM   22  C7  UNL     1      13.156  19.362   6.113  1.00  0.00     0.234 C 
BRANCH  22  23
HETATM   23  N3  UNL     1      13.345  20.702   6.686  1.00  0.00    -0.073 N 
ATOM     24  H32 UNL     1      13.593  20.654   7.674  1.00  0.00     0.277 HD
ATOM     25  H31 UNL     1      14.193  21.144   6.331  1.00  0.00     0.277 HD
BRANCH  23  26
HETATM   26  C8  UNL     1      12.204  21.524   6.476  1.00  0.00     0.259 C 
BRANCH  26  27
HETATM   27  C9  UNL     1      12.410  22.537   5.398  1.00  0.00     0.260 C 
BRANCH  27  28
HETATM   28  N4  UNL     1      13.829  22.869   5.264  1.00  0.00    -0.069 N 
ATOM     29  H42 UNL     1      14.066  23.715   5.783  1.00  0.00     0.277 HD
ATOM     30  H41 UNL     1      14.418  22.206   5.767  1.00  0.00     0.277 HD
BRANCH  28  31
HETATM   31  C10 UNL     1      14.210  22.971   3.893  1.00  0.00     0.190 C 
HETATM   32  C11 UNL     1      14.391  21.580   3.328  1.00  0.00     0.059 C 
HETATM   33  C12 UNL     1      15.828  21.317   3.024  1.00  0.00     0.169 C 
HETATM   34  O1  UNL     1      16.439  22.185   2.153  1.00  0.00    -0.391 OA
HETATM   35  C13 UNL     1      15.986  23.489   2.250  1.00  0.00     0.169 C 
HETATM   36  C14 UNL     1      15.452  23.754   3.675  1.00  0.00     0.059 C 
ENDBRANCH  28  31
ENDBRANCH  27  28
ENDBRANCH  26  27
ENDBRANCH  23  26
ENDBRANCH  22  23
ENDBRANCH  21  22
ENDBRANCH  20  21
ENDBRANCH   7  20
TORSDOF 8
ENDMDL
MODEL 5
REMARK VINA RESULT: -8.957049344      1.766      2.697
REMARK  8 active torsions:
REMARK  status: ('A' for Active; 'I' for Inactive)
REMARK    1  A    between atoms: N2_7  and  C5_8 
REMARK    2  A    between atoms: C5_8  and  C6_9 
REMARK    3  A    between atoms: C6_9  and  C7_10 
REMARK    4  A    between atoms: C7_10  and  N3_11 
REMARK    5  A    between atoms: N3_11  and  C8_14 
REMARK    6  A    between atoms: C8_14  and  C9_15 
REMARK    7  A    between atoms: C9_15  and  N4_16 
REMARK    8  A    between atoms: N4_16  and  C10_19 
ROOT
HETATM    1  C1  UNL     1      20.307  13.032  10.039  1.00  0.00     0.043 C 
HETATM    2  C2  UNL     1      20.054  14.124   9.065  1.00  0.00    -0.085 C 
HETATM    3  C3  UNL     1      19.131  13.990   8.140  1.00  0.00     0.003 C 
HETATM    4  C4  UNL     1      18.757  14.979   7.099  1.00  0.00     0.136 C 
HETATM    5  N1  UNL     1      17.402  15.432   7.390  1.00  0.00    -0.329 N 
ATOM      6  H1  UNL     1      17.080  15.322   8.352  1.00  0.00     0.180 HD
HETATM    7  N2  UNL     1      16.555  15.964   6.544  1.00  0.00    -0.327 N 
HETATM    8  C15 UNL     1      16.458  17.438   6.397  1.00  0.00     0.182 C 
HETATM    9  C16 UNL     1      17.899  17.785   6.050  1.00  0.00    -0.013 A 
HETATM   10  C17 UNL     1      18.100  18.722   5.056  1.00  0.00     0.043 A 
HETATM   11 CL1  UNL     1      16.816  19.607   4.389  1.00  0.00    -0.084 Cl
HETATM   12  C18 UNL     1      19.466  18.808   4.699  1.00  0.00     0.044 A 
HETATM   13  C19 UNL     1      20.489  18.067   5.251  1.00  0.00     0.023 A 
HETATM   14 CL2  UNL     1      22.130  18.242   4.708  1.00  0.00    -0.088 Cl
HETATM   15  C20 UNL     1      20.295  17.093   6.284  1.00  0.00     0.076 A 
HETATM   16  C21 UNL     1      18.877  17.106   6.555  1.00  0.00    -0.048 A 
HETATM   17  C22 UNL     1      19.644  16.212   7.296  1.00  0.00     0.022 A 
HETATM   18  C23 UNL     1      19.944  16.497   8.734  1.00  0.00     0.022 C 
HETATM   19  C24 UNL     1      20.869  15.360   9.169  1.00  0.00     0.034 C 
ENDROOT
BRANCH   7  20
HETATM   20  C5  UNL     1      16.238  15.310   5.307  1.00  0.00     0.144 C 
BRANCH  20  21
HETATM   21  C6  UNL     1      14.765  15.495   5.035  1.00  0.00     0.049 C 
BRANCH  21  22
HETATM   22  C7  UNL     1      13.859  14.575   5.759  1.00  0.00     0.234 C 
BRANCH  22  23
HETATM   23  N3  UNL     1      13.160  15.221   6.878  1.00  0.00    -0.073 N 
ATOM     24  H32 UNL     1      13.262  16.235   6.847  1.00  0.00     0.277 HD
ATOM     25  H31 UNL     1      12.147  15.161   6.770  1.00  0.00     0.277 HD
BRANCH  23  26
HETATM   26  C8  UNL     1      13.581  14.695   8.130  1.00  0.00     0.259 C 
BRANCH  26  27
HETATM   27  C9  UNL     1      14.261  13.371   8.003  1.00  0.00     0.260 C 
BRANCH  27  28
HETATM   28  N4  UNL     1      15.082  13.096   9.182  1.00  0.00    -0.069 N 
ATOM     29  H42 UNL     1      15.325  13.955   9.678  1.00  0.00     0.277 HD
ATOM     30  H41 UNL     1      14.542  12.639   9.916  1.00  0.00     0.277 HD
BRANCH  28  31
HETATM   31  C10 UNL     1      16.244  12.342   8.840  1.00  0.00     0.190 C 
HETATM   32  C11 UNL     1      15.880  11.339   7.767  1.00  0.00     0.059 C 
HETATM   33  C12 UNL     1      15.943   9.948   8.304  1.00  0.00     0.169 C 
HETATM   34  O1  UNL     1      17.145   9.549   8.835  1.00  0.00    -0.391 OA
HETATM   35  C13 UNL     1      17.842  10.562   9.470  1.00  0.00     0.169 C 
HETATM   36  C14 UNL     1      16.855  11.631   9.990  1.00  0.00     0.059 C 
ENDBRANCH  28  31
ENDBRANCH  27  28
ENDBRANCH  26  27
ENDBRANCH  23  26
ENDBRANCH  22  23
ENDBRANCH  21  22
ENDBRANCH  20  21
ENDBRANCH   7  20
TORSDOF 8
ENDMDL
