MODEL 1
REMARK VINA RESULT: -8.732131521      0.000      0.000
REMARK  6 active torsions:
REMARK  status: ('A' for Active; 'I' for Inactive)
REMARK    1  A    between atoms: C4_5  and  C5_6 
REMARK    2  A    between atoms: C6_9  and  C7_10 
REMARK    3  A    between atoms: C7_10  and  N2_11 
REMARK    4  A    between atoms: N2_11  and  C8_13 
REMARK    5  A    between atoms: N3_19  and  C14_20 
REMARK    6  A    between atoms: C14_20  and  C15_21 
ROOT
HETATM    1  C7  UNL     1      -4.379 -34.204   4.159  1.00  0.00     0.193 C 
ENDROOT
BRANCH   1   2
HETATM    2  C6  UNL     1      -3.416 -33.358   3.422  1.00  0.00     0.121 A 
HETATM    3  N1  UNL     1      -2.125 -33.178   3.745  1.00  0.00    -0.321 N 
HETATM    4  C5  UNL     1      -1.566 -32.352   2.852  1.00  0.00     0.182 A 
ATOM      5  H1  UNL     1      -1.649 -33.602   4.541  1.00  0.00     0.169 HD
HETATM    6  O1  UNL     1      -2.518 -32.041   2.005  1.00  0.00    -0.217 OA
HETATM    7  N4  UNL     1      -3.622 -32.621   2.317  1.00  0.00    -0.245 N 
ATOM      8  H4  UNL     1      -4.503 -32.536   1.812  1.00  0.00     0.196 HD
BRANCH   4   9
HETATM    9  C4  UNL     1      -0.196 -31.868   2.789  1.00  0.00     0.017 A 
HETATM   10  C3  UNL     1       0.860 -32.777   2.724  1.00  0.00     0.019 A 
HETATM   11  C2  UNL     1       2.173 -32.322   2.661  1.00  0.00     0.043 A 
HETATM   12  C1  UNL     1       2.433 -30.951   2.665  1.00  0.00     0.116 A 
HETATM   13  F1  UNL     1       3.721 -30.501   2.603  1.00  0.00    -0.206 F 
HETATM   14  C20 UNL     1       1.408 -30.031   2.729  1.00  0.00     0.043 A 
HETATM   15  C19 UNL     1       0.130 -30.535   2.789  1.00  0.00     0.019 A 
ENDBRANCH   4   9
ENDBRANCH   1   2
BRANCH   1  16
HETATM   16  N2  UNL     1      -4.008 -35.578   4.016  1.00  0.00    -0.406 N 
ATOM     17  H2  UNL     1      -3.963 -36.034   3.105  1.00  0.00     0.154 HD
BRANCH  16  18
HETATM   18  C8  UNL     1      -3.706 -36.269   5.223  1.00  0.00     0.030 C 
HETATM   19  C9  UNL     1      -4.365 -37.602   5.371  1.00  0.00     0.035 C 
HETATM   20  C10 UNL     1      -3.938 -38.183   6.726  1.00  0.00    -0.008 C 
HETATM   21  C11 UNL     1      -2.444 -38.356   6.782  1.00  0.00     0.040 C 
HETATM   22  C17 UNL     1      -4.408 -37.333   7.860  1.00  0.00     0.040 C 
HETATM   23  C12 UNL     1      -1.828 -36.971   6.733  1.00  0.00     0.226 C 
HETATM   24  C13 UNL     1      -2.207 -36.371   5.377  1.00  0.00     0.066 C 
HETATM   25  N3  UNL     1      -2.328 -36.108   7.751  1.00  0.00     0.098 N 
HETATM   26  C16 UNL     1      -3.771 -35.963   7.697  1.00  0.00     0.226 C 
HETATM   27  C18 UNL     1      -4.205 -35.400   6.380  1.00  0.00     0.066 C 
BRANCH  25  28
HETATM   28  C14 UNL     1      -1.892 -36.461   9.073  1.00  0.00     0.284 C 
BRANCH  28  29
HETATM   29  C15 UNL     1      -2.274 -35.433  10.114  1.00  0.00     0.116 C 
HETATM   30  S1  UNL     1      -3.203 -36.186  11.482  1.00  0.00    -0.096 SA
ENDBRANCH  28  29
ENDBRANCH  25  28
ENDBRANCH  16  18
ENDBRANCH   1  16
TORSDOF 6
ENDMDL
MODEL 2
REMARK VINA RESULT: -8.537651714      0.956      1.037
REMARK  6 active torsions:
REMARK  status: ('A' for Active; 'I' for Inactive)
REMARK    1  A    between atoms: C4_5  and  C5_6 
REMARK    2  A    between atoms: C6_9  and  C7_10 
REMARK    3  A    between atoms: C7_10  and  N2_11 
REMARK    4  A    between atoms: N2_11  and  C8_13 
REMARK    5  A    between atoms: N3_19  and  C14_20 
REMARK    6  A    between atoms: C14_20  and  C15_21 
ROOT
HETATM    1  C7  UNL     1      -4.424 -33.880   4.136  1.00  0.00     0.193 C 
ENDROOT
BRANCH   1   2
HETATM    2  C6  UNL     1      -3.397 -33.164   3.348  1.00  0.00     0.121 A 
HETATM    3  N1  UNL     1      -2.136 -32.926   3.742  1.00  0.00    -0.321 N 
HETATM    4  C5  UNL     1      -1.498 -32.258   2.771  1.00  0.00     0.182 A 
ATOM      5  H1  UNL     1      -1.730 -33.206   4.634  1.00  0.00     0.169 HD
HETATM    6  O1  UNL     1      -2.375 -32.101   1.808  1.00  0.00    -0.217 OA
HETATM    7  N4  UNL     1      -3.505 -32.625   2.122  1.00  0.00    -0.245 N 
ATOM      8  H4  UNL     1      -4.342 -32.632   1.539  1.00  0.00     0.196 HD
BRANCH   4   9
HETATM    9  C4  UNL     1      -0.124 -31.784   2.740  1.00  0.00     0.017 A 
HETATM   10  C3  UNL     1       0.925 -32.700   2.656  1.00  0.00     0.019 A 
HETATM   11  C2  UNL     1       2.243 -32.254   2.623  1.00  0.00     0.043 A 
HETATM   12  C1  UNL     1       2.514 -30.887   2.677  1.00  0.00     0.116 A 
HETATM   13  F1  UNL     1       3.806 -30.446   2.646  1.00  0.00    -0.206 F 
HETATM   14  C20 UNL     1       1.496 -29.961   2.760  1.00  0.00     0.043 A 
HETATM   15  C19 UNL     1       0.213 -30.455   2.789  1.00  0.00     0.019 A 
ENDBRANCH   4   9
ENDBRANCH   1   2
BRANCH   1  16
HETATM   16  N2  UNL     1      -3.977 -34.012   5.487  1.00  0.00    -0.406 N 
ATOM     17  H2  UNL     1      -3.874 -33.206   6.104  1.00  0.00     0.154 HD
BRANCH  16  18
HETATM   18  C8  UNL     1      -3.686 -35.336   5.919  1.00  0.00     0.030 C 
HETATM   19  C9  UNL     1      -4.185 -36.420   5.020  1.00  0.00     0.035 C 
HETATM   20  C10 UNL     1      -3.796 -37.764   5.652  1.00  0.00    -0.008 C 
HETATM   21  C11 UNL     1      -2.301 -37.875   5.785  1.00  0.00     0.040 C 
HETATM   22  C17 UNL     1      -4.454 -37.958   6.979  1.00  0.00     0.040 C 
HETATM   23  C12 UNL     1      -1.858 -36.823   6.785  1.00  0.00     0.226 C 
HETATM   24  C13 UNL     1      -2.203 -35.463   6.172  1.00  0.00     0.066 C 
HETATM   25  N3  UNL     1      -2.538 -36.928   8.033  1.00  0.00     0.098 N 
HETATM   26  C16 UNL     1      -3.979 -36.837   7.890  1.00  0.00     0.226 C 
HETATM   27  C18 UNL     1      -4.377 -35.533   7.272  1.00  0.00     0.066 C 
BRANCH  25  28
HETATM   28  C14 UNL     1      -2.166 -38.084   8.799  1.00  0.00     0.284 C 
BRANCH  28  29
HETATM   29  C15 UNL     1      -2.033 -37.795  10.277  1.00  0.00     0.116 C 
HETATM   30  S1  UNL     1      -1.193 -36.211  10.570  1.00  0.00    -0.096 SA
ENDBRANCH  28  29
ENDBRANCH  25  28
ENDBRANCH  16  18
ENDBRANCH   1  16
TORSDOF 6
ENDMDL
MODEL 3
REMARK VINA RESULT: -8.401483425      1.993      2.677
REMARK  6 active torsions:
REMARK  status: ('A' for Active; 'I' for Inactive)
REMARK    1  A    between atoms: C4_5  and  C5_6 
REMARK    2  A    between atoms: C6_9  and  C7_10 
REMARK    3  A    between atoms: C7_10  and  N2_11 
REMARK    4  A    between atoms: N2_11  and  C8_13 
REMARK    5  A    between atoms: N3_19  and  C14_20 
REMARK    6  A    between atoms: C14_20  and  C15_21 
ROOT
HETATM    1  C7  UNL     1      -4.404 -34.004   4.222  1.00  0.00     0.193 C 
ENDROOT
BRANCH   1   2
HETATM    2  C6  UNL     1      -3.401 -33.260   3.431  1.00  0.00     0.121 A 
HETATM    3  N1  UNL     1      -2.129 -33.031   3.797  1.00  0.00    -0.321 N 
HETATM    4  C5  UNL     1      -1.520 -32.329   2.832  1.00  0.00     0.182 A 
ATOM      5  H1  UNL     1      -1.698 -33.340   4.667  1.00  0.00     0.169 HD
HETATM    6  O1  UNL     1      -2.425 -32.141   1.900  1.00  0.00    -0.217 OA
HETATM    7  N4  UNL     1      -3.545 -32.680   2.227  1.00  0.00    -0.245 N 
ATOM      8  H4  UNL     1      -4.397 -32.669   1.668  1.00  0.00     0.196 HD
BRANCH   4   9
HETATM    9  C4  UNL     1      -0.149 -31.850   2.779  1.00  0.00     0.017 A 
HETATM   10  C3  UNL     1       0.903 -32.763   2.704  1.00  0.00     0.019 A 
HETATM   11  C2  UNL     1       2.219 -32.312   2.650  1.00  0.00     0.043 A 
HETATM   12  C1  UNL     1       2.484 -30.943   2.673  1.00  0.00     0.116 A 
HETATM   13  F1  UNL     1       3.775 -30.498   2.621  1.00  0.00    -0.206 F 
HETATM   14  C20 UNL     1       1.463 -30.020   2.747  1.00  0.00     0.043 A 
HETATM   15  C19 UNL     1       0.183 -30.519   2.797  1.00  0.00     0.019 A 
ENDBRANCH   4   9
ENDBRANCH   1   2
BRANCH   1  16
HETATM   16  N2  UNL     1      -3.972 -34.081   5.583  1.00  0.00    -0.406 N 
ATOM     17  H2  UNL     1      -3.835 -33.247   6.155  1.00  0.00     0.154 HD
BRANCH  16  18
HETATM   18  C8  UNL     1      -3.744 -35.391   6.090  1.00  0.00     0.030 C 
HETATM   19  C9  UNL     1      -4.376 -35.676   7.414  1.00  0.00     0.035 C 
HETATM   20  C10 UNL     1      -4.009 -37.115   7.803  1.00  0.00    -0.008 C 
HETATM   21  C11 UNL     1      -4.529 -38.090   6.781  1.00  0.00     0.040 C 
HETATM   22  C17 UNL     1      -2.535 -37.278   7.977  1.00  0.00     0.040 C 
HETATM   23  C12 UNL     1      -3.783 -37.827   5.487  1.00  0.00     0.226 C 
HETATM   24  C13 UNL     1      -4.151 -36.407   5.050  1.00  0.00     0.066 C 
HETATM   25  N3  UNL     1      -2.368 -37.886   5.644  1.00  0.00     0.098 N 
HETATM   26  C16 UNL     1      -1.881 -36.954   6.644  1.00  0.00     0.226 C 
HETATM   27  C18 UNL     1      -2.232 -35.545   6.282  1.00  0.00     0.066 C 
BRANCH  25  28
HETATM   28  C14 UNL     1      -1.868 -39.211   5.884  1.00  0.00     0.284 C 
BRANCH  28  29
HETATM   29  C15 UNL     1      -0.642 -39.536   5.061  1.00  0.00     0.116 C 
HETATM   30  S1  UNL     1      -0.794 -38.904   3.364  1.00  0.00    -0.096 SA
ENDBRANCH  28  29
ENDBRANCH  25  28
ENDBRANCH  16  18
ENDBRANCH   1  16
TORSDOF 6
ENDMDL
MODEL 4
REMARK VINA RESULT: -8.364636792      1.301      2.072
REMARK  6 active torsions:
REMARK  status: ('A' for Active; 'I' for Inactive)
REMARK    1  A    between atoms: C4_5  and  C5_6 
REMARK    2  A    between atoms: C6_9  and  C7_10 
REMARK    3  A    between atoms: C7_10  and  N2_11 
REMARK    4  A    between atoms: N2_11  and  C8_13 
REMARK    5  A    between atoms: N3_19  and  C14_20 
REMARK    6  A    between atoms: C14_20  and  C15_21 
ROOT
HETATM    1  C7  UNL     1      -4.558 -34.178   3.902  1.00  0.00     0.193 C 
ENDROOT
BRANCH   1   2
HETATM    2  C6  UNL     1      -3.548 -33.367   3.188  1.00  0.00     0.121 A 
HETATM    3  N1  UNL     1      -2.281 -33.168   3.587  1.00  0.00    -0.321 N 
HETATM    4  C5  UNL     1      -1.663 -32.387   2.691  1.00  0.00     0.182 A 
ATOM      5  H1  UNL     1      -1.859 -33.549   4.433  1.00  0.00     0.169 HD
HETATM    6  O1  UNL     1      -2.557 -32.122   1.768  1.00  0.00    -0.217 OA
HETATM    7  N4  UNL     1      -3.679 -32.688   2.036  1.00  0.00    -0.245 N 
ATOM      8  H4  UNL     1      -4.525 -32.632   1.470  1.00  0.00     0.196 HD
BRANCH   4   9
HETATM    9  C4  UNL     1      -0.292 -31.903   2.695  1.00  0.00     0.017 A 
HETATM   10  C3  UNL     1       0.766 -32.813   2.685  1.00  0.00     0.019 A 
HETATM   11  C2  UNL     1       2.081 -32.358   2.685  1.00  0.00     0.043 A 
HETATM   12  C1  UNL     1       2.340 -30.987   2.698  1.00  0.00     0.116 A 
HETATM   13  F1  UNL     1       3.630 -30.537   2.698  1.00  0.00    -0.206 F 
HETATM   14  C20 UNL     1       1.313 -30.067   2.707  1.00  0.00     0.043 A 
HETATM   15  C19 UNL     1       0.034 -30.570   2.706  1.00  0.00     0.019 A 
ENDBRANCH   4   9
ENDBRANCH   1   2
BRANCH   1  16
HETATM   16  N2  UNL     1      -4.122 -35.538   3.956  1.00  0.00    -0.406 N 
ATOM     17  H2  UNL     1      -4.056 -36.118   3.119  1.00  0.00     0.154 HD
BRANCH  16  18
HETATM   18  C8  UNL     1      -3.787 -36.034   5.247  1.00  0.00     0.030 C 
HETATM   19  C9  UNL     1      -4.256 -35.193   6.390  1.00  0.00     0.035 C 
HETATM   20  C10 UNL     1      -3.791 -35.870   7.686  1.00  0.00    -0.008 C 
HETATM   21  C11 UNL     1      -4.382 -37.249   7.806  1.00  0.00     0.040 C 
HETATM   22  C17 UNL     1      -2.301 -35.932   7.770  1.00  0.00     0.040 C 
HETATM   23  C12 UNL     1      -3.796 -38.090   6.688  1.00  0.00     0.226 C 
HETATM   24  C13 UNL     1      -4.267 -37.459   5.374  1.00  0.00     0.066 C 
HETATM   25  N3  UNL     1      -2.371 -38.092   6.688  1.00  0.00     0.098 N 
HETATM   26  C16 UNL     1      -1.813 -36.756   6.589  1.00  0.00     0.226 C 
HETATM   27  C18 UNL     1      -2.258 -36.079   5.331  1.00  0.00     0.066 C 
BRANCH  25  28
HETATM   28  C14 UNL     1      -1.795 -38.814   7.787  1.00  0.00     0.284 C 
BRANCH  28  29
HETATM   29  C15 UNL     1      -0.407 -39.334   7.488  1.00  0.00     0.116 C 
HETATM   30  S1  UNL     1       0.797 -38.757   8.721  1.00  0.00    -0.096 SA
ENDBRANCH  28  29
ENDBRANCH  25  28
ENDBRANCH  16  18
ENDBRANCH   1  16
TORSDOF 6
ENDMDL
MODEL 5
REMARK VINA RESULT: -8.199047817      2.542      3.310
REMARK  6 active torsions:
REMARK  status: ('A' for Active; 'I' for Inactive)
REMARK    1  A    between atoms: C4_5  and  C5_6 
REMARK    2  A    between atoms: C6_9  and  C7_10 
REMARK    3  A    between atoms: C7_10  and  N2_11 
REMARK    4  A    between atoms: N2_11  and  C8_13 
REMARK    5  A    between atoms: N3_19  and  C14_20 
REMARK    6  A    between atoms: C14_20  and  C15_21 
ROOT
HETATM    1  C7  UNL     1      -1.184 -37.886   3.497  1.00  0.00     0.193 C 
ENDROOT
BRANCH   1   2
HETATM    2  C6  UNL     1      -0.273 -36.815   3.041  1.00  0.00     0.121 A 
HETATM    3  N1  UNL     1      -0.439 -35.501   3.259  1.00  0.00    -0.321 N 
HETATM    4  C5  UNL     1       0.582 -34.836   2.703  1.00  0.00     0.182 A 
ATOM      5  H1  UNL     1      -1.217 -35.078   3.766  1.00  0.00     0.169 HD
HETATM    6  O1  UNL     1       1.349 -35.750   2.157  1.00  0.00    -0.217 OA
HETATM    7  N4  UNL     1       0.869 -36.927   2.340  1.00  0.00    -0.245 N 
ATOM      8  H4  UNL     1       1.283 -37.798   2.010  1.00  0.00     0.196 HD
BRANCH   4   9
HETATM    9  C4  UNL     1       0.835 -33.405   2.680  1.00  0.00     0.017 A 
HETATM   10  C3  UNL     1       2.143 -32.929   2.759  1.00  0.00     0.019 A 
HETATM   11  C2  UNL     1       2.394 -31.560   2.736  1.00  0.00     0.043 A 
HETATM   12  C1  UNL     1       1.330 -30.663   2.634  1.00  0.00     0.116 A 
HETATM   13  F1  UNL     1       1.573 -29.318   2.610  1.00  0.00    -0.206 F 
HETATM   14  C20 UNL     1       0.028 -31.107   2.553  1.00  0.00     0.043 A 
HETATM   15  C19 UNL     1      -0.163 -32.468   2.581  1.00  0.00     0.019 A 
ENDBRANCH   4   9
ENDBRANCH   1   2
BRANCH   1  16
HETATM   16  N2  UNL     1      -0.872 -38.229   4.850  1.00  0.00    -0.406 N 
ATOM     17  H2  UNL     1      -0.037 -38.762   5.094  1.00  0.00     0.154 HD
BRANCH  16  18
HETATM   18  C8  UNL     1      -1.797 -37.782   5.834  1.00  0.00     0.030 C 
HETATM   19  C9  UNL     1      -2.110 -38.774   6.907  1.00  0.00     0.035 C 
HETATM   20  C10 UNL     1      -3.127 -38.126   7.857  1.00  0.00    -0.008 C 
HETATM   21  C11 UNL     1      -2.554 -36.882   8.480  1.00  0.00     0.040 C 
HETATM   22  C17 UNL     1      -4.410 -37.817   7.158  1.00  0.00     0.040 C 
HETATM   23  C12 UNL     1      -2.352 -35.872   7.366  1.00  0.00     0.226 C 
HETATM   24  C13 UNL     1      -1.316 -36.473   6.412  1.00  0.00     0.066 C 
HETATM   25  N3  UNL     1      -3.543 -35.626   6.623  1.00  0.00     0.098 N 
HETATM   26  C16 UNL     1      -4.095 -36.835   6.041  1.00  0.00     0.226 C 
HETATM   27  C18 UNL     1      -3.115 -37.482   5.114  1.00  0.00     0.066 C 
BRANCH  25  28
HETATM   28  C14 UNL     1      -4.542 -34.900   7.356  1.00  0.00     0.284 C 
BRANCH  28  29
HETATM   29  C15 UNL     1      -5.003 -33.649   6.644  1.00  0.00     0.116 C 
HETATM   30  S1  UNL     1      -4.192 -33.468   5.028  1.00  0.00    -0.096 SA
ENDBRANCH  28  29
ENDBRANCH  25  28
ENDBRANCH  16  18
ENDBRANCH   1  16
TORSDOF 6
ENDMDL
