MODEL 1
REMARK VINA RESULT: -5.345567605      0.000      0.000
REMARK  3 active torsions:
REMARK  status: ('A' for Active; 'I' for Inactive)
REMARK    1  A    between atoms: O1_2  and  C2_3 
REMARK    2  A    between atoms: C2_3  and  C3_4 
REMARK    3  A    between atoms: C6_7  and  N1_8 
ROOT
HETATM    1  C3  UNL     1      -0.791  71.883  22.768  1.00  0.00     0.009 C 
HETATM    2  C4  UNL     1       0.213  72.775  23.392  1.00  0.00     0.009 C 
HETATM    3  C5  UNL     1       0.927  72.270  24.579  1.00  0.00     0.033 C 
HETATM    4  C6  UNL     1       0.839  70.802  24.824  1.00  0.00     0.183 C 
HETATM    5  C7  UNL     1      -0.606  70.442  24.838  1.00  0.00     0.033 C 
HETATM    6  C8  UNL     1      -1.395  70.847  23.657  1.00  0.00     0.009 C 
ENDROOT
BRANCH   4   7
HETATM    7  N1  UNL     1       1.349  70.568  26.186  1.00  0.00    -0.075 N 
ATOM      8  H13 UNL     1       2.120  71.186  26.439  1.00  0.00     0.274 HD
ATOM      9  H12 UNL     1       0.701  70.865  26.916  1.00  0.00     0.274 HD
ATOM     10  H11 UNL     1       1.592  69.579  26.243  1.00  0.00     0.274 HD
ENDBRANCH   4   7
BRANCH   1  11
HETATM   11  C2  UNL     1      -0.213  71.205  21.545  1.00  0.00     0.171 C 
BRANCH  11  12
HETATM   12  O1  UNL     1      -1.107  70.916  20.556  1.00  0.00    -0.396 OA
HETATM   13  C1  UNL     1      -0.629  69.967  19.670  1.00  0.00     0.201 C 
ENDBRANCH  11  12
ENDBRANCH   1  11
TORSDOF 3
ENDMDL
MODEL 2
REMARK VINA RESULT: -5.225650090      1.190      1.815
REMARK  3 active torsions:
REMARK  status: ('A' for Active; 'I' for Inactive)
REMARK    1  A    between atoms: O1_2  and  C2_3 
REMARK    2  A    between atoms: C2_3  and  C3_4 
REMARK    3  A    between atoms: C6_7  and  N1_8 
ROOT
HETATM    1  C3  UNL     1      -0.316  70.727  22.379  1.00  0.00     0.009 C 
HETATM    2  C4  UNL     1      -1.400  70.934  23.366  1.00  0.00     0.009 C 
HETATM    3  C5  UNL     1      -1.059  71.643  24.613  1.00  0.00     0.033 C 
HETATM    4  C6  UNL     1       0.230  72.391  24.611  1.00  0.00     0.183 C 
HETATM    5  C7  UNL     1       1.295  71.437  24.194  1.00  0.00     0.033 C 
HETATM    6  C8  UNL     1       1.075  70.724  22.920  1.00  0.00     0.009 C 
ENDROOT
BRANCH   4   7
HETATM    7  N1  UNL     1       0.511  72.757  26.010  1.00  0.00    -0.075 N 
ATOM      8  H13 UNL     1      -0.145  72.345  26.673  1.00  0.00     0.274 HD
ATOM      9  H12 UNL     1       1.356  72.321  26.379  1.00  0.00     0.274 HD
ATOM     10  H11 UNL     1       0.535  73.776  26.049  1.00  0.00     0.274 HD
ENDBRANCH   4   7
BRANCH   1  11
HETATM   11  C2  UNL     1      -0.409  71.745  21.266  1.00  0.00     0.171 C 
BRANCH  11  12
HETATM   12  O1  UNL     1      -1.059  71.329  20.140  1.00  0.00    -0.396 OA
HETATM   13  C1  UNL     1      -0.640  70.081  19.717  1.00  0.00     0.201 C 
ENDBRANCH  11  12
ENDBRANCH   1  11
TORSDOF 3
ENDMDL
MODEL 3
REMARK VINA RESULT: -5.220932491      2.298      3.465
REMARK  3 active torsions:
REMARK  status: ('A' for Active; 'I' for Inactive)
REMARK    1  A    between atoms: O1_2  and  C2_3 
REMARK    2  A    between atoms: C2_3  and  C3_4 
REMARK    3  A    between atoms: C6_7  and  N1_8 
ROOT
HETATM    1  C3  UNL     1      -0.393  72.372  24.086  1.00  0.00     0.009 C 
HETATM    2  C4  UNL     1      -0.437  71.686  22.775  1.00  0.00     0.009 C 
HETATM    3  C5  UNL     1       0.764  70.939  22.357  1.00  0.00     0.033 C 
HETATM    4  C6  UNL     1       1.760  70.646  23.425  1.00  0.00     0.183 C 
HETATM    5  C7  UNL     1       2.099  71.939  24.082  1.00  0.00     0.033 C 
HETATM    6  C8  UNL     1       0.963  72.731  24.596  1.00  0.00     0.009 C 
ENDROOT
BRANCH   4   7
HETATM    7  N1  UNL     1       2.983  70.179  22.750  1.00  0.00    -0.075 N 
ATOM      8  H13 UNL     1       2.839  69.957  21.765  1.00  0.00     0.274 HD
ATOM      9  H12 UNL     1       3.675  70.916  22.615  1.00  0.00     0.274 HD
ATOM     10  H11 UNL     1       3.336  69.390  23.292  1.00  0.00     0.274 HD
ENDBRANCH   4   7
BRANCH   1  11
HETATM   11  C2  UNL     1      -1.114  71.558  25.137  1.00  0.00     0.171 C 
BRANCH  11  12
HETATM   12  O1  UNL     1      -1.472  70.296  24.761  1.00  0.00    -0.396 OA
HETATM   13  C1  UNL     1      -2.113  69.603  25.772  1.00  0.00     0.201 C 
ENDBRANCH  11  12
ENDBRANCH   1  11
TORSDOF 3
ENDMDL
MODEL 4
REMARK VINA RESULT: -4.894145224      0.949      1.572
REMARK  3 active torsions:
REMARK  status: ('A' for Active; 'I' for Inactive)
REMARK    1  A    between atoms: O1_2  and  C2_3 
REMARK    2  A    between atoms: C2_3  and  C3_4 
REMARK    3  A    between atoms: C6_7  and  N1_8 
ROOT
HETATM    1  C3  UNL     1       0.472  71.580  22.371  1.00  0.00     0.009 C 
HETATM    2  C4  UNL     1       1.535  70.582  22.633  1.00  0.00     0.009 C 
HETATM    3  C5  UNL     1       1.826  70.252  24.040  1.00  0.00     0.033 C 
HETATM    4  C6  UNL     1       0.803  70.672  25.039  1.00  0.00     0.183 C 
HETATM    5  C7  UNL     1       0.560  72.128  24.838  1.00  0.00     0.033 C 
HETATM    6  C8  UNL     1       0.194  72.550  23.471  1.00  0.00     0.009 C 
ENDROOT
BRANCH   4   7
HETATM    7  N1  UNL     1       1.420  70.522  26.368  1.00  0.00    -0.075 N 
ATOM      8  H13 UNL     1       1.223  69.622  26.804  1.00  0.00     0.274 HD
ATOM      9  H12 UNL     1       2.436  70.428  26.332  1.00  0.00     0.274 HD
ATOM     10  H11 UNL     1       1.110  71.316  26.927  1.00  0.00     0.274 HD
ENDBRANCH   4   7
BRANCH   1  11
HETATM   11  C2  UNL     1      -0.818  70.894  21.982  1.00  0.00     0.171 C 
BRANCH  11  12
HETATM   12  O1  UNL     1      -1.239  71.114  20.703  1.00  0.00    -0.396 OA
HETATM   13  C1  UNL     1      -0.676  70.230  19.800  1.00  0.00     0.201 C 
ENDBRANCH  11  12
ENDBRANCH   1  11
TORSDOF 3
ENDMDL
MODEL 5
REMARK VINA RESULT: -4.811289696      1.782      2.257
REMARK  3 active torsions:
REMARK  status: ('A' for Active; 'I' for Inactive)
REMARK    1  A    between atoms: O1_2  and  C2_3 
REMARK    2  A    between atoms: C2_3  and  C3_4 
REMARK    3  A    between atoms: C6_7  and  N1_8 
ROOT
HETATM    1  C3  UNL     1      -0.211  71.625  24.597  1.00  0.00     0.009 C 
HETATM    2  C4  UNL     1       0.957  72.534  24.629  1.00  0.00     0.009 C 
HETATM    3  C5  UNL     1       2.207  72.057  24.008  1.00  0.00     0.033 C 
HETATM    4  C6  UNL     1       2.084  70.878  23.105  1.00  0.00     0.183 C 
HETATM    5  C7  UNL     1       1.388  69.806  23.869  1.00  0.00     0.033 C 
HETATM    6  C8  UNL     1       0.091  70.169  24.474  1.00  0.00     0.009 C 
ENDROOT
BRANCH   4   7
HETATM    7  N1  UNL     1       3.452  70.397  22.846  1.00  0.00    -0.075 N 
ATOM      8  H13 UNL     1       3.789  70.627  21.911  1.00  0.00     0.274 HD
ATOM      9  H12 UNL     1       4.164  70.907  23.369  1.00  0.00     0.274 HD
ATOM     10  H11 UNL     1       3.453  69.395  23.038  1.00  0.00     0.274 HD
ENDBRANCH   4   7
BRANCH   1  11
HETATM   11  C2  UNL     1      -1.165  72.024  23.493  1.00  0.00     0.171 C 
BRANCH  11  12
HETATM   12  O1  UNL     1      -1.353  71.095  22.512  1.00  0.00    -0.396 OA
HETATM   13  C1  UNL     1      -0.777  71.468  21.311  1.00  0.00     0.201 C 
ENDBRANCH  11  12
ENDBRANCH   1  11
TORSDOF 3
ENDMDL
