MODEL 1
REMARK VINA RESULT: -8.314470387      0.000      0.000
REMARK  11 active torsions:
REMARK  status: ('A' for Active; 'I' for Inactive)
REMARK    1  A    between atoms: N1_1  and  N2_4 
REMARK    2  A    between atoms: N2_4  and  C1_6 
REMARK    3  A    between atoms: C1_6  and  C3_13 
REMARK    4  A    between atoms: N3_7  and  O1_9 
REMARK    5  A    between atoms: O1_9  and  C2_10 
REMARK       I    between atoms: C3_13  and  N5_15 
REMARK    6  A    between atoms: N5_15  and  N6_17 
REMARK    7  A    between atoms: N6_17  and  C4_19 
REMARK    8  A    between atoms: C5_20  and  N7_21 
REMARK    9  A    between atoms: N7_21  and  C6_23 
REMARK   10  A    between atoms: C9_26  and  N8_27 
REMARK   11  A    between atoms: C11_31  and  N9_32 
ROOT
HETATM    1  C4  UNL     1     -30.218   6.797 -28.106  1.00  0.00     0.133 A 
HETATM    2  C5  UNL     1     -30.473   6.557 -29.434  1.00  0.00     0.120 A 
HETATM    3  C12 UNL     1     -30.645   7.900 -29.664  1.00  0.00     0.253 A 
HETATM    4  O8  UNL     1     -30.917   8.638 -30.647  1.00  0.00    -0.281 OA
HETATM    5  C13 UNL     1     -30.389   8.144 -28.332  1.00  0.00     0.254 A 
HETATM    6  O9  UNL     1     -30.324   9.171 -27.567  1.00  0.00    -0.281 OA
ENDROOT
BRANCH   1   7
HETATM    7  N6  UNL     1     -29.880   5.988 -26.960  1.00  0.00    -0.292 N 
ATOM      8  H6  UNL     1     -28.968   5.534 -26.918  1.00  0.00     0.187 HD
BRANCH   7   9
HETATM    9  N5  UNL     1     -30.786   5.815 -25.900  1.00  0.00    -0.263 N 
HETATM   10  C3  UNL     1     -30.814   6.748 -24.822  1.00  0.00     0.307 C 
HETATM   11  O3  UNL     1     -30.020   7.719 -24.825  1.00  0.00    -0.262 OA
ATOM     12  H5  UNL     1     -31.425   5.020 -25.902  1.00  0.00     0.190 HD
BRANCH  10  13
HETATM   13  C1  UNL     1     -31.740   6.586 -23.732  1.00  0.00     0.210 C 
HETATM   14  N3  UNL     1     -31.690   5.503 -23.019  1.00  0.00    -0.234 N 
ATOM     15  H3  UNL     1     -32.342   5.381 -22.244  1.00  0.00     0.197 HD
BRANCH  13  16
HETATM   16  N2  UNL     1     -32.683   7.593 -23.449  1.00  0.00    -0.286 N 
ATOM     17  H2  UNL     1     -33.294   7.963 -24.178  1.00  0.00     0.188 HD
BRANCH  16  18
HETATM   18  N1  UNL     1     -32.755   8.068 -22.140  1.00  0.00    -0.343 N 
ATOM     19  H12 UNL     1     -32.250   8.913 -21.872  1.00  0.00     0.176 HD
ATOM     20  H11 UNL     1     -33.323   7.544 -21.474  1.00  0.00     0.176 HD
ENDBRANCH  16  18
ENDBRANCH  13  16
BRANCH  14  21
HETATM   21  O1  UNL     1     -30.770   4.517 -23.293  1.00  0.00    -0.182 OA
BRANCH  21  22
HETATM   22  C2  UNL     1     -31.226   3.235 -23.564  1.00  0.00     0.394 C 
HETATM   23  N4  UNL     1     -31.776   2.872 -24.809  1.00  0.00    -0.031 NA
HETATM   24  O2  UNL     1     -31.133   2.382 -22.649  1.00  0.00    -0.240 OA
ENDBRANCH  21  22
ENDBRANCH  14  21
ENDBRANCH  10  13
ENDBRANCH   7   9
ENDBRANCH   1   7
BRANCH   2  25
HETATM   25  N7  UNL     1     -30.554   5.364 -30.263  1.00  0.00    -0.349 N 
ATOM     26  H7  UNL     1     -31.294   4.681 -30.104  1.00  0.00     0.166 HD
BRANCH  25  27
HETATM   27  C6  UNL     1     -29.610   5.156 -31.283  1.00  0.00     0.066 A 
HETATM   28  C7  UNL     1     -28.344   4.720 -30.915  1.00  0.00     0.034 A 
HETATM   29  C8  UNL     1     -27.351   4.520 -31.818  1.00  0.00     0.038 A 
HETATM   30  C9  UNL     1     -27.650   4.770 -33.166  1.00  0.00     0.105 A 
HETATM   31  C10 UNL     1     -28.892   5.198 -33.532  1.00  0.00     0.074 A 
HETATM   32  C11 UNL     1     -29.916   5.404 -32.591  1.00  0.00     0.131 A 
BRANCH  30  33
HETATM   33  N8  UNL     1     -26.655   4.573 -34.150  1.00  0.00    -0.116 N 
HETATM   34  O4  UNL     1     -25.467   4.527 -33.809  1.00  0.00    -0.532 OA
HETATM   35  O5  UNL     1     -26.998   4.432 -35.465  1.00  0.00    -0.532 OA
ENDBRANCH  30  33
BRANCH  32  36
HETATM   36  N9  UNL     1     -31.176   5.845 -33.071  1.00  0.00    -0.113 N 
HETATM   37  O6  UNL     1     -31.239   6.257 -34.282  1.00  0.00    -0.532 OA
HETATM   38  O7  UNL     1     -32.353   5.887 -32.400  1.00  0.00    -0.532 OA
ENDBRANCH  32  36
ENDBRANCH  25  27
ENDBRANCH   2  25
TORSDOF 11
ENDMDL
MODEL 2
REMARK VINA RESULT: -8.313240320      1.999      9.017
REMARK  11 active torsions:
REMARK  status: ('A' for Active; 'I' for Inactive)
REMARK    1  A    between atoms: N1_1  and  N2_4 
REMARK    2  A    between atoms: N2_4  and  C1_6 
REMARK    3  A    between atoms: C1_6  and  C3_13 
REMARK    4  A    between atoms: N3_7  and  O1_9 
REMARK    5  A    between atoms: O1_9  and  C2_10 
REMARK       I    between atoms: C3_13  and  N5_15 
REMARK    6  A    between atoms: N5_15  and  N6_17 
REMARK    7  A    between atoms: N6_17  and  C4_19 
REMARK    8  A    between atoms: C5_20  and  N7_21 
REMARK    9  A    between atoms: N7_21  and  C6_23 
REMARK   10  A    between atoms: C9_26  and  N8_27 
REMARK   11  A    between atoms: C11_31  and  N9_32 
ROOT
HETATM    1  C4  UNL     1     -29.484   5.384 -30.878  1.00  0.00     0.133 A 
HETATM    2  C5  UNL     1     -29.771   6.179 -29.795  1.00  0.00     0.120 A 
HETATM    3  C12 UNL     1     -30.876   6.685 -30.434  1.00  0.00     0.253 A 
HETATM    4  O8  UNL     1     -31.787   7.516 -30.180  1.00  0.00    -0.281 OA
HETATM    5  C13 UNL     1     -30.590   5.889 -31.522  1.00  0.00     0.254 A 
HETATM    6  O9  UNL     1     -31.103   5.667 -32.677  1.00  0.00    -0.281 OA
ENDROOT
BRANCH   1   7
HETATM    7  N6  UNL     1     -28.472   4.407 -31.198  1.00  0.00    -0.292 N 
ATOM      8  H6  UNL     1     -28.070   3.839 -30.453  1.00  0.00     0.187 HD
BRANCH   7   9
HETATM    9  N5  UNL     1     -28.031   4.224 -32.519  1.00  0.00    -0.263 N 
HETATM   10  C3  UNL     1     -26.813   4.822 -32.958  1.00  0.00     0.307 C 
HETATM   11  O3  UNL     1     -26.144   5.517 -32.157  1.00  0.00    -0.262 OA
ATOM     12  H5  UNL     1     -28.584   3.661 -33.166  1.00  0.00     0.190 HD
BRANCH  10  13
HETATM   13  C1  UNL     1     -26.348   4.639 -34.307  1.00  0.00     0.210 C 
HETATM   14  N3  UNL     1     -27.156   4.889 -35.292  1.00  0.00    -0.234 N 
ATOM     15  H3  UNL     1     -26.834   4.763 -36.251  1.00  0.00     0.197 HD
BRANCH  13  16
HETATM   16  N2  UNL     1     -25.033   4.196 -34.549  1.00  0.00    -0.286 N 
ATOM     17  H2  UNL     1     -24.831   3.209 -34.709  1.00  0.00     0.188 HD
BRANCH  16  18
HETATM   18  N1  UNL     1     -24.016   5.151 -34.560  1.00  0.00    -0.343 N 
ATOM     19  H12 UNL     1     -23.747   5.604 -35.434  1.00  0.00     0.176 HD
ATOM     20  H11 UNL     1     -23.563   5.374 -33.674  1.00  0.00     0.176 HD
ENDBRANCH  16  18
ENDBRANCH  13  16
BRANCH  14  21
HETATM   21  O1  UNL     1     -28.441   5.322 -35.060  1.00  0.00    -0.182 OA
BRANCH  21  22
HETATM   22  C2  UNL     1     -29.497   4.602 -35.601  1.00  0.00     0.394 C 
HETATM   23  N4  UNL     1     -30.448   5.181 -36.463  1.00  0.00    -0.031 NA
HETATM   24  O2  UNL     1     -29.586   3.389 -35.297  1.00  0.00    -0.240 OA
ENDBRANCH  21  22
ENDBRANCH  14  21
ENDBRANCH  10  13
ENDBRANCH   7   9
ENDBRANCH   1   7
BRANCH   2  25
HETATM   25  N7  UNL     1     -29.148   6.413 -28.501  1.00  0.00    -0.349 N 
ATOM     26  H7  UNL     1     -28.370   7.068 -28.420  1.00  0.00     0.166 HD
BRANCH  25  27
HETATM   27  C6  UNL     1     -29.620   5.734 -27.364  1.00  0.00     0.066 A 
HETATM   28  C7  UNL     1     -29.653   4.347 -27.406  1.00  0.00     0.034 A 
HETATM   29  C8  UNL     1     -30.120   3.598 -26.375  1.00  0.00     0.038 A 
HETATM   30  C9  UNL     1     -30.578   4.284 -25.239  1.00  0.00     0.105 A 
HETATM   31  C10 UNL     1     -30.547   5.647 -25.194  1.00  0.00     0.074 A 
HETATM   32  C11 UNL     1     -30.061   6.417 -26.267  1.00  0.00     0.131 A 
BRANCH  30  33
HETATM   33  N8  UNL     1     -31.071   3.554 -24.134  1.00  0.00    -0.116 N 
HETATM   34  O4  UNL     1     -30.782   3.920 -22.989  1.00  0.00    -0.532 OA
HETATM   35  O5  UNL     1     -31.862   2.457 -24.327  1.00  0.00    -0.532 OA
ENDBRANCH  30  33
BRANCH  32  36
HETATM   36  N9  UNL     1     -30.065   7.827 -26.122  1.00  0.00    -0.113 N 
HETATM   37  O6  UNL     1     -30.677   8.320 -25.110  1.00  0.00    -0.532 OA
HETATM   38  O7  UNL     1     -29.490   8.748 -26.935  1.00  0.00    -0.532 OA
ENDBRANCH  32  36
ENDBRANCH  25  27
ENDBRANCH   2  25
TORSDOF 11
ENDMDL
MODEL 3
REMARK VINA RESULT: -8.261430074      1.543      2.734
REMARK  11 active torsions:
REMARK  status: ('A' for Active; 'I' for Inactive)
REMARK    1  A    between atoms: N1_1  and  N2_4 
REMARK    2  A    between atoms: N2_4  and  C1_6 
REMARK    3  A    between atoms: C1_6  and  C3_13 
REMARK    4  A    between atoms: N3_7  and  O1_9 
REMARK    5  A    between atoms: O1_9  and  C2_10 
REMARK       I    between atoms: C3_13  and  N5_15 
REMARK    6  A    between atoms: N5_15  and  N6_17 
REMARK    7  A    between atoms: N6_17  and  C4_19 
REMARK    8  A    between atoms: C5_20  and  N7_21 
REMARK    9  A    between atoms: N7_21  and  C6_23 
REMARK   10  A    between atoms: C9_26  and  N8_27 
REMARK   11  A    between atoms: C11_31  and  N9_32 
ROOT
HETATM    1  C4  UNL     1     -29.848   5.337 -27.823  1.00  0.00     0.133 A 
HETATM    2  C5  UNL     1     -29.869   5.563 -29.178  1.00  0.00     0.120 A 
HETATM    3  C12 UNL     1     -29.887   6.921 -28.971  1.00  0.00     0.253 A 
HETATM    4  O8  UNL     1     -29.912   7.960 -29.682  1.00  0.00    -0.281 OA
HETATM    5  C13 UNL     1     -29.866   6.697 -27.611  1.00  0.00     0.254 A 
HETATM    6  O9  UNL     1     -29.862   7.413 -26.548  1.00  0.00    -0.281 OA
ENDROOT
BRANCH   1   7
HETATM    7  N6  UNL     1     -29.795   4.171 -26.975  1.00  0.00    -0.292 N 
ATOM      8  H6  UNL     1     -29.627   3.256 -27.391  1.00  0.00     0.187 HD
BRANCH   7   9
HETATM    9  N5  UNL     1     -29.969   4.276 -25.585  1.00  0.00    -0.263 N 
HETATM   10  C3  UNL     1     -30.984   3.516 -24.931  1.00  0.00     0.307 C 
HETATM   11  O3  UNL     1     -31.720   2.760 -25.607  1.00  0.00    -0.262 OA
ATOM     12  H5  UNL     1     -29.369   4.897 -25.042  1.00  0.00     0.190 HD
BRANCH  10  13
HETATM   13  C1  UNL     1     -31.171   3.610 -23.507  1.00  0.00     0.210 C 
HETATM   14  N3  UNL     1     -31.417   4.770 -22.979  1.00  0.00    -0.234 N 
ATOM     15  H3  UNL     1     -31.552   4.846 -21.971  1.00  0.00     0.197 HD
BRANCH  13  16
HETATM   16  N2  UNL     1     -31.087   2.456 -22.704  1.00  0.00    -0.286 N 
ATOM     17  H2  UNL     1     -31.837   1.765 -22.694  1.00  0.00     0.188 HD
BRANCH  16  18
HETATM   18  N1  UNL     1     -29.943   2.289 -21.924  1.00  0.00    -0.343 N 
ATOM     19  H12 UNL     1     -29.678   3.001 -21.243  1.00  0.00     0.176 HD
ATOM     20  H11 UNL     1     -29.393   1.441 -22.061  1.00  0.00     0.176 HD
ENDBRANCH  16  18
ENDBRANCH  13  16
BRANCH  14  21
HETATM   21  O1  UNL     1     -31.500   5.900 -23.761  1.00  0.00    -0.182 OA
BRANCH  21  22
HETATM   22  C2  UNL     1     -31.669   7.130 -23.141  1.00  0.00     0.394 C 
HETATM   23  N4  UNL     1     -31.939   8.311 -23.860  1.00  0.00    -0.031 NA
HETATM   24  O2  UNL     1     -31.573   7.167 -21.892  1.00  0.00    -0.240 OA
ENDBRANCH  21  22
ENDBRANCH  14  21
ENDBRANCH  10  13
ENDBRANCH   7   9
ENDBRANCH   1   7
BRANCH   2  25
HETATM   25  N7  UNL     1     -29.888   4.713 -30.359  1.00  0.00    -0.349 N 
ATOM     26  H7  UNL     1     -30.655   4.057 -30.503  1.00  0.00     0.166 HD
BRANCH  25  27
HETATM   27  C6  UNL     1     -28.849   4.800 -31.301  1.00  0.00     0.066 A 
HETATM   28  C7  UNL     1     -27.550   4.600 -30.852  1.00  0.00     0.034 A 
HETATM   29  C8  UNL     1     -26.473   4.693 -31.671  1.00  0.00     0.038 A 
HETATM   30  C9  UNL     1     -26.717   5.003 -33.019  1.00  0.00     0.105 A 
HETATM   31  C10 UNL     1     -27.991   5.201 -33.464  1.00  0.00     0.074 A 
HETATM   32  C11 UNL     1     -29.102   5.103 -32.608  1.00  0.00     0.131 A 
BRANCH  30  33
HETATM   33  N8  UNL     1     -25.632   5.108 -33.918  1.00  0.00    -0.116 N 
HETATM   34  O4  UNL     1     -25.151   6.221 -34.160  1.00  0.00    -0.532 OA
HETATM   35  O5  UNL     1     -25.115   3.992 -34.513  1.00  0.00    -0.532 OA
ENDBRANCH  30  33
BRANCH  32  36
HETATM   36  N9  UNL     1     -30.388   5.321 -33.167  1.00  0.00    -0.113 N 
HETATM   37  O6  UNL     1     -30.542   5.077 -34.415  1.00  0.00    -0.532 OA
HETATM   38  O7  UNL     1     -31.504   5.763 -32.537  1.00  0.00    -0.532 OA
ENDBRANCH  32  36
ENDBRANCH  25  27
ENDBRANCH   2  25
TORSDOF 11
ENDMDL
MODEL 4
REMARK VINA RESULT: -8.223952693      2.058      2.858
REMARK  11 active torsions:
REMARK  status: ('A' for Active; 'I' for Inactive)
REMARK    1  A    between atoms: N1_1  and  N2_4 
REMARK    2  A    between atoms: N2_4  and  C1_6 
REMARK    3  A    between atoms: C1_6  and  C3_13 
REMARK    4  A    between atoms: N3_7  and  O1_9 
REMARK    5  A    between atoms: O1_9  and  C2_10 
REMARK       I    between atoms: C3_13  and  N5_15 
REMARK    6  A    between atoms: N5_15  and  N6_17 
REMARK    7  A    between atoms: N6_17  and  C4_19 
REMARK    8  A    between atoms: C5_20  and  N7_21 
REMARK    9  A    between atoms: N7_21  and  C6_23 
REMARK   10  A    between atoms: C9_26  and  N8_27 
REMARK   11  A    between atoms: C11_31  and  N9_32 
ROOT
HETATM    1  C4  UNL     1     -32.429   7.763 -28.303  1.00  0.00     0.133 A 
HETATM    2  C5  UNL     1     -32.689   6.956 -29.384  1.00  0.00     0.120 A 
HETATM    3  C12 UNL     1     -33.536   7.901 -29.910  1.00  0.00     0.253 A 
HETATM    4  O8  UNL     1     -34.259   8.022 -30.933  1.00  0.00    -0.281 OA
HETATM    5  C13 UNL     1     -33.277   8.712 -28.825  1.00  0.00     0.254 A 
HETATM    6  O9  UNL     1     -33.642   9.873 -28.420  1.00  0.00    -0.281 OA
ENDROOT
BRANCH   1   7
HETATM    7  N6  UNL     1     -31.594   7.673 -27.129  1.00  0.00    -0.292 N 
ATOM      8  H6  UNL     1     -30.608   7.926 -27.195  1.00  0.00     0.187 HD
BRANCH   7   9
HETATM    9  N5  UNL     1     -32.116   7.243 -25.898  1.00  0.00    -0.263 N 
HETATM   10  C3  UNL     1     -31.296   7.244 -24.731  1.00  0.00     0.307 C 
HETATM   11  O3  UNL     1     -30.104   7.625 -24.816  1.00  0.00    -0.262 OA
ATOM     12  H5  UNL     1     -33.085   6.930 -25.838  1.00  0.00     0.190 HD
BRANCH  10  13
HETATM   13  C1  UNL     1     -31.819   6.811 -23.463  1.00  0.00     0.210 C 
HETATM   14  N3  UNL     1     -32.030   5.546 -23.267  1.00  0.00    -0.234 N 
ATOM     15  H3  UNL     1     -32.399   5.230 -22.370  1.00  0.00     0.197 HD
BRANCH  13  16
HETATM   16  N2  UNL     1     -32.096   7.753 -22.453  1.00  0.00    -0.286 N 
ATOM     17  H2  UNL     1     -31.451   7.898 -21.676  1.00  0.00     0.188 HD
BRANCH  16  18
HETATM   18  N1  UNL     1     -33.282   8.481 -22.551  1.00  0.00    -0.343 N 
ATOM     19  H12 UNL     1     -33.432   9.115 -23.335  1.00  0.00     0.176 HD
ATOM     20  H11 UNL     1     -33.980   8.353 -21.817  1.00  0.00     0.176 HD
ENDBRANCH  16  18
ENDBRANCH  13  16
BRANCH  14  21
HETATM   21  O1  UNL     1     -31.760   4.623 -24.252  1.00  0.00    -0.182 OA
BRANCH  21  22
HETATM   22  C2  UNL     1     -31.403   3.335 -23.881  1.00  0.00     0.394 C 
HETATM   23  N4  UNL     1     -30.580   3.066 -22.770  1.00  0.00    -0.031 NA
HETATM   24  O2  UNL     1     -31.843   2.388 -24.576  1.00  0.00    -0.240 OA
ENDBRANCH  21  22
ENDBRANCH  14  21
ENDBRANCH  10  13
ENDBRANCH   7   9
ENDBRANCH   1   7
BRANCH   2  25
HETATM   25  N7  UNL     1     -32.262   5.629 -29.800  1.00  0.00    -0.349 N 
ATOM     26  H7  UNL     1     -32.914   4.846 -29.757  1.00  0.00     0.166 HD
BRANCH  25  27
HETATM   27  C6  UNL     1     -30.950   5.428 -30.262  1.00  0.00     0.066 A 
HETATM   28  C7  UNL     1     -30.729   5.487 -31.631  1.00  0.00     0.034 A 
HETATM   29  C8  UNL     1     -29.508   5.275 -32.182  1.00  0.00     0.038 A 
HETATM   30  C9  UNL     1     -28.449   4.990 -31.306  1.00  0.00     0.105 A 
HETATM   31  C10 UNL     1     -28.661   4.931 -29.960  1.00  0.00     0.074 A 
HETATM   32  C11 UNL     1     -29.930   5.152 -29.396  1.00  0.00     0.131 A 
BRANCH  30  33
HETATM   33  N8  UNL     1     -27.154   4.766 -31.825  1.00  0.00    -0.116 N 
HETATM   34  O4  UNL     1     -26.170   5.151 -31.185  1.00  0.00    -0.532 OA
HETATM   35  O5  UNL     1     -26.989   4.126 -33.022  1.00  0.00    -0.532 OA
ENDBRANCH  30  33
BRANCH  32  36
HETATM   36  N9  UNL     1     -30.048   5.074 -27.985  1.00  0.00    -0.113 N 
HETATM   37  O6  UNL     1     -29.109   5.588 -27.281  1.00  0.00    -0.532 OA
HETATM   38  O7  UNL     1     -31.051   4.514 -27.264  1.00  0.00    -0.532 OA
ENDBRANCH  32  36
ENDBRANCH  25  27
ENDBRANCH   2  25
TORSDOF 11
ENDMDL
MODEL 5
REMARK VINA RESULT: -8.216872921      3.055      6.656
REMARK  11 active torsions:
REMARK  status: ('A' for Active; 'I' for Inactive)
REMARK    1  A    between atoms: N1_1  and  N2_4 
REMARK    2  A    between atoms: N2_4  and  C1_6 
REMARK    3  A    between atoms: C1_6  and  C3_13 
REMARK    4  A    between atoms: N3_7  and  O1_9 
REMARK    5  A    between atoms: O1_9  and  C2_10 
REMARK       I    between atoms: C3_13  and  N5_15 
REMARK    6  A    between atoms: N5_15  and  N6_17 
REMARK    7  A    between atoms: N6_17  and  C4_19 
REMARK    8  A    between atoms: C5_20  and  N7_21 
REMARK    9  A    between atoms: N7_21  and  C6_23 
REMARK   10  A    between atoms: C9_26  and  N8_27 
REMARK   11  A    between atoms: C11_31  and  N9_32 
ROOT
HETATM    1  C4  UNL     1     -30.258   6.257 -28.255  1.00  0.00     0.133 A 
HETATM    2  C5  UNL     1     -30.721   7.409 -28.841  1.00  0.00     0.120 A 
HETATM    3  C12 UNL     1     -30.899   6.754 -30.035  1.00  0.00     0.253 A 
HETATM    4  O8  UNL     1     -31.307   7.041 -31.191  1.00  0.00    -0.281 OA
HETATM    5  C13 UNL     1     -30.435   5.596 -29.449  1.00  0.00     0.254 A 
HETATM    6  O9  UNL     1     -30.232   4.383 -29.812  1.00  0.00    -0.281 OA
ENDROOT
BRANCH   1   7
HETATM    7  N6  UNL     1     -29.807   5.882 -26.936  1.00  0.00    -0.292 N 
ATOM      8  H6  UNL     1     -28.814   5.720 -26.773  1.00  0.00     0.187 HD
BRANCH   7   9
HETATM    9  N5  UNL     1     -30.714   5.737 -25.873  1.00  0.00    -0.263 N 
HETATM   10  C3  UNL     1     -30.801   6.741 -24.863  1.00  0.00     0.307 C 
HETATM   11  O3  UNL     1     -30.058   7.749 -24.931  1.00  0.00    -0.262 OA
ATOM     12  H5  UNL     1     -31.311   4.912 -25.823  1.00  0.00     0.190 HD
BRANCH  10  13
HETATM   13  C1  UNL     1     -31.728   6.609 -23.771  1.00  0.00     0.210 C 
HETATM   14  N3  UNL     1     -31.675   5.548 -23.025  1.00  0.00    -0.234 N 
ATOM     15  H3  UNL     1     -32.328   5.447 -22.248  1.00  0.00     0.197 HD
BRANCH  13  16
HETATM   16  N2  UNL     1     -32.677   7.620 -23.522  1.00  0.00    -0.286 N 
ATOM     17  H2  UNL     1     -33.248   8.004 -24.274  1.00  0.00     0.188 HD
BRANCH  16  18
HETATM   18  N1  UNL     1     -32.810   8.077 -22.211  1.00  0.00    -0.343 N 
ATOM     19  H12 UNL     1     -32.037   7.979 -21.552  1.00  0.00     0.176 HD
ATOM     20  H11 UNL     1     -33.696   8.506 -21.944  1.00  0.00     0.176 HD
ENDBRANCH  16  18
ENDBRANCH  13  16
BRANCH  14  21
HETATM   21  O1  UNL     1     -30.750   4.559 -23.267  1.00  0.00    -0.182 OA
BRANCH  21  22
HETATM   22  C2  UNL     1     -31.200   3.272 -23.527  1.00  0.00     0.394 C 
HETATM   23  N4  UNL     1     -31.777   2.905 -24.758  1.00  0.00    -0.031 NA
HETATM   24  O2  UNL     1     -31.077   2.420 -22.615  1.00  0.00    -0.240 OA
ENDBRANCH  21  22
ENDBRANCH  14  21
ENDBRANCH  10  13
ENDBRANCH   7   9
ENDBRANCH   1   7
BRANCH   2  25
HETATM   25  N7  UNL     1     -30.922   8.779 -28.392  1.00  0.00    -0.349 N 
ATOM     26  H7  UNL     1     -30.305   9.520 -28.724  1.00  0.00     0.166 HD
BRANCH  25  27
HETATM   27  C6  UNL     1     -31.967   9.078 -27.502  1.00  0.00     0.066 A 
HETATM   28  C7  UNL     1     -33.059   8.220 -27.473  1.00  0.00     0.034 A 
HETATM   29  C8  UNL     1     -34.134   8.435 -26.675  1.00  0.00     0.038 A 
HETATM   30  C9  UNL     1     -34.109   9.576 -25.858  1.00  0.00     0.105 A 
HETATM   31  C10 UNL     1     -33.039  10.422 -25.883  1.00  0.00     0.074 A 
HETATM   32  C11 UNL     1     -31.928  10.192 -26.714  1.00  0.00     0.131 A 
BRANCH  30  33
HETATM   33  N8  UNL     1     -35.200   9.847 -25.002  1.00  0.00    -0.116 N 
HETATM   34  O4  UNL     1     -36.196  10.422 -25.455  1.00  0.00    -0.532 OA
HETATM   35  O5  UNL     1     -35.159   9.474 -23.688  1.00  0.00    -0.532 OA
ENDBRANCH  30  33
BRANCH  32  36
HETATM   36  N9  UNL     1     -30.862  11.126 -26.664  1.00  0.00    -0.113 N 
HETATM   37  O6  UNL     1     -29.700  10.687 -26.351  1.00  0.00    -0.532 OA
HETATM   38  O7  UNL     1     -30.912  12.459 -26.912  1.00  0.00    -0.532 OA
ENDBRANCH  32  36
ENDBRANCH  25  27
ENDBRANCH   2  25
TORSDOF 11
ENDMDL
