MODEL 1
REMARK VINA RESULT: -7.183431907      0.000      0.000
REMARK  3 active torsions:
REMARK  status: ('A' for Active; 'I' for Inactive)
REMARK    1  A    between atoms: O1_2  and  C2_3 
REMARK    2  A    between atoms: C2_3  and  O2_4 
REMARK    3  A    between atoms: C2_3  and  C3_6 
ROOT
HETATM    1  C3  UNL     1      -3.327   0.288  17.026  1.00  0.00     0.037 A 
HETATM    2  C4  UNL     1      -2.508   0.412  15.872  1.00  0.00     0.017 A 
HETATM    3  C5  UNL     1      -1.609  -0.544  15.500  1.00  0.00     0.002 A 
HETATM    4  C6  UNL     1      -1.478  -1.674  16.259  1.00  0.00     0.016 A 
HETATM    5  C7  UNL     1      -2.243  -1.864  17.400  1.00  0.00     0.029 A 
HETATM    6  C8  UNL     1      -3.157  -0.861  17.756  1.00  0.00     0.043 A 
HETATM    7  C9  UNL     1      -3.902  -1.123  18.990  1.00  0.00     0.184 A 
HETATM    8  O3  UNL     1      -4.729  -0.267  19.372  1.00  0.00    -0.288 OA
HETATM    9  C10 UNL     1      -3.715  -2.341  19.795  1.00  0.00     0.059 A 
HETATM   10  C11 UNL     1      -2.846  -3.240  19.405  1.00  0.00     0.059 A 
HETATM   11  C12 UNL     1      -2.053  -3.079  18.198  1.00  0.00     0.183 A 
HETATM   12  O4  UNL     1      -1.222  -3.924  17.814  1.00  0.00    -0.288 OA
ENDROOT
BRANCH   1  13
HETATM   13  C2  UNL     1      -4.296   1.312  17.249  1.00  0.00     0.189 C 
BRANCH  13  14
HETATM   14  O1  UNL     1      -5.557   1.543  16.819  1.00  0.00    -0.335 OA
HETATM   15  C1  UNL     1      -5.970   2.683  16.079  1.00  0.00     0.212 C 
ENDBRANCH  13  14
BRANCH  13  16
HETATM   16  O2  UNL     1      -3.862   2.259  18.052  1.00  0.00    -0.340 OA
ATOM     17  H2  UNL     1      -2.927   2.405  17.963  1.00  0.00     0.220 HD
ENDBRANCH  13  16
ENDBRANCH   1  13
TORSDOF 3
ENDMDL
MODEL 2
REMARK VINA RESULT: -6.937368661      0.670      1.043
REMARK  3 active torsions:
REMARK  status: ('A' for Active; 'I' for Inactive)
REMARK    1  A    between atoms: O1_2  and  C2_3 
REMARK    2  A    between atoms: C2_3  and  O2_4 
REMARK    3  A    between atoms: C2_3  and  C3_6 
ROOT
HETATM    1  C3  UNL     1      -3.216   0.355  17.134  1.00  0.00     0.037 A 
HETATM    2  C4  UNL     1      -2.384   0.494  15.991  1.00  0.00     0.017 A 
HETATM    3  C5  UNL     1      -1.520  -0.481  15.586  1.00  0.00     0.002 A 
HETATM    4  C6  UNL     1      -1.439  -1.644  16.298  1.00  0.00     0.016 A 
HETATM    5  C7  UNL     1      -2.219  -1.851  17.426  1.00  0.00     0.029 A 
HETATM    6  C8  UNL     1      -3.097  -0.829  17.817  1.00  0.00     0.043 A 
HETATM    7  C9  UNL     1      -3.860  -1.111  19.035  1.00  0.00     0.184 A 
HETATM    8  O3  UNL     1      -4.656  -0.240  19.448  1.00  0.00    -0.288 OA
HETATM    9  C10 UNL     1      -3.728  -2.368  19.791  1.00  0.00     0.059 A 
HETATM   10  C11 UNL     1      -2.891  -3.284  19.369  1.00  0.00     0.059 A 
HETATM   11  C12 UNL     1      -2.083  -3.104  18.175  1.00  0.00     0.183 A 
HETATM   12  O4  UNL     1      -1.283  -3.965  17.762  1.00  0.00    -0.288 OA
ENDROOT
BRANCH   1  13
HETATM   13  C2  UNL     1      -4.146   1.407  17.394  1.00  0.00     0.189 C 
BRANCH  13  14
HETATM   14  O1  UNL     1      -4.125   2.537  18.137  1.00  0.00    -0.335 OA
HETATM   15  C1  UNL     1      -5.265   3.145  18.728  1.00  0.00     0.212 C 
ENDBRANCH  13  14
BRANCH  13  16
HETATM   16  O2  UNL     1      -5.294   1.237  16.778  1.00  0.00    -0.340 OA
ATOM     17  H2  UNL     1      -5.288   1.602  15.900  1.00  0.00     0.220 HD
ENDBRANCH  13  16
ENDBRANCH   1  13
TORSDOF 3
ENDMDL
MODEL 3
REMARK VINA RESULT: -6.867533720      1.380      4.529
REMARK  3 active torsions:
REMARK  status: ('A' for Active; 'I' for Inactive)
REMARK    1  A    between atoms: O1_2  and  C2_3 
REMARK    2  A    between atoms: C2_3  and  O2_4 
REMARK    3  A    between atoms: C2_3  and  C3_6 
ROOT
HETATM    1  C3  UNL     1      -2.668  -1.838  17.774  1.00  0.00     0.037 A 
HETATM    2  C4  UNL     1      -1.806  -2.043  16.663  1.00  0.00     0.017 A 
HETATM    3  C5  UNL     1      -1.533  -1.064  15.753  1.00  0.00     0.002 A 
HETATM    4  C6  UNL     1      -2.104   0.169  15.902  1.00  0.00     0.016 A 
HETATM    5  C7  UNL     1      -2.957   0.442  16.961  1.00  0.00     0.029 A 
HETATM    6  C8  UNL     1      -3.218  -0.586  17.879  1.00  0.00     0.043 A 
HETATM    7  C9  UNL     1      -4.153  -0.228  18.948  1.00  0.00     0.184 A 
HETATM    8  O3  UNL     1      -4.439  -1.099  19.798  1.00  0.00    -0.288 OA
HETATM    9  C10 UNL     1      -4.769   1.104  19.062  1.00  0.00     0.059 A 
HETATM   10  C11 UNL     1      -4.480   2.021  18.172  1.00  0.00     0.059 A 
HETATM   11  C12 UNL     1      -3.568   1.771  17.068  1.00  0.00     0.183 A 
HETATM   12  O4  UNL     1      -3.283   2.631  16.215  1.00  0.00    -0.288 OA
ENDROOT
BRANCH   1  13
HETATM   13  C2  UNL     1      -2.793  -2.913  18.706  1.00  0.00     0.189 C 
BRANCH  13  14
HETATM   14  O1  UNL     1      -2.080  -3.337  19.774  1.00  0.00    -0.335 OA
HETATM   15  C1  UNL     1      -2.628  -3.972  20.920  1.00  0.00     0.212 C 
ENDBRANCH  13  14
BRANCH  13  16
HETATM   16  O2  UNL     1      -3.837  -3.675  18.470  1.00  0.00    -0.340 OA
ATOM     17  H2  UNL     1      -3.762  -4.526  18.886  1.00  0.00     0.220 HD
ENDBRANCH  13  16
ENDBRANCH   1  13
TORSDOF 3
ENDMDL
MODEL 4
REMARK VINA RESULT: -6.765045119      1.667      5.094
REMARK  3 active torsions:
REMARK  status: ('A' for Active; 'I' for Inactive)
REMARK    1  A    between atoms: O1_2  and  C2_3 
REMARK    2  A    between atoms: C2_3  and  O2_4 
REMARK    3  A    between atoms: C2_3  and  C3_6 
ROOT
HETATM    1  C3  UNL     1      -3.806  -1.747  19.176  1.00  0.00     0.037 A 
HETATM    2  C4  UNL     1      -4.687  -0.927  19.931  1.00  0.00     0.017 A 
HETATM    3  C5  UNL     1      -4.974   0.361  19.584  1.00  0.00     0.002 A 
HETATM    4  C6  UNL     1      -4.398   0.900  18.468  1.00  0.00     0.016 A 
HETATM    5  C7  UNL     1      -3.526   0.160  17.682  1.00  0.00     0.029 A 
HETATM    6  C8  UNL     1      -3.251  -1.161  18.066  1.00  0.00     0.043 A 
HETATM    7  C9  UNL     1      -2.297  -1.862  17.204  1.00  0.00     0.184 A 
HETATM    8  O3  UNL     1      -1.998  -3.041  17.491  1.00  0.00    -0.288 OA
HETATM    9  C10 UNL     1      -1.677  -1.240  16.023  1.00  0.00     0.059 A 
HETATM   10  C11 UNL     1      -1.980  -0.002  15.717  1.00  0.00     0.059 A 
HETATM   11  C12 UNL     1      -2.911   0.785  16.507  1.00  0.00     0.183 A 
HETATM   12  O4  UNL     1      -3.209   1.962  16.230  1.00  0.00    -0.288 OA
ENDROOT
BRANCH   1  13
HETATM   13  C2  UNL     1      -3.667  -3.106  19.589  1.00  0.00     0.189 C 
BRANCH  13  14
HETATM   14  O1  UNL     1      -2.952  -3.745  20.543  1.00  0.00    -0.335 OA
HETATM   15  C1  UNL     1      -3.462  -4.168  21.799  1.00  0.00     0.212 C 
ENDBRANCH  13  14
BRANCH  13  16
HETATM   16  O2  UNL     1      -4.394  -3.935  18.874  1.00  0.00    -0.340 OA
ATOM     17  H2  UNL     1      -4.853  -3.493  18.169  1.00  0.00     0.220 HD
ENDBRANCH  13  16
ENDBRANCH   1  13
TORSDOF 3
ENDMDL
MODEL 5
REMARK VINA RESULT: -6.654548078      1.926      4.785
REMARK  3 active torsions:
REMARK  status: ('A' for Active; 'I' for Inactive)
REMARK    1  A    between atoms: O1_2  and  C2_3 
REMARK    2  A    between atoms: C2_3  and  O2_4 
REMARK    3  A    between atoms: C2_3  and  C3_6 
ROOT
HETATM    1  C3  UNL     1      -4.250  -1.582  19.541  1.00  0.00     0.037 A 
HETATM    2  C4  UNL     1      -4.962  -0.387  19.830  1.00  0.00     0.017 A 
HETATM    3  C5  UNL     1      -4.859   0.736  19.063  1.00  0.00     0.002 A 
HETATM    4  C6  UNL     1      -4.040   0.729  17.969  1.00  0.00     0.016 A 
HETATM    5  C7  UNL     1      -3.311  -0.400  17.625  1.00  0.00     0.029 A 
HETATM    6  C8  UNL     1      -3.439  -1.539  18.435  1.00  0.00     0.043 A 
HETATM    7  C9  UNL     1      -2.614  -2.677  18.024  1.00  0.00     0.184 A 
HETATM    8  O3  UNL     1      -2.671  -3.724  18.705  1.00  0.00    -0.288 OA
HETATM    9  C10 UNL     1      -1.723  -2.639  16.852  1.00  0.00     0.059 A 
HETATM   10  C11 UNL     1      -1.653  -1.545  16.136  1.00  0.00     0.059 A 
HETATM   11  C12 UNL     1      -2.426  -0.357  16.458  1.00  0.00     0.183 A 
HETATM   12  O4  UNL     1      -2.370   0.691  15.787  1.00  0.00    -0.288 OA
ENDROOT
BRANCH   1  13
HETATM   13  C2  UNL     1      -4.521  -2.717  20.364  1.00  0.00     0.189 C 
BRANCH  13  14
HETATM   14  O1  UNL     1      -4.068  -3.160  21.558  1.00  0.00    -0.335 OA
HETATM   15  C1  UNL     1      -3.916  -4.526  21.917  1.00  0.00     0.212 C 
ENDBRANCH  13  14
BRANCH  13  16
HETATM   16  O2  UNL     1      -5.411  -3.528  19.837  1.00  0.00    -0.340 OA
ATOM     17  H2  UNL     1      -6.049  -3.826  20.476  1.00  0.00     0.220 HD
ENDBRANCH  13  16
ENDBRANCH   1  13
TORSDOF 3
ENDMDL
