MODEL 1
REMARK VINA RESULT: -5.699947416      0.000      0.000
REMARK  3 active torsions:
REMARK  status: ('A' for Active; 'I' for Inactive)
REMARK    1  A    between atoms: C2_2  and  O1_3 
REMARK    2  A    between atoms: C2_2  and  C3_5 
REMARK    3  A    between atoms: C3_5  and  N1_6 
ROOT
HETATM    1  N1  UNL     1      39.255  25.844  55.527  1.00  0.00     0.096 N 
HETATM    2  C4  UNL     1      38.160  26.440  56.173  1.00  0.00     0.282 C 
HETATM    3  C5  UNL     1      36.931  25.547  55.867  1.00  0.00     0.074 C 
HETATM    4  C6  UNL     1      35.722  26.384  55.624  1.00  0.00     0.017 C 
HETATM    5  C7  UNL     1      37.444  24.830  54.633  1.00  0.00     0.195 C 
HETATM    6  C8  UNL     1      38.867  24.524  55.136  1.00  0.00     0.341 C 
HETATM    7  O2  UNL     1      37.476  25.704  53.577  1.00  0.00    -0.351 OA
HETATM    8  C9  UNL     1      36.952  25.006  52.466  1.00  0.00     0.198 C 
HETATM    9  C10 UNL     1      37.122  23.570  52.933  1.00  0.00     0.198 C 
HETATM   10  O3  UNL     1      36.743  23.708  54.289  1.00  0.00    -0.351 OA
ENDROOT
BRANCH   1  11
HETATM   11  C3  UNL     1      40.542  25.871  56.085  1.00  0.00     0.303 C 
BRANCH  11  12
HETATM   12  C2  UNL     1      41.539  26.755  55.395  1.00  0.00     0.142 C 
HETATM   13  C1  UNL     1      42.939  26.302  55.616  1.00  0.00     0.041 C 
BRANCH  12  14
HETATM   14  O1  UNL     1      41.338  28.111  55.744  1.00  0.00    -0.394 OA
ATOM     15  H1  UNL     1      40.421  28.332  55.855  1.00  0.00     0.210 HD
ENDBRANCH  12  14
ENDBRANCH  11  12
ENDBRANCH   1  11
TORSDOF 3
ENDMDL
MODEL 2
REMARK VINA RESULT: -5.442245792      1.235      2.455
REMARK  3 active torsions:
REMARK  status: ('A' for Active; 'I' for Inactive)
REMARK    1  A    between atoms: C2_2  and  O1_3 
REMARK    2  A    between atoms: C2_2  and  C3_5 
REMARK    3  A    between atoms: C3_5  and  N1_6 
ROOT
HETATM    1  N1  UNL     1      39.978  25.407  56.075  1.00  0.00     0.096 N 
HETATM    2  C4  UNL     1      40.215  24.451  55.074  1.00  0.00     0.282 C 
HETATM    3  C5  UNL     1      39.037  24.563  54.074  1.00  0.00     0.074 C 
HETATM    4  C6  UNL     1      38.620  23.212  53.601  1.00  0.00     0.017 C 
HETATM    5  C7  UNL     1      38.017  25.247  54.963  1.00  0.00     0.195 C 
HETATM    6  C8  UNL     1      38.953  26.287  55.606  1.00  0.00     0.341 C 
HETATM    7  O2  UNL     1      37.559  24.358  55.901  1.00  0.00    -0.351 OA
HETATM    8  C9  UNL     1      36.158  24.531  55.964  1.00  0.00     0.198 C 
HETATM    9  C10 UNL     1      36.020  25.914  55.351  1.00  0.00     0.198 C 
HETATM   10  O3  UNL     1      36.963  25.810  54.301  1.00  0.00    -0.351 OA
ENDROOT
BRANCH   1  11
HETATM   11  C3  UNL     1      41.030  26.104  56.690  1.00  0.00     0.303 C 
BRANCH  11  12
HETATM   12  C2  UNL     1      41.949  26.852  55.770  1.00  0.00     0.142 C 
HETATM   13  C1  UNL     1      43.382  26.572  56.058  1.00  0.00     0.041 C 
BRANCH  12  14
HETATM   14  O1  UNL     1      41.649  28.234  55.772  1.00  0.00    -0.394 OA
ATOM     15  H1  UNL     1      40.833  28.435  55.328  1.00  0.00     0.210 HD
ENDBRANCH  12  14
ENDBRANCH  11  12
ENDBRANCH   1  11
TORSDOF 3
ENDMDL
MODEL 3
REMARK VINA RESULT: -5.283323080      1.504      1.962
REMARK  3 active torsions:
REMARK  status: ('A' for Active; 'I' for Inactive)
REMARK    1  A    between atoms: C2_2  and  O1_3 
REMARK    2  A    between atoms: C2_2  and  C3_5 
REMARK    3  A    between atoms: C3_5  and  N1_6 
ROOT
HETATM    1  N1  UNL     1      37.312  25.757  55.230  1.00  0.00     0.096 N 
HETATM    2  C4  UNL     1      36.059  26.270  55.604  1.00  0.00     0.282 C 
HETATM    3  C5  UNL     1      34.997  25.398  54.889  1.00  0.00     0.074 C 
HETATM    4  C6  UNL     1      33.867  26.240  54.405  1.00  0.00     0.017 C 
HETATM    5  C7  UNL     1      35.854  24.818  53.781  1.00  0.00     0.195 C 
HETATM    6  C8  UNL     1      37.098  24.480  54.623  1.00  0.00     0.341 C 
HETATM    7  O2  UNL     1      36.138  25.797  52.863  1.00  0.00    -0.351 OA
HETATM    8  C9  UNL     1      35.964  25.210  51.589  1.00  0.00     0.198 C 
HETATM    9  C10 UNL     1      36.059  23.737  51.944  1.00  0.00     0.198 C 
HETATM   10  O3  UNL     1      35.320  23.730  53.151  1.00  0.00    -0.351 OA
ENDROOT
BRANCH   1  11
HETATM   11  C3  UNL     1      38.397  25.743  56.120  1.00  0.00     0.303 C 
BRANCH  11  12
HETATM   12  C2  UNL     1      39.500  26.717  55.828  1.00  0.00     0.142 C 
HETATM   13  C1  UNL     1      40.791  26.303  56.438  1.00  0.00     0.041 C 
BRANCH  12  14
HETATM   14  O1  UNL     1      39.120  28.032  56.184  1.00  0.00    -0.394 OA
ATOM     15  H1  UNL     1      38.788  28.092  57.073  1.00  0.00     0.210 HD
ENDBRANCH  12  14
ENDBRANCH  11  12
ENDBRANCH   1  11
TORSDOF 3
ENDMDL
MODEL 4
REMARK VINA RESULT: -5.110270039      1.855      3.063
REMARK  3 active torsions:
REMARK  status: ('A' for Active; 'I' for Inactive)
REMARK    1  A    between atoms: C2_2  and  O1_3 
REMARK    2  A    between atoms: C2_2  and  C3_5 
REMARK    3  A    between atoms: C3_5  and  N1_6 
ROOT
HETATM    1  N1  UNL     1      37.317  25.406  55.539  1.00  0.00     0.096 N 
HETATM    2  C4  UNL     1      37.603  25.120  54.194  1.00  0.00     0.282 C 
HETATM    3  C5  UNL     1      36.354  25.542  53.381  1.00  0.00     0.074 C 
HETATM    4  C6  UNL     1      36.081  24.562  52.292  1.00  0.00     0.017 C 
HETATM    5  C7  UNL     1      35.320  25.537  54.490  1.00  0.00     0.195 C 
HETATM    6  C8  UNL     1      36.158  26.242  55.572  1.00  0.00     0.341 C 
HETATM    7  O2  UNL     1      35.046  24.243  54.852  1.00  0.00    -0.351 OA
HETATM    8  C9  UNL     1      33.642  24.156  54.988  1.00  0.00     0.198 C 
HETATM    9  C10 UNL     1      33.286  25.624  55.152  1.00  0.00     0.198 C 
HETATM   10  O3  UNL     1      34.159  26.194  54.196  1.00  0.00    -0.351 OA
ENDROOT
BRANCH   1  11
HETATM   11  C3  UNL     1      38.312  25.848  56.425  1.00  0.00     0.303 C 
BRANCH  11  12
HETATM   12  C2  UNL     1      39.359  26.749  55.840  1.00  0.00     0.142 C 
HETATM   13  C1  UNL     1      40.736  26.322  56.207  1.00  0.00     0.041 C 
BRANCH  12  14
HETATM   14  O1  UNL     1      39.099  28.101  56.162  1.00  0.00    -0.394 OA
ATOM     15  H1  UNL     1      39.659  28.708  55.692  1.00  0.00     0.210 HD
ENDBRANCH  12  14
ENDBRANCH  11  12
ENDBRANCH   1  11
TORSDOF 3
ENDMDL
MODEL 5
REMARK VINA RESULT: -5.105520745      1.301      1.476
REMARK  3 active torsions:
REMARK  status: ('A' for Active; 'I' for Inactive)
REMARK    1  A    between atoms: C2_2  and  O1_3 
REMARK    2  A    between atoms: C2_2  and  C3_5 
REMARK    3  A    between atoms: C3_5  and  N1_6 
ROOT
HETATM    1  N1  UNL     1      40.534  25.635  55.166  1.00  0.00     0.096 N 
HETATM    2  C4  UNL     1      39.892  26.531  56.036  1.00  0.00     0.282 C 
HETATM    3  C5  UNL     1      38.470  25.965  56.278  1.00  0.00     0.074 C 
HETATM    4  C6  UNL     1      37.466  27.065  56.318  1.00  0.00     0.017 C 
HETATM    5  C7  UNL     1      38.350  25.063  55.065  1.00  0.00     0.195 C 
HETATM    6  C8  UNL     1      39.756  24.437  55.120  1.00  0.00     0.341 C 
HETATM    7  O2  UNL     1      38.202  25.830  53.938  1.00  0.00    -0.351 OA
HETATM    8  C9  UNL     1      37.184  25.220  53.172  1.00  0.00     0.198 C 
HETATM    9  C10 UNL     1      37.189  23.821  53.764  1.00  0.00     0.198 C 
HETATM   10  O3  UNL     1      37.346  24.138  55.134  1.00  0.00    -0.351 OA
ENDROOT
BRANCH   1  11
HETATM   11  C3  UNL     1      41.908  25.368  55.269  1.00  0.00     0.303 C 
BRANCH  11  12
HETATM   12  C2  UNL     1      42.784  26.543  55.594  1.00  0.00     0.142 C 
HETATM   13  C1  UNL     1      43.938  26.656  54.663  1.00  0.00     0.041 C 
BRANCH  12  14
HETATM   14  O1  UNL     1      43.173  26.522  56.953  1.00  0.00    -0.394 OA
ATOM     15  H1  UNL     1      43.768  25.809  57.156  1.00  0.00     0.210 HD
ENDBRANCH  12  14
ENDBRANCH  11  12
ENDBRANCH   1  11
TORSDOF 3
ENDMDL
