MODEL 1
REMARK VINA RESULT: -9.505119378      0.000      0.000
REMARK  6 active torsions:
REMARK  status: ('A' for Active; 'I' for Inactive)
REMARK    1  A    between atoms: C2_2  and  C11_21 
REMARK    2  A    between atoms: N1_3  and  N2_5 
REMARK    3  A    between atoms: N2_5  and  C3_7 
REMARK    4  A    between atoms: C3_7  and  N3_9 
REMARK    5  A    between atoms: N3_9  and  N4_11 
REMARK    6  A    between atoms: N4_11  and  C4_13 
ROOT
HETATM    1  C4  UNL     1     -22.805   8.825   8.754  1.00  0.00     0.048 A 
HETATM    2  C5  UNL     1     -22.021   7.698   8.659  1.00  0.00     0.032 A 
HETATM    3  C6  UNL     1     -22.501   6.515   8.100  1.00  0.00     0.025 A 
HETATM    4  C7  UNL     1     -23.790   6.459   7.626  1.00  0.00     0.044 A 
HETATM    5  C8  UNL     1     -24.280   5.234   7.052  1.00  0.00     0.099 C 
HETATM    6  N5  UNL     1     -24.688   4.245   6.586  1.00  0.00    -0.191 NA
HETATM    7  C9  UNL     1     -24.567   7.589   7.725  1.00  0.00     0.025 A 
HETATM    8  C10 UNL     1     -24.083   8.769   8.284  1.00  0.00     0.032 A 
ENDROOT
BRANCH   1   9
HETATM    9  N4  UNL     1     -22.281  10.007   9.344  1.00  0.00    -0.299 N 
ATOM     10  H4  UNL     1     -22.792  10.889   9.324  1.00  0.00     0.187 HD
BRANCH   9  11
HETATM   11  N3  UNL     1     -21.032   9.895   9.953  1.00  0.00    -0.275 N 
ATOM     12  H3  UNL     1     -20.223  10.375   9.559  1.00  0.00     0.189 HD
BRANCH  11  13
HETATM   13  C3  UNL     1     -20.897   9.114  11.117  1.00  0.00     0.205 C 
HETATM   14  S1  UNL     1     -19.479   8.409  11.463  1.00  0.00    -0.038 SA
BRANCH  13  15
HETATM   15  N2  UNL     1     -22.016   8.963  11.974  1.00  0.00    -0.275 N 
ATOM     16  H2  UNL     1     -22.354   9.768  12.500  1.00  0.00     0.189 HD
BRANCH  15  17
HETATM   17  N1  UNL     1     -22.650   7.764  12.112  1.00  0.00    -0.302 N 
HETATM   18  C2  UNL     1     -23.960   7.700  12.033  1.00  0.00     0.034 C 
HETATM   19  C1  UNL     1     -24.670   8.947  11.790  1.00  0.00     0.070 C 
ATOM     20  H1  UNL     1     -22.107   6.916  12.276  1.00  0.00     0.186 HD
BRANCH  18  21
HETATM   21  C11 UNL     1     -24.529   6.377  12.237  1.00  0.00     0.011 A 
HETATM   22  C12 UNL     1     -24.894   5.592  11.143  1.00  0.00     0.039 A 
HETATM   23  C13 UNL     1     -25.420   4.329  11.264  1.00  0.00     0.067 A 
HETATM   24  C14 UNL     1     -25.792   3.526  10.138  1.00  0.00     0.101 C 
HETATM   25  C15 UNL     1     -25.580   3.850  12.541  1.00  0.00     0.056 A 
HETATM   26  N6  UNL     1     -26.076   2.866   9.239  1.00  0.00    -0.191 NA
HETATM   27 CL1  UNL     1     -26.241   2.241  12.732  1.00  0.00    -0.083 Cl
HETATM   28  C16 UNL     1     -25.235   4.591  13.635  1.00  0.00     0.050 A 
HETATM   29  C17 UNL     1     -24.702   5.869  13.494  1.00  0.00     0.048 A 
HETATM   30 CL2  UNL     1     -24.296   6.717  14.972  1.00  0.00    -0.083 Cl
ENDBRANCH  18  21
ENDBRANCH  15  17
ENDBRANCH  13  15
ENDBRANCH  11  13
ENDBRANCH   9  11
ENDBRANCH   1   9
TORSDOF 6
ENDMDL
MODEL 2
REMARK VINA RESULT: -9.011414672      3.896      6.690
REMARK  6 active torsions:
REMARK  status: ('A' for Active; 'I' for Inactive)
REMARK    1  A    between atoms: C2_2  and  C11_21 
REMARK    2  A    between atoms: N1_3  and  N2_5 
REMARK    3  A    between atoms: N2_5  and  C3_7 
REMARK    4  A    between atoms: C3_7  and  N3_9 
REMARK    5  A    between atoms: N3_9  and  N4_11 
REMARK    6  A    between atoms: N4_11  and  C4_13 
ROOT
HETATM    1  C4  UNL     1     -24.769   8.869  10.481  1.00  0.00     0.048 A 
HETATM    2  C5  UNL     1     -24.571   9.137   9.146  1.00  0.00     0.032 A 
HETATM    3  C6  UNL     1     -24.263   8.131   8.233  1.00  0.00     0.025 A 
HETATM    4  C7  UNL     1     -24.150   6.830   8.664  1.00  0.00     0.044 A 
HETATM    5  C8  UNL     1     -23.830   5.797   7.716  1.00  0.00     0.099 C 
HETATM    6  N5  UNL     1     -23.568   4.951   6.957  1.00  0.00    -0.191 NA
HETATM    7  C9  UNL     1     -24.349   6.571  10.000  1.00  0.00     0.025 A 
HETATM    8  C10 UNL     1     -24.658   7.580  10.909  1.00  0.00     0.032 A 
ENDROOT
BRANCH   1   9
HETATM    9  N4  UNL     1     -25.068   9.927  11.382  1.00  0.00    -0.299 N 
ATOM     10  H4  UNL     1     -25.818   9.851  12.069  1.00  0.00     0.187 HD
BRANCH   9  11
HETATM   11  N3  UNL     1     -24.282  11.073  11.275  1.00  0.00    -0.275 N 
ATOM     12  H3  UNL     1     -24.545  11.819  10.631  1.00  0.00     0.189 HD
BRANCH  11  13
HETATM   13  C3  UNL     1     -23.123  11.193  12.065  1.00  0.00     0.205 C 
HETATM   14  S1  UNL     1     -22.775  12.600  12.791  1.00  0.00    -0.038 SA
BRANCH  13  15
HETATM   15  N2  UNL     1     -22.276  10.065  12.216  1.00  0.00    -0.275 N 
ATOM     16  H2  UNL     1     -22.546   9.322  12.860  1.00  0.00     0.189 HD
BRANCH  15  17
HETATM   17  N1  UNL     1     -21.111   9.952  11.519  1.00  0.00    -0.302 N 
HETATM   18  C2  UNL     1     -20.517   8.786  11.414  1.00  0.00     0.034 C 
HETATM   19  C1  UNL     1     -21.164   7.654  12.062  1.00  0.00     0.070 C 
ATOM     20  H1  UNL     1     -20.699  10.775  11.078  1.00  0.00     0.186 HD
BRANCH  18  21
HETATM   21  C11 UNL     1     -19.259   8.794  10.684  1.00  0.00     0.011 A 
HETATM   22  C12 UNL     1     -18.132   9.407  11.229  1.00  0.00     0.039 A 
HETATM   23  C13 UNL     1     -16.910   9.436  10.601  1.00  0.00     0.067 A 
HETATM   24  C14 UNL     1     -15.755  10.066  11.165  1.00  0.00     0.101 C 
HETATM   25  C15 UNL     1     -16.836   8.819   9.376  1.00  0.00     0.056 A 
HETATM   26  N6  UNL     1     -14.817  10.554  11.619  1.00  0.00    -0.191 NA
HETATM   27 CL1  UNL     1     -15.293   8.831   8.550  1.00  0.00    -0.083 Cl
HETATM   28  C16 UNL     1     -17.919   8.209   8.810  1.00  0.00     0.050 A 
HETATM   29  C17 UNL     1     -19.149   8.189   9.462  1.00  0.00     0.048 A 
HETATM   30 CL2  UNL     1     -20.460   7.373   8.636  1.00  0.00    -0.083 Cl
ENDBRANCH  18  21
ENDBRANCH  15  17
ENDBRANCH  13  15
ENDBRANCH  11  13
ENDBRANCH   9  11
ENDBRANCH   1   9
TORSDOF 6
ENDMDL
MODEL 3
REMARK VINA RESULT: -8.908192129      3.535      7.434
REMARK  6 active torsions:
REMARK  status: ('A' for Active; 'I' for Inactive)
REMARK    1  A    between atoms: C2_2  and  C11_21 
REMARK    2  A    between atoms: N1_3  and  N2_5 
REMARK    3  A    between atoms: N2_5  and  C3_7 
REMARK    4  A    between atoms: C3_7  and  N3_9 
REMARK    5  A    between atoms: N3_9  and  N4_11 
REMARK    6  A    between atoms: N4_11  and  C4_13 
ROOT
HETATM    1  C4  UNL     1     -24.935   5.733  11.558  1.00  0.00     0.048 A 
HETATM    2  C5  UNL     1     -24.751   5.872  12.915  1.00  0.00     0.032 A 
HETATM    3  C6  UNL     1     -25.047   4.840  13.804  1.00  0.00     0.025 A 
HETATM    4  C7  UNL     1     -25.535   3.647  13.327  1.00  0.00     0.044 A 
HETATM    5  C8  UNL     1     -25.839   2.587  14.251  1.00  0.00     0.099 C 
HETATM    6  N5  UNL     1     -26.091   1.722  14.991  1.00  0.00    -0.191 NA
HETATM    7  C9  UNL     1     -25.716   3.517  11.970  1.00  0.00     0.025 A 
HETATM    8  C10 UNL     1     -25.419   4.550  11.085  1.00  0.00     0.032 A 
ENDROOT
BRANCH   1   9
HETATM    9  N4  UNL     1     -24.635   6.815  10.686  1.00  0.00    -0.299 N 
ATOM     10  H4  UNL     1     -24.768   7.786  10.969  1.00  0.00     0.187 HD
BRANCH   9  11
HETATM   11  N3  UNL     1     -24.148   6.478   9.425  1.00  0.00    -0.275 N 
ATOM     12  H3  UNL     1     -24.293   5.541   9.050  1.00  0.00     0.189 HD
BRANCH  11  13
HETATM   13  C3  UNL     1     -23.452   7.443   8.672  1.00  0.00     0.205 C 
HETATM   14  S1  UNL     1     -24.256   8.411   7.649  1.00  0.00    -0.038 SA
BRANCH  13  15
HETATM   15  N2  UNL     1     -22.047   7.554   8.828  1.00  0.00    -0.275 N 
ATOM     16  H2  UNL     1     -21.450   6.784   8.528  1.00  0.00     0.189 HD
BRANCH  15  17
HETATM   17  N1  UNL     1     -21.477   8.667   9.370  1.00  0.00    -0.302 N 
HETATM   18  C2  UNL     1     -21.048   8.648  10.612  1.00  0.00     0.034 C 
HETATM   19  C1  UNL     1     -21.208   7.403  11.348  1.00  0.00     0.070 C 
ATOM     20  H1  UNL     1     -21.382   9.515   8.811  1.00  0.00     0.186 HD
BRANCH  18  21
HETATM   21  C11 UNL     1     -20.496   9.904  11.096  1.00  0.00     0.011 A 
HETATM   22  C12 UNL     1     -19.120  10.048  11.266  1.00  0.00     0.039 A 
HETATM   23  C13 UNL     1     -18.532  11.211  11.702  1.00  0.00     0.067 A 
HETATM   24  C14 UNL     1     -17.117  11.355  11.874  1.00  0.00     0.101 C 
HETATM   25  C15 UNL     1     -19.375  12.260  11.975  1.00  0.00     0.056 A 
HETATM   26  N6  UNL     1     -15.981  11.487  11.997  1.00  0.00    -0.191 NA
HETATM   27 CL1  UNL     1     -18.659  13.759  12.527  1.00  0.00    -0.083 Cl
HETATM   28  C16 UNL     1     -20.727  12.155  11.821  1.00  0.00     0.050 A 
HETATM   29  C17 UNL     1     -21.306  10.969  11.376  1.00  0.00     0.048 A 
HETATM   30 CL2  UNL     1     -23.050  10.960  11.217  1.00  0.00    -0.083 Cl
ENDBRANCH  18  21
ENDBRANCH  15  17
ENDBRANCH  13  15
ENDBRANCH  11  13
ENDBRANCH   9  11
ENDBRANCH   1   9
TORSDOF 6
ENDMDL
MODEL 4
REMARK VINA RESULT: -8.852873440      3.396      7.167
REMARK  6 active torsions:
REMARK  status: ('A' for Active; 'I' for Inactive)
REMARK    1  A    between atoms: C2_2  and  C11_21 
REMARK    2  A    between atoms: N1_3  and  N2_5 
REMARK    3  A    between atoms: N2_5  and  C3_7 
REMARK    4  A    between atoms: C3_7  and  N3_9 
REMARK    5  A    between atoms: N3_9  and  N4_11 
REMARK    6  A    between atoms: N4_11  and  C4_13 
ROOT
HETATM    1  C4  UNL     1     -25.666   3.959  11.112  1.00  0.00     0.048 A 
HETATM    2  C5  UNL     1     -25.136   4.478  12.271  1.00  0.00     0.032 A 
HETATM    3  C6  UNL     1     -25.486   3.980  13.525  1.00  0.00     0.025 A 
HETATM    4  C7  UNL     1     -26.382   2.943  13.621  1.00  0.00     0.044 A 
HETATM    5  C8  UNL     1     -26.740   2.435  14.919  1.00  0.00     0.099 C 
HETATM    6  N5  UNL     1     -27.039   2.017  15.966  1.00  0.00    -0.191 NA
HETATM    7  C9  UNL     1     -26.908   2.430  12.458  1.00  0.00     0.025 A 
HETATM    8  C10 UNL     1     -26.555   2.930  11.207  1.00  0.00     0.032 A 
ENDROOT
BRANCH   1   9
HETATM    9  N4  UNL     1     -25.293   4.505   9.854  1.00  0.00    -0.299 N 
ATOM     10  H4  UNL     1     -25.761   4.231   8.990  1.00  0.00     0.187 HD
BRANCH   9  11
HETATM   11  N3  UNL     1     -24.255   5.434   9.864  1.00  0.00    -0.275 N 
ATOM     12  H3  UNL     1     -23.591   5.456  10.638  1.00  0.00     0.189 HD
BRANCH  11  13
HETATM   13  C3  UNL     1     -24.130   6.343   8.796  1.00  0.00     0.205 C 
HETATM   14  S1  UNL     1     -23.901   5.798   7.286  1.00  0.00    -0.038 SA
BRANCH  13  15
HETATM   15  N2  UNL     1     -24.212   7.733   9.064  1.00  0.00    -0.275 N 
ATOM     16  H2  UNL     1     -25.104   8.213   8.943  1.00  0.00     0.189 HD
BRANCH  15  17
HETATM   17  N1  UNL     1     -23.126   8.443   9.481  1.00  0.00    -0.302 N 
HETATM   18  C2  UNL     1     -23.061   8.880  10.718  1.00  0.00     0.034 C 
HETATM   19  C1  UNL     1     -24.182   8.563  11.591  1.00  0.00     0.070 C 
ATOM     20  H1  UNL     1     -22.363   8.635   8.833  1.00  0.00     0.186 HD
BRANCH  18  21
HETATM   21  C11 UNL     1     -21.876   9.660  11.039  1.00  0.00     0.011 A 
HETATM   22  C12 UNL     1     -20.606   9.102  10.895  1.00  0.00     0.039 A 
HETATM   23  C13 UNL     1     -19.446   9.789  11.163  1.00  0.00     0.067 A 
HETATM   24  C14 UNL     1     -18.144   9.213  11.012  1.00  0.00     0.101 C 
HETATM   25  C15 UNL     1     -19.586  11.085  11.592  1.00  0.00     0.056 A 
HETATM   26  N6  UNL     1     -17.093   8.764  10.876  1.00  0.00    -0.191 NA
HETATM   27 CL1  UNL     1     -18.129  11.992  11.937  1.00  0.00    -0.083 Cl
HETATM   28  C16 UNL     1     -20.813  11.664  11.746  1.00  0.00     0.050 A 
HETATM   29  C17 UNL     1     -21.978  10.953  11.469  1.00  0.00     0.048 A 
HETATM   30 CL2  UNL     1     -23.490  11.806  11.702  1.00  0.00    -0.083 Cl
ENDBRANCH  18  21
ENDBRANCH  15  17
ENDBRANCH  13  15
ENDBRANCH  11  13
ENDBRANCH   9  11
ENDBRANCH   1   9
TORSDOF 6
ENDMDL
MODEL 5
REMARK VINA RESULT: -8.836204715      3.533      7.433
REMARK  6 active torsions:
REMARK  status: ('A' for Active; 'I' for Inactive)
REMARK    1  A    between atoms: C2_2  and  C11_21 
REMARK    2  A    between atoms: N1_3  and  N2_5 
REMARK    3  A    between atoms: N2_5  and  C3_7 
REMARK    4  A    between atoms: C3_7  and  N3_9 
REMARK    5  A    between atoms: N3_9  and  N4_11 
REMARK    6  A    between atoms: N4_11  and  C4_13 
ROOT
HETATM    1  C4  UNL     1     -25.202   5.125  10.801  1.00  0.00     0.048 A 
HETATM    2  C5  UNL     1     -25.822   3.901  10.695  1.00  0.00     0.032 A 
HETATM    3  C6  UNL     1     -26.051   3.096  11.809  1.00  0.00     0.025 A 
HETATM    4  C7  UNL     1     -25.654   3.524  13.054  1.00  0.00     0.044 A 
HETATM    5  C8  UNL     1     -25.893   2.687  14.199  1.00  0.00     0.099 C 
HETATM    6  N5  UNL     1     -26.079   2.016  15.134  1.00  0.00    -0.191 NA
HETATM    7  C9  UNL     1     -25.035   4.748  13.151  1.00  0.00     0.025 A 
HETATM    8  C10 UNL     1     -24.807   5.550  12.035  1.00  0.00     0.032 A 
ENDROOT
BRANCH   1   9
HETATM    9  N4  UNL     1     -24.974   5.909   9.637  1.00  0.00    -0.299 N 
ATOM     10  H4  UNL     1     -25.713   6.470   9.214  1.00  0.00     0.187 HD
BRANCH   9  11
HETATM   11  N3  UNL     1     -23.686   5.871   9.107  1.00  0.00    -0.275 N 
ATOM     12  H3  UNL     1     -23.218   4.978   8.954  1.00  0.00     0.189 HD
BRANCH  11  13
HETATM   13  C3  UNL     1     -23.036   7.077   8.782  1.00  0.00     0.205 C 
HETATM   14  S1  UNL     1     -23.870   8.297   8.117  1.00  0.00    -0.038 SA
BRANCH  13  15
HETATM   15  N2  UNL     1     -21.649   7.203   9.051  1.00  0.00    -0.275 N 
ATOM     16  H2  UNL     1     -21.033   6.409   8.878  1.00  0.00     0.189 HD
BRANCH  15  17
HETATM   17  N1  UNL     1     -21.120   8.362   9.535  1.00  0.00    -0.302 N 
HETATM   18  C2  UNL     1     -20.948   8.517  10.828  1.00  0.00     0.034 C 
HETATM   19  C1  UNL     1     -21.338   7.407  11.685  1.00  0.00     0.070 C 
ATOM     20  H1  UNL     1     -20.857   9.109   8.893  1.00  0.00     0.186 HD
BRANCH  18  21
HETATM   21  C11 UNL     1     -20.415   9.809  11.232  1.00  0.00     0.011 A 
HETATM   22  C12 UNL     1     -19.039   9.994  11.359  1.00  0.00     0.039 A 
HETATM   23  C13 UNL     1     -18.470  11.192  11.719  1.00  0.00     0.067 A 
HETATM   24  C14 UNL     1     -17.055  11.378  11.847  1.00  0.00     0.101 C 
HETATM   25  C15 UNL     1     -19.331  12.234  11.958  1.00  0.00     0.056 A 
HETATM   26  N6  UNL     1     -15.920  11.542  11.934  1.00  0.00    -0.191 NA
HETATM   27 CL1  UNL     1     -18.640  13.776  12.413  1.00  0.00    -0.083 Cl
HETATM   28  C16 UNL     1     -20.684  12.089  11.845  1.00  0.00     0.050 A 
HETATM   29  C17 UNL     1     -21.244  10.868  11.477  1.00  0.00     0.048 A 
HETATM   30 CL2  UNL     1     -22.991  10.810  11.363  1.00  0.00    -0.083 Cl
ENDBRANCH  18  21
ENDBRANCH  15  17
ENDBRANCH  13  15
ENDBRANCH  11  13
ENDBRANCH   9  11
ENDBRANCH   1   9
TORSDOF 6
ENDMDL
