MODEL 1
REMARK VINA RESULT: -9.820569491      0.000      0.000
REMARK  4 active torsions:
REMARK  status: ('A' for Active; 'I' for Inactive)
REMARK       I    between atoms: C2_4  and  N2_5 
REMARK       I    between atoms: C2_4  and  N4_9 
REMARK    1  A    between atoms: N4_9  and  C4_11 
REMARK    2  A    between atoms: C7_14  and  S1_15 
REMARK    3  A    between atoms: S1_15  and  O3_18 
REMARK    4  A    between atoms: O3_18  and  C8_19 
ROOT
HETATM    1  C1  UNL     1     -29.235   0.864  19.146  1.00  0.00     0.165 C 
HETATM    2  N1  UNL     1     -30.155   1.916  18.812  1.00  0.00    -0.230 N 
ATOM      3  H1  UNL     1     -31.155   1.790  18.970  1.00  0.00     0.177 HD
HETATM    4  C2  UNL     1     -29.717   3.015  18.313  1.00  0.00     0.687 C 
HETATM    5  N2  UNL     1     -30.677   4.018  18.004  1.00  0.00    -0.126 N 
ATOM      6  H2  UNL     1     -30.443   4.745  17.327  1.00  0.00     0.197 HD
HETATM    7  C3  UNL     1     -31.936   4.025  18.609  1.00  0.00     0.196 C 
HETATM    8  N3  UNL     1     -32.992   4.048  19.115  1.00  0.00    -0.171 NA
HETATM    9  N4  UNL     1     -28.338   3.165  18.105  1.00  0.00    -0.191 N 
ATOM     10  H4  UNL     1     -27.716   3.339  18.894  1.00  0.00     0.184 HD
ENDROOT
BRANCH   9  11
HETATM   11  C4  UNL     1     -27.811   3.072  16.775  1.00  0.00     0.049 A 
HETATM   12  C5  UNL     1     -28.570   2.656  15.702  1.00  0.00     0.031 A 
HETATM   13  C6  UNL     1     -28.023   2.580  14.431  1.00  0.00     0.028 A 
HETATM   14  C7  UNL     1     -26.707   2.913  14.183  1.00  0.00     0.086 A 
HETATM   15  C14 UNL     1     -25.947   3.329  15.256  1.00  0.00     0.028 A 
HETATM   16  C15 UNL     1     -26.498   3.404  16.524  1.00  0.00     0.031 A 
BRANCH  14  17
HETATM   17  S1  UNL     1     -25.988   2.827  12.590  1.00  0.00     0.303 S 
HETATM   18  O1  UNL     1     -26.986   3.308  11.575  1.00  0.00    -0.193 OA
HETATM   19  O2  UNL     1     -25.714   1.378  12.298  1.00  0.00    -0.193 OA
BRANCH  17  20
HETATM   20  O3  UNL     1     -24.565   3.753  12.495  1.00  0.00    -0.227 OA
BRANCH  20  21
HETATM   21  C8  UNL     1     -24.634   4.924  11.723  1.00  0.00     0.111 A 
HETATM   22  C9  UNL     1     -24.740   4.866  10.344  1.00  0.00     0.041 A 
HETATM   23  C10 UNL     1     -24.803   6.047   9.646  1.00  0.00     0.026 A 
HETATM   24  C11 UNL     1     -24.766   7.292  10.263  1.00  0.00     0.035 A 
HETATM   25 CL1  UNL     1     -24.851   8.778   9.311  1.00  0.00    -0.084 Cl
HETATM   26  C12 UNL     1     -24.660   7.343  11.634  1.00  0.00     0.050 A 
HETATM   27  C13 UNL     1     -24.597   6.159  12.337  1.00  0.00     0.070 A 
HETATM   28 CL2  UNL     1     -24.462   6.224  14.086  1.00  0.00    -0.081 Cl
ENDBRANCH  20  21
ENDBRANCH  17  20
ENDBRANCH  14  17
ENDBRANCH   9  11
TORSDOF 4
ENDMDL
MODEL 2
REMARK VINA RESULT: -9.671954361      3.632      5.049
REMARK  4 active torsions:
REMARK  status: ('A' for Active; 'I' for Inactive)
REMARK       I    between atoms: C2_4  and  N2_5 
REMARK       I    between atoms: C2_4  and  N4_9 
REMARK    1  A    between atoms: N4_9  and  C4_11 
REMARK    2  A    between atoms: C7_14  and  S1_15 
REMARK    3  A    between atoms: S1_15  and  O3_18 
REMARK    4  A    between atoms: O3_18  and  C8_19 
ROOT
HETATM    1  C1  UNL     1     -26.585   3.827  17.079  1.00  0.00     0.165 C 
HETATM    2  N1  UNL     1     -25.771   2.666  16.848  1.00  0.00    -0.230 N 
ATOM      3  H1  UNL     1     -25.145   2.327  17.579  1.00  0.00     0.177 HD
HETATM    4  C2  UNL     1     -25.831   2.055  15.720  1.00  0.00     0.687 C 
HETATM    5  N2  UNL     1     -25.002   0.911  15.554  1.00  0.00    -0.126 N 
ATOM      6  H2  UNL     1     -24.765   0.597  14.613  1.00  0.00     0.197 HD
HETATM    7  C3  UNL     1     -24.505   0.212  16.656  1.00  0.00     0.196 C 
HETATM    8  N3  UNL     1     -24.088  -0.390  17.571  1.00  0.00    -0.171 NA
HETATM    9  N4  UNL     1     -26.700   2.539  14.731  1.00  0.00    -0.191 N 
ATOM     10  H4  UNL     1     -27.704   2.382  14.808  1.00  0.00     0.184 HD
ENDROOT
BRANCH   9  11
HETATM   11  C4  UNL     1     -26.164   3.256  13.612  1.00  0.00     0.049 A 
HETATM   12  C5  UNL     1     -26.380   2.866  12.307  1.00  0.00     0.031 A 
HETATM   13  C6  UNL     1     -25.845   3.587  11.251  1.00  0.00     0.028 A 
HETATM   14  C7  UNL     1     -25.079   4.715  11.454  1.00  0.00     0.086 A 
HETATM   15  C14 UNL     1     -24.862   5.107  12.759  1.00  0.00     0.028 A 
HETATM   16  C15 UNL     1     -25.399   4.384  13.811  1.00  0.00     0.031 A 
BRANCH  14  17
HETATM   17  S1  UNL     1     -24.389   5.646  10.142  1.00  0.00     0.303 S 
HETATM   18  O1  UNL     1     -24.781   5.016   8.836  1.00  0.00    -0.193 OA
HETATM   19  O2  UNL     1     -22.894   5.546  10.258  1.00  0.00    -0.193 OA
BRANCH  17  20
HETATM   20  O3  UNL     1     -24.902   7.266  10.187  1.00  0.00    -0.227 OA
BRANCH  20  21
HETATM   21  C8  UNL     1     -23.901   8.232  10.378  1.00  0.00     0.111 A 
HETATM   22  C9  UNL     1     -23.311   8.416  11.616  1.00  0.00     0.041 A 
HETATM   23  C10 UNL     1     -22.337   9.377  11.737  1.00  0.00     0.026 A 
HETATM   24  C11 UNL     1     -21.922  10.169  10.674  1.00  0.00     0.035 A 
HETATM   25 CL1  UNL     1     -20.664  11.391  10.891  1.00  0.00    -0.084 Cl
HETATM   26  C12 UNL     1     -22.512   9.983   9.445  1.00  0.00     0.050 A 
HETATM   27  C13 UNL     1     -23.490   9.018   9.320  1.00  0.00     0.070 A 
HETATM   28 CL2  UNL     1     -24.243   8.780   7.754  1.00  0.00    -0.081 Cl
ENDBRANCH  20  21
ENDBRANCH  17  20
ENDBRANCH  14  17
ENDBRANCH   9  11
TORSDOF 4
ENDMDL
MODEL 3
REMARK VINA RESULT: -9.488701090      2.459      3.762
REMARK  4 active torsions:
REMARK  status: ('A' for Active; 'I' for Inactive)
REMARK       I    between atoms: C2_4  and  N2_5 
REMARK       I    between atoms: C2_4  and  N4_9 
REMARK    1  A    between atoms: N4_9  and  C4_11 
REMARK    2  A    between atoms: C7_14  and  S1_15 
REMARK    3  A    between atoms: S1_15  and  O3_18 
REMARK    4  A    between atoms: O3_18  and  C8_19 
ROOT
HETATM    1  C1  UNL     1     -25.915   1.267  17.039  1.00  0.00     0.165 C 
HETATM    2  N1  UNL     1     -27.160   1.984  17.001  1.00  0.00    -0.230 N 
ATOM      3  H1  UNL     1     -28.037   1.495  17.184  1.00  0.00     0.177 HD
HETATM    4  C2  UNL     1     -27.168   3.240  16.735  1.00  0.00     0.687 C 
HETATM    5  N2  UNL     1     -28.431   3.893  16.713  1.00  0.00    -0.126 N 
ATOM      6  H2  UNL     1     -28.533   4.771  16.203  1.00  0.00     0.197 HD
HETATM    7  C3  UNL     1     -29.536   3.353  17.376  1.00  0.00     0.196 C 
HETATM    8  N3  UNL     1     -30.469   2.916  17.934  1.00  0.00    -0.171 NA
HETATM    9  N4  UNL     1     -25.950   3.890  16.487  1.00  0.00    -0.191 N 
ATOM     10  H4  UNL     1     -25.320   4.112  17.258  1.00  0.00     0.184 HD
ENDROOT
BRANCH   9  11
HETATM   11  C4  UNL     1     -25.597   4.238  15.142  1.00  0.00     0.049 A 
HETATM   12  C5  UNL     1     -25.785   3.381  14.078  1.00  0.00     0.031 A 
HETATM   13  C6  UNL     1     -25.431   3.755  12.792  1.00  0.00     0.028 A 
HETATM   14  C7  UNL     1     -24.878   4.990  12.518  1.00  0.00     0.086 A 
HETATM   15  C14 UNL     1     -24.690   5.848  13.582  1.00  0.00     0.028 A 
HETATM   16  C15 UNL     1     -25.046   5.470  14.866  1.00  0.00     0.031 A 
BRANCH  14  17
HETATM   17  S1  UNL     1     -24.420   5.492  10.906  1.00  0.00     0.303 S 
HETATM   18  O1  UNL     1     -25.024   4.543   9.908  1.00  0.00    -0.193 OA
HETATM   19  O2  UNL     1     -22.927   5.361  10.802  1.00  0.00    -0.193 OA
BRANCH  17  20
HETATM   20  O3  UNL     1     -24.923   7.082  10.579  1.00  0.00    -0.227 OA
BRANCH  20  21
HETATM   21  C8  UNL     1     -23.923   8.068  10.598  1.00  0.00     0.111 A 
HETATM   22  C9  UNL     1     -23.132   8.263  11.716  1.00  0.00     0.041 A 
HETATM   23  C10 UNL     1     -22.171   9.244  11.671  1.00  0.00     0.026 A 
HETATM   24  C11 UNL     1     -21.961  10.044  10.554  1.00  0.00     0.035 A 
HETATM   25 CL1  UNL     1     -20.709  11.291  10.556  1.00  0.00    -0.084 Cl
HETATM   26  C12 UNL     1     -22.751   9.846   9.446  1.00  0.00     0.050 A 
HETATM   27  C13 UNL     1     -23.716   8.861   9.488  1.00  0.00     0.070 A 
HETATM   28 CL2  UNL     1     -24.723   8.608   8.074  1.00  0.00    -0.081 Cl
ENDBRANCH  20  21
ENDBRANCH  17  20
ENDBRANCH  14  17
ENDBRANCH   9  11
TORSDOF 4
ENDMDL
MODEL 4
REMARK VINA RESULT: -9.404405191      1.049      1.789
REMARK  4 active torsions:
REMARK  status: ('A' for Active; 'I' for Inactive)
REMARK       I    between atoms: C2_4  and  N2_5 
REMARK       I    between atoms: C2_4  and  N4_9 
REMARK    1  A    between atoms: N4_9  and  C4_11 
REMARK    2  A    between atoms: C7_14  and  S1_15 
REMARK    3  A    between atoms: S1_15  and  O3_18 
REMARK    4  A    between atoms: O3_18  and  C8_19 
ROOT
HETATM    1  C1  UNL     1     -29.069   0.862  18.871  1.00  0.00     0.165 C 
HETATM    2  N1  UNL     1     -29.975   1.932  18.558  1.00  0.00    -0.230 N 
ATOM      3  H1  UNL     1     -30.977   1.816  18.713  1.00  0.00     0.177 HD
HETATM    4  C2  UNL     1     -29.523   3.035  18.080  1.00  0.00     0.687 C 
HETATM    5  N2  UNL     1     -30.470   4.056  17.790  1.00  0.00    -0.126 N 
ATOM      6  H2  UNL     1     -30.227   4.793  17.128  1.00  0.00     0.197 HD
HETATM    7  C3  UNL     1     -31.729   4.067  18.396  1.00  0.00     0.196 C 
HETATM    8  N3  UNL     1     -32.785   4.094  18.902  1.00  0.00    -0.171 NA
HETATM    9  N4  UNL     1     -28.143   3.171  17.875  1.00  0.00    -0.191 N 
ATOM     10  H4  UNL     1     -27.518   3.321  18.667  1.00  0.00     0.184 HD
ENDROOT
BRANCH   9  11
HETATM   11  C4  UNL     1     -27.616   3.097  16.544  1.00  0.00     0.049 A 
HETATM   12  C5  UNL     1     -26.286   3.323  16.257  1.00  0.00     0.031 A 
HETATM   13  C6  UNL     1     -25.815   3.242  14.956  1.00  0.00     0.028 A 
HETATM   14  C7  UNL     1     -26.646   2.935  13.899  1.00  0.00     0.086 A 
HETATM   15  C14 UNL     1     -27.977   2.709  14.184  1.00  0.00     0.028 A 
HETATM   16  C15 UNL     1     -28.443   2.790  15.486  1.00  0.00     0.031 A 
BRANCH  14  17
HETATM   17  S1  UNL     1     -26.083   2.825  12.246  1.00  0.00     0.303 S 
HETATM   18  O1  UNL     1     -27.101   3.455  11.338  1.00  0.00    -0.193 OA
HETATM   19  O2  UNL     1     -26.009   1.366  11.892  1.00  0.00    -0.193 OA
BRANCH  17  20
HETATM   20  O3  UNL     1     -24.574   3.583  12.047  1.00  0.00    -0.227 OA
BRANCH  20  21
HETATM   21  C8  UNL     1     -24.597   4.974  11.852  1.00  0.00     0.111 A 
HETATM   22  C9  UNL     1     -24.464   5.848  12.917  1.00  0.00     0.041 A 
HETATM   23  C10 UNL     1     -24.495   7.196  12.660  1.00  0.00     0.026 A 
HETATM   24  C11 UNL     1     -24.653   7.718  11.382  1.00  0.00     0.035 A 
HETATM   25 CL1  UNL     1     -24.685   9.464  11.114  1.00  0.00    -0.084 Cl
HETATM   26  C12 UNL     1     -24.785   6.845  10.327  1.00  0.00     0.050 A 
HETATM   27  C13 UNL     1     -24.754   5.490  10.582  1.00  0.00     0.070 A 
HETATM   28 CL2  UNL     1     -24.922   4.376   9.237  1.00  0.00    -0.081 Cl
ENDBRANCH  20  21
ENDBRANCH  17  20
ENDBRANCH  14  17
ENDBRANCH   9  11
TORSDOF 4
ENDMDL
MODEL 5
REMARK VINA RESULT: -9.389816112      5.370      8.935
REMARK  4 active torsions:
REMARK  status: ('A' for Active; 'I' for Inactive)
REMARK       I    between atoms: C2_4  and  N2_5 
REMARK       I    between atoms: C2_4  and  N4_9 
REMARK    1  A    between atoms: N4_9  and  C4_11 
REMARK    2  A    between atoms: C7_14  and  S1_15 
REMARK    3  A    between atoms: S1_15  and  O3_18 
REMARK    4  A    between atoms: O3_18  and  C8_19 
ROOT
HETATM    1  C1  UNL     1     -22.302   6.906   8.577  1.00  0.00     0.165 C 
HETATM    2  N1  UNL     1     -22.058   7.801   9.675  1.00  0.00    -0.230 N 
ATOM      3  H1  UNL     1     -21.142   8.234   9.787  1.00  0.00     0.177 HD
HETATM    4  C2  UNL     1     -22.996   8.054  10.515  1.00  0.00     0.687 C 
HETATM    5  N2  UNL     1     -22.693   8.948  11.579  1.00  0.00    -0.126 N 
ATOM      6  H2  UNL     1     -23.260   8.929  12.427  1.00  0.00     0.197 HD
HETATM    7  C3  UNL     1     -21.631   9.851  11.485  1.00  0.00     0.196 C 
HETATM    8  N3  UNL     1     -20.749  10.619  11.416  1.00  0.00    -0.171 NA
HETATM    9  N4  UNL     1     -24.248   7.448  10.339  1.00  0.00    -0.191 N 
ATOM     10  H4  UNL     1     -24.883   7.780   9.613  1.00  0.00     0.184 HD
ENDROOT
BRANCH   9  11
HETATM   11  C4  UNL     1     -24.629   6.356  11.187  1.00  0.00     0.049 A 
HETATM   12  C5  UNL     1     -24.514   6.406  12.560  1.00  0.00     0.031 A 
HETATM   13  C6  UNL     1     -24.894   5.329  13.345  1.00  0.00     0.028 A 
HETATM   14  C7  UNL     1     -25.399   4.169  12.796  1.00  0.00     0.086 A 
HETATM   15  C14 UNL     1     -25.515   4.118  11.422  1.00  0.00     0.028 A 
HETATM   16  C15 UNL     1     -25.135   5.197  10.641  1.00  0.00     0.031 A 
BRANCH  14  17
HETATM   17  S1  UNL     1     -25.887   2.793  13.760  1.00  0.00     0.303 S 
HETATM   18  O1  UNL     1     -24.831   1.728  13.662  1.00  0.00    -0.193 OA
HETATM   19  O2  UNL     1     -27.142   2.238  13.148  1.00  0.00    -0.193 OA
BRANCH  17  20
HETATM   20  O3  UNL     1     -26.133   3.224  15.386  1.00  0.00    -0.227 OA
BRANCH  20  21
HETATM   21  C8  UNL     1     -27.245   2.646  16.022  1.00  0.00     0.111 A 
HETATM   22  C9  UNL     1     -28.502   3.216  15.921  1.00  0.00     0.041 A 
HETATM   23  C10 UNL     1     -29.548   2.603  16.566  1.00  0.00     0.026 A 
HETATM   24  C11 UNL     1     -29.398   1.440  17.312  1.00  0.00     0.035 A 
HETATM   25 CL1  UNL     1     -30.783   0.697  18.120  1.00  0.00    -0.084 Cl
HETATM   26  C12 UNL     1     -28.146   0.879  17.409  1.00  0.00     0.050 A 
HETATM   27  C13 UNL     1     -27.094   1.492  16.762  1.00  0.00     0.070 A 
HETATM   28 CL2  UNL     1     -25.497   0.776  16.885  1.00  0.00    -0.081 Cl
ENDBRANCH  20  21
ENDBRANCH  17  20
ENDBRANCH  14  17
ENDBRANCH   9  11
TORSDOF 4
ENDMDL
