MODEL 1
REMARK VINA RESULT: -4.878429226      0.000      0.000
REMARK  9 active torsions:
REMARK  status: ('A' for Active; 'I' for Inactive)
REMARK    1  A    between atoms: C2_2  and  C3_3 
REMARK    2  A    between atoms: C3_3  and  C4_4 
REMARK    3  A    between atoms: C12_14  and  O2_15 
REMARK    4  A    between atoms: C18_23  and  N3_24 
REMARK    5  A    between atoms: C21_29  and  S1_30 
REMARK    6  A    between atoms: S1_30  and  N4_33 
REMARK    7  A    between atoms: N4_33  and  C23_35 
REMARK    8  A    between atoms: C23_35  and  C24_36 
REMARK    9  A    between atoms: C24_36  and  N5_37 
ROOT
HETATM    1  C3  UNL     1      26.438 -19.047  -3.000  1.00  0.00     0.091 C 
HETATM    2  C6  UNL     1      25.324 -20.006  -3.304  1.00  0.00     0.236 C 
HETATM    3  O1  UNL     1      25.421 -21.243  -3.662  1.00  0.00    -0.272 OA
HETATM    4  N1  UNL     1      24.373 -19.039  -3.042  1.00  0.00    -0.304 N 
HETATM    5  C7  UNL     1      22.981 -18.569  -3.164  1.00  0.00     0.074 C 
HETATM    6  C8  UNL     1      22.755 -17.672  -1.911  1.00  0.00     0.041 C 
HETATM    7  C9  UNL     1      21.239 -17.439  -1.688  1.00  0.00    -0.013 C 
HETATM    8  C10 UNL     1      21.266 -16.470  -0.496  1.00  0.00     0.010 C 
HETATM    9  C11 UNL     1      20.688 -18.725  -1.162  1.00  0.00     0.036 C 
HETATM   10  C12 UNL     1      21.578 -19.906  -1.678  1.00  0.00     0.123 C 
HETATM   11  C14 UNL     1      22.008 -19.587  -3.091  1.00  0.00     0.068 C 
HETATM   12  C15 UNL     1      23.178 -17.580  -4.260  1.00  0.00     0.049 A 
HETATM   13  C16 UNL     1      24.184 -16.691  -4.000  1.00  0.00     0.156 A 
HETATM   14  N2  UNL     1      24.341 -15.630  -4.795  1.00  0.00    -0.334 N 
ATOM     15  H2  UNL     1      25.080 -14.955  -4.597  1.00  0.00     0.168 HD
HETATM   16  C17 UNL     1      23.527 -15.442  -5.866  1.00  0.00     0.081 A 
HETATM   17  C18 UNL     1      23.750 -14.377  -6.705  1.00  0.00     0.130 A 
HETATM   18  C19 UNL     1      22.993 -14.202  -7.849  1.00  0.00     0.040 A 
HETATM   19  C20 UNL     1      22.023 -15.103  -8.124  1.00  0.00     0.028 A 
HETATM   20  C21 UNL     1      21.706 -16.241  -7.328  1.00  0.00     0.089 A 
HETATM   21  C27 UNL     1      22.496 -16.348  -6.181  1.00  0.00     0.043 A 
HETATM   22  C28 UNL     1      22.329 -17.442  -5.338  1.00  0.00     0.053 A 
HETATM   23  N6  UNL     1      21.436 -18.213  -5.563  1.00  0.00    -0.398 N 
ATOM     24  H61 UNL     1      20.808 -18.112  -6.360  1.00  0.00     0.156 HD
ATOM     25  H62 UNL     1      21.314 -19.014  -4.945  1.00  0.00     0.156 HD
HETATM   26  O7  UNL     1      25.111 -16.878  -2.917  1.00  0.00    -0.302 OA
HETATM   27  C29 UNL     1      25.377 -18.195  -2.459  1.00  0.00     0.160 C 
HETATM   28  C30 UNL     1      25.493 -18.123  -0.960  1.00  0.00     0.073 C 
ENDROOT
BRANCH  20  29
HETATM   29  S1  UNL     1      20.649 -17.403  -7.924  1.00  0.00     0.244 S 
HETATM   30  O5  UNL     1      21.389 -18.645  -8.534  1.00  0.00    -0.206 OA
HETATM   31  O6  UNL     1      20.253 -16.880  -9.344  1.00  0.00    -0.206 OA
BRANCH  29  32
HETATM   32  N4  UNL     1      19.083 -17.769  -7.393  1.00  0.00    -0.209 NA
HETATM   33  C22 UNL     1      18.121 -17.232  -8.332  1.00  0.00     0.129 C 
BRANCH  32  34
HETATM   34  C23 UNL     1      19.019 -19.240  -7.494  1.00  0.00     0.126 C 
BRANCH  34  35
HETATM   35  C24 UNL     1      18.447 -19.902  -6.264  1.00  0.00     0.131 C 
BRANCH  35  36
HETATM   36  N5  UNL     1      17.385 -20.742  -6.681  1.00  0.00    -0.420 N 
HETATM   37  C25 UNL     1      17.227 -21.950  -5.950  1.00  0.00     0.142 C 
HETATM   38  C26 UNL     1      16.518 -20.426  -7.701  1.00  0.00     0.142 C 
ENDBRANCH  35  36
ENDBRANCH  34  35
ENDBRANCH  32  34
ENDBRANCH  29  32
ENDBRANCH  20  29
BRANCH  17  39
HETATM   39  N3  UNL     1      24.732 -13.371  -6.464  1.00  0.00    -0.113 N 
HETATM   40  O3  UNL     1      24.525 -12.179  -6.848  1.00  0.00    -0.532 OA
HETATM   41  O4  UNL     1      25.920 -13.595  -5.855  1.00  0.00    -0.532 OA
ENDBRANCH  17  39
BRANCH  10  42
HETATM   42  O2  UNL     1      20.700 -21.020  -1.688  1.00  0.00    -0.391 OA
HETATM   43  C13 UNL     1      19.931 -21.126  -2.820  1.00  0.00     0.202 C 
ENDBRANCH  10  42
BRANCH   1  44
HETATM   44  C2  UNL     1      27.247 -19.790  -1.891  1.00  0.00     0.020 C 
HETATM   45  C1  UNL     1      28.594 -20.168  -2.436  1.00  0.00     0.006 C 
ENDBRANCH   1  44
BRANCH   1  46
HETATM   46  C4  UNL     1      27.373 -18.684  -4.038  1.00  0.00     0.020 C 
HETATM   47  C5  UNL     1      26.992 -18.452  -5.454  1.00  0.00     0.006 C 
ENDBRANCH   1  46
TORSDOF 9
ENDMDL
MODEL 2
REMARK VINA RESULT: -4.828239553      0.972      1.238
REMARK  9 active torsions:
REMARK  status: ('A' for Active; 'I' for Inactive)
REMARK    1  A    between atoms: C2_2  and  C3_3 
REMARK    2  A    between atoms: C3_3  and  C4_4 
REMARK    3  A    between atoms: C12_14  and  O2_15 
REMARK    4  A    between atoms: C18_23  and  N3_24 
REMARK    5  A    between atoms: C21_29  and  S1_30 
REMARK    6  A    between atoms: S1_30  and  N4_33 
REMARK    7  A    between atoms: N4_33  and  C23_35 
REMARK    8  A    between atoms: C23_35  and  C24_36 
REMARK    9  A    between atoms: C24_36  and  N5_37 
ROOT
HETATM    1  C3  UNL     1      26.452 -18.810  -2.818  1.00  0.00     0.091 C 
HETATM    2  C6  UNL     1      25.418 -19.864  -3.095  1.00  0.00     0.236 C 
HETATM    3  O1  UNL     1      25.615 -21.109  -3.375  1.00  0.00    -0.272 OA
HETATM    4  N1  UNL     1      24.394 -18.954  -2.917  1.00  0.00    -0.304 N 
HETATM    5  C7  UNL     1      22.977 -18.595  -3.106  1.00  0.00     0.074 C 
HETATM    6  C8  UNL     1      22.648 -17.645  -1.916  1.00  0.00     0.041 C 
HETATM    7  C9  UNL     1      21.113 -17.510  -1.750  1.00  0.00    -0.013 C 
HETATM    8  C10 UNL     1      21.033 -16.474  -0.617  1.00  0.00     0.010 C 
HETATM    9  C11 UNL     1      20.637 -18.800  -1.163  1.00  0.00     0.036 C 
HETATM   10  C12 UNL     1      21.625 -19.941  -1.583  1.00  0.00     0.123 C 
HETATM   11  C14 UNL     1      22.076 -19.674  -3.000  1.00  0.00     0.068 C 
HETATM   12  C15 UNL     1      23.139 -17.658  -4.253  1.00  0.00     0.049 A 
HETATM   13  C16 UNL     1      24.070 -16.686  -4.019  1.00  0.00     0.156 A 
HETATM   14  N2  UNL     1      24.177 -15.664  -4.872  1.00  0.00    -0.334 N 
ATOM     15  H2  UNL     1      24.860 -14.927  -4.694  1.00  0.00     0.168 HD
HETATM   16  C17 UNL     1      23.386 -15.597  -5.974  1.00  0.00     0.081 A 
HETATM   17  C18 UNL     1      23.560 -14.569  -6.869  1.00  0.00     0.130 A 
HETATM   18  C19 UNL     1      22.830 -14.515  -8.042  1.00  0.00     0.040 A 
HETATM   19  C20 UNL     1      21.936 -15.499  -8.289  1.00  0.00     0.028 A 
HETATM   20  C21 UNL     1      21.674 -16.609  -7.435  1.00  0.00     0.089 A 
HETATM   21  C27 UNL     1      22.433 -16.592  -6.263  1.00  0.00     0.043 A 
HETATM   22  C28 UNL     1      22.316 -17.645  -5.361  1.00  0.00     0.053 A 
HETATM   23  N6  UNL     1      21.488 -18.490  -5.564  1.00  0.00    -0.398 N 
ATOM     24  H61 UNL     1      20.880 -18.481  -6.383  1.00  0.00     0.156 HD
ATOM     25  H62 UNL     1      21.403 -19.261  -4.903  1.00  0.00     0.156 HD
HETATM   26  O7  UNL     1      24.973 -16.742  -2.901  1.00  0.00    -0.302 OA
HETATM   27  C29 UNL     1      25.317 -18.008  -2.359  1.00  0.00     0.160 C 
HETATM   28  C30 UNL     1      25.379 -17.841  -0.864  1.00  0.00     0.073 C 
ENDROOT
BRANCH  20  29
HETATM   29  S1  UNL     1      20.722 -17.877  -7.991  1.00  0.00     0.244 S 
HETATM   30  O5  UNL     1      21.558 -19.153  -8.357  1.00  0.00    -0.206 OA
HETATM   31  O6  UNL     1      20.471 -17.547  -9.499  1.00  0.00    -0.206 OA
BRANCH  29  32
HETATM   32  N4  UNL     1      19.117 -18.239  -7.587  1.00  0.00    -0.209 NA
HETATM   33  C22 UNL     1      19.029 -19.625  -7.174  1.00  0.00     0.129 C 
BRANCH  32  34
HETATM   34  C23 UNL     1      18.865 -17.410  -6.394  1.00  0.00     0.126 C 
BRANCH  34  35
HETATM   35  C24 UNL     1      17.406 -17.329  -6.015  1.00  0.00     0.131 C 
BRANCH  35  36
HETATM   36  N5  UNL     1      17.198 -18.197  -4.914  1.00  0.00    -0.420 N 
HETATM   37  C25 UNL     1      15.956 -18.885  -4.894  1.00  0.00     0.142 C 
HETATM   38  C26 UNL     1      18.132 -18.413  -3.926  1.00  0.00     0.142 C 
ENDBRANCH  35  36
ENDBRANCH  34  35
ENDBRANCH  32  34
ENDBRANCH  29  32
ENDBRANCH  20  29
BRANCH  17  39
HETATM   39  N3  UNL     1      24.460 -13.482  -6.661  1.00  0.00    -0.113 N 
HETATM   40  O3  UNL     1      24.178 -12.330  -7.114  1.00  0.00    -0.532 OA
HETATM   41  O4  UNL     1      25.646 -13.586  -6.015  1.00  0.00    -0.532 OA
ENDBRANCH  17  39
BRANCH  10  42
HETATM   42  O2  UNL     1      20.828 -21.115  -1.550  1.00  0.00    -0.391 OA
HETATM   43  C13 UNL     1      20.040 -21.296  -2.659  1.00  0.00     0.202 C 
ENDBRANCH  10  42
BRANCH   1  44
HETATM   44  C2  UNL     1      27.275 -19.428  -1.644  1.00  0.00     0.020 C 
HETATM   45  C1  UNL     1      28.731 -19.423  -2.010  1.00  0.00     0.006 C 
ENDBRANCH   1  44
BRANCH   1  46
HETATM   46  C4  UNL     1      27.392 -18.441  -3.849  1.00  0.00     0.020 C 
HETATM   47  C5  UNL     1      27.100 -18.516  -5.304  1.00  0.00     0.006 C 
ENDBRANCH   1  46
TORSDOF 9
ENDMDL
MODEL 3
REMARK VINA RESULT: -4.755079362     13.835     18.343
REMARK  9 active torsions:
REMARK  status: ('A' for Active; 'I' for Inactive)
REMARK    1  A    between atoms: C2_2  and  C3_3 
REMARK    2  A    between atoms: C3_3  and  C4_4 
REMARK    3  A    between atoms: C12_14  and  O2_15 
REMARK    4  A    between atoms: C18_23  and  N3_24 
REMARK    5  A    between atoms: C21_29  and  S1_30 
REMARK    6  A    between atoms: S1_30  and  N4_33 
REMARK    7  A    between atoms: N4_33  and  C23_35 
REMARK    8  A    between atoms: C23_35  and  C24_36 
REMARK    9  A    between atoms: C24_36  and  N5_37 
ROOT
HETATM    1  C3  UNL     1       7.509 -24.873 -13.548  1.00  0.00     0.091 C 
HETATM    2  C6  UNL     1       7.212 -26.320 -13.278  1.00  0.00     0.236 C 
HETATM    3  O1  UNL     1       6.068 -26.916 -13.332  1.00  0.00    -0.272 OA
HETATM    4  N1  UNL     1       8.542 -26.578 -13.008  1.00  0.00    -0.304 N 
HETATM    5  C7  UNL     1       9.563 -27.464 -12.421  1.00  0.00     0.074 C 
HETATM    6  C8  UNL     1      10.847 -27.200 -13.263  1.00  0.00     0.041 C 
HETATM    7  C9  UNL     1      11.878 -28.336 -13.034  1.00  0.00    -0.013 C 
HETATM    8  C10 UNL     1      13.066 -27.819 -13.861  1.00  0.00     0.010 C 
HETATM    9  C11 UNL     1      11.357 -29.531 -13.764  1.00  0.00     0.036 C 
HETATM   10  C12 UNL     1       9.795 -29.432 -13.848  1.00  0.00     0.123 C 
HETATM   11  C14 UNL     1       9.292 -28.842 -12.551  1.00  0.00     0.068 C 
HETATM   12  C15 UNL     1       9.818 -26.705 -11.165  1.00  0.00     0.049 A 
HETATM   13  C16 UNL     1      10.098 -25.386 -11.388  1.00  0.00     0.156 A 
HETATM   14  N2  UNL     1      10.542 -24.631 -10.380  1.00  0.00    -0.334 N 
ATOM     15  H2  UNL     1      10.768 -23.650 -10.545  1.00  0.00     0.168 HD
HETATM   16  C17 UNL     1      10.695 -25.158  -9.138  1.00  0.00     0.081 A 
HETATM   17  C18 UNL     1      11.093 -24.345  -8.104  1.00  0.00     0.130 A 
HETATM   18  C19 UNL     1      11.179 -24.829  -6.812  1.00  0.00     0.040 A 
HETATM   19  C20 UNL     1      10.866 -26.125  -6.587  1.00  0.00     0.028 A 
HETATM   20  C21 UNL     1      10.443 -27.055  -7.579  1.00  0.00     0.089 A 
HETATM   21  C27 UNL     1      10.394 -26.506  -8.863  1.00  0.00     0.043 A 
HETATM   22  C28 UNL     1       9.947 -27.289  -9.922  1.00  0.00     0.053 A 
HETATM   23  N6  UNL     1       9.715 -28.450  -9.724  1.00  0.00    -0.398 N 
ATOM     24  H61 UNL     1       9.810 -28.882  -8.805  1.00  0.00     0.156 HD
ATOM     25  H62 UNL     1       9.388 -29.024 -10.501  1.00  0.00     0.156 HD
HETATM   26  O7  UNL     1       9.894 -24.765 -12.670  1.00  0.00    -0.302 OA
HETATM   27  C29 UNL     1       8.910 -25.298 -13.542  1.00  0.00     0.160 C 
HETATM   28  C30 UNL     1       9.473 -25.222 -14.936  1.00  0.00     0.073 C 
ENDROOT
BRANCH  20  29
HETATM   29  S1  UNL     1       9.849 -28.556  -7.112  1.00  0.00     0.244 S 
HETATM   30  O5  UNL     1      10.050 -28.842  -5.582  1.00  0.00    -0.206 OA
HETATM   31  O6  UNL     1      10.981 -29.563  -7.499  1.00  0.00    -0.206 OA
BRANCH  29  32
HETATM   32  N4  UNL     1       8.558 -29.427  -7.777  1.00  0.00    -0.209 NA
HETATM   33  C22 UNL     1       8.748 -30.839  -7.515  1.00  0.00     0.129 C 
BRANCH  32  34
HETATM   34  C23 UNL     1       7.397 -28.986  -6.982  1.00  0.00     0.126 C 
BRANCH  34  35
HETATM   35  C24 UNL     1       6.859 -27.639  -7.399  1.00  0.00     0.131 C 
BRANCH  35  36
HETATM   36  N5  UNL     1       6.083 -27.829  -8.570  1.00  0.00    -0.420 N 
HETATM   37  C25 UNL     1       5.025 -28.770  -8.466  1.00  0.00     0.142 C 
HETATM   38  C26 UNL     1       6.289 -27.137  -9.742  1.00  0.00     0.142 C 
ENDBRANCH  35  36
ENDBRANCH  34  35
ENDBRANCH  32  34
ENDBRANCH  29  32
ENDBRANCH  20  29
BRANCH  17  39
HETATM   39  N3  UNL     1      11.469 -22.979  -8.270  1.00  0.00    -0.113 N 
HETATM   40  O3  UNL     1      12.678 -22.630  -8.102  1.00  0.00    -0.532 OA
HETATM   41  O4  UNL     1      10.607 -21.984  -8.582  1.00  0.00    -0.532 OA
ENDBRANCH  17  39
BRANCH  10  42
HETATM   42  O2  UNL     1       9.371 -30.782 -13.952  1.00  0.00    -0.391 OA
HETATM   43  C13 UNL     1       8.020 -30.965 -13.796  1.00  0.00     0.202 C 
ENDBRANCH  10  42
BRANCH   1  44
HETATM   44  C2  UNL     1       6.942 -24.662 -14.987  1.00  0.00     0.020 C 
HETATM   45  C1  UNL     1       6.504 -23.234 -15.138  1.00  0.00     0.006 C 
ENDBRANCH   1  44
BRANCH   1  46
HETATM   46  C4  UNL     1       6.926 -23.854 -12.707  1.00  0.00     0.020 C 
HETATM   47  C5  UNL     1       5.798 -24.095 -11.772  1.00  0.00     0.006 C 
ENDBRANCH   1  46
TORSDOF 9
ENDMDL
MODEL 4
REMARK VINA RESULT: -4.173945985      4.596      8.566
REMARK  9 active torsions:
REMARK  status: ('A' for Active; 'I' for Inactive)
REMARK    1  A    between atoms: C2_2  and  C3_3 
REMARK    2  A    between atoms: C3_3  and  C4_4 
REMARK    3  A    between atoms: C12_14  and  O2_15 
REMARK    4  A    between atoms: C18_23  and  N3_24 
REMARK    5  A    between atoms: C21_29  and  S1_30 
REMARK    6  A    between atoms: S1_30  and  N4_33 
REMARK    7  A    between atoms: N4_33  and  C23_35 
REMARK    8  A    between atoms: C23_35  and  C24_36 
REMARK    9  A    between atoms: C24_36  and  N5_37 
ROOT
HETATM    1  C3  UNL     1      23.101 -15.680  -6.345  1.00  0.00     0.091 C 
HETATM    2  C6  UNL     1      23.202 -15.995  -4.880  1.00  0.00     0.236 C 
HETATM    3  O1  UNL     1      22.236 -16.166  -4.041  1.00  0.00    -0.272 OA
HETATM    4  N1  UNL     1      24.582 -15.998  -4.941  1.00  0.00    -0.304 N 
HETATM    5  C7  UNL     1      25.878 -15.937  -4.240  1.00  0.00     0.074 C 
HETATM    6  C8  UNL     1      26.859 -16.729  -5.154  1.00  0.00     0.041 C 
HETATM    7  C9  UNL     1      28.143 -17.096  -4.367  1.00  0.00    -0.013 C 
HETATM    8  C10 UNL     1      28.981 -17.761  -5.471  1.00  0.00     0.010 C 
HETATM    9  C11 UNL     1      27.761 -18.191  -3.424  1.00  0.00     0.036 C 
HETATM   10  C12 UNL     1      26.236 -18.059  -3.088  1.00  0.00     0.123 C 
HETATM   11  C14 UNL     1      25.902 -16.589  -2.990  1.00  0.00     0.068 C 
HETATM   12  C15 UNL     1      26.217 -14.515  -4.528  1.00  0.00     0.049 A 
HETATM   13  C16 UNL     1      26.139 -14.209  -5.858  1.00  0.00     0.156 A 
HETATM   14  N2  UNL     1      26.606 -13.034  -6.287  1.00  0.00    -0.334 N 
ATOM     15  H2  UNL     1      26.565 -12.806  -7.280  1.00  0.00     0.168 HD
HETATM   16  C17 UNL     1      27.136 -12.139  -5.412  1.00  0.00     0.081 A 
HETATM   17  C18 UNL     1      27.551 -10.912  -5.869  1.00  0.00     0.130 A 
HETATM   18  C19 UNL     1      28.018  -9.948  -4.996  1.00  0.00     0.040 A 
HETATM   19  C20 UNL     1      28.059 -10.240  -3.676  1.00  0.00     0.028 A 
HETATM   20  C21 UNL     1      27.655 -11.475  -3.092  1.00  0.00     0.089 A 
HETATM   21  C27 UNL     1      27.210 -12.409  -4.032  1.00  0.00     0.043 A 
HETATM   22  C28 UNL     1      26.736 -13.642  -3.596  1.00  0.00     0.053 A 
HETATM   23  N6  UNL     1      26.819 -13.911  -2.429  1.00  0.00    -0.398 N 
ATOM     24  H61 UNL     1      27.202 -13.265  -1.739  1.00  0.00     0.156 HD
ATOM     25  H62 UNL     1      26.471 -14.815  -2.110  1.00  0.00     0.156 HD
HETATM   26  O7  UNL     1      25.531 -15.094  -6.815  1.00  0.00    -0.302 OA
HETATM   27  C29 UNL     1      24.530 -15.998  -6.375  1.00  0.00     0.160 C 
HETATM   28  C30 UNL     1      24.751 -17.290  -7.115  1.00  0.00     0.073 C 
ENDROOT
BRANCH  20  29
HETATM   29  S1  UNL     1      27.528 -11.602  -1.422  1.00  0.00     0.244 S 
HETATM   30  O5  UNL     1      28.282 -10.454  -0.664  1.00  0.00    -0.206 OA
HETATM   31  O6  UNL     1      28.619 -12.649  -1.024  1.00  0.00    -0.206 OA
BRANCH  29  32
HETATM   32  N4  UNL     1      26.261 -12.264  -0.513  1.00  0.00    -0.209 NA
HETATM   33  C22 UNL     1      26.730 -12.546   0.828  1.00  0.00     0.129 C 
BRANCH  32  34
HETATM   34  C23 UNL     1      25.290 -11.158  -0.414  1.00  0.00     0.126 C 
BRANCH  34  35
HETATM   35  C24 UNL     1      25.051 -10.694   1.002  1.00  0.00     0.131 C 
BRANCH  35  36
HETATM   36  N5  UNL     1      24.902  -9.285   0.974  1.00  0.00    -0.420 N 
HETATM   37  C25 UNL     1      26.023  -8.535   1.418  1.00  0.00     0.142 C 
HETATM   38  C26 UNL     1      23.771  -8.646   0.520  1.00  0.00     0.142 C 
ENDBRANCH  35  36
ENDBRANCH  34  35
ENDBRANCH  32  34
ENDBRANCH  29  32
ENDBRANCH  20  29
BRANCH  17  39
HETATM   39  N3  UNL     1      27.566 -10.544  -7.247  1.00  0.00    -0.113 N 
HETATM   40  O3  UNL     1      28.665 -10.261  -7.816  1.00  0.00    -0.532 OA
HETATM   41  O4  UNL     1      26.461 -10.447  -8.023  1.00  0.00    -0.532 OA
ENDBRANCH  17  39
BRANCH  10  42
HETATM   42  O2  UNL     1      26.114 -18.661  -1.809  1.00  0.00    -0.391 OA
HETATM   43  C13 UNL     1      25.943 -17.771  -0.778  1.00  0.00     0.202 C 
ENDBRANCH  10  42
BRANCH   1  44
HETATM   44  C2  UNL     1      22.208 -16.838  -6.892  1.00  0.00     0.020 C 
HETATM   45  C1  UNL     1      20.821 -16.316  -7.132  1.00  0.00     0.006 C 
ENDBRANCH   1  44
BRANCH   1  46
HETATM   46  C4  UNL     1      22.497 -14.440  -6.770  1.00  0.00     0.020 C 
HETATM   47  C5  UNL     1      22.897 -13.699  -7.994  1.00  0.00     0.006 C 
ENDBRANCH   1  46
TORSDOF 9
ENDMDL
MODEL 5
REMARK VINA RESULT: -4.049505806      2.663      6.517
REMARK  9 active torsions:
REMARK  status: ('A' for Active; 'I' for Inactive)
REMARK    1  A    between atoms: C2_2  and  C3_3 
REMARK    2  A    between atoms: C3_3  and  C4_4 
REMARK    3  A    between atoms: C12_14  and  O2_15 
REMARK    4  A    between atoms: C18_23  and  N3_24 
REMARK    5  A    between atoms: C21_29  and  S1_30 
REMARK    6  A    between atoms: S1_30  and  N4_33 
REMARK    7  A    between atoms: N4_33  and  C23_35 
REMARK    8  A    between atoms: C23_35  and  C24_36 
REMARK    9  A    between atoms: C24_36  and  N5_37 
ROOT
HETATM    1  C3  UNL     1      26.539 -17.006   0.511  1.00  0.00     0.091 C 
HETATM    2  C6  UNL     1      26.905 -16.237  -0.725  1.00  0.00     0.236 C 
HETATM    3  O1  UNL     1      27.348 -15.026  -0.801  1.00  0.00    -0.272 OA
HETATM    4  N1  UNL     1      26.578 -17.310  -1.532  1.00  0.00    -0.304 N 
HETATM    5  C7  UNL     1      26.254 -17.831  -2.872  1.00  0.00     0.074 C 
HETATM    6  C8  UNL     1      26.737 -19.312  -2.848  1.00  0.00     0.041 C 
HETATM    7  C9  UNL     1      26.835 -19.864  -4.293  1.00  0.00    -0.013 C 
HETATM    8  C10 UNL     1      27.218 -21.327  -4.020  1.00  0.00     0.010 C 
HETATM    9  C11 UNL     1      28.042 -19.230  -4.905  1.00  0.00     0.036 C 
HETATM   10  C12 UNL     1      28.294 -17.848  -4.212  1.00  0.00     0.123 C 
HETATM   11  C14 UNL     1      26.953 -17.213  -3.929  1.00  0.00     0.068 C 
HETATM   12  C15 UNL     1      24.778 -17.953  -2.709  1.00  0.00     0.049 A 
HETATM   13  C16 UNL     1      24.422 -18.656  -1.593  1.00  0.00     0.156 A 
HETATM   14  N2  UNL     1      23.147 -19.016  -1.425  1.00  0.00    -0.334 N 
ATOM     15  H2  UNL     1      22.878 -19.554  -0.601  1.00  0.00     0.168 HD
HETATM   16  C17 UNL     1      22.205 -18.670  -2.341  1.00  0.00     0.081 A 
HETATM   17  C18 UNL     1      20.890 -18.997  -2.113  1.00  0.00     0.130 A 
HETATM   18  C19 UNL     1      19.895 -18.590  -2.983  1.00  0.00     0.040 A 
HETATM   19  C20 UNL     1      20.245 -17.861  -4.067  1.00  0.00     0.028 A 
HETATM   20  C21 UNL     1      21.573 -17.466  -4.400  1.00  0.00     0.089 A 
HETATM   21  C27 UNL     1      22.528 -17.924  -3.490  1.00  0.00     0.043 A 
HETATM   22  C28 UNL     1      23.862 -17.568  -3.666  1.00  0.00     0.053 A 
HETATM   23  N6  UNL     1      24.172 -16.961  -4.654  1.00  0.00    -0.398 N 
ATOM     24  H61 UNL     1      23.494 -16.676  -5.361  1.00  0.00     0.156 HD
ATOM     25  H62 UNL     1      25.149 -16.700  -4.782  1.00  0.00     0.156 HD
HETATM   26  O7  UNL     1      25.369 -18.993  -0.563  1.00  0.00    -0.302 OA
HETATM   27  C29 UNL     1      26.508 -18.166  -0.381  1.00  0.00     0.160 C 
HETATM   28  C30 UNL     1      27.666 -19.078  -0.076  1.00  0.00     0.073 C 
ENDROOT
BRANCH  20  29
HETATM   29  S1  UNL     1      21.822 -16.356  -5.636  1.00  0.00     0.244 S 
HETATM   30  O5  UNL     1      21.923 -14.879  -5.119  1.00  0.00    -0.206 OA
HETATM   31  O6  UNL     1      20.397 -16.103  -6.229  1.00  0.00    -0.206 OA
BRANCH  29  32
HETATM   32  N4  UNL     1      22.623 -16.590  -7.111  1.00  0.00    -0.209 NA
HETATM   33  C22 UNL     1      21.657 -16.948  -8.129  1.00  0.00     0.129 C 
BRANCH  32  34
HETATM   34  C23 UNL     1      23.132 -15.246  -7.445  1.00  0.00     0.126 C 
BRANCH  34  35
HETATM   35  C24 UNL     1      24.639 -15.157  -7.442  1.00  0.00     0.131 C 
BRANCH  35  36
HETATM   36  N5  UNL     1      24.997 -13.913  -6.867  1.00  0.00    -0.420 N 
HETATM   37  C25 UNL     1      25.941 -13.968  -5.808  1.00  0.00     0.142 C 
HETATM   38  C26 UNL     1      24.509 -12.702  -7.304  1.00  0.00     0.142 C 
ENDBRANCH  35  36
ENDBRANCH  34  35
ENDBRANCH  32  34
ENDBRANCH  29  32
ENDBRANCH  20  29
BRANCH  17  39
HETATM   39  N3  UNL     1      20.450 -19.787  -1.011  1.00  0.00    -0.113 N 
HETATM   40  O3  UNL     1      19.730 -19.265  -0.104  1.00  0.00    -0.532 OA
HETATM   41  O4  UNL     1      20.765 -21.092  -0.833  1.00  0.00    -0.532 OA
ENDBRANCH  17  39
BRANCH  10  42
HETATM   42  O2  UNL     1      28.981 -17.090  -5.196  1.00  0.00    -0.391 OA
HETATM   43  C13 UNL     1      28.245 -16.825  -6.323  1.00  0.00     0.202 C 
ENDBRANCH  10  42
BRANCH   1  44
HETATM   44  C2  UNL     1      27.841 -16.932   1.369  1.00  0.00     0.020 C 
HETATM   45  C1  UNL     1      28.039 -15.520   1.839  1.00  0.00     0.006 C 
ENDBRANCH   1  44
BRANCH   1  46
HETATM   46  C4  UNL     1      25.454 -16.546   1.345  1.00  0.00     0.020 C 
HETATM   47  C5  UNL     1      25.340 -16.839   2.796  1.00  0.00     0.006 C 
ENDBRANCH   1  46
TORSDOF 9
ENDMDL
