MODEL 1
REMARK VINA RESULT: -5.361678698      0.000      0.000
REMARK  2 active torsions:
REMARK  status: ('A' for Active; 'I' for Inactive)
REMARK    1  A    between atoms: C2_2  and  C3_3 
REMARK    2  A    between atoms: C3_3  and  O1_4 
ROOT
HETATM    1  C1  UNL     1      67.249 -34.613  39.979  1.00  0.00     0.021 C 
HETATM    2  C2  UNL     1      66.950 -34.220  41.416  1.00  0.00     0.015 C 
HETATM    3  C4  UNL     1      66.783 -32.738  41.372  1.00  0.00     0.016 C 
HETATM    4  C5  UNL     1      66.143 -32.000  42.452  1.00  0.00     0.014 C 
HETATM    5  C6  UNL     1      64.651 -31.755  42.331  1.00  0.00     0.037 C 
HETATM    6  C7  UNL     1      64.310 -31.295  40.982  1.00  0.00    -0.019 C 
HETATM    7  C8  UNL     1      63.740 -32.019  40.031  1.00  0.00     0.005 C 
HETATM    8  C9  UNL     1      63.417 -33.429  40.368  1.00  0.00     0.187 C 
HETATM    9  C10 UNL     1      62.955 -33.543  41.767  1.00  0.00     0.074 C 
HETATM   10  C11 UNL     1      63.799 -32.902  42.811  1.00  0.00    -0.070 C 
HETATM   11  C12 UNL     1      64.472 -33.824  43.768  1.00  0.00     0.002 C 
HETATM   12  C13 UNL     1      65.461 -34.791  43.372  1.00  0.00     0.015 C 
HETATM   13  C14 UNL     1      65.819 -35.035  41.947  1.00  0.00     0.120 C 
HETATM   14  C15 UNL     1      66.258 -36.499  41.885  1.00  0.00     0.055 C 
HETATM   15  O2  UNL     1      64.689 -34.994  41.177  1.00  0.00    -0.224 OA
HETATM   16  O3  UNL     1      64.616 -34.126  40.245  1.00  0.00    -0.230 OA
ENDROOT
BRANCH   2  17
HETATM   17  C3  UNL     1      68.256 -34.474  42.176  1.00  0.00     0.176 C 
BRANCH  17  18
HETATM   18  O1  UNL     1      69.349 -33.827  41.669  1.00  0.00    -0.400 OA
ATOM     19  H1  UNL     1      70.171 -34.041  42.095  1.00  0.00     0.209 HD
ENDBRANCH  17  18
ENDBRANCH   2  17
TORSDOF 2
ENDMDL
MODEL 2
REMARK VINA RESULT: -5.255467156      1.871      4.232
REMARK  2 active torsions:
REMARK  status: ('A' for Active; 'I' for Inactive)
REMARK    1  A    between atoms: C2_2  and  C3_3 
REMARK    2  A    between atoms: C3_3  and  O1_4 
ROOT
HETATM    1  C1  UNL     1      64.237 -31.450  43.097  1.00  0.00     0.021 C 
HETATM    2  C2  UNL     1      64.859 -32.416  42.104  1.00  0.00     0.015 C 
HETATM    3  C4  UNL     1      66.330 -32.232  42.273  1.00  0.00     0.016 C 
HETATM    4  C5  UNL     1      67.294 -33.203  41.776  1.00  0.00     0.014 C 
HETATM    5  C6  UNL     1      67.739 -34.288  42.738  1.00  0.00     0.037 C 
HETATM    6  C7  UNL     1      68.060 -33.716  44.049  1.00  0.00    -0.019 C 
HETATM    7  C8  UNL     1      67.307 -33.788  45.136  1.00  0.00     0.005 C 
HETATM    8  C9  UNL     1      66.019 -34.515  45.011  1.00  0.00     0.187 C 
HETATM    9  C10 UNL     1      66.164 -35.693  44.129  1.00  0.00     0.074 C 
HETATM   10  C11 UNL     1      66.806 -35.470  42.806  1.00  0.00    -0.070 C 
HETATM   11  C12 UNL     1      65.932 -35.647  41.614  1.00  0.00     0.002 C 
HETATM   12  C13 UNL     1      64.784 -34.822  41.345  1.00  0.00     0.015 C 
HETATM   13  C14 UNL     1      64.300 -33.786  42.299  1.00  0.00     0.120 C 
HETATM   14  C15 UNL     1      62.792 -33.689  42.061  1.00  0.00     0.055 C 
HETATM   15  O2  UNL     1      64.405 -34.256  43.579  1.00  0.00    -0.224 OA
HETATM   16  O3  UNL     1      65.141 -33.621  44.405  1.00  0.00    -0.230 OA
ENDROOT
BRANCH   2  17
HETATM   17  C3  UNL     1      64.519 -31.840  40.725  1.00  0.00     0.176 C 
BRANCH  17  18
HETATM   18  O1  UNL     1      63.730 -30.723  40.749  1.00  0.00    -0.400 OA
ATOM     19  H1  UNL     1      63.859 -30.161  41.503  1.00  0.00     0.209 HD
ENDBRANCH  17  18
ENDBRANCH   2  17
TORSDOF 2
ENDMDL
MODEL 3
REMARK VINA RESULT: -5.251576317      1.440      4.190
REMARK  2 active torsions:
REMARK  status: ('A' for Active; 'I' for Inactive)
REMARK    1  A    between atoms: C2_2  and  C3_3 
REMARK    2  A    between atoms: C3_3  and  O1_4 
ROOT
HETATM    1  C1  UNL     1      63.191 -34.071  42.568  1.00  0.00     0.021 C 
HETATM    2  C2  UNL     1      64.499 -33.299  42.540  1.00  0.00     0.015 C 
HETATM    3  C4  UNL     1      65.425 -34.102  43.391  1.00  0.00     0.016 C 
HETATM    4  C5  UNL     1      66.869 -33.918  43.350  1.00  0.00     0.014 C 
HETATM    5  C6  UNL     1      67.651 -34.799  42.395  1.00  0.00     0.037 C 
HETATM    6  C7  UNL     1      67.209 -36.193  42.499  1.00  0.00    -0.019 C 
HETATM    7  C8  UNL     1      66.438 -36.834  41.634  1.00  0.00     0.005 C 
HETATM    8  C9  UNL     1      65.979 -36.065  40.450  1.00  0.00     0.187 C 
HETATM    9  C10 UNL     1      67.043 -35.158  39.967  1.00  0.00     0.074 C 
HETATM   10  C11 UNL     1      67.694 -34.284  40.979  1.00  0.00    -0.070 C 
HETATM   11  C12 UNL     1      67.449 -32.821  40.837  1.00  0.00     0.002 C 
HETATM   12  C13 UNL     1      66.147 -32.222  40.961  1.00  0.00     0.015 C 
HETATM   13  C14 UNL     1      64.906 -33.028  41.130  1.00  0.00     0.120 C 
HETATM   14  C15 UNL     1      63.791 -32.191  40.499  1.00  0.00     0.055 C 
HETATM   15  O2  UNL     1      64.971 -34.143  40.341  1.00  0.00    -0.224 OA
HETATM   16  O3  UNL     1      64.913 -35.290  40.897  1.00  0.00    -0.230 OA
ENDROOT
BRANCH   2  17
HETATM   17  C3  UNL     1      64.217 -32.013  43.322  1.00  0.00     0.176 C 
BRANCH  17  18
HETATM   18  O1  UNL     1      64.170 -32.166  44.680  1.00  0.00    -0.400 OA
ATOM     19  H1  UNL     1      65.018 -32.175  45.109  1.00  0.00     0.209 HD
ENDBRANCH  17  18
ENDBRANCH   2  17
TORSDOF 2
ENDMDL
MODEL 4
REMARK VINA RESULT: -5.078199906      1.549      3.079
REMARK  2 active torsions:
REMARK  status: ('A' for Active; 'I' for Inactive)
REMARK    1  A    between atoms: C2_2  and  C3_3 
REMARK    2  A    between atoms: C3_3  and  O1_4 
ROOT
HETATM    1  C1  UNL     1      66.990 -36.158  41.746  1.00  0.00     0.021 C 
HETATM    2  C2  UNL     1      66.650 -34.878  41.003  1.00  0.00     0.015 C 
HETATM    3  C4  UNL     1      65.193 -34.994  40.705  1.00  0.00     0.016 C 
HETATM    4  C5  UNL     1      64.387 -33.843  40.323  1.00  0.00     0.014 C 
HETATM    5  C6  UNL     1      63.676 -33.098  41.436  1.00  0.00     0.037 C 
HETATM    6  C7  UNL     1      63.016 -34.038  42.347  1.00  0.00    -0.019 C 
HETATM    7  C8  UNL     1      63.439 -34.381  43.554  1.00  0.00     0.005 C 
HETATM    8  C9  UNL     1      64.698 -33.753  44.025  1.00  0.00     0.187 C 
HETATM    9  C10 UNL     1      64.783 -32.345  43.581  1.00  0.00     0.074 C 
HETATM   10  C11 UNL     1      64.533 -32.077  42.139  1.00  0.00    -0.070 C 
HETATM   11  C12 UNL     1      65.700 -31.590  41.351  1.00  0.00     0.002 C 
HETATM   12  C13 UNL     1      66.890 -32.368  41.138  1.00  0.00     0.015 C 
HETATM   13  C14 UNL     1      67.110 -33.692  41.785  1.00  0.00     0.120 C 
HETATM   14  C15 UNL     1      68.627 -33.822  41.937  1.00  0.00     0.055 C 
HETATM   15  O2  UNL     1      66.649 -33.657  43.072  1.00  0.00    -0.224 OA
HETATM   16  O3  UNL     1      65.724 -34.467  43.412  1.00  0.00    -0.230 OA
ENDROOT
BRANCH   2  17
HETATM   17  C3  UNL     1      67.367 -34.999  39.655  1.00  0.00     0.176 C 
BRANCH  17  18
HETATM   18  O1  UNL     1      66.998 -36.081  38.905  1.00  0.00    -0.400 OA
ATOM     19  H1  UNL     1      66.333 -36.631  39.300  1.00  0.00     0.209 HD
ENDBRANCH  17  18
ENDBRANCH   2  17
TORSDOF 2
ENDMDL
MODEL 5
REMARK VINA RESULT: -4.937588936      1.085      1.460
REMARK  2 active torsions:
REMARK  status: ('A' for Active; 'I' for Inactive)
REMARK    1  A    between atoms: C2_2  and  C3_3 
REMARK    2  A    between atoms: C3_3  and  O1_4 
ROOT
HETATM    1  C1  UNL     1      67.000 -35.425  40.871  1.00  0.00     0.021 C 
HETATM    2  C2  UNL     1      67.146 -34.121  41.638  1.00  0.00     0.015 C 
HETATM    3  C4  UNL     1      66.665 -33.074  40.690  1.00  0.00     0.016 C 
HETATM    4  C5  UNL     1      66.302 -31.736  41.135  1.00  0.00     0.014 C 
HETATM    5  C6  UNL     1      64.846 -31.496  41.487  1.00  0.00     0.037 C 
HETATM    6  C7  UNL     1      63.967 -32.065  40.462  1.00  0.00    -0.019 C 
HETATM    7  C8  UNL     1      63.267 -33.184  40.568  1.00  0.00     0.005 C 
HETATM    8  C9  UNL     1      63.388 -33.929  41.847  1.00  0.00     0.187 C 
HETATM    9  C10 UNL     1      63.478 -32.998  42.992  1.00  0.00     0.074 C 
HETATM   10  C11 UNL     1      64.478 -31.902  42.891  1.00  0.00    -0.070 C 
HETATM   11  C12 UNL     1      65.621 -31.967  43.844  1.00  0.00     0.002 C 
HETATM   12  C13 UNL     1      66.590 -33.030  43.845  1.00  0.00     0.015 C 
HETATM   13  C14 UNL     1      66.470 -34.226  42.964  1.00  0.00     0.120 C 
HETATM   14  C15 UNL     1      67.158 -35.361  43.725  1.00  0.00     0.055 C 
HETATM   15  O2  UNL     1      65.161 -34.617  42.896  1.00  0.00    -0.224 OA
HETATM   16  O3  UNL     1      64.586 -34.632  41.758  1.00  0.00    -0.230 OA
ENDROOT
BRANCH   2  17
HETATM   17  C3  UNL     1      68.657 -33.907  41.770  1.00  0.00     0.176 C 
BRANCH  17  18
HETATM   18  O1  UNL     1      69.287 -33.535  40.615  1.00  0.00    -0.400 OA
ATOM     19  H1  UNL     1      69.122 -32.641  40.342  1.00  0.00     0.209 HD
ENDBRANCH  17  18
ENDBRANCH   2  17
TORSDOF 2
ENDMDL
