MODEL 1
REMARK VINA RESULT: -9.050131188      0.000      0.000
REMARK  13 active torsions:
REMARK  status: ('A' for Active; 'I' for Inactive)
REMARK    1  A    between atoms: C2_2  and  C3_3 
REMARK    2  A    between atoms: C3_3  and  O1_4 
REMARK    3  A    between atoms: C3_3  and  C4_7 
REMARK    4  A    between atoms: O1_4  and  O2_5 
REMARK       I    between atoms: C4_7  and  N1_9 
REMARK    5  A    between atoms: N1_9  and  N2_11 
REMARK    6  A    between atoms: N2_11  and  C5_13 
REMARK    7  A    between atoms: C6_16  and  N4_17 
REMARK    8  A    between atoms: N4_17  and  N5_19 
REMARK    9  A    between atoms: C7_21  and  C8_22 
REMARK   10  A    between atoms: C14_31  and  C15_32 
REMARK   11  A    between atoms: C15_32  and  O5_33 
REMARK   12  A    between atoms: C15_32  and  N7_35 
REMARK   13  A    between atoms: N7_35  and  N8_37 
ROOT
HETATM    1  C5  UNL     1      15.100  39.891 200.065  1.00  0.00     0.152 A 
HETATM    2  N3  UNL     1      15.619  40.830 200.867  1.00  0.00    -0.173 N 
ATOM      3  H3  UNL     1      16.287  41.505 200.496  1.00  0.00     0.186 HD
HETATM    4  C6  UNL     1      15.259  40.881 202.162  1.00  0.00     0.698 A 
HETATM    5  N6  UNL     1      14.378  39.998 202.668  1.00  0.00    -0.193 N 
ATOM      6  H6  UNL     1      14.118  40.052 203.653  1.00  0.00     0.184 HD
HETATM    7  C12 UNL     1      13.826  39.025 201.868  1.00  0.00     0.041 A 
HETATM    8  C13 UNL     1      12.809  38.144 202.489  1.00  0.00     0.070 C 
HETATM    9  C14 UNL     1      14.165  38.940 200.567  1.00  0.00     0.085 A 
ENDROOT
BRANCH   1  10
HETATM   10  N2  UNL     1      15.425  39.780 198.824  1.00  0.00    -0.281 N 
ATOM     11  H2  UNL     1      14.705  39.661 198.110  1.00  0.00     0.188 HD
BRANCH  10  12
HETATM   12  N1  UNL     1      16.770  39.825 198.467  1.00  0.00    -0.266 N 
HETATM   13  C4  UNL     1      17.742  38.852 198.784  1.00  0.00     0.268 C 
HETATM   14  O3  UNL     1      17.482  37.813 199.441  1.00  0.00    -0.269 OA
ATOM     15  H1  UNL     1      17.080  40.633 197.928  1.00  0.00     0.190 HD
BRANCH  13  16
HETATM   16  C3  UNL     1      19.145  39.044 198.336  1.00  0.00     0.253 C 
BRANCH  16  17
HETATM   17  C2  UNL     1      19.262  40.234 197.393  1.00  0.00     0.040 C 
HETATM   18  C1  UNL     1      20.667  40.362 196.886  1.00  0.00     0.008 C 
ENDBRANCH  16  17
BRANCH  16  19
HETATM   19  O1  UNL     1      19.588  37.873 197.677  1.00  0.00    -0.228 OA
BRANCH  19  20
HETATM   20  O2  UNL     1      18.639  37.366 196.939  1.00  0.00    -0.250 OA
ATOM     21  H2  UNL     1      18.985  36.716 196.339  1.00  0.00     0.253 HD
ENDBRANCH  19  20
ENDBRANCH  16  19
ENDBRANCH  13  16
ENDBRANCH  10  12
ENDBRANCH   1  10
BRANCH   9  22
HETATM   22  C15 UNL     1      13.656  38.013 199.601  1.00  0.00     0.170 C 
BRANCH  22  23
HETATM   23  O5  UNL     1      12.861  38.460 198.664  1.00  0.00    -0.344 OA
ATOM     24  H5  UNL     1      11.989  38.748 198.908  1.00  0.00     0.219 HD
ENDBRANCH  22  23
BRANCH  22  25
HETATM   25  N7  UNL     1      13.939  36.642 199.557  1.00  0.00    -0.286 N 
ATOM     26  H7  UNL     1      13.420  36.041 198.916  1.00  0.00     0.188 HD
BRANCH  25  27
HETATM   27  N8  UNL     1      14.949  36.070 200.404  1.00  0.00    -0.343 N 
ATOM     28  H82 UNL     1      15.918  36.089 200.087  1.00  0.00     0.176 HD
ATOM     29  H81 UNL     1      14.704  35.655 201.303  1.00  0.00     0.176 HD
ENDBRANCH  25  27
ENDBRANCH  22  25
ENDBRANCH   9  22
BRANCH   4  30
HETATM   30  N4  UNL     1      15.736  41.790 202.917  1.00  0.00    -0.132 N 
ATOM     31  H4  UNL     1      16.724  41.766 203.173  1.00  0.00     0.205 HD
BRANCH  30  32
HETATM   32  N5  UNL     1      14.931  42.809 203.394  1.00  0.00    -0.295 N 
HETATM   33  C7  UNL     1      15.359  43.932 203.813  1.00  0.00     0.144 C 
ATOM     34  H5  UNL     1      13.924  42.649 203.410  1.00  0.00     0.186 HD
BRANCH  33  35
HETATM   35  C8  UNL     1      14.340  44.896 204.286  1.00  0.00     0.091 A 
HETATM   36  C9  UNL     1      14.578  46.085 204.916  1.00  0.00     0.040 A 
HETATM   37  C10 UNL     1      13.349  46.646 205.172  1.00  0.00     0.027 A 
HETATM   38  C11 UNL     1      12.417  45.781 204.689  1.00  0.00     0.142 A 
HETATM   39  O4  UNL     1      13.044  44.763 204.176  1.00  0.00    -0.321 OA
ENDBRANCH  33  35
ENDBRANCH  30  32
ENDBRANCH   4  30
TORSDOF 13
ENDMDL
MODEL 2
REMARK VINA RESULT: -8.504503177      1.204      1.362
REMARK  13 active torsions:
REMARK  status: ('A' for Active; 'I' for Inactive)
REMARK    1  A    between atoms: C2_2  and  C3_3 
REMARK    2  A    between atoms: C3_3  and  O1_4 
REMARK    3  A    between atoms: C3_3  and  C4_7 
REMARK    4  A    between atoms: O1_4  and  O2_5 
REMARK       I    between atoms: C4_7  and  N1_9 
REMARK    5  A    between atoms: N1_9  and  N2_11 
REMARK    6  A    between atoms: N2_11  and  C5_13 
REMARK    7  A    between atoms: C6_16  and  N4_17 
REMARK    8  A    between atoms: N4_17  and  N5_19 
REMARK    9  A    between atoms: C7_21  and  C8_22 
REMARK   10  A    between atoms: C14_31  and  C15_32 
REMARK   11  A    between atoms: C15_32  and  O5_33 
REMARK   12  A    between atoms: C15_32  and  N7_35 
REMARK   13  A    between atoms: N7_35  and  N8_37 
ROOT
HETATM    1  C5  UNL     1      14.870  40.711 200.605  1.00  0.00     0.152 A 
HETATM    2  N3  UNL     1      15.396  41.584 201.474  1.00  0.00    -0.173 N 
ATOM      3  H3  UNL     1      16.070  42.279 201.154  1.00  0.00     0.186 HD
HETATM    4  C6  UNL     1      15.033  41.545 202.768  1.00  0.00     0.698 A 
HETATM    5  N6  UNL     1      14.143  40.636 203.207  1.00  0.00    -0.193 N 
ATOM      6  H6  UNL     1      13.882  40.620 204.193  1.00  0.00     0.184 HD
HETATM    7  C12 UNL     1      13.583  39.729 202.338  1.00  0.00     0.041 A 
HETATM    8  C13 UNL     1      12.557  38.815 202.892  1.00  0.00     0.070 C 
HETATM    9  C14 UNL     1      13.924  39.736 201.034  1.00  0.00     0.085 A 
ENDROOT
BRANCH   1  10
HETATM   10  N2  UNL     1      15.195  40.688 199.359  1.00  0.00    -0.281 N 
ATOM     11  H2  UNL     1      14.502  40.897 198.640  1.00  0.00     0.188 HD
BRANCH  10  12
HETATM   12  N1  UNL     1      16.505  40.375 199.005  1.00  0.00    -0.266 N 
HETATM   13  C4  UNL     1      16.907  39.283 198.206  1.00  0.00     0.268 C 
HETATM   14  O3  UNL     1      16.095  38.458 197.715  1.00  0.00    -0.269 OA
ATOM     15  H1  UNL     1      17.240  40.989 199.356  1.00  0.00     0.190 HD
BRANCH  13  16
HETATM   16  C3  UNL     1      18.349  39.075 197.920  1.00  0.00     0.253 C 
BRANCH  16  17
HETATM   17  C2  UNL     1      18.549  38.400 196.569  1.00  0.00     0.040 C 
HETATM   18  C1  UNL     1      20.000  38.093 196.348  1.00  0.00     0.008 C 
ENDBRANCH  16  17
BRANCH  16  19
HETATM   19  O1  UNL     1      18.914  38.269 198.938  1.00  0.00    -0.228 OA
BRANCH  19  20
HETATM   20  O2  UNL     1      17.993  37.829 199.749  1.00  0.00    -0.250 OA
ATOM     21  H2  UNL     1      18.314  37.796 200.642  1.00  0.00     0.253 HD
ENDBRANCH  19  20
ENDBRANCH  16  19
ENDBRANCH  13  16
ENDBRANCH  10  12
ENDBRANCH   1  10
BRANCH   9  22
HETATM   22  C15 UNL     1      13.408  38.887 200.003  1.00  0.00     0.170 C 
BRANCH  22  23
HETATM   23  O5  UNL     1      12.407  39.319 199.281  1.00  0.00    -0.344 OA
ATOM     24  H5  UNL     1      12.465  39.245 198.335  1.00  0.00     0.219 HD
ENDBRANCH  22  23
BRANCH  22  25
HETATM   25  N7  UNL     1      13.887  37.611 199.679  1.00  0.00    -0.286 N 
ATOM     26  H7  UNL     1      13.399  37.053 198.979  1.00  0.00     0.188 HD
BRANCH  25  27
HETATM   27  N8  UNL     1      15.056  37.078 200.323  1.00  0.00    -0.343 N 
ATOM     28  H82 UNL     1      15.871  36.858 199.750  1.00  0.00     0.176 HD
ATOM     29  H81 UNL     1      15.073  36.922 201.330  1.00  0.00     0.176 HD
ENDBRANCH  25  27
ENDBRANCH  22  25
ENDBRANCH   9  22
BRANCH   4  30
HETATM   30  N4  UNL     1      15.518  42.391 203.588  1.00  0.00    -0.132 N 
ATOM     31  H4  UNL     1      16.490  42.304 203.887  1.00  0.00     0.205 HD
BRANCH  30  32
HETATM   32  N5  UNL     1      14.742  43.427 204.077  1.00  0.00    -0.295 N 
HETATM   33  C7  UNL     1      13.703  43.884 203.501  1.00  0.00     0.144 C 
ATOM     34  H5  UNL     1      15.021  43.853 204.960  1.00  0.00     0.186 HD
BRANCH  33  35
HETATM   35  C8  UNL     1      13.004  44.999 204.181  1.00  0.00     0.091 A 
HETATM   36  C9  UNL     1      13.583  46.112 204.722  1.00  0.00     0.040 A 
HETATM   37  C10 UNL     1      12.563  46.870 205.245  1.00  0.00     0.027 A 
HETATM   38  C11 UNL     1      11.408  46.192 205.001  1.00  0.00     0.142 A 
HETATM   39  O4  UNL     1      11.714  45.095 204.373  1.00  0.00    -0.321 OA
ENDBRANCH  33  35
ENDBRANCH  30  32
ENDBRANCH   4  30
TORSDOF 13
ENDMDL
MODEL 3
REMARK VINA RESULT: -8.485719358      3.852      7.011
REMARK  13 active torsions:
REMARK  status: ('A' for Active; 'I' for Inactive)
REMARK    1  A    between atoms: C2_2  and  C3_3 
REMARK    2  A    between atoms: C3_3  and  O1_4 
REMARK    3  A    between atoms: C3_3  and  C4_7 
REMARK    4  A    between atoms: O1_4  and  O2_5 
REMARK       I    between atoms: C4_7  and  N1_9 
REMARK    5  A    between atoms: N1_9  and  N2_11 
REMARK    6  A    between atoms: N2_11  and  C5_13 
REMARK    7  A    between atoms: C6_16  and  N4_17 
REMARK    8  A    between atoms: N4_17  and  N5_19 
REMARK    9  A    between atoms: C7_21  and  C8_22 
REMARK   10  A    between atoms: C14_31  and  C15_32 
REMARK   11  A    between atoms: C15_32  and  O5_33 
REMARK   12  A    between atoms: C15_32  and  N7_35 
REMARK   13  A    between atoms: N7_35  and  N8_37 
ROOT
HETATM    1  C5  UNL     1      19.963  38.680 196.671  1.00  0.00     0.152 A 
HETATM    2  N3  UNL     1      18.720  38.331 197.028  1.00  0.00    -0.173 N 
ATOM      3  H3  UNL     1      18.443  37.349 197.014  1.00  0.00     0.186 HD
HETATM    4  C6  UNL     1      17.839  39.274 197.404  1.00  0.00     0.698 A 
HETATM    5  N6  UNL     1      18.189  40.573 197.428  1.00  0.00    -0.193 N 
ATOM      6  H6  UNL     1      17.506  41.275 197.715  1.00  0.00     0.184 HD
HETATM    7  C12 UNL     1      19.459  40.962 197.071  1.00  0.00     0.041 A 
HETATM    8  C13 UNL     1      19.780  42.403 197.201  1.00  0.00     0.070 C 
HETATM    9  C14 UNL     1      20.368  40.046 196.686  1.00  0.00     0.085 A 
ENDROOT
BRANCH   1  10
HETATM   10  N2  UNL     1      20.842  37.823 196.282  1.00  0.00    -0.281 N 
ATOM     11  H2  UNL     1      21.363  37.271 196.964  1.00  0.00     0.188 HD
BRANCH  10  12
HETATM   12  N1  UNL     1      21.072  37.658 194.919  1.00  0.00    -0.266 N 
HETATM   13  C4  UNL     1      22.333  37.671 194.285  1.00  0.00     0.268 C 
HETATM   14  O3  UNL     1      23.411  37.837 194.910  1.00  0.00    -0.269 OA
ATOM     15  H1  UNL     1      20.255  37.514 194.325  1.00  0.00     0.190 HD
BRANCH  13  16
HETATM   16  C3  UNL     1      22.417  37.486 192.814  1.00  0.00     0.253 C 
BRANCH  16  17
HETATM   17  C2  UNL     1      22.941  38.743 192.133  1.00  0.00     0.040 C 
HETATM   18  C1  UNL     1      24.416  38.629 191.887  1.00  0.00     0.008 C 
ENDBRANCH  16  17
BRANCH  16  19
HETATM   19  O1  UNL     1      21.131  37.177 192.310  1.00  0.00    -0.228 OA
BRANCH  19  20
HETATM   20  O2  UNL     1      20.556  38.237 191.815  1.00  0.00    -0.250 OA
ATOM     21  H2  UNL     1      20.594  38.962 192.427  1.00  0.00     0.253 HD
ENDBRANCH  19  20
ENDBRANCH  16  19
ENDBRANCH  13  16
ENDBRANCH  10  12
ENDBRANCH   1  10
BRANCH   9  22
HETATM   22  C15 UNL     1      21.732  40.284 196.320  1.00  0.00     0.170 C 
BRANCH  22  23
HETATM   23  O5  UNL     1      22.009  40.534 195.067  1.00  0.00    -0.344 OA
ATOM     24  H5  UNL     1      22.398  39.845 194.542  1.00  0.00     0.219 HD
ENDBRANCH  22  23
BRANCH  22  25
HETATM   25  N7  UNL     1      22.825  40.283 197.197  1.00  0.00    -0.286 N 
ATOM     26  H7  UNL     1      23.233  39.396 197.492  1.00  0.00     0.188 HD
BRANCH  25  27
HETATM   27  N8  UNL     1      23.379  41.516 197.686  1.00  0.00    -0.343 N 
ATOM     28  H82 UNL     1      23.375  41.687 198.691  1.00  0.00     0.176 HD
ATOM     29  H81 UNL     1      23.768  42.205 197.043  1.00  0.00     0.176 HD
ENDBRANCH  25  27
ENDBRANCH  22  25
ENDBRANCH   9  22
BRANCH   4  30
HETATM   30  N4  UNL     1      16.664  38.936 197.764  1.00  0.00    -0.132 N 
ATOM     31  H4  UNL     1      16.230  38.109 197.356  1.00  0.00     0.205 HD
BRANCH  30  32
HETATM   32  N5  UNL     1      15.972  39.680 198.704  1.00  0.00    -0.295 N 
HETATM   33  C7  UNL     1      15.787  39.325 199.912  1.00  0.00     0.144 C 
ATOM     34  H5  UNL     1      15.582  40.574 198.407  1.00  0.00     0.186 HD
BRANCH  33  35
HETATM   35  C8  UNL     1      15.018  40.257 200.768  1.00  0.00     0.091 A 
HETATM   36  C9  UNL     1      14.815  41.589 200.539  1.00  0.00     0.040 A 
HETATM   37  C10 UNL     1      14.052  42.054 201.584  1.00  0.00     0.027 A 
HETATM   38  C11 UNL     1      13.821  40.991 202.402  1.00  0.00     0.142 A 
HETATM   39  O4  UNL     1      14.410  39.952 201.884  1.00  0.00    -0.321 OA
ENDBRANCH  33  35
ENDBRANCH  30  32
ENDBRANCH   4  30
TORSDOF 13
ENDMDL
MODEL 4
REMARK VINA RESULT: -8.435387713      3.202      6.916
REMARK  13 active torsions:
REMARK  status: ('A' for Active; 'I' for Inactive)
REMARK    1  A    between atoms: C2_2  and  C3_3 
REMARK    2  A    between atoms: C3_3  and  O1_4 
REMARK    3  A    between atoms: C3_3  and  C4_7 
REMARK    4  A    between atoms: O1_4  and  O2_5 
REMARK       I    between atoms: C4_7  and  N1_9 
REMARK    5  A    between atoms: N1_9  and  N2_11 
REMARK    6  A    between atoms: N2_11  and  C5_13 
REMARK    7  A    between atoms: C6_16  and  N4_17 
REMARK    8  A    between atoms: N4_17  and  N5_19 
REMARK    9  A    between atoms: C7_21  and  C8_22 
REMARK   10  A    between atoms: C14_31  and  C15_32 
REMARK   11  A    between atoms: C15_32  and  O5_33 
REMARK   12  A    between atoms: C15_32  and  N7_35 
REMARK   13  A    between atoms: N7_35  and  N8_37 
ROOT
HETATM    1  C5  UNL     1      13.660  41.535 202.460  1.00  0.00     0.152 A 
HETATM    2  N3  UNL     1      12.525  41.430 203.165  1.00  0.00    -0.173 N 
ATOM      3  H3  UNL     1      12.270  42.159 203.831  1.00  0.00     0.186 HD
HETATM    4  C6  UNL     1      11.724  40.364 202.993  1.00  0.00     0.698 A 
HETATM    5  N6  UNL     1      12.045  39.394 202.117  1.00  0.00    -0.193 N 
ATOM      6  H6  UNL     1      11.425  38.592 202.001  1.00  0.00     0.184 HD
HETATM    7  C12 UNL     1      13.202  39.476 201.377  1.00  0.00     0.041 A 
HETATM    8  C13 UNL     1      13.438  38.403 200.383  1.00  0.00     0.070 C 
HETATM    9  C14 UNL     1      14.031  40.527 201.524  1.00  0.00     0.085 A 
ENDROOT
BRANCH   1  10
HETATM   10  N2  UNL     1      14.476  42.521 202.599  1.00  0.00    -0.281 N 
ATOM     11  H2  UNL     1      15.405  42.487 202.177  1.00  0.00     0.188 HD
BRANCH  10  12
HETATM   12  N1  UNL     1      14.076  43.636 203.331  1.00  0.00    -0.266 N 
HETATM   13  C4  UNL     1      14.896  44.399 204.190  1.00  0.00     0.268 C 
HETATM   14  O3  UNL     1      16.111  44.141 204.384  1.00  0.00    -0.269 OA
ATOM     15  H1  UNL     1      13.102  43.926 203.239  1.00  0.00     0.190 HD
BRANCH  13  16
HETATM   16  C3  UNL     1      14.320  45.563 204.911  1.00  0.00     0.253 C 
BRANCH  16  17
HETATM   17  C2  UNL     1      12.895  45.841 204.454  1.00  0.00     0.040 C 
HETATM   18  C1  UNL     1      12.271  46.906 205.307  1.00  0.00     0.008 C 
ENDBRANCH  16  17
BRANCH  16  19
HETATM   19  O1  UNL     1      15.124  46.703 204.672  1.00  0.00    -0.228 OA
BRANCH  19  20
HETATM   20  O2  UNL     1      16.205  46.674 205.402  1.00  0.00    -0.250 OA
ATOM     21  H2  UNL     1      16.371  47.522 205.797  1.00  0.00     0.253 HD
ENDBRANCH  19  20
ENDBRANCH  16  19
ENDBRANCH  13  16
ENDBRANCH  10  12
ENDBRANCH   1  10
BRANCH   9  22
HETATM   22  C15 UNL     1      15.246  40.775 200.807  1.00  0.00     0.170 C 
BRANCH  22  23
HETATM   23  O5  UNL     1      16.384  40.506 201.394  1.00  0.00    -0.344 OA
ATOM     24  H5  UNL     1      17.107  40.198 200.861  1.00  0.00     0.219 HD
ENDBRANCH  22  23
BRANCH  22  25
HETATM   25  N7  UNL     1      15.338  41.283 199.505  1.00  0.00    -0.286 N 
ATOM     26  H7  UNL     1      14.835  42.136 199.261  1.00  0.00     0.188 HD
BRANCH  25  27
HETATM   27  N8  UNL     1      16.130  40.617 198.509  1.00  0.00    -0.343 N 
ATOM     28  H82 UNL     1      15.806  40.625 197.542  1.00  0.00     0.176 HD
ATOM     29  H81 UNL     1      16.999  40.146 198.760  1.00  0.00     0.176 HD
ENDBRANCH  25  27
ENDBRANCH  22  25
ENDBRANCH   9  22
BRANCH   4  30
HETATM   30  N4  UNL     1      10.634  40.279 203.647  1.00  0.00    -0.132 N 
ATOM     31  H4  UNL     1      10.067  39.434 203.575  1.00  0.00     0.205 HD
BRANCH  30  32
HETATM   32  N5  UNL     1      10.211  41.320 204.456  1.00  0.00    -0.295 N 
HETATM   33  C7  UNL     1       9.246  41.245 205.282  1.00  0.00     0.144 C 
ATOM     34  H5  UNL     1      10.707  42.208 204.383  1.00  0.00     0.186 HD
BRANCH  33  35
HETATM   35  C8  UNL     1       8.943  42.468 206.059  1.00  0.00     0.091 A 
HETATM   36  C9  UNL     1       8.592  42.526 207.379  1.00  0.00     0.040 A 
HETATM   37  C10 UNL     1       8.404  43.855 207.677  1.00  0.00     0.027 A 
HETATM   38  C11 UNL     1       8.647  44.550 206.533  1.00  0.00     0.142 A 
HETATM   39  O4  UNL     1       8.960  43.694 205.604  1.00  0.00    -0.321 OA
ENDBRANCH  33  35
ENDBRANCH  30  32
ENDBRANCH   4  30
TORSDOF 13
ENDMDL
MODEL 5
REMARK VINA RESULT: -8.351518439      1.769      7.854
REMARK  13 active torsions:
REMARK  status: ('A' for Active; 'I' for Inactive)
REMARK    1  A    between atoms: C2_2  and  C3_3 
REMARK    2  A    between atoms: C3_3  and  O1_4 
REMARK    3  A    between atoms: C3_3  and  C4_7 
REMARK    4  A    between atoms: O1_4  and  O2_5 
REMARK       I    between atoms: C4_7  and  N1_9 
REMARK    5  A    between atoms: N1_9  and  N2_11 
REMARK    6  A    between atoms: N2_11  and  C5_13 
REMARK    7  A    between atoms: C6_16  and  N4_17 
REMARK    8  A    between atoms: N4_17  and  N5_19 
REMARK    9  A    between atoms: C7_21  and  C8_22 
REMARK   10  A    between atoms: C14_31  and  C15_32 
REMARK   11  A    between atoms: C15_32  and  O5_33 
REMARK   12  A    between atoms: C15_32  and  N7_35 
REMARK   13  A    between atoms: N7_35  and  N8_37 
ROOT
HETATM    1  C5  UNL     1      15.141  40.391 202.050  1.00  0.00     0.152 A 
HETATM    2  N3  UNL     1      15.673  40.891 200.927  1.00  0.00    -0.173 N 
ATOM      3  H3  UNL     1      16.356  41.647 200.978  1.00  0.00     0.186 HD
HETATM    4  C6  UNL     1      15.306  40.395 199.731  1.00  0.00     0.698 A 
HETATM    5  N6  UNL     1      14.408  39.397 199.646  1.00  0.00    -0.193 N 
ATOM      6  H6  UNL     1      14.141  39.035 198.730  1.00  0.00     0.184 HD
HETATM    7  C12 UNL     1      13.848  38.861 200.782  1.00  0.00     0.041 A 
HETATM    8  C13 UNL     1      12.926  37.716 200.598  1.00  0.00     0.070 C 
HETATM    9  C14 UNL     1      14.188  39.334 201.997  1.00  0.00     0.085 A 
ENDROOT
BRANCH   1  10
HETATM   10  N2  UNL     1      15.439  40.841 203.220  1.00  0.00    -0.281 N 
ATOM     11  H2  UNL     1      15.732  40.202 203.959  1.00  0.00     0.188 HD
BRANCH  10  12
HETATM   12  N1  UNL     1      15.354  42.209 203.463  1.00  0.00    -0.266 N 
HETATM   13  C4  UNL     1      14.179  42.989 203.404  1.00  0.00     0.268 C 
HETATM   14  O3  UNL     1      13.053  42.508 203.118  1.00  0.00    -0.269 OA
ATOM     15  H1  UNL     1      16.220  42.692 203.705  1.00  0.00     0.190 HD
BRANCH  13  16
HETATM   16  C3  UNL     1      14.250  44.445 203.684  1.00  0.00     0.253 C 
BRANCH  16  17
HETATM   17  C2  UNL     1      15.514  44.794 204.457  1.00  0.00     0.040 C 
HETATM   18  C1  UNL     1      15.407  46.173 205.038  1.00  0.00     0.008 C 
ENDBRANCH  16  17
BRANCH  16  19
HETATM   19  O1  UNL     1      13.114  44.830 204.436  1.00  0.00    -0.228 OA
BRANCH  19  20
HETATM   20  O2  UNL     1      12.082  45.018 203.661  1.00  0.00    -0.250 OA
ATOM     21  H2  UNL     1      11.280  44.748 204.092  1.00  0.00     0.253 HD
ENDBRANCH  19  20
ENDBRANCH  16  19
ENDBRANCH  13  16
ENDBRANCH  10  12
ENDBRANCH   1  10
BRANCH   9  22
HETATM   22  C15 UNL     1      13.724  38.863 203.267  1.00  0.00     0.170 C 
BRANCH  22  23
HETATM   23  O5  UNL     1      12.850  39.583 203.920  1.00  0.00    -0.344 OA
ATOM     24  H5  UNL     1      13.142  40.075 204.678  1.00  0.00     0.219 HD
ENDBRANCH  22  23
BRANCH  22  25
HETATM   25  N7  UNL     1      14.120  37.673 203.891  1.00  0.00    -0.286 N 
ATOM     26  H7  UNL     1      14.076  36.794 203.375  1.00  0.00     0.188 HD
BRANCH  25  27
HETATM   27  N8  UNL     1      14.589  37.675 205.250  1.00  0.00    -0.343 N 
ATOM     28  H82 UNL     1      13.907  37.783 206.001  1.00  0.00     0.176 HD
ATOM     29  H81 UNL     1      15.581  37.569 205.461  1.00  0.00     0.176 HD
ENDBRANCH  25  27
ENDBRANCH  22  25
ENDBRANCH   9  22
BRANCH   4  30
HETATM   30  N4  UNL     1      15.831  40.857 198.666  1.00  0.00    -0.132 N 
ATOM     31  H4  UNL     1      15.381  41.630 198.176  1.00  0.00     0.205 HD
BRANCH  30  32
HETATM   32  N5  UNL     1      17.004  40.321 198.166  1.00  0.00    -0.295 N 
HETATM   33  C7  UNL     1      17.124  39.135 197.720  1.00  0.00     0.144 C 
ATOM     34  H5  UNL     1      17.831  40.918 198.153  1.00  0.00     0.186 HD
BRANCH  33  35
HETATM   35  C8  UNL     1      18.463  38.743 197.227  1.00  0.00     0.091 A 
HETATM   36  C9  UNL     1      19.552  39.559 197.096  1.00  0.00     0.040 A 
HETATM   37  C10 UNL     1      20.571  38.778 196.604  1.00  0.00     0.027 A 
HETATM   38  C11 UNL     1      20.065  37.524 196.456  1.00  0.00     0.142 A 
HETATM   39  O4  UNL     1      18.820  37.548 196.834  1.00  0.00    -0.321 OA
ENDBRANCH  33  35
ENDBRANCH  30  32
ENDBRANCH   4  30
TORSDOF 13
ENDMDL
