MODEL 1
REMARK VINA RESULT: -8.618110214      0.000      0.000
REMARK  5 active torsions:
REMARK  status: ('A' for Active; 'I' for Inactive)
REMARK    1  A    between atoms: O1_2  and  C2_3 
REMARK    2  A    between atoms: C5_6  and  N1_7 
REMARK    3  A    between atoms: N2_9  and  N3_11 
REMARK       I    between atoms: N3_11  and  C7_13 
REMARK    4  A    between atoms: C7_13  and  O3_15 
REMARK    5  A    between atoms: O3_15  and  C8_16 
REMARK       I    between atoms: C8_16  and  N4_18 
ROOT
HETATM    1  N3  UNL     1     -24.209  17.747 -16.723  1.00  0.00    -0.226 N 
HETATM    2  C6  UNL     1     -25.428  17.253 -16.149  1.00  0.00     0.185 C 
HETATM    3  C7  UNL     1     -23.723  17.194 -17.921  1.00  0.00     0.391 C 
HETATM    4  O2  UNL     1     -24.350  16.254 -18.513  1.00  0.00    -0.236 OA
ENDROOT
BRANCH   1   5
HETATM    5  N2  UNL     1     -23.515  18.765 -16.096  1.00  0.00    -0.236 N 
HETATM    6  N1  UNL     1     -23.819  19.988 -16.147  1.00  0.00    -0.286 N 
ATOM      7  H1  UNL     1     -23.253  20.679 -15.655  1.00  0.00     0.188 HD
ATOM      8  H2  UNL     1     -22.693  18.507 -15.550  1.00  0.00     0.208 HD
BRANCH   6   9
HETATM    9  C5  UNL     1     -24.936  20.388 -16.881  1.00  0.00     0.051 A 
HETATM   10  C4  UNL     1     -26.158  20.541 -16.277  1.00  0.00     0.034 A 
HETATM   11  C3  UNL     1     -27.259  20.937 -17.007  1.00  0.00     0.041 A 
HETATM   12  C2  UNL     1     -27.186  21.196 -18.368  1.00  0.00     0.090 A 
HETATM   13  C19 UNL     1     -25.940  21.031 -18.936  1.00  0.00     0.069 A 
HETATM   14  C18 UNL     1     -24.829  20.636 -18.226  1.00  0.00     0.057 A 
HETATM   15 CL1  UNL     1     -25.805  21.350 -20.665  1.00  0.00    -0.081 Cl
BRANCH  12  16
HETATM   16  O1  UNL     1     -28.301  21.593 -19.089  1.00  0.00    -0.354 OA
HETATM   17  C1  UNL     1     -28.682  22.947 -19.039  1.00  0.00     0.210 C 
ENDBRANCH  12  16
ENDBRANCH   6   9
ENDBRANCH   1   5
BRANCH   3  18
HETATM   18  O3  UNL     1     -22.545  17.662 -18.487  1.00  0.00    -0.207 OA
BRANCH  18  19
HETATM   19  C8  UNL     1     -22.484  18.430 -19.612  1.00  0.00     0.376 C 
HETATM   20  O4  UNL     1     -23.513  18.535 -20.314  1.00  0.00    -0.237 OA
HETATM   21  N4  UNL     1     -21.288  19.089 -19.976  1.00  0.00    -0.293 N 
HETATM   22  C9  UNL     1     -20.100  18.996 -19.202  1.00  0.00     0.010 C 
HETATM   23  C16 UNL     1     -21.311  19.885 -21.206  1.00  0.00     0.092 C 
HETATM   24  C10 UNL     1     -20.223  18.816 -17.739  1.00  0.00     0.068 C 
HETATM   25  C11 UNL     1     -18.907  19.072 -19.795  1.00  0.00     0.007 C 
HETATM   26  C12 UNL     1     -18.912  19.254 -21.262  1.00  0.00    -0.026 C 
HETATM   27  C13 UNL     1     -17.582  19.672 -21.815  1.00  0.00     0.019 C 
HETATM   28  C14 UNL     1     -19.295  17.929 -21.891  1.00  0.00     0.019 C 
HETATM   29  C15 UNL     1     -19.934  20.324 -21.580  1.00  0.00     0.038 C 
HETATM   30  C17 UNL     1     -22.227  21.088 -20.964  1.00  0.00     0.033 C 
ENDBRANCH  18  19
ENDBRANCH   3  18
TORSDOF 5
ENDMDL
MODEL 2
REMARK VINA RESULT: -8.554134891      3.431      7.239
REMARK  5 active torsions:
REMARK  status: ('A' for Active; 'I' for Inactive)
REMARK    1  A    between atoms: O1_2  and  C2_3 
REMARK    2  A    between atoms: C5_6  and  N1_7 
REMARK    3  A    between atoms: N2_9  and  N3_11 
REMARK       I    between atoms: N3_11  and  C7_13 
REMARK    4  A    between atoms: C7_13  and  O3_15 
REMARK    5  A    between atoms: O3_15  and  C8_16 
REMARK       I    between atoms: C8_16  and  N4_18 
ROOT
HETATM    1  N3  UNL     1     -20.464  15.855 -15.933  1.00  0.00    -0.226 N 
HETATM    2  C6  UNL     1     -19.176  15.420 -15.474  1.00  0.00     0.185 C 
HETATM    3  C7  UNL     1     -20.986  17.085 -15.497  1.00  0.00     0.391 C 
HETATM    4  O2  UNL     1     -20.331  17.829 -14.693  1.00  0.00    -0.236 OA
ENDROOT
BRANCH   1   5
HETATM    5  N2  UNL     1     -21.189  15.063 -16.804  1.00  0.00    -0.236 N 
HETATM    6  N1  UNL     1     -21.049  15.049 -18.059  1.00  0.00    -0.286 N 
ATOM      7  H1  UNL     1     -21.626  14.434 -18.632  1.00  0.00     0.188 HD
ATOM      8  H2  UNL     1     -21.891  14.443 -16.403  1.00  0.00     0.208 HD
BRANCH   6   9
HETATM    9  C5  UNL     1     -20.100  15.881 -18.653  1.00  0.00     0.051 A 
HETATM   10  C4  UNL     1     -20.441  17.133 -19.097  1.00  0.00     0.034 A 
HETATM   11  C3  UNL     1     -19.498  17.951 -19.684  1.00  0.00     0.041 A 
HETATM   12  C2  UNL     1     -18.180  17.555 -19.851  1.00  0.00     0.090 A 
HETATM   13  C19 UNL     1     -17.879  16.290 -19.391  1.00  0.00     0.069 A 
HETATM   14  C18 UNL     1     -18.804  15.457 -18.803  1.00  0.00     0.057 A 
HETATM   15 CL1  UNL     1     -16.213  15.747 -19.584  1.00  0.00    -0.081 Cl
BRANCH  12  16
HETATM   16  O1  UNL     1     -17.243  18.388 -20.442  1.00  0.00    -0.354 OA
HETATM   17  C1  UNL     1     -17.677  19.277 -21.444  1.00  0.00     0.210 C 
ENDBRANCH  12  16
ENDBRANCH   6   9
ENDBRANCH   1   5
BRANCH   3  18
HETATM   18  O3  UNL     1     -22.231  17.519 -15.932  1.00  0.00    -0.207 OA
BRANCH  18  19
HETATM   19  C8  UNL     1     -22.431  18.610 -16.725  1.00  0.00     0.376 C 
HETATM   20  O4  UNL     1     -21.469  19.385 -16.920  1.00  0.00    -0.237 OA
HETATM   21  N4  UNL     1     -23.693  18.860 -17.308  1.00  0.00    -0.293 N 
HETATM   22  C9  UNL     1     -24.808  18.001 -17.112  1.00  0.00     0.010 C 
HETATM   23  C16 UNL     1     -23.821  20.062 -18.137  1.00  0.00     0.092 C 
HETATM   24  C10 UNL     1     -24.559  16.559 -16.901  1.00  0.00     0.068 C 
HETATM   25  C11 UNL     1     -26.046  18.498 -17.121  1.00  0.00     0.007 C 
HETATM   26  C12 UNL     1     -26.168  19.955 -17.343  1.00  0.00    -0.026 C 
HETATM   27  C13 UNL     1     -27.563  20.391 -17.682  1.00  0.00     0.019 C 
HETATM   28  C14 UNL     1     -25.748  20.654 -16.066  1.00  0.00     0.019 C 
HETATM   29  C15 UNL     1     -25.249  20.315 -18.490  1.00  0.00     0.038 C 
HETATM   30  C17 UNL     1     -22.972  19.851 -19.394  1.00  0.00     0.033 C 
ENDBRANCH  18  19
ENDBRANCH   3  18
TORSDOF 5
ENDMDL
MODEL 3
REMARK VINA RESULT: -8.463301970      2.276      3.065
REMARK  5 active torsions:
REMARK  status: ('A' for Active; 'I' for Inactive)
REMARK    1  A    between atoms: O1_2  and  C2_3 
REMARK    2  A    between atoms: C5_6  and  N1_7 
REMARK    3  A    between atoms: N2_9  and  N3_11 
REMARK       I    between atoms: N3_11  and  C7_13 
REMARK    4  A    between atoms: C7_13  and  O3_15 
REMARK    5  A    between atoms: O3_15  and  C8_16 
REMARK       I    between atoms: C8_16  and  N4_18 
ROOT
HETATM    1  N3  UNL     1     -26.023  18.836 -16.782  1.00  0.00    -0.226 N 
HETATM    2  C6  UNL     1     -27.432  18.606 -16.918  1.00  0.00     0.185 C 
HETATM    3  C7  UNL     1     -25.107  17.889 -17.272  1.00  0.00     0.391 C 
HETATM    4  O2  UNL     1     -25.508  16.819 -17.839  1.00  0.00    -0.236 OA
ENDROOT
BRANCH   1   5
HETATM    5  N2  UNL     1     -25.568  19.990 -16.171  1.00  0.00    -0.236 N 
HETATM    6  N1  UNL     1     -25.413  21.103 -16.745  1.00  0.00    -0.286 N 
ATOM      7  H1  UNL     1     -25.071  21.908 -16.221  1.00  0.00     0.188 HD
ATOM      8  H2  UNL     1     -25.339  19.937 -15.179  1.00  0.00     0.208 HD
BRANCH   6   9
HETATM    9  C5  UNL     1     -25.715  21.222 -18.103  1.00  0.00     0.051 A 
HETATM   10  C4  UNL     1     -26.964  21.608 -18.515  1.00  0.00     0.034 A 
HETATM   11  C3  UNL     1     -27.257  21.725 -19.858  1.00  0.00     0.041 A 
HETATM   12  C2  UNL     1     -26.316  21.462 -20.842  1.00  0.00     0.090 A 
HETATM   13  C19 UNL     1     -25.073  21.078 -20.385  1.00  0.00     0.069 A 
HETATM   14  C18 UNL     1     -24.760  20.955 -19.050  1.00  0.00     0.057 A 
HETATM   15 CL1  UNL     1     -23.847  20.736 -21.605  1.00  0.00    -0.081 Cl
BRANCH  12  16
HETATM   16  O1  UNL     1     -26.624  21.585 -22.188  1.00  0.00    -0.354 OA
HETATM   17  C1  UNL     1     -27.561  22.562 -22.573  1.00  0.00     0.210 C 
ENDBRANCH  12  16
ENDBRANCH   6   9
ENDBRANCH   1   5
BRANCH   3  18
HETATM   18  O3  UNL     1     -23.740  18.098 -17.148  1.00  0.00    -0.207 OA
BRANCH  18  19
HETATM   19  C8  UNL     1     -22.852  18.014 -18.180  1.00  0.00     0.376 C 
HETATM   20  O4  UNL     1     -23.259  18.271 -19.334  1.00  0.00    -0.237 OA
HETATM   21  N4  UNL     1     -21.508  17.644 -17.951  1.00  0.00    -0.293 N 
HETATM   22  C9  UNL     1     -21.008  17.348 -16.654  1.00  0.00     0.010 C 
HETATM   23  C16 UNL     1     -20.626  17.570 -19.119  1.00  0.00     0.092 C 
HETATM   24  C10 UNL     1     -21.611  18.036 -15.492  1.00  0.00     0.068 C 
HETATM   25  C11 UNL     1     -20.017  16.467 -16.503  1.00  0.00     0.007 C 
HETATM   26  C12 UNL     1     -19.496  15.846 -17.739  1.00  0.00    -0.026 C 
HETATM   27  C13 UNL     1     -18.184  15.145 -17.546  1.00  0.00     0.019 C 
HETATM   28  C14 UNL     1     -20.515  14.828 -18.210  1.00  0.00     0.019 C 
HETATM   29  C15 UNL     1     -19.317  16.951 -18.758  1.00  0.00     0.038 C 
HETATM   30  C17 UNL     1     -20.435  18.994 -19.648  1.00  0.00     0.033 C 
ENDBRANCH  18  19
ENDBRANCH   3  18
TORSDOF 5
ENDMDL
MODEL 4
REMARK VINA RESULT: -8.361607036      2.827      5.085
REMARK  5 active torsions:
REMARK  status: ('A' for Active; 'I' for Inactive)
REMARK    1  A    between atoms: O1_2  and  C2_3 
REMARK    2  A    between atoms: C5_6  and  N1_7 
REMARK    3  A    between atoms: N2_9  and  N3_11 
REMARK       I    between atoms: N3_11  and  C7_13 
REMARK    4  A    between atoms: C7_13  and  O3_15 
REMARK    5  A    between atoms: O3_15  and  C8_16 
REMARK       I    between atoms: C8_16  and  N4_18 
ROOT
HETATM    1  N3  UNL     1     -24.306  18.602 -17.901  1.00  0.00    -0.226 N 
HETATM    2  C6  UNL     1     -25.005  19.297 -16.859  1.00  0.00     0.185 C 
HETATM    3  C7  UNL     1     -23.238  19.228 -18.568  1.00  0.00     0.391 C 
HETATM    4  O2  UNL     1     -22.875  20.412 -18.262  1.00  0.00    -0.236 OA
ENDROOT
BRANCH   1   5
HETATM    5  N2  UNL     1     -24.684  17.318 -18.248  1.00  0.00    -0.236 N 
HETATM    6  N1  UNL     1     -24.105  16.264 -17.867  1.00  0.00    -0.286 N 
ATOM      7  H1  UNL     1     -24.447  15.352 -18.169  1.00  0.00     0.188 HD
ATOM      8  H2  UNL     1     -25.493  17.215 -18.860  1.00  0.00     0.208 HD
BRANCH   6   9
HETATM    9  C5  UNL     1     -22.993  16.356 -17.028  1.00  0.00     0.051 A 
HETATM   10  C4  UNL     1     -21.745  16.002 -17.473  1.00  0.00     0.034 A 
HETATM   11  C3  UNL     1     -20.649  16.095 -16.640  1.00  0.00     0.041 A 
HETATM   12  C2  UNL     1     -20.754  16.545 -15.333  1.00  0.00     0.090 A 
HETATM   13  C19 UNL     1     -22.025  16.891 -14.926  1.00  0.00     0.069 A 
HETATM   14  C18 UNL     1     -23.132  16.805 -15.740  1.00  0.00     0.057 A 
HETATM   15 CL1  UNL     1     -22.202  17.468 -13.269  1.00  0.00    -0.081 Cl
BRANCH  12  16
HETATM   16  O1  UNL     1     -19.644  16.634 -14.508  1.00  0.00    -0.354 OA
HETATM   17  C1  UNL     1     -18.509  15.866 -14.829  1.00  0.00     0.210 C 
ENDBRANCH  12  16
ENDBRANCH   6   9
ENDBRANCH   1   5
BRANCH   3  18
HETATM   18  O3  UNL     1     -22.553  18.568 -19.579  1.00  0.00    -0.207 OA
BRANCH  18  19
HETATM   19  C8  UNL     1     -22.025  19.180 -20.677  1.00  0.00     0.376 C 
HETATM   20  O4  UNL     1     -22.798  19.499 -21.606  1.00  0.00    -0.237 OA
HETATM   21  N4  UNL     1     -20.640  19.447 -20.762  1.00  0.00    -0.293 N 
HETATM   22  C9  UNL     1     -19.731  19.103 -19.726  1.00  0.00     0.010 C 
HETATM   23  C16 UNL     1     -20.158  20.099 -21.983  1.00  0.00     0.092 C 
HETATM   24  C10 UNL     1     -20.221  19.102 -18.330  1.00  0.00     0.068 C 
HETATM   25  C11 UNL     1     -18.467  18.791 -20.018  1.00  0.00     0.007 C 
HETATM   26  C12 UNL     1     -18.095  18.829 -21.449  1.00  0.00    -0.026 C 
HETATM   27  C13 UNL     1     -16.613  18.810 -21.679  1.00  0.00     0.019 C 
HETATM   28  C14 UNL     1     -18.697  17.608 -22.115  1.00  0.00     0.019 C 
HETATM   29  C15 UNL     1     -18.666  20.105 -22.029  1.00  0.00     0.038 C 
HETATM   30  C17 UNL     1     -20.716  21.525 -21.998  1.00  0.00     0.033 C 
ENDBRANCH  18  19
ENDBRANCH   3  18
TORSDOF 5
ENDMDL
MODEL 5
REMARK VINA RESULT: -8.358536575      2.948      4.323
REMARK  5 active torsions:
REMARK  status: ('A' for Active; 'I' for Inactive)
REMARK    1  A    between atoms: O1_2  and  C2_3 
REMARK    2  A    between atoms: C5_6  and  N1_7 
REMARK    3  A    between atoms: N2_9  and  N3_11 
REMARK       I    between atoms: N3_11  and  C7_13 
REMARK    4  A    between atoms: C7_13  and  O3_15 
REMARK    5  A    between atoms: O3_15  and  C8_16 
REMARK       I    between atoms: C8_16  and  N4_18 
ROOT
HETATM    1  N3  UNL     1     -24.874  18.117 -17.737  1.00  0.00    -0.226 N 
HETATM    2  C6  UNL     1     -26.104  17.444 -17.432  1.00  0.00     0.185 C 
HETATM    3  C7  UNL     1     -23.870  17.450 -18.462  1.00  0.00     0.391 C 
HETATM    4  O2  UNL     1     -24.033  16.248 -18.856  1.00  0.00    -0.236 OA
ENDROOT
BRANCH   1   5
HETATM    5  N2  UNL     1     -24.678  19.420 -17.319  1.00  0.00    -0.236 N 
HETATM    6  N1  UNL     1     -24.254  19.759 -16.180  1.00  0.00    -0.286 N 
ATOM      7  H1  UNL     1     -24.137  20.746 -15.948  1.00  0.00     0.188 HD
ATOM      8  H2  UNL     1     -24.893  20.164 -17.981  1.00  0.00     0.208 HD
BRANCH   6   9
HETATM    9  C5  UNL     1     -23.945  18.774 -15.240  1.00  0.00     0.051 A 
HETATM   10  C4  UNL     1     -24.886  18.339 -14.343  1.00  0.00     0.034 A 
HETATM   11  C3  UNL     1     -24.577  17.365 -13.416  1.00  0.00     0.041 A 
HETATM   12  C2  UNL     1     -23.318  16.787 -13.348  1.00  0.00     0.090 A 
HETATM   13  C19 UNL     1     -22.403  17.252 -14.268  1.00  0.00     0.069 A 
HETATM   14  C18 UNL     1     -22.690  18.223 -15.201  1.00  0.00     0.057 A 
HETATM   15 CL1  UNL     1     -20.789  16.542 -14.216  1.00  0.00    -0.081 Cl
BRANCH  12  16
HETATM   16  O1  UNL     1     -23.022  15.809 -12.412  1.00  0.00    -0.354 OA
HETATM   17  C1  UNL     1     -23.366  14.476 -12.706  1.00  0.00     0.210 C 
ENDBRANCH  12  16
ENDBRANCH   6   9
ENDBRANCH   1   5
BRANCH   3  18
HETATM   18  O3  UNL     1     -22.675  18.088 -18.764  1.00  0.00    -0.207 OA
BRANCH  18  19
HETATM   19  C8  UNL     1     -22.434  18.758 -19.927  1.00  0.00     0.376 C 
HETATM   20  O4  UNL     1     -23.383  18.924 -20.724  1.00  0.00    -0.237 OA
HETATM   21  N4  UNL     1     -21.144  19.252 -20.225  1.00  0.00    -0.293 N 
HETATM   22  C9  UNL     1     -20.041  19.086 -19.344  1.00  0.00     0.010 C 
HETATM   23  C16 UNL     1     -20.973  19.951 -21.502  1.00  0.00     0.092 C 
HETATM   24  C10 UNL     1     -20.303  19.032 -17.889  1.00  0.00     0.068 C 
HETATM   25  C11 UNL     1     -18.804  18.986 -19.831  1.00  0.00     0.007 C 
HETATM   26  C12 UNL     1     -18.668  19.056 -21.302  1.00  0.00    -0.026 C 
HETATM   27  C13 UNL     1     -17.258  19.282 -21.760  1.00  0.00     0.019 C 
HETATM   28  C14 UNL     1     -19.150  17.739 -21.874  1.00  0.00     0.019 C 
HETATM   29  C15 UNL     1     -19.529  20.207 -21.779  1.00  0.00     0.038 C 
HETATM   30  C17 UNL     1     -21.760  21.263 -21.421  1.00  0.00     0.033 C 
ENDBRANCH  18  19
ENDBRANCH   3  18
TORSDOF 5
ENDMDL
