MODEL 1
REMARK VINA RESULT: -4.800655958      0.000      0.000
REMARK  10 active torsions:
REMARK  status: ('A' for Active; 'I' for Inactive)
REMARK       I    between atoms: C2_2  and  N1_4 
REMARK    1  A    between atoms: N1_4  and  C3_6 
REMARK    2  A    between atoms: C3_6  and  C4_7 
REMARK    3  A    between atoms: C3_6  and  C8_11 
REMARK    4  A    between atoms: C4_7  and  C5_8 
REMARK    5  A    between atoms: C8_11  and  O2_12 
REMARK    6  A    between atoms: C8_11  and  C9_14 
REMARK    7  A    between atoms: C10_16  and  C11_17 
REMARK    8  A    between atoms: C11_17  and  C13_19 
REMARK    9  A    between atoms: C11_17  and  C16_23 
REMARK   10  A    between atoms: C16_23  and  S1_24 
ROOT
HETATM    1  C13 UNL     1     -34.747  -7.577  11.673  1.00  0.00    -0.077 C 
HETATM    2  C14 UNL     1     -35.768  -8.211  11.783  1.00  0.00     0.014 C 
HETATM    3  C15 UNL     1     -36.978  -8.933  11.910  1.00  0.00     0.152 C 
HETATM    4  N2  UNL     1     -37.976  -9.513  12.002  1.00  0.00    -0.182 NA
ENDROOT
BRANCH   1   5
HETATM    5  C11 UNL     1     -33.483  -6.807  11.513  1.00  0.00     0.062 C 
HETATM    6  C12 UNL     1     -33.874  -5.556  10.770  1.00  0.00     0.033 C 
BRANCH   5   7
HETATM    7  C10 UNL     1     -32.581  -7.697  10.689  1.00  0.00     0.174 A 
HETATM    8  C9  UNL     1     -31.778  -8.636  11.352  1.00  0.00     0.183 A 
HETATM    9  O3  UNL     1     -33.019  -9.015  10.640  1.00  0.00    -0.371 OA
BRANCH   8  10
HETATM   10  C8  UNL     1     -30.656  -9.443  10.742  1.00  0.00     0.172 C 
BRANCH  10  11
HETATM   11  C3  UNL     1     -29.366  -9.272  11.554  1.00  0.00     0.116 C 
BRANCH  11  12
HETATM   12  N1  UNL     1     -29.035  -7.871  11.695  1.00  0.00    -0.354 N 
HETATM   13  C2  UNL     1     -28.151  -7.172  10.834  1.00  0.00     0.214 C 
HETATM   14  C1  UNL     1     -27.808  -5.759  10.965  1.00  0.00     0.117 C 
HETATM   15  O1  UNL     1     -27.639  -7.861   9.889  1.00  0.00    -0.274 OA
ATOM     16  H1  UNL     1     -29.464  -7.354  12.463  1.00  0.00     0.162 HD
ENDBRANCH  11  12
BRANCH  11  17
HETATM   17  C4  UNL     1     -29.616  -9.853  12.898  1.00  0.00     0.031 C 
BRANCH  17  18
HETATM   18  C5  UNL     1     -28.718  -9.372  13.984  1.00  0.00    -0.021 C 
HETATM   19  C6  UNL     1     -27.428 -10.090  14.116  1.00  0.00     0.009 C 
HETATM   20  C7  UNL     1     -29.428  -9.384  15.321  1.00  0.00     0.009 C 
ENDBRANCH  17  18
ENDBRANCH  11  17
ENDBRANCH  10  11
BRANCH  10  21
HETATM   21  O2  UNL     1     -30.464  -9.204   9.402  1.00  0.00    -0.391 OA
ATOM     22  H2  UNL     1     -29.639  -9.556   9.087  1.00  0.00     0.210 HD
ENDBRANCH  10  21
ENDBRANCH   8  10
ENDBRANCH   5   7
BRANCH   5  23
HETATM   23  C16 UNL     1     -32.920  -6.592  12.851  1.00  0.00     0.164 C 
BRANCH  23  24
HETATM   24  S1  UNL     1     -31.600  -5.508  13.076  1.00  0.00     0.142 S 
HETATM   25  C17 UNL     1     -31.942  -3.965  13.810  1.00  0.00     0.161 C 
HETATM   26  O4  UNL     1     -30.425  -6.135  13.822  1.00  0.00    -0.228 OA
HETATM   27  O5  UNL     1     -31.024  -5.212  11.691  1.00  0.00    -0.228 OA
ENDBRANCH  23  24
ENDBRANCH   5  23
ENDBRANCH   1   5
TORSDOF 10
ENDMDL
MODEL 2
REMARK VINA RESULT: -4.751591129      2.696      7.351
REMARK  10 active torsions:
REMARK  status: ('A' for Active; 'I' for Inactive)
REMARK       I    between atoms: C2_2  and  N1_4 
REMARK    1  A    between atoms: N1_4  and  C3_6 
REMARK    2  A    between atoms: C3_6  and  C4_7 
REMARK    3  A    between atoms: C3_6  and  C8_11 
REMARK    4  A    between atoms: C4_7  and  C5_8 
REMARK    5  A    between atoms: C8_11  and  O2_12 
REMARK    6  A    between atoms: C8_11  and  C9_14 
REMARK    7  A    between atoms: C10_16  and  C11_17 
REMARK    8  A    between atoms: C11_17  and  C13_19 
REMARK    9  A    between atoms: C11_17  and  C16_23 
REMARK   10  A    between atoms: C16_23  and  S1_24 
ROOT
HETATM    1  C13 UNL     1     -31.326  -7.303  11.210  1.00  0.00    -0.077 C 
HETATM    2  C14 UNL     1     -30.257  -7.660  10.778  1.00  0.00     0.014 C 
HETATM    3  C15 UNL     1     -28.993  -8.058  10.283  1.00  0.00     0.152 C 
HETATM    4  N2  UNL     1     -27.951  -8.377   9.892  1.00  0.00    -0.182 NA
ENDROOT
BRANCH   1   5
HETATM    5  C11 UNL     1     -32.645  -6.886  11.760  1.00  0.00     0.062 C 
HETATM    6  C12 UNL     1     -32.334  -6.238  13.084  1.00  0.00     0.033 C 
BRANCH   5   7
HETATM    7  C10 UNL     1     -33.427  -8.169  11.925  1.00  0.00     0.174 A 
HETATM    8  C9  UNL     1     -34.809  -8.148  11.688  1.00  0.00     0.183 A 
HETATM    9  O3  UNL     1     -33.845  -8.709  10.715  1.00  0.00    -0.371 OA
BRANCH   8  10
HETATM   10  C8  UNL     1     -35.790  -9.248  12.020  1.00  0.00     0.172 C 
BRANCH  10  11
HETATM   11  C3  UNL     1     -37.138  -8.656  12.448  1.00  0.00     0.116 C 
BRANCH  11  12
HETATM   12  N1  UNL     1     -37.033  -8.039  13.752  1.00  0.00    -0.354 N 
HETATM   13  C2  UNL     1     -37.868  -8.357  14.853  1.00  0.00     0.214 C 
HETATM   14  C1  UNL     1     -37.773  -7.742  16.174  1.00  0.00     0.117 C 
HETATM   15  O1  UNL     1     -38.755  -9.250  14.634  1.00  0.00    -0.274 OA
ATOM     16  H1  UNL     1     -36.312  -7.329  13.888  1.00  0.00     0.162 HD
ENDBRANCH  11  12
BRANCH  11  17
HETATM   17  C4  UNL     1     -37.498  -7.621  11.446  1.00  0.00     0.031 C 
BRANCH  17  18
HETATM   18  C5  UNL     1     -38.818  -6.961  11.648  1.00  0.00    -0.021 C 
HETATM   19  C6  UNL     1     -40.006  -7.817  11.422  1.00  0.00     0.009 C 
HETATM   20  C7  UNL     1     -38.939  -5.716  10.795  1.00  0.00     0.009 C 
ENDBRANCH  17  18
ENDBRANCH  11  17
ENDBRANCH  10  11
BRANCH  10  21
HETATM   21  O2  UNL     1     -35.312 -10.165  12.925  1.00  0.00    -0.391 OA
ATOM     22  H2  UNL     1     -34.363 -10.165  12.972  1.00  0.00     0.210 HD
ENDBRANCH  10  21
ENDBRANCH   8  10
ENDBRANCH   5   7
BRANCH   5  23
HETATM   23  C16 UNL     1     -33.284  -6.012  10.769  1.00  0.00     0.164 C 
BRANCH  23  24
HETATM   24  S1  UNL     1     -32.792  -4.368  10.611  1.00  0.00     0.142 S 
HETATM   25  C17 UNL     1     -33.182  -3.283  11.917  1.00  0.00     0.161 C 
HETATM   26  O4  UNL     1     -31.308  -4.211  10.292  1.00  0.00    -0.228 OA
HETATM   27  O5  UNL     1     -33.484  -3.815   9.364  1.00  0.00    -0.228 OA
ENDBRANCH  23  24
ENDBRANCH   5  23
ENDBRANCH   1   5
TORSDOF 10
ENDMDL
MODEL 3
REMARK VINA RESULT: -4.743572213      2.439      7.015
REMARK  10 active torsions:
REMARK  status: ('A' for Active; 'I' for Inactive)
REMARK       I    between atoms: C2_2  and  N1_4 
REMARK    1  A    between atoms: N1_4  and  C3_6 
REMARK    2  A    between atoms: C3_6  and  C4_7 
REMARK    3  A    between atoms: C3_6  and  C8_11 
REMARK    4  A    between atoms: C4_7  and  C5_8 
REMARK    5  A    between atoms: C8_11  and  O2_12 
REMARK    6  A    between atoms: C8_11  and  C9_14 
REMARK    7  A    between atoms: C10_16  and  C11_17 
REMARK    8  A    between atoms: C11_17  and  C13_19 
REMARK    9  A    between atoms: C11_17  and  C16_23 
REMARK   10  A    between atoms: C16_23  and  S1_24 
ROOT
HETATM    1  C13 UNL     1     -30.479  -8.992  13.334  1.00  0.00    -0.077 C 
HETATM    2  C14 UNL     1     -29.864  -9.477  14.252  1.00  0.00     0.014 C 
HETATM    3  C15 UNL     1     -29.140 -10.066  15.315  1.00  0.00     0.152 C 
HETATM    4  N2  UNL     1     -28.539 -10.557  16.174  1.00  0.00    -0.182 NA
ENDROOT
BRANCH   1   5
HETATM    5  C11 UNL     1     -31.216  -8.376  12.197  1.00  0.00     0.062 C 
HETATM    6  C12 UNL     1     -31.586  -6.994  12.668  1.00  0.00     0.033 C 
BRANCH   5   7
HETATM    7  C10 UNL     1     -32.433  -9.251  11.996  1.00  0.00     0.174 A 
HETATM    8  C9  UNL     1     -33.683  -8.637  11.836  1.00  0.00     0.183 A 
HETATM    9  O3  UNL     1     -32.926  -9.202  10.697  1.00  0.00    -0.371 OA
BRANCH   8  10
HETATM   10  C8  UNL     1     -35.027  -9.326  11.858  1.00  0.00     0.172 C 
BRANCH  10  11
HETATM   11  C3  UNL     1     -36.162  -8.295  11.801  1.00  0.00     0.116 C 
BRANCH  11  12
HETATM   12  N1  UNL     1     -36.988  -8.382  12.985  1.00  0.00    -0.354 N 
HETATM   13  C2  UNL     1     -38.273  -8.980  13.016  1.00  0.00     0.214 C 
HETATM   14  C1  UNL     1     -39.118  -9.074  14.203  1.00  0.00     0.117 C 
HETATM   15  O1  UNL     1     -38.687  -9.460  11.907  1.00  0.00    -0.274 OA
ATOM     16  H1  UNL     1     -36.623  -7.987  13.852  1.00  0.00     0.162 HD
ENDBRANCH  11  12
BRANCH  11  17
HETATM   17  C4  UNL     1     -35.529  -6.953  11.744  1.00  0.00     0.031 C 
BRANCH  17  18
HETATM   18  C5  UNL     1     -36.459  -5.813  11.514  1.00  0.00    -0.021 C 
HETATM   19  C6  UNL     1     -36.616  -5.385  10.103  1.00  0.00     0.009 C 
HETATM   20  C7  UNL     1     -36.066  -4.614  12.351  1.00  0.00     0.009 C 
ENDBRANCH  17  18
ENDBRANCH  11  17
ENDBRANCH  10  11
BRANCH  10  21
HETATM   21  O2  UNL     1     -35.180 -10.214  12.895  1.00  0.00    -0.391 OA
ATOM     22  H2  UNL     1     -34.450 -10.818  12.964  1.00  0.00     0.210 HD
ENDBRANCH  10  21
ENDBRANCH   8  10
ENDBRANCH   5   7
BRANCH   5  23
HETATM   23  C16 UNL     1     -30.341  -8.424  11.021  1.00  0.00     0.164 C 
BRANCH  23  24
HETATM   24  S1  UNL     1     -29.041  -7.305  10.855  1.00  0.00     0.142 S 
HETATM   25  C17 UNL     1     -29.439  -5.675  10.384  1.00  0.00     0.161 C 
HETATM   26  O4  UNL     1     -28.144  -7.236  12.088  1.00  0.00    -0.228 OA
HETATM   27  O5  UNL     1     -28.114  -7.857   9.771  1.00  0.00    -0.228 OA
ENDBRANCH  23  24
ENDBRANCH   5  23
ENDBRANCH   1   5
TORSDOF 10
ENDMDL
MODEL 4
REMARK VINA RESULT: -4.732129481      3.894      6.064
REMARK  10 active torsions:
REMARK  status: ('A' for Active; 'I' for Inactive)
REMARK       I    between atoms: C2_2  and  N1_4 
REMARK    1  A    between atoms: N1_4  and  C3_6 
REMARK    2  A    between atoms: C3_6  and  C4_7 
REMARK    3  A    between atoms: C3_6  and  C8_11 
REMARK    4  A    between atoms: C4_7  and  C5_8 
REMARK    5  A    between atoms: C8_11  and  O2_12 
REMARK    6  A    between atoms: C8_11  and  C9_14 
REMARK    7  A    between atoms: C10_16  and  C11_17 
REMARK    8  A    between atoms: C11_17  and  C13_19 
REMARK    9  A    between atoms: C11_17  and  C16_23 
REMARK   10  A    between atoms: C16_23  and  S1_24 
ROOT
HETATM    1  C13 UNL     1     -39.639  -9.339  11.175  1.00  0.00    -0.077 C 
HETATM    2  C14 UNL     1     -40.385  -9.864  10.385  1.00  0.00     0.014 C 
HETATM    3  C15 UNL     1     -41.263 -10.458   9.448  1.00  0.00     0.152 C 
HETATM    4  N2  UNL     1     -41.976 -10.932   8.669  1.00  0.00    -0.182 NA
ENDROOT
BRANCH   1   5
HETATM    5  C11 UNL     1     -38.697  -8.706  12.138  1.00  0.00     0.062 C 
HETATM    6  C12 UNL     1     -38.612  -7.262  11.716  1.00  0.00     0.033 C 
BRANCH   5   7
HETATM    7  C10 UNL     1     -37.386  -9.432  11.943  1.00  0.00     0.174 A 
HETATM    8  C9  UNL     1     -36.200  -8.684  11.926  1.00  0.00     0.183 A 
HETATM    9  O3  UNL     1     -36.617  -9.483  13.100  1.00  0.00    -0.371 OA
BRANCH   8  10
HETATM   10  C8  UNL     1     -34.834  -9.183  11.517  1.00  0.00     0.172 C 
BRANCH  10  11
HETATM   11  C3  UNL     1     -33.803  -8.050  11.588  1.00  0.00     0.116 C 
BRANCH  11  12
HETATM   12  N1  UNL     1     -32.698  -8.310  10.692  1.00  0.00    -0.354 N 
HETATM   13  C2  UNL     1     -31.470  -8.896  11.092  1.00  0.00     0.214 C 
HETATM   14  C1  UNL     1     -30.347  -9.164  10.199  1.00  0.00     0.117 C 
HETATM   15  O1  UNL     1     -31.379  -9.198  12.330  1.00  0.00    -0.274 OA
ATOM     16  H1  UNL     1     -32.809  -8.055   9.710  1.00  0.00     0.162 HD
ENDBRANCH  11  12
BRANCH  11  17
HETATM   17  C4  UNL     1     -34.493  -6.805  11.164  1.00  0.00     0.031 C 
BRANCH  17  18
HETATM   18  C5  UNL     1     -34.203  -5.597  11.985  1.00  0.00    -0.021 C 
HETATM   19  C6  UNL     1     -33.207  -5.780  13.067  1.00  0.00     0.009 C 
HETATM   20  C7  UNL     1     -35.474  -5.025  12.578  1.00  0.00     0.009 C 
ENDBRANCH  17  18
ENDBRANCH  11  17
ENDBRANCH  10  11
BRANCH  10  21
HETATM   21  O2  UNL     1     -34.817  -9.828  10.303  1.00  0.00    -0.391 OA
ATOM     22  H2  UNL     1     -34.824  -9.221   9.572  1.00  0.00     0.210 HD
ENDBRANCH  10  21
ENDBRANCH   8  10
ENDBRANCH   5   7
BRANCH   5  23
HETATM   23  C16 UNL     1     -39.221  -8.934  13.489  1.00  0.00     0.164 C 
BRANCH  23  24
HETATM   24  S1  UNL     1     -39.268  -7.647  14.635  1.00  0.00     0.142 S 
HETATM   25  C17 UNL     1     -37.774  -6.817  14.973  1.00  0.00     0.161 C 
HETATM   26  O4  UNL     1     -40.331  -6.598  14.320  1.00  0.00    -0.228 OA
HETATM   27  O5  UNL     1     -39.742  -8.247  15.959  1.00  0.00    -0.228 OA
ENDBRANCH  23  24
ENDBRANCH   5  23
ENDBRANCH   1   5
TORSDOF 10
ENDMDL
MODEL 5
REMARK VINA RESULT: -4.726884329      2.894      7.426
REMARK  10 active torsions:
REMARK  status: ('A' for Active; 'I' for Inactive)
REMARK       I    between atoms: C2_2  and  N1_4 
REMARK    1  A    between atoms: N1_4  and  C3_6 
REMARK    2  A    between atoms: C3_6  and  C4_7 
REMARK    3  A    between atoms: C3_6  and  C8_11 
REMARK    4  A    between atoms: C4_7  and  C5_8 
REMARK    5  A    between atoms: C8_11  and  O2_12 
REMARK    6  A    between atoms: C8_11  and  C9_14 
REMARK    7  A    between atoms: C10_16  and  C11_17 
REMARK    8  A    between atoms: C11_17  and  C13_19 
REMARK    9  A    between atoms: C11_17  and  C16_23 
REMARK   10  A    between atoms: C16_23  and  S1_24 
ROOT
HETATM    1  C13 UNL     1     -32.205  -6.769  12.673  1.00  0.00    -0.077 C 
HETATM    2  C14 UNL     1     -31.659  -6.437  13.696  1.00  0.00     0.014 C 
HETATM    3  C15 UNL     1     -30.999  -6.041  14.884  1.00  0.00     0.152 C 
HETATM    4  N2  UNL     1     -30.449  -5.707  15.846  1.00  0.00    -0.182 NA
ENDROOT
BRANCH   1   5
HETATM    5  C11 UNL     1     -32.895  -7.157  11.412  1.00  0.00     0.062 C 
HETATM    6  C12 UNL     1     -33.769  -5.981  11.062  1.00  0.00     0.033 C 
BRANCH   5   7
HETATM    7  C10 UNL     1     -33.707  -8.382  11.768  1.00  0.00     0.174 A 
HETATM    8  C9  UNL     1     -35.102  -8.323  11.640  1.00  0.00     0.183 A 
HETATM    9  O3  UNL     1     -34.243  -9.018  10.654  1.00  0.00    -0.371 OA
BRANCH   8  10
HETATM   10  C8  UNL     1     -36.091  -9.341  12.157  1.00  0.00     0.172 C 
BRANCH  10  11
HETATM   11  C3  UNL     1     -37.330  -8.644  12.731  1.00  0.00     0.116 C 
BRANCH  11  12
HETATM   12  N1  UNL     1     -37.043  -8.085  14.034  1.00  0.00    -0.354 N 
HETATM   13  C2  UNL     1     -37.927  -8.150  15.140  1.00  0.00     0.214 C 
HETATM   14  C1  UNL     1     -37.650  -7.591  16.460  1.00  0.00     0.117 C 
HETATM   15  O1  UNL     1     -39.035  -8.750  14.928  1.00  0.00    -0.274 OA
ATOM     16  H1  UNL     1     -36.147  -7.613  14.164  1.00  0.00     0.162 HD
ENDBRANCH  11  12
BRANCH  11  17
HETATM   17  C4  UNL     1     -37.686  -7.546  11.797  1.00  0.00     0.031 C 
BRANCH  17  18
HETATM   18  C5  UNL     1     -39.131  -7.195  11.736  1.00  0.00    -0.021 C 
HETATM   19  C6  UNL     1     -40.053  -8.317  11.437  1.00  0.00     0.009 C 
HETATM   20  C7  UNL     1     -39.379  -6.078  10.744  1.00  0.00     0.009 C 
ENDBRANCH  17  18
ENDBRANCH  11  17
ENDBRANCH  10  11
BRANCH  10  21
HETATM   21  O2  UNL     1     -35.548 -10.247  13.036  1.00  0.00    -0.391 OA
ATOM     22  H2  UNL     1     -34.974 -10.869  12.605  1.00  0.00     0.210 HD
ENDBRANCH  10  21
ENDBRANCH   8  10
ENDBRANCH   5   7
BRANCH   5  23
HETATM   23  C16 UNL     1     -31.863  -7.487  10.423  1.00  0.00     0.164 C 
BRANCH  23  24
HETATM   24  S1  UNL     1     -30.588  -8.575  10.823  1.00  0.00     0.142 S 
HETATM   25  C17 UNL     1     -29.004  -7.896  11.085  1.00  0.00     0.161 C 
HETATM   26  O4  UNL     1     -30.916  -9.479  12.008  1.00  0.00    -0.228 OA
HETATM   27  O5  UNL     1     -30.454  -9.554   9.656  1.00  0.00    -0.228 OA
ENDBRANCH  23  24
ENDBRANCH   5  23
ENDBRANCH   1   5
TORSDOF 10
ENDMDL
