MODEL 1
REMARK VINA RESULT: -6.515290404      0.000      0.000
REMARK  4 active torsions:
REMARK  status: ('A' for Active; 'I' for Inactive)
REMARK    1  A    between atoms: C8_9  and  C9_10 
REMARK       I    between atoms: C9_10  and  N1_12 
REMARK    2  A    between atoms: N1_12  and  C10_14 
REMARK    3  A    between atoms: C10_14  and  N2_16 
REMARK    4  A    between atoms: N2_16  and  N3_18 
ROOT
HETATM    1  C9  UNL     1      28.658 -13.974 -22.134  1.00  0.00     0.228 C 
HETATM    2  O1  UNL     1      28.947 -15.178 -22.202  1.00  0.00    -0.273 OA
HETATM    3  N1  UNL     1      29.280 -13.192 -21.126  1.00  0.00    -0.302 N 
ATOM      4  H1  UNL     1      29.047 -12.201 -21.063  1.00  0.00     0.171 HD
ENDROOT
BRANCH   1   5
HETATM    5  C8  UNL     1      27.713 -13.377 -23.054  1.00  0.00     0.086 C 
HETATM    6  C2  UNL     1      26.341 -13.138 -22.516  1.00  0.00    -0.035 C 
HETATM    7  C1  UNL     1      25.879 -14.131 -21.508  1.00  0.00     0.015 C 
HETATM    8  C3  UNL     1      26.275 -11.755 -21.905  1.00  0.00     0.015 C 
HETATM    9  C4  UNL     1      25.355 -13.189 -23.689  1.00  0.00     0.025 C 
HETATM   10  C5  UNL     1      25.950 -12.550 -24.925  1.00  0.00     0.058 C 
HETATM   11 BR1  UNL     1      24.565 -12.511 -26.273  1.00  0.00    -0.091 Br
HETATM   12  C6  UNL     1      27.093 -13.399 -25.478  1.00  0.00     0.017 C 
HETATM   13  C7  UNL     1      27.709 -14.174 -24.339  1.00  0.00     0.016 C 
ENDBRANCH   1   5
BRANCH   3  14
HETATM   14  C10 UNL     1      30.212 -13.733 -20.203  1.00  0.00     0.194 C 
HETATM   15  S1  UNL     1      31.678 -13.036 -19.970  1.00  0.00    -0.039 SA
BRANCH  14  16
HETATM   16  N2  UNL     1      29.857 -14.897 -19.473  1.00  0.00    -0.262 N 
ATOM     17  H2  UNL     1      29.138 -14.851 -18.751  1.00  0.00     0.191 HD
BRANCH  16  18
HETATM   18  N3  UNL     1      30.505 -16.124 -19.754  1.00  0.00    -0.247 N 
HETATM   19  N4  UNL     1      29.820 -17.106 -20.172  1.00  0.00    -0.331 N 
ATOM     20  H42 UNL     1      28.814 -16.997 -20.298  1.00  0.00     0.178 HD
ATOM     21  H41 UNL     1      30.287 -17.990 -20.374  1.00  0.00     0.178 HD
ATOM     22  H3  UNL     1      31.512 -16.216 -19.623  1.00  0.00     0.207 HD
ENDBRANCH  16  18
ENDBRANCH  14  16
ENDBRANCH   3  14
TORSDOF 4
ENDMDL
MODEL 2
REMARK VINA RESULT: -6.407625599      4.062      4.985
REMARK  4 active torsions:
REMARK  status: ('A' for Active; 'I' for Inactive)
REMARK    1  A    between atoms: C8_9  and  C9_10 
REMARK       I    between atoms: C9_10  and  N1_12 
REMARK    2  A    between atoms: N1_12  and  C10_14 
REMARK    3  A    between atoms: C10_14  and  N2_16 
REMARK    4  A    between atoms: N2_16  and  N3_18 
ROOT
HETATM    1  C9  UNL     1      28.389 -12.618 -23.672  1.00  0.00     0.228 C 
HETATM    2  O1  UNL     1      29.381 -11.935 -23.378  1.00  0.00    -0.273 OA
HETATM    3  N1  UNL     1      28.266 -13.081 -25.008  1.00  0.00    -0.302 N 
ATOM      4  H1  UNL     1      27.452 -13.642 -25.258  1.00  0.00     0.171 HD
ENDROOT
BRANCH   1   5
HETATM    5  C8  UNL     1      27.379 -12.937 -22.684  1.00  0.00     0.086 C 
HETATM    6  C2  UNL     1      27.845 -13.729 -21.507  1.00  0.00    -0.035 C 
HETATM    7  C1  UNL     1      28.943 -14.692 -21.792  1.00  0.00     0.015 C 
HETATM    8  C3  UNL     1      28.294 -12.785 -20.413  1.00  0.00     0.015 C 
HETATM    9  C4  UNL     1      26.656 -14.540 -20.979  1.00  0.00     0.025 C 
HETATM   10  C5  UNL     1      25.375 -13.739 -21.062  1.00  0.00     0.058 C 
HETATM   11 BR1  UNL     1      23.990 -14.784 -20.211  1.00  0.00    -0.091 Br
HETATM   12  C6  UNL     1      24.955 -13.535 -22.516  1.00  0.00     0.017 C 
HETATM   13  C7  UNL     1      26.192 -13.564 -23.380  1.00  0.00     0.016 C 
ENDBRANCH   1   5
BRANCH   3  14
HETATM   14  C10 UNL     1      29.229 -12.793 -26.009  1.00  0.00     0.194 C 
HETATM   15  S1  UNL     1      28.775 -12.439 -27.546  1.00  0.00    -0.039 SA
BRANCH  14  16
HETATM   16  N2  UNL     1      30.605 -12.813 -25.664  1.00  0.00    -0.262 N 
ATOM     17  H2  UNL     1      31.016 -13.646 -25.243  1.00  0.00     0.191 HD
BRANCH  16  18
HETATM   18  N3  UNL     1      31.404 -11.670 -25.906  1.00  0.00    -0.247 N 
HETATM   19  N4  UNL     1      32.337 -11.735 -26.762  1.00  0.00    -0.331 N 
ATOM     20  H42 UNL     1      32.498 -12.610 -27.262  1.00  0.00     0.178 HD
ATOM     21  H41 UNL     1      32.913 -10.911 -26.937  1.00  0.00     0.178 HD
ATOM     22  H3  UNL     1      31.231 -10.803 -25.397  1.00  0.00     0.207 HD
ENDBRANCH  16  18
ENDBRANCH  14  16
ENDBRANCH   3  14
TORSDOF 4
ENDMDL
MODEL 3
REMARK VINA RESULT: -6.371779457      1.386      1.728
REMARK  4 active torsions:
REMARK  status: ('A' for Active; 'I' for Inactive)
REMARK    1  A    between atoms: C8_9  and  C9_10 
REMARK       I    between atoms: C9_10  and  N1_12 
REMARK    2  A    between atoms: N1_12  and  C10_14 
REMARK    3  A    between atoms: C10_14  and  N2_16 
REMARK    4  A    between atoms: N2_16  and  N3_18 
ROOT
HETATM    1  C9  UNL     1      28.936 -13.283 -21.816  1.00  0.00     0.228 C 
HETATM    2  O1  UNL     1      29.359 -12.454 -20.997  1.00  0.00    -0.273 OA
HETATM    3  N1  UNL     1      29.571 -14.550 -21.876  1.00  0.00    -0.302 N 
ATOM      4  H1  UNL     1      29.229 -15.238 -22.548  1.00  0.00     0.171 HD
ENDROOT
BRANCH   1   5
HETATM    5  C8  UNL     1      27.825 -12.972 -22.692  1.00  0.00     0.086 C 
HETATM    6  C2  UNL     1      26.467 -13.053 -22.077  1.00  0.00    -0.035 C 
HETATM    7  C1  UNL     1      26.317 -14.089 -21.018  1.00  0.00     0.015 C 
HETATM    8  C3  UNL     1      26.095 -11.706 -21.498  1.00  0.00     0.015 C 
HETATM    9  C4  UNL     1      25.462 -13.391 -23.185  1.00  0.00     0.025 C 
HETATM   10  C5  UNL     1      25.816 -12.675 -24.471  1.00  0.00     0.058 C 
HETATM   11 BR1  UNL     1      24.394 -13.028 -25.732  1.00  0.00    -0.091 Br
HETATM   12  C6  UNL     1      27.101 -13.240 -25.072  1.00  0.00     0.017 C 
HETATM   13  C7  UNL     1      27.948 -13.795 -23.954  1.00  0.00     0.016 C 
ENDBRANCH   1   5
BRANCH   3  14
HETATM   14  C10 UNL     1      30.663 -14.900 -21.039  1.00  0.00     0.194 C 
HETATM   15  S1  UNL     1      32.141 -15.231 -21.668  1.00  0.00    -0.039 SA
BRANCH  14  16
HETATM   16  N2  UNL     1      30.460 -14.959 -19.636  1.00  0.00    -0.262 N 
ATOM     17  H2  UNL     1      30.013 -15.774 -19.217  1.00  0.00     0.191 HD
BRANCH  16  18
HETATM   18  N3  UNL     1      30.881 -13.881 -18.822  1.00  0.00    -0.247 N 
HETATM   19  N4  UNL     1      30.017 -13.227 -18.162  1.00  0.00    -0.331 N 
ATOM     20  H42 UNL     1      29.034 -13.489 -18.228  1.00  0.00     0.178 HD
ATOM     21  H41 UNL     1      30.321 -12.450 -17.575  1.00  0.00     0.178 HD
ATOM     22  H3  UNL     1      31.868 -13.631 -18.767  1.00  0.00     0.207 HD
ENDBRANCH  16  18
ENDBRANCH  14  16
ENDBRANCH   3  14
TORSDOF 4
ENDMDL
MODEL 4
REMARK VINA RESULT: -6.315617417      2.884      4.261
REMARK  4 active torsions:
REMARK  status: ('A' for Active; 'I' for Inactive)
REMARK    1  A    between atoms: C8_9  and  C9_10 
REMARK       I    between atoms: C9_10  and  N1_12 
REMARK    2  A    between atoms: N1_12  and  C10_14 
REMARK    3  A    between atoms: C10_14  and  N2_16 
REMARK    4  A    between atoms: N2_16  and  N3_18 
ROOT
HETATM    1  C9  UNL     1      29.114 -12.278 -22.076  1.00  0.00     0.228 C 
HETATM    2  O1  UNL     1      29.621 -12.086 -23.192  1.00  0.00    -0.273 OA
HETATM    3  N1  UNL     1      29.842 -11.866 -20.931  1.00  0.00    -0.302 N 
ATOM      4  H1  UNL     1      29.434 -12.021 -20.009  1.00  0.00     0.171 HD
ENDROOT
BRANCH   1   5
HETATM    5  C8  UNL     1      27.817 -12.907 -21.940  1.00  0.00     0.086 C 
HETATM    6  C2  UNL     1      26.637 -12.030 -22.197  1.00  0.00    -0.035 C 
HETATM    7  C1  UNL     1      26.819 -10.602 -21.817  1.00  0.00     0.015 C 
HETATM    8  C3  UNL     1      26.266 -12.101 -23.662  1.00  0.00     0.015 C 
HETATM    9  C4  UNL     1      25.457 -12.569 -21.379  1.00  0.00     0.025 C 
HETATM   10  C5  UNL     1      25.455 -14.083 -21.366  1.00  0.00     0.058 C 
HETATM   11 BR1  UNL     1      23.839 -14.645 -20.468  1.00  0.00    -0.091 Br
HETATM   12  C6  UNL     1      26.632 -14.620 -20.554  1.00  0.00     0.017 C 
HETATM   13  C7  UNL     1      27.749 -13.607 -20.602  1.00  0.00     0.016 C 
ENDBRANCH   1   5
BRANCH   3  14
HETATM   14  C10 UNL     1      31.117 -11.246 -21.015  1.00  0.00     0.194 C 
HETATM   15  S1  UNL     1      32.344 -11.692 -20.022  1.00  0.00    -0.039 SA
BRANCH  14  16
HETATM   16  N2  UNL     1      31.321 -10.226 -21.980  1.00  0.00    -0.262 N 
ATOM     17  H2  UNL     1      31.674 -10.460 -22.907  1.00  0.00     0.191 HD
BRANCH  16  18
HETATM   18  N3  UNL     1      31.031  -8.881 -21.647  1.00  0.00    -0.247 N 
HETATM   19  N4  UNL     1      29.824  -8.488 -21.646  1.00  0.00    -0.331 N 
ATOM     20  H42 UNL     1      29.083  -9.147 -21.885  1.00  0.00     0.178 HD
ATOM     21  H41 UNL     1      29.615  -7.519 -21.407  1.00  0.00     0.178 HD
ATOM     22  H3  UNL     1      31.783  -8.235 -21.411  1.00  0.00     0.207 HD
ENDBRANCH  16  18
ENDBRANCH  14  16
ENDBRANCH   3  14
TORSDOF 4
ENDMDL
MODEL 5
REMARK VINA RESULT: -6.262846708      5.146      6.606
REMARK  4 active torsions:
REMARK  status: ('A' for Active; 'I' for Inactive)
REMARK    1  A    between atoms: C8_9  and  C9_10 
REMARK       I    between atoms: C9_10  and  N1_12 
REMARK    2  A    between atoms: N1_12  and  C10_14 
REMARK    3  A    between atoms: C10_14  and  N2_16 
REMARK    4  A    between atoms: N2_16  and  N3_18 
ROOT
HETATM    1  C9  UNL     1      32.097 -10.226 -19.126  1.00  0.00     0.228 C 
HETATM    2  O1  UNL     1      31.970  -9.132 -18.556  1.00  0.00    -0.273 OA
HETATM    3  N1  UNL     1      33.402 -10.638 -19.501  1.00  0.00    -0.302 N 
ATOM      4  H1  UNL     1      33.516 -11.536 -19.971  1.00  0.00     0.171 HD
ENDROOT
BRANCH   1   5
HETATM    5  C8  UNL     1      30.950 -11.064 -19.404  1.00  0.00     0.086 C 
HETATM    6  C2  UNL     1      30.352 -11.763 -18.228  1.00  0.00    -0.035 C 
HETATM    7  C1  UNL     1      31.321 -12.152 -17.168  1.00  0.00     0.015 C 
HETATM    8  C3  UNL     1      29.281 -10.889 -17.615  1.00  0.00     0.015 C 
HETATM    9  C4  UNL     1      29.688 -13.052 -18.729  1.00  0.00     0.025 C 
HETATM   10  C5  UNL     1      29.019 -12.830 -20.068  1.00  0.00     0.058 C 
HETATM   11 BR1  UNL     1      28.071 -14.456 -20.509  1.00  0.00    -0.091 Br
HETATM   12  C6  UNL     1      30.057 -12.603 -21.163  1.00  0.00     0.017 C 
HETATM   13  C7  UNL     1      31.293 -12.006 -20.536  1.00  0.00     0.016 C 
ENDBRANCH   1   5
BRANCH   3  14
HETATM   14  C10 UNL     1      34.556  -9.850 -19.249  1.00  0.00     0.194 C 
HETATM   15  S1  UNL     1      35.239  -8.944 -20.434  1.00  0.00    -0.039 SA
BRANCH  14  16
HETATM   16  N2  UNL     1      35.118  -9.854 -17.946  1.00  0.00    -0.262 N 
ATOM     17  H2  UNL     1      35.849 -10.522 -17.706  1.00  0.00     0.191 HD
BRANCH  16  18
HETATM   18  N3  UNL     1      34.658  -8.924 -16.984  1.00  0.00    -0.247 N 
HETATM   19  N4  UNL     1      33.804  -9.295 -16.122  1.00  0.00    -0.331 N 
ATOM     20  H42 UNL     1      33.463 -10.256 -16.136  1.00  0.00     0.178 HD
ATOM     21  H41 UNL     1      33.472  -8.625 -15.428  1.00  0.00     0.178 HD
ATOM     22  H3  UNL     1      35.008  -7.966 -16.983  1.00  0.00     0.207 HD
ENDBRANCH  16  18
ENDBRANCH  14  16
ENDBRANCH   3  14
TORSDOF 4
ENDMDL
