MODEL 1
REMARK VINA RESULT: -8.072127958      0.000      0.000
REMARK  8 active torsions:
REMARK  status: ('A' for Active; 'I' for Inactive)
REMARK    1  A    between atoms: C2_2  and  C3_3 
REMARK    2  A    between atoms: C11_12  and  C12_13 
REMARK    3  A    between atoms: C12_13  and  C13_14 
REMARK    4  A    between atoms: C13_14  and  C14_15 
REMARK    5  A    between atoms: C14_15  and  N1_16 
REMARK    6  A    between atoms: N1_16  and  C15_17 
REMARK    7  A    between atoms: N1_16  and  S1_23 
REMARK    8  A    between atoms: C15_17  and  C16_18 
ROOT
HETATM    1  C12 UNL     1      -4.890   6.431 -19.946  1.00  0.00     0.011 C 
ENDROOT
BRANCH   1   2
HETATM    2  C11 UNL     1      -5.901   7.496 -19.684  1.00  0.00    -0.031 C 
HETATM    3  C2  UNL     1      -6.496   8.055 -20.908  1.00  0.00    -0.020 C 
HETATM    4  C1  UNL     1      -5.506   8.967 -21.632  1.00  0.00     0.017 C 
HETATM    5  C4  UNL     1      -7.630   9.044 -20.520  1.00  0.00    -0.004 C 
HETATM    6  C5  UNL     1      -8.615   8.335 -19.623  1.00  0.00     0.010 C 
HETATM    7  C9  UNL     1      -7.088  10.213 -19.762  1.00  0.00     0.010 C 
HETATM    8  C6  UNL     1      -7.944   7.927 -18.348  1.00  0.00    -0.013 C 
HETATM    9  C7  UNL     1      -7.282   9.092 -17.632  1.00  0.00     0.009 C 
HETATM   10  C18 UNL     1      -6.901   6.902 -18.703  1.00  0.00     0.015 C 
HETATM   11  C8  UNL     1      -6.268   9.715 -18.602  1.00  0.00    -0.013 C 
HETATM   12  C10 UNL     1      -5.261   8.675 -18.929  1.00  0.00     0.015 C 
BRANCH   3  13
HETATM   13  C3  UNL     1      -7.076   7.148 -21.921  1.00  0.00     0.124 C 
HETATM   14 CL1  UNL     1      -6.009   6.971 -23.318  1.00  0.00    -0.130 Cl
ENDBRANCH   3  13
ENDBRANCH   1   2
BRANCH   1  15
HETATM   15  C13 UNL     1      -3.601   6.574 -19.166  1.00  0.00     0.016 C 
BRANCH  15  16
HETATM   16  C14 UNL     1      -3.516   5.461 -18.109  1.00  0.00     0.107 C 
BRANCH  16  17
HETATM   17  N1  UNL     1      -2.637   5.855 -17.049  1.00  0.00    -0.204 NA
BRANCH  17  18
HETATM   18  C15 UNL     1      -1.576   6.714 -17.493  1.00  0.00     0.179 C 
BRANCH  18  19
HETATM   19  C16 UNL     1      -0.272   6.075 -17.661  1.00  0.00     0.100 C 
HETATM   20  N2  UNL     1       0.771   6.634 -17.135  1.00  0.00    -0.390 N 
ATOM     21  H22 UNL     1       0.632   7.506 -16.623  1.00  0.00     0.157 HD
ATOM     22  H21 UNL     1       1.681   6.188 -17.253  1.00  0.00     0.157 HD
HETATM   23  N3  UNL     1      -0.081   4.876 -18.367  1.00  0.00    -0.087 NA
ENDBRANCH  18  19
ENDBRANCH  17  18
BRANCH  17  24
HETATM   24  S1  UNL     1      -3.460   6.579 -15.730  1.00  0.00     0.208 S 
HETATM   25  C17 UNL     1      -3.456   8.350 -15.913  1.00  0.00     0.180 C 
HETATM   26  O1  UNL     1      -2.806   6.251 -14.430  1.00  0.00    -0.212 OA
HETATM   27  O2  UNL     1      -4.904   6.152 -15.694  1.00  0.00    -0.212 OA
ENDBRANCH  17  24
ENDBRANCH  16  17
ENDBRANCH  15  16
ENDBRANCH   1  15
TORSDOF 8
ENDMDL
MODEL 2
REMARK VINA RESULT: -7.722472038      2.069      3.391
REMARK  8 active torsions:
REMARK  status: ('A' for Active; 'I' for Inactive)
REMARK    1  A    between atoms: C2_2  and  C3_3 
REMARK    2  A    between atoms: C11_12  and  C12_13 
REMARK    3  A    between atoms: C12_13  and  C13_14 
REMARK    4  A    between atoms: C13_14  and  C14_15 
REMARK    5  A    between atoms: C14_15  and  N1_16 
REMARK    6  A    between atoms: N1_16  and  C15_17 
REMARK    7  A    between atoms: N1_16  and  S1_23 
REMARK    8  A    between atoms: C15_17  and  C16_18 
ROOT
HETATM    1  C12 UNL     1      -6.548   7.029 -17.703  1.00  0.00     0.011 C 
ENDROOT
BRANCH   1   2
HETATM    2  C11 UNL     1      -6.591   7.820 -18.967  1.00  0.00    -0.031 C 
HETATM    3  C2  UNL     1      -5.348   7.740 -19.752  1.00  0.00    -0.020 C 
HETATM    4  C1  UNL     1      -4.235   8.562 -19.100  1.00  0.00     0.017 C 
HETATM    5  C4  UNL     1      -5.550   8.476 -21.105  1.00  0.00    -0.004 C 
HETATM    6  C5  UNL     1      -6.759   7.899 -21.803  1.00  0.00     0.010 C 
HETATM    7  C9  UNL     1      -5.803   9.934 -20.893  1.00  0.00     0.010 C 
HETATM    8  C6  UNL     1      -7.988   8.153 -20.987  1.00  0.00    -0.013 C 
HETATM    9  C7  UNL     1      -8.187   9.623 -20.660  1.00  0.00     0.009 C 
HETATM   10  C18 UNL     1      -7.842   7.373 -19.708  1.00  0.00     0.015 C 
HETATM   11  C8  UNL     1      -6.934  10.104 -19.914  1.00  0.00    -0.013 C 
HETATM   12  C10 UNL     1      -6.823   9.311 -18.665  1.00  0.00     0.015 C 
BRANCH   3  13
HETATM   13  C3  UNL     1      -4.777   6.419 -20.087  1.00  0.00     0.124 C 
HETATM   14 CL1  UNL     1      -3.572   6.542 -21.374  1.00  0.00    -0.130 Cl
ENDBRANCH   3  13
ENDBRANCH   1   2
BRANCH   1  15
HETATM   15  C13 UNL     1      -6.911   7.807 -16.456  1.00  0.00     0.016 C 
BRANCH  15  16
HETATM   16  C14 UNL     1      -5.923   7.457 -15.330  1.00  0.00     0.107 C 
BRANCH  16  17
HETATM   17  N1  UNL     1      -4.582   7.730 -15.750  1.00  0.00    -0.204 NA
BRANCH  17  18
HETATM   18  C15 UNL     1      -3.981   8.819 -15.032  1.00  0.00     0.179 C 
BRANCH  18  19
HETATM   19  C16 UNL     1      -3.882  10.080 -15.762  1.00  0.00     0.100 C 
HETATM   20  N2  UNL     1      -2.733  10.436 -16.244  1.00  0.00    -0.390 N 
ATOM     21  H22 UNL     1      -1.941   9.811 -16.088  1.00  0.00     0.157 HD
ATOM     22  H21 UNL     1      -2.664  11.317 -16.753  1.00  0.00     0.157 HD
HETATM   23  N3  UNL     1      -4.971  10.941 -15.976  1.00  0.00    -0.087 NA
ENDBRANCH  18  19
ENDBRANCH  17  18
BRANCH  17  24
HETATM   24  S1  UNL     1      -3.563   6.352 -15.679  1.00  0.00     0.208 S 
HETATM   25  C17 UNL     1      -2.345   6.433 -16.975  1.00  0.00     0.180 C 
HETATM   26  O1  UNL     1      -4.337   5.089 -15.854  1.00  0.00    -0.212 OA
HETATM   27  O2  UNL     1      -2.806   6.307 -14.378  1.00  0.00    -0.212 OA
ENDBRANCH  17  24
ENDBRANCH  16  17
ENDBRANCH  15  16
ENDBRANCH   1  15
TORSDOF 8
ENDMDL
MODEL 3
REMARK VINA RESULT: -7.609505074      3.498      4.562
REMARK  8 active torsions:
REMARK  status: ('A' for Active; 'I' for Inactive)
REMARK    1  A    between atoms: C2_2  and  C3_3 
REMARK    2  A    between atoms: C11_12  and  C12_13 
REMARK    3  A    between atoms: C12_13  and  C13_14 
REMARK    4  A    between atoms: C13_14  and  C14_15 
REMARK    5  A    between atoms: C14_15  and  N1_16 
REMARK    6  A    between atoms: N1_16  and  C15_17 
REMARK    7  A    between atoms: N1_16  and  S1_23 
REMARK    8  A    between atoms: C15_17  and  C16_18 
ROOT
HETATM    1  C12 UNL     1      -4.506   7.479 -17.831  1.00  0.00     0.011 C 
ENDROOT
BRANCH   1   2
HETATM    2  C11 UNL     1      -5.330   7.965 -18.975  1.00  0.00    -0.031 C 
HETATM    3  C2  UNL     1      -6.726   8.255 -18.610  1.00  0.00    -0.020 C 
HETATM    4  C1  UNL     1      -7.517   6.964 -18.396  1.00  0.00     0.017 C 
HETATM    5  C4  UNL     1      -7.453   8.886 -19.829  1.00  0.00    -0.004 C 
HETATM    6  C5  UNL     1      -6.674  10.092 -20.296  1.00  0.00     0.010 C 
HETATM    7  C9  UNL     1      -7.524   7.924 -20.971  1.00  0.00     0.010 C 
HETATM    8  C6  UNL     1      -5.318   9.671 -20.772  1.00  0.00    -0.013 C 
HETATM    9  C7  UNL     1      -5.377   8.600 -21.848  1.00  0.00     0.009 C 
HETATM   10  C18 UNL     1      -4.573   9.138 -19.579  1.00  0.00     0.015 C 
HETATM   11  C8  UNL     1      -6.143   7.402 -21.267  1.00  0.00    -0.013 C 
HETATM   12  C10 UNL     1      -5.380   6.909 -20.093  1.00  0.00     0.015 C 
BRANCH   3  13
HETATM   13  C3  UNL     1      -7.015   9.139 -17.461  1.00  0.00     0.124 C 
HETATM   14 CL1  UNL     1      -7.697   8.236 -16.104  1.00  0.00    -0.130 Cl
ENDBRANCH   3  13
ENDBRANCH   1   2
BRANCH   1  15
HETATM   15  C13 UNL     1      -3.329   8.364 -17.476  1.00  0.00     0.016 C 
BRANCH  15  16
HETATM   16  C14 UNL     1      -3.487   8.870 -16.032  1.00  0.00     0.107 C 
BRANCH  16  17
HETATM   17  N1  UNL     1      -3.100  10.246 -15.949  1.00  0.00    -0.204 NA
BRANCH  17  18
HETATM   18  C15 UNL     1      -3.787  11.078 -16.897  1.00  0.00     0.179 C 
BRANCH  18  19
HETATM   19  C16 UNL     1      -2.988  12.139 -17.506  1.00  0.00     0.100 C 
HETATM   20  N2  UNL     1      -2.656  13.164 -16.786  1.00  0.00    -0.390 N 
ATOM     21  H22 UNL     1      -2.974  13.183 -15.816  1.00  0.00     0.157 HD
ATOM     22  H21 UNL     1      -2.098  13.904 -17.211  1.00  0.00     0.157 HD
HETATM   23  N3  UNL     1      -2.551  12.113 -18.840  1.00  0.00    -0.087 NA
ENDBRANCH  18  19
ENDBRANCH  17  18
BRANCH  17  24
HETATM   24  S1  UNL     1      -3.270  10.897 -14.372  1.00  0.00     0.208 S 
HETATM   25  C17 UNL     1      -3.566   9.585 -13.205  1.00  0.00     0.180 C 
HETATM   26  O1  UNL     1      -4.416  11.848 -14.293  1.00  0.00    -0.212 OA
HETATM   27  O2  UNL     1      -2.005  11.587 -13.933  1.00  0.00    -0.212 OA
ENDBRANCH  17  24
ENDBRANCH  16  17
ENDBRANCH  15  16
ENDBRANCH   1  15
TORSDOF 8
ENDMDL
MODEL 4
REMARK VINA RESULT: -7.595654423      3.273      4.351
REMARK  8 active torsions:
REMARK  status: ('A' for Active; 'I' for Inactive)
REMARK    1  A    between atoms: C2_2  and  C3_3 
REMARK    2  A    between atoms: C11_12  and  C12_13 
REMARK    3  A    between atoms: C12_13  and  C13_14 
REMARK    4  A    between atoms: C13_14  and  C14_15 
REMARK    5  A    between atoms: C14_15  and  N1_16 
REMARK    6  A    between atoms: N1_16  and  C15_17 
REMARK    7  A    between atoms: N1_16  and  S1_23 
REMARK    8  A    between atoms: C15_17  and  C16_18 
ROOT
HETATM    1  C12 UNL     1      -4.706   7.785 -17.540  1.00  0.00     0.011 C 
ENDROOT
BRANCH   1   2
HETATM    2  C11 UNL     1      -5.514   8.127 -18.746  1.00  0.00    -0.031 C 
HETATM    3  C2  UNL     1      -6.961   8.186 -18.486  1.00  0.00    -0.020 C 
HETATM    4  C1  UNL     1      -7.545   6.784 -18.311  1.00  0.00     0.017 C 
HETATM    5  C4  UNL     1      -7.691   8.689 -19.763  1.00  0.00    -0.004 C 
HETATM    6  C5  UNL     1      -7.085  10.004 -20.189  1.00  0.00     0.010 C 
HETATM    7  C9  UNL     1      -7.520   7.725 -20.893  1.00  0.00     0.010 C 
HETATM    8  C6  UNL     1      -5.648   9.809 -20.561  1.00  0.00    -0.013 C 
HETATM    9  C7  UNL     1      -5.455   8.741 -21.624  1.00  0.00     0.009 C 
HETATM   10  C18 UNL     1      -4.916   9.407 -19.311  1.00  0.00     0.015 C 
HETATM   11  C8  UNL     1      -6.055   7.435 -21.083  1.00  0.00    -0.013 C 
HETATM   12  C10 UNL     1      -5.310   7.075 -19.851  1.00  0.00     0.015 C 
BRANCH   3  13
HETATM   13  C3  UNL     1      -7.473   9.014 -17.373  1.00  0.00     0.124 C 
HETATM   14 CL1  UNL     1      -7.989   8.017 -16.008  1.00  0.00    -0.130 Cl
ENDBRANCH   3  13
ENDBRANCH   1   2
BRANCH   1  15
HETATM   15  C13 UNL     1      -3.246   8.175 -17.622  1.00  0.00     0.016 C 
BRANCH  15  16
HETATM   16  C14 UNL     1      -2.795   8.758 -16.272  1.00  0.00     0.107 C 
BRANCH  16  17
HETATM   17  N1  UNL     1      -3.900   9.389 -15.616  1.00  0.00    -0.204 NA
BRANCH  17  18
HETATM   18  C15 UNL     1      -3.936   9.127 -14.204  1.00  0.00     0.179 C 
BRANCH  18  19
HETATM   19  C16 UNL     1      -4.082   7.724 -13.824  1.00  0.00     0.100 C 
HETATM   20  N2  UNL     1      -5.205   7.125 -14.062  1.00  0.00    -0.390 N 
ATOM     21  H22 UNL     1      -5.946   7.668 -14.508  1.00  0.00     0.157 HD
ATOM     22  H21 UNL     1      -5.307   6.145 -13.797  1.00  0.00     0.157 HD
HETATM   23  N3  UNL     1      -3.063   6.976 -13.210  1.00  0.00    -0.087 NA
ENDBRANCH  18  19
ENDBRANCH  17  18
BRANCH  17  24
HETATM   24  S1  UNL     1      -3.970  11.079 -15.897  1.00  0.00     0.208 S 
HETATM   25  C17 UNL     1      -3.639  11.959 -14.384  1.00  0.00     0.180 C 
HETATM   26  O1  UNL     1      -5.315  11.498 -16.386  1.00  0.00    -0.212 OA
HETATM   27  O2  UNL     1      -2.915  11.507 -16.884  1.00  0.00    -0.212 OA
ENDBRANCH  17  24
ENDBRANCH  16  17
ENDBRANCH  15  16
ENDBRANCH   1  15
TORSDOF 8
ENDMDL
MODEL 5
REMARK VINA RESULT: -7.539048241      1.597      2.397
REMARK  8 active torsions:
REMARK  status: ('A' for Active; 'I' for Inactive)
REMARK    1  A    between atoms: C2_2  and  C3_3 
REMARK    2  A    between atoms: C11_12  and  C12_13 
REMARK    3  A    between atoms: C12_13  and  C13_14 
REMARK    4  A    between atoms: C13_14  and  C14_15 
REMARK    5  A    between atoms: C14_15  and  N1_16 
REMARK    6  A    between atoms: N1_16  and  C15_17 
REMARK    7  A    between atoms: N1_16  and  S1_23 
REMARK    8  A    between atoms: C15_17  and  C16_18 
ROOT
HETATM    1  C12 UNL     1      -4.746   6.669 -19.966  1.00  0.00     0.011 C 
ENDROOT
BRANCH   1   2
HETATM    2  C11 UNL     1      -5.351   8.015 -19.748  1.00  0.00    -0.031 C 
HETATM    3  C2  UNL     1      -6.673   7.966 -19.103  1.00  0.00    -0.020 C 
HETATM    4  C1  UNL     1      -7.743   7.478 -20.081  1.00  0.00     0.017 C 
HETATM    5  C4  UNL     1      -7.146   9.414 -18.795  1.00  0.00    -0.004 C 
HETATM    6  C5  UNL     1      -6.086  10.114 -17.979  1.00  0.00     0.010 C 
HETATM    7  C9  UNL     1      -7.338  10.197 -20.054  1.00  0.00     0.010 C 
HETATM    8  C6  UNL     1      -4.824  10.232 -18.775  1.00  0.00    -0.013 C 
HETATM    9  C7  UNL     1      -5.034  10.918 -20.115  1.00  0.00     0.009 C 
HETATM   10  C18 UNL     1      -4.310   8.837 -19.005  1.00  0.00     0.015 C 
HETATM   11  C8  UNL     1      -6.087  10.111 -20.888  1.00  0.00    -0.013 C 
HETATM   12  C10 UNL     1      -5.546   8.744 -21.090  1.00  0.00     0.015 C 
BRANCH   3  13
HETATM   13  C3  UNL     1      -6.848   7.204 -17.848  1.00  0.00     0.124 C 
HETATM   14 CL1  UNL     1      -8.192   7.836 -16.890  1.00  0.00    -0.130 Cl
ENDBRANCH   3  13
ENDBRANCH   1   2
BRANCH   1  15
HETATM   15  C13 UNL     1      -3.406   6.460 -19.290  1.00  0.00     0.016 C 
BRANCH  15  16
HETATM   16  C14 UNL     1      -3.567   5.459 -18.134  1.00  0.00     0.107 C 
BRANCH  16  17
HETATM   17  N1  UNL     1      -2.663   5.785 -17.073  1.00  0.00    -0.204 NA
BRANCH  17  18
HETATM   18  C15 UNL     1      -1.605   6.663 -17.489  1.00  0.00     0.179 C 
BRANCH  18  19
HETATM   19  C16 UNL     1      -0.290   6.044 -17.637  1.00  0.00     0.100 C 
HETATM   20  N2  UNL     1       0.731   6.600 -17.064  1.00  0.00    -0.390 N 
ATOM     21  H22 UNL     1       0.567   7.454 -16.531  1.00  0.00     0.157 HD
ATOM     22  H21 UNL     1       1.649   6.167 -17.167  1.00  0.00     0.157 HD
HETATM   23  N3  UNL     1      -0.063   4.868 -18.370  1.00  0.00    -0.087 NA
ENDBRANCH  18  19
ENDBRANCH  17  18
BRANCH  17  24
HETATM   24  S1  UNL     1      -3.451   6.435 -15.696  1.00  0.00     0.208 S 
HETATM   25  C17 UNL     1      -3.610   8.200 -15.866  1.00  0.00     0.180 C 
HETATM   26  O1  UNL     1      -2.685   6.161 -14.446  1.00  0.00    -0.212 OA
HETATM   27  O2  UNL     1      -4.848   5.887 -15.565  1.00  0.00    -0.212 OA
ENDBRANCH  17  24
ENDBRANCH  16  17
ENDBRANCH  15  16
ENDBRANCH   1  15
TORSDOF 8
ENDMDL
