MODEL 1
REMARK VINA RESULT: -4.658420511      0.000      0.000
REMARK  4 active torsions:
REMARK  status: ('A' for Active; 'I' for Inactive)
REMARK    1  A    between atoms: C2_2  and  C3_3 
REMARK    2  A    between atoms: C3_3  and  N1_4 
REMARK    3  A    between atoms: N1_4  and  C4_6 
REMARK    4  A    between atoms: C6_12  and  N4_13 
ROOT
HETATM    1  C4  UNL     1      10.157   7.220  12.521  1.00  0.00     0.693 A 
HETATM    2  N2  UNL     1       9.537   6.301  11.749  1.00  0.00    -0.187 N 
ATOM      3  H2  UNL     1       8.534   6.393  11.592  1.00  0.00     0.185 HD
HETATM    4  C5  UNL     1      10.187   5.269  11.177  1.00  0.00     0.215 A 
HETATM    5  N3  UNL     1      11.511   5.131  11.370  1.00  0.00    -0.187 N 
ATOM      6  H3  UNL     1      12.025   4.359  10.946  1.00  0.00     0.185 HD
HETATM    7  C6  UNL     1      12.137   6.035  12.135  1.00  0.00     0.691 A 
HETATM    8  N5  UNL     1      11.471   7.070  12.706  1.00  0.00    -0.023 N 
ATOM      9  H5  UNL     1      11.980   7.740  13.283  1.00  0.00     0.203 HD
ENDROOT
BRANCH   1  10
HETATM   10  N1  UNL     1       9.483   8.166  13.030  1.00  0.00    -0.222 N 
ATOM     11  H1  UNL     1       9.847   9.111  12.909  1.00  0.00     0.178 HD
BRANCH  10  12
HETATM   12  C3  UNL     1       8.260   8.033  13.757  1.00  0.00     0.164 C 
BRANCH  12  13
HETATM   13  C2  UNL     1       7.865   9.291  14.448  1.00  0.00    -0.017 C 
HETATM   14  C1  UNL     1       6.613   9.482  14.843  1.00  0.00     0.008 C 
ENDBRANCH  12  13
ENDBRANCH  10  12
ENDBRANCH   1  10
BRANCH   7  15
HETATM   15  N4  UNL     1      13.420   5.923  12.338  1.00  0.00    -0.234 N 
ATOM     16  H42 UNL     1      13.746   5.394  13.146  1.00  0.00     0.174 HD
ATOM     17  H41 UNL     1      14.070   6.363  11.687  1.00  0.00     0.174 HD
ENDBRANCH   7  15
TORSDOF 4
ENDMDL
MODEL 2
REMARK VINA RESULT: -4.497521963      1.874      5.101
REMARK  4 active torsions:
REMARK  status: ('A' for Active; 'I' for Inactive)
REMARK    1  A    between atoms: C2_2  and  C3_3 
REMARK    2  A    between atoms: C3_3  and  N1_4 
REMARK    3  A    between atoms: N1_4  and  C4_6 
REMARK    4  A    between atoms: C6_12  and  N4_13 
ROOT
HETATM    1  C4  UNL     1       8.977   7.900  13.215  1.00  0.00     0.693 A 
HETATM    2  N2  UNL     1       8.171   6.825  13.361  1.00  0.00    -0.187 N 
ATOM      3  H2  UNL     1       8.408   5.967  12.862  1.00  0.00     0.185 HD
HETATM    4  C5  UNL     1       7.070   6.836  14.137  1.00  0.00     0.215 A 
HETATM    5  N3  UNL     1       6.742   7.957  14.804  1.00  0.00    -0.187 N 
ATOM      6  H3  UNL     1       5.915   7.989  15.399  1.00  0.00     0.185 HD
HETATM    7  C6  UNL     1       7.532   9.029  14.668  1.00  0.00     0.691 A 
HETATM    8  N5  UNL     1       8.638   9.006  13.883  1.00  0.00    -0.023 N 
ATOM      9  H5  UNL     1       9.217   9.842  13.802  1.00  0.00     0.203 HD
ENDROOT
BRANCH   1  10
HETATM   10  N1  UNL     1       9.997   7.819  12.467  1.00  0.00    -0.222 N 
ATOM     11  H1  UNL     1      10.413   8.697  12.156  1.00  0.00     0.178 HD
BRANCH  10  12
HETATM   12  C3  UNL     1      10.620   6.614  12.018  1.00  0.00     0.164 C 
BRANCH  12  13
HETATM   13  C2  UNL     1      11.976   6.419  12.598  1.00  0.00    -0.017 C 
HETATM   14  C1  UNL     1      12.760   5.437  12.173  1.00  0.00     0.008 C 
ENDBRANCH  12  13
ENDBRANCH  10  12
ENDBRANCH   1  10
BRANCH   7  15
HETATM   15  N4  UNL     1       7.235  10.128  15.304  1.00  0.00    -0.234 N 
ATOM     16  H42 UNL     1       7.083  10.088  16.312  1.00  0.00     0.174 HD
ATOM     17  H41 UNL     1       7.160  11.002  14.785  1.00  0.00     0.174 HD
ENDBRANCH   7  15
TORSDOF 4
ENDMDL
MODEL 3
REMARK VINA RESULT: -4.479909561      1.567      4.876
REMARK  4 active torsions:
REMARK  status: ('A' for Active; 'I' for Inactive)
REMARK    1  A    between atoms: C2_2  and  C3_3 
REMARK    2  A    between atoms: C3_3  and  N1_4 
REMARK    3  A    between atoms: N1_4  and  C4_6 
REMARK    4  A    between atoms: C6_12  and  N4_13 
ROOT
HETATM    1  C4  UNL     1       9.467   6.882  12.472  1.00  0.00     0.693 A 
HETATM    2  N2  UNL     1       8.855   5.878  13.139  1.00  0.00    -0.187 N 
ATOM      3  H2  UNL     1       9.061   4.916  12.870  1.00  0.00     0.185 HD
HETATM    4  C5  UNL     1       7.984   6.094  14.145  1.00  0.00     0.215 A 
HETATM    5  N3  UNL     1       7.700   7.355  14.516  1.00  0.00    -0.187 N 
ATOM      6  H3  UNL     1       7.046   7.543  15.275  1.00  0.00     0.185 HD
HETATM    7  C6  UNL     1       8.300   8.358  13.862  1.00  0.00     0.691 A 
HETATM    8  N5  UNL     1       9.174   8.128  12.851  1.00  0.00    -0.023 N 
ATOM      9  H5  UNL     1       9.613   8.916  12.374  1.00  0.00     0.203 HD
ENDROOT
BRANCH   1  10
HETATM   10  N1  UNL     1      10.275   6.606  11.534  1.00  0.00    -0.222 N 
ATOM     11  H1  UNL     1      10.316   7.260  10.752  1.00  0.00     0.178 HD
BRANCH  10  12
HETATM   12  C3  UNL     1      11.134   5.466  11.469  1.00  0.00     0.164 C 
BRANCH  12  13
HETATM   13  C2  UNL     1      12.367   5.632  12.285  1.00  0.00    -0.017 C 
HETATM   14  C1  UNL     1      13.524   5.129  11.874  1.00  0.00     0.008 C 
ENDBRANCH  12  13
ENDBRANCH  10  12
ENDBRANCH   1  10
BRANCH   7  15
HETATM   15  N4  UNL     1       8.040   9.589  14.202  1.00  0.00    -0.234 N 
ATOM     16  H42 UNL     1       7.445  10.153  13.597  1.00  0.00     0.174 HD
ATOM     17  H41 UNL     1       8.436   9.964  15.065  1.00  0.00     0.174 HD
ENDBRANCH   7  15
TORSDOF 4
ENDMDL
MODEL 4
REMARK VINA RESULT: -4.339875795      1.651      4.770
REMARK  4 active torsions:
REMARK  status: ('A' for Active; 'I' for Inactive)
REMARK    1  A    between atoms: C2_2  and  C3_3 
REMARK    2  A    between atoms: C3_3  and  N1_4 
REMARK    3  A    between atoms: N1_4  and  C4_6 
REMARK    4  A    between atoms: C6_12  and  N4_13 
ROOT
HETATM    1  C4  UNL     1       9.651   7.225  12.353  1.00  0.00     0.693 A 
HETATM    2  N2  UNL     1       8.788   6.253  11.982  1.00  0.00    -0.187 N 
ATOM      3  H2  UNL     1       9.085   5.583  11.272  1.00  0.00     0.185 HD
HETATM    4  C5  UNL     1       7.554   6.131  12.508  1.00  0.00     0.215 A 
HETATM    5  N3  UNL     1       7.146   7.004  13.446  1.00  0.00    -0.187 N 
ATOM      6  H3  UNL     1       6.217   6.931  13.860  1.00  0.00     0.185 HD
HETATM    7  C6  UNL     1       7.991   7.971  13.823  1.00  0.00     0.691 A 
HETATM    8  N5  UNL     1       9.231   8.084  13.285  1.00  0.00    -0.023 N 
ATOM      9  H5  UNL     1       9.849   8.834  13.595  1.00  0.00     0.203 HD
ENDROOT
BRANCH   1  10
HETATM   10  N1  UNL     1      10.798   7.281  11.815  1.00  0.00    -0.222 N 
ATOM     11  H1  UNL     1      10.835   7.560  10.835  1.00  0.00     0.178 HD
BRANCH  10  12
HETATM   12  C3  UNL     1      12.044   6.990  12.452  1.00  0.00     0.164 C 
BRANCH  12  13
HETATM   13  C2  UNL     1      12.378   5.541  12.420  1.00  0.00    -0.017 C 
HETATM   14  C1  UNL     1      13.568   5.129  11.999  1.00  0.00     0.008 C 
ENDBRANCH  12  13
ENDBRANCH  10  12
ENDBRANCH   1  10
BRANCH   7  15
HETATM   15  N4  UNL     1       7.617   8.830  14.730  1.00  0.00    -0.234 N 
ATOM     16  H42 UNL     1       6.696   8.729  15.154  1.00  0.00     0.174 HD
ATOM     17  H41 UNL     1       8.251   9.583  14.997  1.00  0.00     0.174 HD
ENDBRANCH   7  15
TORSDOF 4
ENDMDL
MODEL 5
REMARK VINA RESULT: -4.323291857      1.635      4.935
REMARK  4 active torsions:
REMARK  status: ('A' for Active; 'I' for Inactive)
REMARK    1  A    between atoms: C2_2  and  C3_3 
REMARK    2  A    between atoms: C3_3  and  N1_4 
REMARK    3  A    between atoms: N1_4  and  C4_6 
REMARK    4  A    between atoms: C6_12  and  N4_13 
ROOT
HETATM    1  C4  UNL     1       9.606   7.286  12.492  1.00  0.00     0.693 A 
HETATM    2  N2  UNL     1       9.242   8.243  13.375  1.00  0.00    -0.187 N 
ATOM      3  H2  UNL     1       9.905   8.988  13.588  1.00  0.00     0.185 HD
HETATM    4  C5  UNL     1       8.040   8.254  13.985  1.00  0.00     0.215 A 
HETATM    5  N3  UNL     1       7.152   7.281  13.715  1.00  0.00    -0.187 N 
ATOM      6  H3  UNL     1       6.236   7.270  14.163  1.00  0.00     0.185 HD
HETATM    7  C6  UNL     1       7.502   6.328  12.843  1.00  0.00     0.691 A 
HETATM    8  N5  UNL     1       8.714   6.326  12.236  1.00  0.00    -0.023 N 
ATOM      9  H5  UNL     1       8.948   5.584  11.577  1.00  0.00     0.203 HD
ENDROOT
BRANCH   1  10
HETATM   10  N1  UNL     1      10.755   7.337  11.956  1.00  0.00    -0.222 N 
ATOM     11  H1  UNL     1      10.806   7.708  11.007  1.00  0.00     0.178 HD
BRANCH  10  12
HETATM   12  C3  UNL     1      11.984   6.923  12.556  1.00  0.00     0.164 C 
BRANCH  12  13
HETATM   13  C2  UNL     1      12.304   5.497  12.279  1.00  0.00    -0.017 C 
HETATM   14  C1  UNL     1      13.538   5.130  11.956  1.00  0.00     0.008 C 
ENDBRANCH  12  13
ENDBRANCH  10  12
ENDBRANCH   1  10
BRANCH   7  15
HETATM   15  N4  UNL     1       6.658   5.373  12.566  1.00  0.00    -0.234 N 
ATOM     16  H42 UNL     1       6.717   4.497  13.085  1.00  0.00     0.174 HD
ATOM     17  H41 UNL     1       5.958   5.520  11.839  1.00  0.00     0.174 HD
ENDBRANCH   7  15
TORSDOF 4
ENDMDL
