MODEL 1
REMARK VINA RESULT: -8.135653653      0.000      0.000
REMARK  6 active torsions:
REMARK  status: ('A' for Active; 'I' for Inactive)
REMARK    1  A    between atoms: C2_2  and  C3_4 
REMARK    2  A    between atoms: C3_4  and  C4_5 
REMARK    3  A    between atoms: C4_5  and  C5_6 
REMARK    4  A    between atoms: C5_6  and  C6_7 
REMARK    5  A    between atoms: N1_28  and  C23_29 
REMARK    6  A    between atoms: C23_29  and  O5_30 
ROOT
HETATM    1  C5  UNL     1      10.174   7.370   0.234  1.00  0.00     0.208 C 
HETATM    2  O2  UNL     1      10.497   8.766   0.260  1.00  0.00    -0.196 OA
HETATM    3  O3  UNL     1      10.827   9.043   1.499  1.00  0.00    -0.194 OA
HETATM    4  C16 UNL     1       9.972   8.318   2.311  1.00  0.00     0.236 C 
HETATM    5  O4  UNL     1       9.806   7.190   1.568  1.00  0.00    -0.309 OA
HETATM    6  C17 UNL     1       8.854   9.178   2.695  1.00  0.00     0.237 C 
HETATM    7  F1  UNL     1       7.904   9.533   1.806  1.00  0.00    -0.243 F 
HETATM    8  C18 UNL     1       8.106   8.758   3.949  1.00  0.00     0.078 C 
HETATM    9  C19 UNL     1       8.989   8.538   5.123  1.00  0.00     0.229 C 
HETATM   10  C20 UNL     1      10.396   8.955   4.735  1.00  0.00     0.048 C 
HETATM   11  C21 UNL     1      10.655   7.966   3.639  1.00  0.00     0.084 C 
HETATM   12  C22 UNL     1      10.046   6.712   4.231  1.00  0.00     0.286 C 
HETATM   13  N1  UNL     1       9.143   7.102   5.266  1.00  0.00     0.116 N 
ENDROOT
BRANCH   1  14
HETATM   14  C4  UNL     1       9.017   7.144  -0.607  1.00  0.00     0.080 C 
BRANCH  14  15
HETATM   15  C3  UNL     1       7.652   7.604  -0.511  1.00  0.00     0.083 C 
BRANCH  15  16
HETATM   16  C2  UNL     1       7.027   7.784  -1.895  1.00  0.00     0.123 C 
HETATM   17  C1  UNL     1       5.754   8.485  -2.091  1.00  0.00     0.091 C 
HETATM   18  O1  UNL     1       7.638   7.317  -2.831  1.00  0.00    -0.298 OA
ENDBRANCH  15  16
ENDBRANCH  14  15
ENDBRANCH   1  14
BRANCH   1  19
HETATM   19  C6  UNL     1      11.465   6.753  -0.180  1.00  0.00     0.020 C 
HETATM   20  C7  UNL     1      12.359   6.534   0.991  1.00  0.00     0.019 C 
HETATM   21  C8  UNL     1      13.779   6.150   0.624  1.00  0.00    -0.013 C 
HETATM   22  C9  UNL     1      14.342   7.123  -0.361  1.00  0.00     0.009 C 
HETATM   23  C13 UNL     1      13.679   4.742   0.045  1.00  0.00     0.009 C 
HETATM   24  C10 UNL     1      13.484   7.066  -1.600  1.00  0.00    -0.013 C 
HETATM   25  C11 UNL     1      13.409   5.665  -2.178  1.00  0.00     0.009 C 
HETATM   26  C15 UNL     1      12.074   7.504  -1.345  1.00  0.00     0.019 C 
HETATM   27  C12 UNL     1      12.754   4.820  -1.115  1.00  0.00    -0.013 C 
HETATM   28  C14 UNL     1      11.359   5.355  -0.760  1.00  0.00     0.019 C 
ENDBRANCH   1  19
BRANCH  13  29
HETATM   29  C23 UNL     1       9.559   6.731   6.597  1.00  0.00     0.438 C 
BRANCH  29  30
HETATM   30  O5  UNL     1      10.709   5.928   6.445  1.00  0.00    -0.373 OA
ATOM     31  H5  UNL     1      10.729   5.345   7.195  1.00  0.00     0.211 HD
ENDBRANCH  29  30
ENDBRANCH  13  29
TORSDOF 6
ENDMDL
MODEL 2
REMARK VINA RESULT: -8.040350349      2.590      4.316
REMARK  6 active torsions:
REMARK  status: ('A' for Active; 'I' for Inactive)
REMARK    1  A    between atoms: C2_2  and  C3_4 
REMARK    2  A    between atoms: C3_4  and  C4_5 
REMARK    3  A    between atoms: C4_5  and  C5_6 
REMARK    4  A    between atoms: C5_6  and  C6_7 
REMARK    5  A    between atoms: N1_28  and  C23_29 
REMARK    6  A    between atoms: C23_29  and  O5_30 
ROOT
HETATM    1  C5  UNL     1      10.846   7.473   2.281  1.00  0.00     0.208 C 
HETATM    2  O2  UNL     1      10.494   8.844   2.062  1.00  0.00    -0.196 OA
HETATM    3  O3  UNL     1      11.512   9.556   2.484  1.00  0.00    -0.194 OA
HETATM    4  C16 UNL     1      11.985   8.936   3.627  1.00  0.00     0.236 C 
HETATM    5  O4  UNL     1      11.759   7.628   3.323  1.00  0.00    -0.309 OA
HETATM    6  C17 UNL     1      11.386   9.586   4.792  1.00  0.00     0.237 C 
HETATM    7  F1  UNL     1      10.083   9.420   5.095  1.00  0.00    -0.243 F 
HETATM    8  C18 UNL     1      12.138   9.407   6.100  1.00  0.00     0.078 C 
HETATM    9  C19 UNL     1      13.576   9.769   6.013  1.00  0.00     0.229 C 
HETATM   10  C20 UNL     1      13.828  10.364   4.640  1.00  0.00     0.048 C 
HETATM   11  C21 UNL     1      13.492   9.176   3.790  1.00  0.00     0.084 C 
HETATM   12  C22 UNL     1      14.123   8.057   4.593  1.00  0.00     0.286 C 
HETATM   13  N1  UNL     1      14.316   8.523   5.929  1.00  0.00     0.116 N 
ENDROOT
BRANCH   1  14
HETATM   14  C4  UNL     1       9.698   6.737   2.768  1.00  0.00     0.080 C 
BRANCH  14  15
HETATM   15  C3  UNL     1       8.951   6.824   3.999  1.00  0.00     0.083 C 
BRANCH  15  16
HETATM   16  C2  UNL     1       9.348   5.712   4.972  1.00  0.00     0.123 C 
HETATM   17  C1  UNL     1       8.611   4.446   5.053  1.00  0.00     0.091 C 
HETATM   18  O1  UNL     1      10.308   5.926   5.678  1.00  0.00    -0.298 OA
ENDBRANCH  15  16
ENDBRANCH  14  15
ENDBRANCH   1  14
BRANCH   1  19
HETATM   19  C6  UNL     1      11.416   7.077   0.962  1.00  0.00     0.020 C 
HETATM   20  C7  UNL     1      10.524   6.118   0.254  1.00  0.00     0.019 C 
HETATM   21  C8  UNL     1      11.150   5.475  -0.968  1.00  0.00    -0.013 C 
HETATM   22  C9  UNL     1      12.478   4.884  -0.622  1.00  0.00     0.009 C 
HETATM   23  C13 UNL     1      11.273   6.597  -1.995  1.00  0.00     0.009 C 
HETATM   24  C10 UNL     1      13.368   6.006  -0.150  1.00  0.00    -0.013 C 
HETATM   25  C11 UNL     1      13.498   7.106  -1.187  1.00  0.00     0.009 C 
HETATM   26  C15 UNL     1      12.862   6.653   1.104  1.00  0.00     0.019 C 
HETATM   27  C12 UNL     1      12.108   7.658  -1.374  1.00  0.00    -0.013 C 
HETATM   28  C14 UNL     1      11.542   8.198  -0.053  1.00  0.00     0.019 C 
ENDBRANCH   1  19
BRANCH  13  29
HETATM   29  C23 UNL     1      15.697   8.685   6.314  1.00  0.00     0.438 C 
BRANCH  29  30
HETATM   30  O5  UNL     1      16.393   7.584   5.772  1.00  0.00    -0.373 OA
ATOM     31  H5  UNL     1      17.315   7.813   5.792  1.00  0.00     0.211 HD
ENDBRANCH  29  30
ENDBRANCH  13  29
TORSDOF 6
ENDMDL
MODEL 3
REMARK VINA RESULT: -7.832957875      2.491      3.831
REMARK  6 active torsions:
REMARK  status: ('A' for Active; 'I' for Inactive)
REMARK    1  A    between atoms: C2_2  and  C3_4 
REMARK    2  A    between atoms: C3_4  and  C4_5 
REMARK    3  A    between atoms: C4_5  and  C5_6 
REMARK    4  A    between atoms: C5_6  and  C6_7 
REMARK    5  A    between atoms: N1_28  and  C23_29 
REMARK    6  A    between atoms: C23_29  and  O5_30 
ROOT
HETATM    1  C5  UNL     1      10.737   7.546   1.942  1.00  0.00     0.208 C 
HETATM    2  O2  UNL     1      10.582   8.922   1.574  1.00  0.00    -0.196 OA
HETATM    3  O3  UNL     1      11.637   9.547   2.040  1.00  0.00    -0.194 OA
HETATM    4  C16 UNL     1      11.920   8.987   3.274  1.00  0.00     0.236 C 
HETATM    5  O4  UNL     1      11.562   7.692   3.057  1.00  0.00    -0.309 OA
HETATM    6  C17 UNL     1      11.302   9.810   4.312  1.00  0.00     0.237 C 
HETATM    7  F1  UNL     1       9.966   9.827   4.491  1.00  0.00    -0.243 F 
HETATM    8  C18 UNL     1      11.900   9.669   5.701  1.00  0.00     0.078 C 
HETATM    9  C19 UNL     1      13.374   9.851   5.735  1.00  0.00     0.229 C 
HETATM   10  C20 UNL     1      13.826  10.279   4.351  1.00  0.00     0.048 C 
HETATM   11  C21 UNL     1      13.424   9.064   3.571  1.00  0.00     0.084 C 
HETATM   12  C22 UNL     1      13.832   7.960   4.526  1.00  0.00     0.286 C 
HETATM   13  N1  UNL     1      13.956   8.525   5.831  1.00  0.00     0.116 N 
ENDROOT
BRANCH   1  14
HETATM   14  C4  UNL     1       9.466   6.998   2.367  1.00  0.00     0.080 C 
BRANCH  14  15
HETATM   15  C3  UNL     1       8.726   7.127   3.599  1.00  0.00     0.083 C 
BRANCH  15  16
HETATM   16  C2  UNL     1       9.005   5.955   4.541  1.00  0.00     0.123 C 
HETATM   17  C1  UNL     1       9.943   6.062   5.663  1.00  0.00     0.091 C 
HETATM   18  O1  UNL     1       8.411   4.924   4.316  1.00  0.00    -0.298 OA
ENDBRANCH  15  16
ENDBRANCH  14  15
ENDBRANCH   1  14
BRANCH   1  19
HETATM   19  C6  UNL     1      11.374   6.963   0.726  1.00  0.00     0.020 C 
HETATM   20  C7  UNL     1      12.742   6.458   1.023  1.00  0.00     0.019 C 
HETATM   21  C8  UNL     1      13.547   6.087  -0.207  1.00  0.00    -0.013 C 
HETATM   22  C9  UNL     1      13.545   7.215  -1.188  1.00  0.00     0.009 C 
HETATM   23  C13 UNL     1      12.873   4.839  -0.768  1.00  0.00     0.009 C 
HETATM   24  C10 UNL     1      12.115   7.463  -1.596  1.00  0.00    -0.013 C 
HETATM   25  C11 UNL     1      11.461   6.220  -2.170  1.00  0.00     0.009 C 
HETATM   26  C15 UNL     1      11.259   7.910  -0.449  1.00  0.00     0.019 C 
HETATM   27  C12 UNL     1      11.462   5.206  -1.056  1.00  0.00    -0.013 C 
HETATM   28  C14 UNL     1      10.696   5.726   0.169  1.00  0.00     0.019 C 
ENDBRANCH   1  19
BRANCH  13  29
HETATM   29  C23 UNL     1      15.305   8.560   6.343  1.00  0.00     0.438 C 
BRANCH  29  30
HETATM   30  O5  UNL     1      15.959   7.425   5.820  1.00  0.00    -0.373 OA
ATOM     31  H5  UNL     1      15.488   6.669   6.148  1.00  0.00     0.211 HD
ENDBRANCH  29  30
ENDBRANCH  13  29
TORSDOF 6
ENDMDL
MODEL 4
REMARK VINA RESULT: -7.809332503      2.514      4.039
REMARK  6 active torsions:
REMARK  status: ('A' for Active; 'I' for Inactive)
REMARK    1  A    between atoms: C2_2  and  C3_4 
REMARK    2  A    between atoms: C3_4  and  C4_5 
REMARK    3  A    between atoms: C4_5  and  C5_6 
REMARK    4  A    between atoms: C5_6  and  C6_7 
REMARK    5  A    between atoms: N1_28  and  C23_29 
REMARK    6  A    between atoms: C23_29  and  O5_30 
ROOT
HETATM    1  C5  UNL     1      10.771   7.537   2.052  1.00  0.00     0.208 C 
HETATM    2  O2  UNL     1      10.632   8.933   1.762  1.00  0.00    -0.196 OA
HETATM    3  O3  UNL     1      11.679   9.523   2.289  1.00  0.00    -0.194 OA
HETATM    4  C16 UNL     1      11.929   8.891   3.494  1.00  0.00     0.236 C 
HETATM    5  O4  UNL     1      11.569   7.612   3.194  1.00  0.00    -0.309 OA
HETATM    6  C17 UNL     1      11.290   9.656   4.563  1.00  0.00     0.237 C 
HETATM    7  F1  UNL     1       9.950   9.671   4.711  1.00  0.00    -0.243 F 
HETATM    8  C18 UNL     1      11.853   9.431   5.956  1.00  0.00     0.078 C 
HETATM    9  C19 UNL     1      13.327   9.601   6.036  1.00  0.00     0.229 C 
HETATM   10  C20 UNL     1      13.814  10.106   4.690  1.00  0.00     0.048 C 
HETATM   11  C21 UNL     1      13.425   8.941   3.832  1.00  0.00     0.084 C 
HETATM   12  C22 UNL     1      13.804   7.781   4.730  1.00  0.00     0.286 C 
HETATM   13  N1  UNL     1      13.900   8.268   6.068  1.00  0.00     0.116 N 
ENDROOT
BRANCH   1  14
HETATM   14  C4  UNL     1       9.487   6.974   2.414  1.00  0.00     0.080 C 
BRANCH  14  15
HETATM   15  C3  UNL     1       8.696   7.075   3.616  1.00  0.00     0.083 C 
BRANCH  15  16
HETATM   16  C2  UNL     1       8.945   5.887   4.548  1.00  0.00     0.123 C 
HETATM   17  C1  UNL     1       9.876   5.965   5.679  1.00  0.00     0.091 C 
HETATM   18  O1  UNL     1       8.333   4.870   4.306  1.00  0.00    -0.298 OA
ENDBRANCH  15  16
ENDBRANCH  14  15
ENDBRANCH   1  14
BRANCH   1  19
HETATM   19  C6  UNL     1      11.434   7.022   0.821  1.00  0.00     0.020 C 
HETATM   20  C7  UNL     1      11.623   8.104  -0.184  1.00  0.00     0.019 C 
HETATM   21  C8  UNL     1      12.052   7.613  -1.552  1.00  0.00    -0.013 C 
HETATM   22  C9  UNL     1      11.134   6.534  -2.028  1.00  0.00     0.009 C 
HETATM   23  C13 UNL     1      13.481   7.110  -1.369  1.00  0.00     0.009 C 
HETATM   24  C10 UNL     1      11.225   5.391  -1.048  1.00  0.00    -0.013 C 
HETATM   25  C11 UNL     1      12.647   4.887  -0.889  1.00  0.00     0.009 C 
HETATM   26  C15 UNL     1      10.746   5.769   0.322  1.00  0.00     0.019 C 
HETATM   27  C12 UNL     1      13.432   6.047  -0.332  1.00  0.00    -0.013 C 
HETATM   28  C14 UNL     1      12.852   6.518   1.010  1.00  0.00     0.019 C 
ENDBRANCH   1  19
BRANCH  13  29
HETATM   29  C23 UNL     1      15.235   8.265   6.614  1.00  0.00     0.438 C 
BRANCH  29  30
HETATM   30  O5  UNL     1      15.987   7.371   5.822  1.00  0.00    -0.373 OA
ATOM     31  H5  UNL     1      16.231   7.848   5.037  1.00  0.00     0.211 HD
ENDBRANCH  29  30
ENDBRANCH  13  29
TORSDOF 6
ENDMDL
MODEL 5
REMARK VINA RESULT: -7.801485874      0.672      1.538
REMARK  6 active torsions:
REMARK  status: ('A' for Active; 'I' for Inactive)
REMARK    1  A    between atoms: C2_2  and  C3_4 
REMARK    2  A    between atoms: C3_4  and  C4_5 
REMARK    3  A    between atoms: C4_5  and  C5_6 
REMARK    4  A    between atoms: C5_6  and  C6_7 
REMARK    5  A    between atoms: N1_28  and  C23_29 
REMARK    6  A    between atoms: C23_29  and  O5_30 
ROOT
HETATM    1  C5  UNL     1      10.199   7.375   0.581  1.00  0.00     0.208 C 
HETATM    2  O2  UNL     1      10.377   8.795   0.526  1.00  0.00    -0.196 OA
HETATM    3  O3  UNL     1      10.836   9.153   1.702  1.00  0.00    -0.194 OA
HETATM    4  C16 UNL     1      10.176   8.379   2.640  1.00  0.00     0.236 C 
HETATM    5  O4  UNL     1      10.031   7.211   1.956  1.00  0.00    -0.309 OA
HETATM    6  C17 UNL     1       9.035   9.138   3.149  1.00  0.00     0.237 C 
HETATM    7  F1  UNL     1       7.944   9.361   2.388  1.00  0.00    -0.243 F 
HETATM    8  C18 UNL     1       8.506   8.695   4.503  1.00  0.00     0.078 C 
HETATM    9  C19 UNL     1       9.555   8.611   5.552  1.00  0.00     0.229 C 
HETATM   10  C20 UNL     1      10.847   9.151   4.967  1.00  0.00     0.048 C 
HETATM   11  C21 UNL     1      11.061   8.150   3.872  1.00  0.00     0.084 C 
HETATM   12  C22 UNL     1      10.669   6.865   4.574  1.00  0.00     0.286 C 
HETATM   13  N1  UNL     1       9.875   7.205   5.711  1.00  0.00     0.116 N 
ENDROOT
BRANCH   1  14
HETATM   14  C4  UNL     1       8.971   7.001  -0.090  1.00  0.00     0.080 C 
BRANCH  14  15
HETATM   15  C3  UNL     1       7.799   7.763  -0.447  1.00  0.00     0.083 C 
BRANCH  15  16
HETATM   16  C2  UNL     1       7.366   7.477  -1.885  1.00  0.00     0.123 C 
HETATM   17  C1  UNL     1       8.321   7.457  -2.998  1.00  0.00     0.091 C 
HETATM   18  O1  UNL     1       6.187   7.265  -2.065  1.00  0.00    -0.298 OA
ENDBRANCH  15  16
ENDBRANCH  14  15
ENDBRANCH   1  14
BRANCH   1  19
HETATM   19  C6  UNL     1      11.482   6.873   0.012  1.00  0.00     0.020 C 
HETATM   20  C7  UNL     1      11.291   5.573  -0.689  1.00  0.00     0.019 C 
HETATM   21  C8  UNL     1      12.582   4.877  -1.069  1.00  0.00    -0.013 C 
HETATM   22  C9  UNL     1      13.482   4.768   0.119  1.00  0.00     0.009 C 
HETATM   23  C13 UNL     1      13.193   5.734  -2.173  1.00  0.00     0.009 C 
HETATM   24  C10 UNL     1      13.800   6.168   0.582  1.00  0.00    -0.013 C 
HETATM   25  C11 UNL     1      14.424   7.005  -0.519  1.00  0.00     0.009 C 
HETATM   26  C15 UNL     1      12.583   6.908   1.050  1.00  0.00     0.019 C 
HETATM   27  C12 UNL     1      13.382   7.095  -1.604  1.00  0.00    -0.013 C 
HETATM   28  C14 UNL     1      12.087   7.733  -1.081  1.00  0.00     0.019 C 
ENDBRANCH   1  19
BRANCH  13  29
HETATM   29  C23 UNL     1      10.499   6.930   6.982  1.00  0.00     0.438 C 
BRANCH  29  30
HETATM   30  O5  UNL     1      11.621   6.119   6.708  1.00  0.00    -0.373 OA
ATOM     31  H5  UNL     1      11.525   5.339   7.242  1.00  0.00     0.211 HD
ENDBRANCH  29  30
ENDBRANCH  13  29
TORSDOF 6
ENDMDL
