MODEL 1
REMARK VINA RESULT: -7.457232759      0.000      0.000
REMARK  6 active torsions:
REMARK  status: ('A' for Active; 'I' for Inactive)
REMARK    1  A    between atoms: C2_2  and  N1_3 
REMARK       I    between atoms: N1_3  and  C3_5 
REMARK    2  A    between atoms: C3_5  and  C4_7 
REMARK    3  A    between atoms: C5_10  and  C6_11 
REMARK    4  A    between atoms: N3_15  and  C10_16 
REMARK    5  A    between atoms: C10_16  and  C11_17 
REMARK    6  A    between atoms: C11_17  and  O2_20 
ROOT
HETATM    1  C4  UNL     1      -8.089   8.690   2.060  1.00  0.00     0.120 A 
HETATM    2  N2  UNL     1      -8.151   9.010   0.725  1.00  0.00    -0.353 N 
ATOM      3  H2  UNL     1      -9.004   8.849   0.189  1.00  0.00     0.166 HD
HETATM    4  C5  UNL     1      -7.076   9.532   0.149  1.00  0.00     0.019 A 
HETATM    5  C17 UNL     1      -5.906   9.768   0.828  1.00  0.00     0.056 A 
HETATM    6  C18 UNL     1      -5.808   9.453   2.193  1.00  0.00     0.054 A 
HETATM    7  N4  UNL     1      -4.757   9.626   2.956  1.00  0.00    -0.353 N 
ATOM      8  H4  UNL     1      -3.906  10.025   2.560  1.00  0.00     0.166 HD
HETATM    9  C19 UNL     1      -4.787   9.294   4.211  1.00  0.00     0.048 A 
HETATM   10  C20 UNL     1      -3.687   9.422   5.215  1.00  0.00     0.076 C 
HETATM   11  S1  UNL     1      -6.379   8.696   4.377  1.00  0.00    -0.073 SA
HETATM   12  C21 UNL     1      -6.927   8.914   2.770  1.00  0.00     0.065 A 
ENDROOT
BRANCH   4  13
HETATM   13  C6  UNL     1      -7.180   9.860  -1.324  1.00  0.00     0.077 C 
HETATM   14  C7  UNL     1      -5.796  10.010  -1.916  1.00  0.00     0.012 C 
HETATM   15  C8  UNL     1      -5.040   8.694  -1.750  1.00  0.00     0.012 C 
HETATM   16  C9  UNL     1      -5.984  10.204  -3.396  1.00  0.00     0.127 C 
HETATM   17  N3  UNL     1      -6.922  11.212  -3.747  1.00  0.00    -0.383 N 
HETATM   18  C14 UNL     1      -7.582  11.890  -2.749  1.00  0.00     0.114 C 
HETATM   19  C15 UNL     1      -6.693  13.012  -2.185  1.00  0.00     0.035 C 
HETATM   20  C16 UNL     1      -8.051  11.042  -1.580  1.00  0.00     0.202 C 
HETATM   21  F1  UNL     1      -8.091  11.828  -0.451  1.00  0.00    -0.246 F 
BRANCH  17  22
HETATM   22  C10 UNL     1      -6.992  11.437  -5.107  1.00  0.00     0.095 C 
BRANCH  22  23
HETATM   23  C11 UNL     1      -7.887  10.644  -5.988  1.00  0.00     0.082 C 
HETATM   24  C12 UNL     1      -7.214   9.556  -6.783  1.00  0.00     0.051 C 
HETATM   25  C13 UNL     1      -8.827  11.454  -6.843  1.00  0.00     0.051 C 
BRANCH  23  26
HETATM   26  O2  UNL     1      -8.741   9.921  -5.079  1.00  0.00    -0.385 OA
ATOM     27  H2  UNL     1      -8.950   9.115  -5.539  1.00  0.00     0.211 HD
ENDBRANCH  23  26
ENDBRANCH  22  23
ENDBRANCH  17  22
ENDBRANCH   4  13
BRANCH   1  28
HETATM   28  C3  UNL     1      -9.258   8.121   2.708  1.00  0.00     0.269 C 
HETATM   29  N1  UNL     1      -9.752   6.820   2.644  1.00  0.00    -0.356 N 
ATOM     30  H1  UNL     1      -9.270   6.121   2.079  1.00  0.00     0.162 HD
HETATM   31  O1  UNL     1      -9.929   8.931   3.440  1.00  0.00    -0.266 OA
BRANCH  29  32
HETATM   32  C2  UNL     1     -10.970   6.449   3.391  1.00  0.00     0.118 C 
HETATM   33  C1  UNL     1     -10.650   5.388   4.435  1.00  0.00     0.026 C 
ENDBRANCH  29  32
ENDBRANCH   1  28
TORSDOF 6
ENDMDL
MODEL 2
REMARK VINA RESULT: -7.450018091      0.969      1.054
REMARK  6 active torsions:
REMARK  status: ('A' for Active; 'I' for Inactive)
REMARK    1  A    between atoms: C2_2  and  N1_3 
REMARK       I    between atoms: N1_3  and  C3_5 
REMARK    2  A    between atoms: C3_5  and  C4_7 
REMARK    3  A    between atoms: C5_10  and  C6_11 
REMARK    4  A    between atoms: N3_15  and  C10_16 
REMARK    5  A    between atoms: C10_16  and  C11_17 
REMARK    6  A    between atoms: C11_17  and  O2_20 
ROOT
HETATM    1  C4  UNL     1      -8.610   8.526   1.750  1.00  0.00     0.120 A 
HETATM    2  N2  UNL     1      -8.734   8.975   0.456  1.00  0.00    -0.353 N 
ATOM      3  H2  UNL     1      -9.582   8.791  -0.080  1.00  0.00     0.166 HD
HETATM    4  C5  UNL     1      -7.727   9.653  -0.078  1.00  0.00     0.019 A 
HETATM    5  C17 UNL     1      -6.567   9.927   0.605  1.00  0.00     0.056 A 
HETATM    6  C18 UNL     1      -6.407   9.483   1.928  1.00  0.00     0.054 A 
HETATM    7  N4  UNL     1      -5.358   9.675   2.689  1.00  0.00    -0.353 N 
ATOM      8  H4  UNL     1      -4.557  10.191   2.324  1.00  0.00     0.166 HD
HETATM    9  C19 UNL     1      -5.327   9.214   3.903  1.00  0.00     0.048 A 
HETATM   10  C20 UNL     1      -4.218   9.341   4.898  1.00  0.00     0.076 C 
HETATM   11  S1  UNL     1      -6.852   8.455   4.028  1.00  0.00    -0.073 SA
HETATM   12  C21 UNL     1      -7.457   8.785   2.462  1.00  0.00     0.065 A 
ENDROOT
BRANCH   4  13
HETATM   13  C6  UNL     1      -7.896  10.120  -1.506  1.00  0.00     0.077 C 
HETATM   14  C7  UNL     1      -6.540  10.332  -2.142  1.00  0.00     0.012 C 
HETATM   15  C8  UNL     1      -5.777   9.010  -2.137  1.00  0.00     0.012 C 
HETATM   16  C9  UNL     1      -6.795  10.667  -3.587  1.00  0.00     0.127 C 
HETATM   17  N3  UNL     1      -7.748  11.699  -3.798  1.00  0.00    -0.383 N 
HETATM   18  C14 UNL     1      -8.362  12.275  -2.711  1.00  0.00     0.114 C 
HETATM   19  C15 UNL     1      -7.450  13.342  -2.083  1.00  0.00     0.035 C 
HETATM   20  C16 UNL     1      -8.778  11.317  -1.609  1.00  0.00     0.202 C 
HETATM   21  F1  UNL     1      -8.768  11.992  -0.409  1.00  0.00    -0.246 F 
BRANCH  17  22
HETATM   22  C10 UNL     1      -7.879  12.053  -5.125  1.00  0.00     0.095 C 
BRANCH  22  23
HETATM   23  C11 UNL     1      -9.141  11.828  -5.875  1.00  0.00     0.082 C 
HETATM   24  C12 UNL     1      -8.980  11.248  -7.256  1.00  0.00     0.051 C 
HETATM   25  C13 UNL     1     -10.104  12.988  -5.871  1.00  0.00     0.051 C 
BRANCH  23  26
HETATM   26  O2  UNL     1      -9.815  10.783  -5.146  1.00  0.00    -0.385 OA
ATOM     27  H2  UNL     1      -9.966  10.102  -5.791  1.00  0.00     0.211 HD
ENDBRANCH  23  26
ENDBRANCH  22  23
ENDBRANCH  17  22
ENDBRANCH   4  13
BRANCH   1  28
HETATM   28  C3  UNL     1      -9.706   7.787   2.351  1.00  0.00     0.269 C 
HETATM   29  N1  UNL     1      -9.663   6.632   3.130  1.00  0.00    -0.356 N 
ATOM     30  H1  UNL     1      -8.766   6.195   3.342  1.00  0.00     0.162 HD
HETATM   31  O1  UNL     1     -10.875   8.263   2.134  1.00  0.00    -0.266 OA
BRANCH  29  32
HETATM   32  C2  UNL     1     -10.911   6.038   3.648  1.00  0.00     0.118 C 
HETATM   33  C1  UNL     1     -10.629   5.222   4.903  1.00  0.00     0.026 C 
ENDBRANCH  29  32
ENDBRANCH   1  28
TORSDOF 6
ENDMDL
MODEL 3
REMARK VINA RESULT: -7.091624074      1.181      1.313
REMARK  6 active torsions:
REMARK  status: ('A' for Active; 'I' for Inactive)
REMARK    1  A    between atoms: C2_2  and  N1_3 
REMARK       I    between atoms: N1_3  and  C3_5 
REMARK    2  A    between atoms: C3_5  and  C4_7 
REMARK    3  A    between atoms: C5_10  and  C6_11 
REMARK    4  A    between atoms: N3_15  and  C10_16 
REMARK    5  A    between atoms: C10_16  and  C11_17 
REMARK    6  A    between atoms: C11_17  and  O2_20 
ROOT
HETATM    1  C4  UNL     1      -7.676   8.891   1.812  1.00  0.00     0.120 A 
HETATM    2  N2  UNL     1      -7.543   9.135   0.466  1.00  0.00    -0.353 N 
ATOM      3  H2  UNL     1      -8.335   9.017  -0.166  1.00  0.00     0.166 HD
HETATM    4  C5  UNL     1      -6.362   9.527   0.007  1.00  0.00     0.019 A 
HETATM    5  C17 UNL     1      -5.267   9.700   0.818  1.00  0.00     0.056 A 
HETATM    6  C18 UNL     1      -5.368   9.460   2.198  1.00  0.00     0.054 A 
HETATM    7  N4  UNL     1      -4.407   9.587   3.080  1.00  0.00    -0.353 N 
ATOM      8  H4  UNL     1      -3.480   9.887   2.778  1.00  0.00     0.166 HD
HETATM    9  C19 UNL     1      -4.623   9.335   4.336  1.00  0.00     0.048 A 
HETATM   10  C20 UNL     1      -3.647   9.427   5.465  1.00  0.00     0.076 C 
HETATM   11  S1  UNL     1      -6.272   8.887   4.325  1.00  0.00    -0.073 SA
HETATM   12  C21 UNL     1      -6.594   9.056   2.653  1.00  0.00     0.065 A 
ENDROOT
BRANCH   4  13
HETATM   13  C6  UNL     1      -6.252   9.774  -1.481  1.00  0.00     0.077 C 
HETATM   14  C7  UNL     1      -4.816   9.608  -1.925  1.00  0.00     0.012 C 
HETATM   15  C8  UNL     1      -4.364   8.181  -1.623  1.00  0.00     0.012 C 
HETATM   16  C9  UNL     1      -4.815   9.741  -3.424  1.00  0.00     0.127 C 
HETATM   17  N3  UNL     1      -5.490  10.890  -3.918  1.00  0.00    -0.383 N 
HETATM   18  C14 UNL     1      -6.091  11.748  -3.027  1.00  0.00     0.114 C 
HETATM   19  C15 UNL     1      -5.051  12.705  -2.419  1.00  0.00     0.035 C 
HETATM   20  C16 UNL     1      -6.835  11.086  -1.880  1.00  0.00     0.202 C 
HETATM   21  F1  UNL     1      -6.823  11.936  -0.797  1.00  0.00    -0.246 F 
BRANCH  17  22
HETATM   22  C10 UNL     1      -5.379  11.038  -5.285  1.00  0.00     0.095 C 
BRANCH  22  23
HETATM   23  C11 UNL     1      -6.547  10.875  -6.188  1.00  0.00     0.082 C 
HETATM   24  C12 UNL     1      -7.253  12.150  -6.571  1.00  0.00     0.051 C 
HETATM   25  C13 UNL     1      -7.524   9.801  -5.784  1.00  0.00     0.051 C 
BRANCH  23  26
HETATM   26  O2  UNL     1      -5.982  10.414  -7.431  1.00  0.00    -0.385 OA
ATOM     27  H2  UNL     1      -6.713  10.408  -8.038  1.00  0.00     0.211 HD
ENDBRANCH  23  26
ENDBRANCH  22  23
ENDBRANCH  17  22
ENDBRANCH   4  13
BRANCH   1  28
HETATM   28  C3  UNL     1      -8.965   8.465   2.331  1.00  0.00     0.269 C 
HETATM   29  N1  UNL     1      -9.560   7.207   2.279  1.00  0.00    -0.356 N 
ATOM     30  H1  UNL     1      -9.075   6.434   1.824  1.00  0.00     0.162 HD
HETATM   31  O1  UNL     1      -9.648   9.376   2.919  1.00  0.00    -0.266 OA
BRANCH  29  32
HETATM   32  C2  UNL     1     -10.891   6.989   2.878  1.00  0.00     0.118 C 
HETATM   33  C1  UNL     1     -10.799   5.998   4.031  1.00  0.00     0.026 C 
ENDBRANCH  29  32
ENDBRANCH   1  28
TORSDOF 6
ENDMDL
MODEL 4
REMARK VINA RESULT: -6.893940656      1.395      1.577
REMARK  6 active torsions:
REMARK  status: ('A' for Active; 'I' for Inactive)
REMARK    1  A    between atoms: C2_2  and  N1_3 
REMARK       I    between atoms: N1_3  and  C3_5 
REMARK    2  A    between atoms: C3_5  and  C4_7 
REMARK    3  A    between atoms: C5_10  and  C6_11 
REMARK    4  A    between atoms: N3_15  and  C10_16 
REMARK    5  A    between atoms: C10_16  and  C11_17 
REMARK    6  A    between atoms: C11_17  and  O2_20 
ROOT
HETATM    1  C4  UNL     1      -8.576   8.673   1.539  1.00  0.00     0.120 A 
HETATM    2  N2  UNL     1      -8.718   9.103   0.241  1.00  0.00    -0.353 N 
ATOM      3  H2  UNL     1      -9.582   8.934  -0.273  1.00  0.00     0.166 HD
HETATM    4  C5  UNL     1      -7.705   9.744  -0.328  1.00  0.00     0.019 A 
HETATM    5  C17 UNL     1      -6.522   9.996   0.323  1.00  0.00     0.056 A 
HETATM    6  C18 UNL     1      -6.344   9.571   1.650  1.00  0.00     0.054 A 
HETATM    7  N4  UNL     1      -5.272   9.746   2.383  1.00  0.00    -0.353 N 
ATOM      8  H4  UNL     1      -4.466  10.234   1.992  1.00  0.00     0.166 HD
HETATM    9  C19 UNL     1      -5.225   9.305   3.604  1.00  0.00     0.048 A 
HETATM   10  C20 UNL     1      -4.091   9.418   4.571  1.00  0.00     0.076 C 
HETATM   11  S1  UNL     1      -6.768   8.591   3.778  1.00  0.00    -0.073 SA
HETATM   12  C21 UNL     1      -7.399   8.912   2.220  1.00  0.00     0.065 A 
ENDROOT
BRANCH   4  13
HETATM   13  C6  UNL     1      -7.895  10.191  -1.760  1.00  0.00     0.077 C 
HETATM   14  C7  UNL     1      -6.549  10.354  -2.430  1.00  0.00     0.012 C 
HETATM   15  C8  UNL     1      -5.822   9.011  -2.420  1.00  0.00     0.012 C 
HETATM   16  C9  UNL     1      -6.827  10.671  -3.874  1.00  0.00     0.127 C 
HETATM   17  N3  UNL     1      -7.757  11.726  -4.082  1.00  0.00    -0.383 N 
HETATM   18  C14 UNL     1      -8.329  12.337  -2.991  1.00  0.00     0.114 C 
HETATM   19  C15 UNL     1      -7.373  13.389  -2.403  1.00  0.00     0.035 C 
HETATM   20  C16 UNL     1      -8.745  11.410  -1.863  1.00  0.00     0.202 C 
HETATM   21  F1  UNL     1      -8.689  12.104  -0.676  1.00  0.00    -0.246 F 
BRANCH  17  22
HETATM   22  C10 UNL     1      -7.909  12.061  -5.412  1.00  0.00     0.095 C 
BRANCH  22  23
HETATM   23  C11 UNL     1      -7.214  13.229  -6.010  1.00  0.00     0.082 C 
HETATM   24  C12 UNL     1      -5.762  13.379  -5.640  1.00  0.00     0.051 C 
HETATM   25  C13 UNL     1      -7.952  14.539  -5.899  1.00  0.00     0.051 C 
BRANCH  23  26
HETATM   26  O2  UNL     1      -7.177  12.943  -7.422  1.00  0.00    -0.385 OA
ATOM     27  H2  UNL     1      -6.355  13.316  -7.719  1.00  0.00     0.211 HD
ENDBRANCH  23  26
ENDBRANCH  22  23
ENDBRANCH  17  22
ENDBRANCH   4  13
BRANCH   1  28
HETATM   28  C3  UNL     1      -9.678   7.975   2.178  1.00  0.00     0.269 C 
HETATM   29  N1  UNL     1      -9.650   6.821   2.959  1.00  0.00    -0.356 N 
ATOM     30  H1  UNL     1      -8.763   6.353   3.143  1.00  0.00     0.162 HD
HETATM   31  O1  UNL     1     -10.835   8.492   1.998  1.00  0.00    -0.266 OA
BRANCH  29  32
HETATM   32  C2  UNL     1     -10.901   6.273   3.519  1.00  0.00     0.118 C 
HETATM   33  C1  UNL     1     -10.594   5.187   4.541  1.00  0.00     0.026 C 
ENDBRANCH  29  32
ENDBRANCH   1  28
TORSDOF 6
ENDMDL
MODEL 5
REMARK VINA RESULT: -6.857364301      1.502      3.580
REMARK  6 active torsions:
REMARK  status: ('A' for Active; 'I' for Inactive)
REMARK    1  A    between atoms: C2_2  and  N1_3 
REMARK       I    between atoms: N1_3  and  C3_5 
REMARK    2  A    between atoms: C3_5  and  C4_7 
REMARK    3  A    between atoms: C5_10  and  C6_11 
REMARK    4  A    between atoms: N3_15  and  C10_16 
REMARK    5  A    between atoms: C10_16  and  C11_17 
REMARK    6  A    between atoms: C11_17  and  O2_20 
ROOT
HETATM    1  C4  UNL     1      -6.617   9.485   2.132  1.00  0.00     0.120 A 
HETATM    2  N2  UNL     1      -6.775   9.967   0.854  1.00  0.00    -0.353 N 
ATOM      3  H2  UNL     1      -6.085  10.597   0.446  1.00  0.00     0.166 HD
HETATM    4  C5  UNL     1      -7.844   9.594   0.165  1.00  0.00     0.019 A 
HETATM    5  C17 UNL     1      -8.800   8.746   0.670  1.00  0.00     0.056 A 
HETATM    6  C18 UNL     1      -8.670   8.235   1.972  1.00  0.00     0.054 A 
HETATM    7  N4  UNL     1      -9.503   7.422   2.573  1.00  0.00    -0.353 N 
ATOM      8  H4  UNL     1     -10.340   7.105   2.084  1.00  0.00     0.166 HD
HETATM    9  C19 UNL     1      -9.274   7.016   3.785  1.00  0.00     0.048 A 
HETATM   10  C20 UNL     1     -10.114   6.096   4.613  1.00  0.00     0.076 C 
HETATM   11  S1  UNL     1      -7.800   7.801   4.146  1.00  0.00    -0.073 SA
HETATM   12  C21 UNL     1      -7.560   8.632   2.668  1.00  0.00     0.065 A 
ENDROOT
BRANCH   4  13
HETATM   13  C6  UNL     1      -7.988  10.154  -1.233  1.00  0.00     0.077 C 
HETATM   14  C7  UNL     1      -6.622  10.446  -1.813  1.00  0.00     0.012 C 
HETATM   15  C8  UNL     1      -5.822   9.147  -1.876  1.00  0.00     0.012 C 
HETATM   16  C9  UNL     1      -6.846  10.872  -3.238  1.00  0.00     0.127 C 
HETATM   17  N3  UNL     1      -7.823  11.890  -3.406  1.00  0.00    -0.383 N 
HETATM   18  C14 UNL     1      -8.483  12.373  -2.300  1.00  0.00     0.114 C 
HETATM   19  C15 UNL     1      -7.619  13.419  -1.575  1.00  0.00     0.035 C 
HETATM   20  C16 UNL     1      -8.901  11.330  -1.279  1.00  0.00     0.202 C 
HETATM   21  F1  UNL     1      -8.943  11.921  -0.036  1.00  0.00    -0.246 F 
BRANCH  17  22
HETATM   22  C10 UNL     1      -7.928  12.331  -4.709  1.00  0.00     0.095 C 
BRANCH  22  23
HETATM   23  C11 UNL     1      -8.941  11.779  -5.645  1.00  0.00     0.082 C 
HETATM   24  C12 UNL     1      -8.400  10.888  -6.733  1.00  0.00     0.051 C 
HETATM   25  C13 UNL     1      -9.925  12.782  -6.189  1.00  0.00     0.051 C 
BRANCH  23  26
HETATM   26  O2  UNL     1      -9.731  10.885  -4.836  1.00  0.00    -0.385 OA
ATOM     27  H2  UNL     1     -10.102  10.268  -5.456  1.00  0.00     0.211 HD
ENDBRANCH  23  26
ENDBRANCH  22  23
ENDBRANCH  17  22
ENDBRANCH   4  13
BRANCH   1  28
HETATM   28  C3  UNL     1      -5.449   9.881   2.900  1.00  0.00     0.269 C 
HETATM   29  N1  UNL     1      -4.751   9.163   3.869  1.00  0.00    -0.356 N 
ATOM     30  H1  UNL     1      -5.053   8.222   4.120  1.00  0.00     0.162 HD
HETATM   31  O1  UNL     1      -4.999  11.054   2.651  1.00  0.00    -0.266 OA
BRANCH  29  32
HETATM   32  C2  UNL     1      -3.575   9.760   4.533  1.00  0.00     0.118 C 
HETATM   33  C1  UNL     1      -3.553   9.386   6.009  1.00  0.00     0.026 C 
ENDBRANCH  29  32
ENDBRANCH   1  28
TORSDOF 6
ENDMDL
