MODEL 1
REMARK VINA RESULT: -7.772940480      0.000      0.000
REMARK  4 active torsions:
REMARK  status: ('A' for Active; 'I' for Inactive)
REMARK    1  A    between atoms: C8_9  and  N2_10 
REMARK    2  A    between atoms: N2_10  and  C9_12 
REMARK    3  A    between atoms: C12_17  and  C13_18 
REMARK    4  A    between atoms: N5_22  and  C15_23 
ROOT
HETATM    1  C9  UNL     1      12.822 -15.833 -16.995  1.00  0.00     0.121 A 
HETATM    2  C10 UNL     1      13.428 -16.928 -16.487  1.00  0.00     0.136 A 
HETATM    3  N3  UNL     1      14.786 -17.043 -16.545  1.00  0.00    -0.370 N 
ATOM      4  H3  UNL     1      15.225 -17.878 -16.158  1.00  0.00     0.164 HD
HETATM    5  C11 UNL     1      15.564 -16.104 -17.091  1.00  0.00     0.118 A 
HETATM    6  C12 UNL     1      14.969 -14.983 -17.613  1.00  0.00     0.062 A 
HETATM    7  N6  UNL     1      13.638 -14.888 -17.547  1.00  0.00    -0.340 N 
ATOM      8  H6  UNL     1      13.202 -14.052 -17.935  1.00  0.00     0.167 HD
ENDROOT
BRANCH   1   9
HETATM    9  N2  UNL     1      11.451 -15.634 -17.007  1.00  0.00    -0.348 N 
ATOM     10  H2  UNL     1      10.936 -16.441 -16.654  1.00  0.00     0.167 HD
BRANCH   9  11
HETATM   11  C8  UNL     1      10.604 -14.581 -17.392  1.00  0.00    -0.001 C 
HETATM   12  C2  UNL     1       9.832 -14.682 -18.652  1.00  0.00     0.065 C 
HETATM   13  C1  UNL     1       8.524 -15.357 -18.656  1.00  0.00     0.022 C 
HETATM   14  C3  UNL     1       9.594 -13.246 -19.119  1.00  0.00     0.068 C 
HETATM   15  N1  UNL     1       9.691 -12.292 -18.092  1.00  0.00    -0.392 N 
HETATM   16  C4  UNL     1      10.578 -11.207 -18.292  1.00  0.00     0.149 C 
HETATM   17  C5  UNL     1       9.326 -12.604 -16.778  1.00  0.00     0.084 C 
HETATM   18  C6  UNL     1       7.824 -12.412 -16.603  1.00  0.00     0.032 C 
HETATM   19  C7  UNL     1       9.725 -13.989 -16.294  1.00  0.00     0.078 C 
ENDBRANCH   9  11
ENDBRANCH   1   9
BRANCH   6  20
HETATM   20  C13 UNL     1      15.787 -13.920 -18.226  1.00  0.00     0.026 A 
HETATM   21  C14 UNL     1      17.063 -13.613 -17.885  1.00  0.00     0.122 A 
HETATM   22  N4  UNL     1      17.442 -12.598 -18.671  1.00  0.00    -0.309 N 
HETATM   23  N5  UNL     1      16.434 -12.268 -19.491  1.00  0.00    -0.298 N 
ATOM     24  H4  UNL     1      18.356 -12.147 -18.650  1.00  0.00     0.186 HD
HETATM   25  C20 UNL     1      15.375 -13.088 -19.230  1.00  0.00     0.125 A 
BRANCH  23  26
HETATM   26  C15 UNL     1      16.537 -11.207 -20.458  1.00  0.00     0.107 C 
HETATM   27  C16 UNL     1      16.037  -9.907 -19.844  1.00  0.00     0.027 C 
HETATM   28  C17 UNL     1      15.573  -9.127 -21.040  1.00  0.00     0.002 C 
HETATM   29  C18 UNL     1      14.890 -10.157 -21.885  1.00  0.00     0.002 C 
HETATM   30  C19 UNL     1      15.647 -11.436 -21.645  1.00  0.00     0.027 C 
ENDBRANCH  23  26
ENDBRANCH   6  20
TORSDOF 4
ENDMDL
MODEL 2
REMARK VINA RESULT: -7.618945286      1.645      6.958
REMARK  4 active torsions:
REMARK  status: ('A' for Active; 'I' for Inactive)
REMARK    1  A    between atoms: C8_9  and  N2_10 
REMARK    2  A    between atoms: N2_10  and  C9_12 
REMARK    3  A    between atoms: C12_17  and  C13_18 
REMARK    4  A    between atoms: N5_22  and  C15_23 
ROOT
HETATM    1  C9  UNL     1      14.381 -14.050 -18.264  1.00  0.00     0.121 A 
HETATM    2  C10 UNL     1      14.535 -15.382 -18.093  1.00  0.00     0.136 A 
HETATM    3  N3  UNL     1      13.528 -16.117 -17.538  1.00  0.00    -0.370 N 
ATOM      4  H3  UNL     1      13.664 -17.121 -17.416  1.00  0.00     0.164 HD
HETATM    5  C11 UNL     1      12.373 -15.573 -17.147  1.00  0.00     0.118 A 
HETATM    6  C12 UNL     1      12.195 -14.222 -17.313  1.00  0.00     0.062 A 
HETATM    7  N6  UNL     1      13.192 -13.519 -17.858  1.00  0.00    -0.340 N 
ATOM      8  H6  UNL     1      13.054 -12.516 -17.979  1.00  0.00     0.167 HD
ENDROOT
BRANCH   1   9
HETATM    9  N2  UNL     1      15.351 -13.215 -18.794  1.00  0.00    -0.348 N 
ATOM     10  H2  UNL     1      16.298 -13.531 -18.583  1.00  0.00     0.167 HD
BRANCH   9  11
HETATM   11  C8  UNL     1      15.335 -12.033 -19.554  1.00  0.00    -0.001 C 
HETATM   12  C2  UNL     1      16.488 -11.104 -19.493  1.00  0.00     0.065 C 
HETATM   13  C1  UNL     1      17.647 -11.320 -20.375  1.00  0.00     0.022 C 
HETATM   14  C3  UNL     1      15.932  -9.718 -19.817  1.00  0.00     0.068 C 
HETATM   15  N1  UNL     1      14.720  -9.744 -20.527  1.00  0.00    -0.392 N 
HETATM   16  C4  UNL     1      13.632  -9.015 -19.987  1.00  0.00     0.149 C 
HETATM   17  C5  UNL     1      14.431 -10.774 -21.429  1.00  0.00     0.084 C 
HETATM   18  C6  UNL     1      15.040 -10.450 -22.789  1.00  0.00     0.032 C 
HETATM   19  C7  UNL     1      14.857 -12.169 -20.997  1.00  0.00     0.078 C 
ENDBRANCH   9  11
ENDBRANCH   1   9
BRANCH   6  20
HETATM   20  C13 UNL     1      10.936 -13.578 -16.897  1.00  0.00     0.026 A 
HETATM   21  C14 UNL     1      10.327 -13.742 -15.697  1.00  0.00     0.122 A 
HETATM   22  N4  UNL     1       9.219 -12.991 -15.716  1.00  0.00    -0.309 N 
HETATM   23  N5  UNL     1       9.126 -12.365 -16.898  1.00  0.00    -0.298 N 
ATOM     24  H4  UNL     1       8.550 -12.908 -14.951  1.00  0.00     0.186 HD
HETATM   25  C20 UNL     1      10.198 -12.718 -17.663  1.00  0.00     0.125 A 
BRANCH  23  26
HETATM   26  C15 UNL     1       8.037 -11.481 -17.223  1.00  0.00     0.107 C 
HETATM   27  C16 UNL     1       8.422 -10.050 -16.876  1.00  0.00     0.027 C 
HETATM   28  C17 UNL     1       7.095  -9.398 -16.615  1.00  0.00     0.002 C 
HETATM   29  C18 UNL     1       6.339 -10.440 -15.851  1.00  0.00     0.002 C 
HETATM   30  C19 UNL     1       6.817 -11.760 -16.395  1.00  0.00     0.027 C 
ENDBRANCH  23  26
ENDBRANCH   6  20
TORSDOF 4
ENDMDL
MODEL 3
REMARK VINA RESULT: -7.616176142      1.473      2.424
REMARK  4 active torsions:
REMARK  status: ('A' for Active; 'I' for Inactive)
REMARK    1  A    between atoms: C8_9  and  N2_10 
REMARK    2  A    between atoms: N2_10  and  C9_12 
REMARK    3  A    between atoms: C12_17  and  C13_18 
REMARK    4  A    between atoms: N5_22  and  C15_23 
ROOT
HETATM    1  C9  UNL     1      13.246 -15.749 -17.194  1.00  0.00     0.121 A 
HETATM    2  C10 UNL     1      14.265 -16.560 -16.832  1.00  0.00     0.136 A 
HETATM    3  N3  UNL     1      15.542 -16.259 -17.208  1.00  0.00    -0.370 N 
ATOM      4  H3  UNL     1      16.296 -16.884 -16.926  1.00  0.00     0.164 HD
HETATM    5  C11 UNL     1      15.840 -15.177 -17.933  1.00  0.00     0.118 A 
HETATM    6  C12 UNL     1      14.821 -14.340 -18.312  1.00  0.00     0.062 A 
HETATM    7  N6  UNL     1      13.578 -14.651 -17.934  1.00  0.00    -0.340 N 
ATOM      8  H6  UNL     1      12.825 -14.025 -18.217  1.00  0.00     0.167 HD
ENDROOT
BRANCH   1   9
HETATM    9  N2  UNL     1      11.916 -15.981 -16.883  1.00  0.00    -0.348 N 
ATOM     10  H2  UNL     1      11.749 -16.938 -16.570  1.00  0.00     0.167 HD
BRANCH   9  11
HETATM   11  C8  UNL     1      10.744 -15.206 -16.899  1.00  0.00    -0.001 C 
HETATM   12  C2  UNL     1      10.528 -14.179 -15.853  1.00  0.00     0.065 C 
HETATM   13  C1  UNL     1      11.086 -12.828 -16.030  1.00  0.00     0.022 C 
HETATM   14  C3  UNL     1       9.014 -14.024 -15.718  1.00  0.00     0.068 C 
HETATM   15  N1  UNL     1       8.297 -14.449 -16.849  1.00  0.00    -0.392 N 
HETATM   16  C4  UNL     1       7.266 -15.399 -16.649  1.00  0.00     0.149 C 
HETATM   17  C5  UNL     1       8.838 -14.334 -18.134  1.00  0.00     0.084 C 
HETATM   18  C6  UNL     1       8.570 -12.938 -18.682  1.00  0.00     0.032 C 
HETATM   19  C7  UNL     1      10.320 -14.656 -18.258  1.00  0.00     0.078 C 
ENDBRANCH   9  11
ENDBRANCH   1   9
BRANCH   6  20
HETATM   20  C13 UNL     1      15.103 -13.135 -19.113  1.00  0.00     0.026 A 
HETATM   21  C14 UNL     1      16.319 -12.775 -19.593  1.00  0.00     0.122 A 
HETATM   22  N4  UNL     1      16.149 -11.628 -20.262  1.00  0.00    -0.309 N 
HETATM   23  N5  UNL     1      14.859 -11.267 -20.210  1.00  0.00    -0.298 N 
ATOM     24  H4  UNL     1      16.887 -11.110 -20.738  1.00  0.00     0.186 HD
HETATM   25  C20 UNL     1      14.175 -12.202 -19.489  1.00  0.00     0.125 A 
BRANCH  23  26
HETATM   26  C15 UNL     1      14.362 -10.072 -20.839  1.00  0.00     0.107 C 
HETATM   27  C16 UNL     1      15.493  -9.063 -20.980  1.00  0.00     0.027 C 
HETATM   28  C17 UNL     1      14.771  -7.747 -20.987  1.00  0.00     0.002 C 
HETATM   29  C18 UNL     1      13.717  -7.922 -19.939  1.00  0.00     0.002 C 
HETATM   30  C19 UNL     1      13.332  -9.376 -19.997  1.00  0.00     0.027 C 
ENDBRANCH  23  26
ENDBRANCH   6  20
TORSDOF 4
ENDMDL
MODEL 4
REMARK VINA RESULT: -7.597103535      0.912      1.843
REMARK  4 active torsions:
REMARK  status: ('A' for Active; 'I' for Inactive)
REMARK    1  A    between atoms: C8_9  and  N2_10 
REMARK    2  A    between atoms: N2_10  and  C9_12 
REMARK    3  A    between atoms: C12_17  and  C13_18 
REMARK    4  A    between atoms: N5_22  and  C15_23 
ROOT
HETATM    1  C9  UNL     1      12.987 -16.317 -16.864  1.00  0.00     0.121 A 
HETATM    2  C10 UNL     1      13.673 -17.350 -16.329  1.00  0.00     0.136 A 
HETATM    3  N3  UNL     1      15.037 -17.359 -16.375  1.00  0.00    -0.370 N 
ATOM      4  H3  UNL     1      15.536 -18.149 -15.967  1.00  0.00     0.164 HD
HETATM    5  C11 UNL     1      15.743 -16.372 -16.935  1.00  0.00     0.118 A 
HETATM    6  C12 UNL     1      15.066 -15.312 -17.483  1.00  0.00     0.062 A 
HETATM    7  N6  UNL     1      13.731 -15.322 -17.429  1.00  0.00    -0.340 N 
ATOM      8  H6  UNL     1      13.233 -14.531 -17.838  1.00  0.00     0.167 HD
ENDROOT
BRANCH   1   9
HETATM    9  N2  UNL     1      11.605 -16.228 -16.890  1.00  0.00    -0.348 N 
ATOM     10  H2  UNL     1      11.153 -17.139 -16.812  1.00  0.00     0.167 HD
BRANCH   9  11
HETATM   11  C8  UNL     1      10.680 -15.175 -16.998  1.00  0.00    -0.001 C 
HETATM   12  C2  UNL     1      10.598 -14.156 -15.926  1.00  0.00     0.065 C 
HETATM   13  C1  UNL     1      11.498 -12.991 -15.955  1.00  0.00     0.022 C 
HETATM   14  C3  UNL     1       9.168 -13.617 -15.963  1.00  0.00     0.068 C 
HETATM   15  N1  UNL     1       8.520 -13.811 -17.194  1.00  0.00    -0.392 N 
HETATM   16  C4  UNL     1       7.265 -14.466 -17.175  1.00  0.00     0.149 C 
HETATM   17  C5  UNL     1       9.235 -13.806 -18.397  1.00  0.00     0.084 C 
HETATM   18  C6  UNL     1       9.403 -12.374 -18.889  1.00  0.00     0.032 C 
HETATM   19  C7  UNL     1      10.589 -14.498 -18.363  1.00  0.00     0.078 C 
ENDBRANCH   9  11
ENDBRANCH   1   9
BRANCH   6  20
HETATM   20  C13 UNL     1      15.802 -14.200 -18.112  1.00  0.00     0.026 A 
HETATM   21  C14 UNL     1      17.031 -13.761 -17.743  1.00  0.00     0.122 A 
HETATM   22  N4  UNL     1      17.342 -12.746 -18.557  1.00  0.00    -0.309 N 
HETATM   23  N5  UNL     1      16.337 -12.542 -19.422  1.00  0.00    -0.298 N 
ATOM     24  H4  UNL     1      18.209 -12.209 -18.525  1.00  0.00     0.186 HD
HETATM   25  C20 UNL     1      15.351 -13.448 -19.162  1.00  0.00     0.125 A 
BRANCH  23  26
HETATM   26  C15 UNL     1      16.376 -11.513 -20.427  1.00  0.00     0.107 C 
HETATM   27  C16 UNL     1      16.356 -10.146 -19.758  1.00  0.00     0.027 C 
HETATM   28  C17 UNL     1      15.740  -9.267 -20.808  1.00  0.00     0.002 C 
HETATM   29  C18 UNL     1      14.644 -10.115 -21.374  1.00  0.00     0.002 C 
HETATM   30  C19 UNL     1      15.155 -11.529 -21.299  1.00  0.00     0.027 C 
ENDBRANCH  23  26
ENDBRANCH   6  20
TORSDOF 4
ENDMDL
MODEL 5
REMARK VINA RESULT: -7.594372639      1.471      2.383
REMARK  4 active torsions:
REMARK  status: ('A' for Active; 'I' for Inactive)
REMARK    1  A    between atoms: C8_9  and  N2_10 
REMARK    2  A    between atoms: N2_10  and  C9_12 
REMARK    3  A    between atoms: C12_17  and  C13_18 
REMARK    4  A    between atoms: N5_22  and  C15_23 
ROOT
HETATM    1  C9  UNL     1      11.407 -15.114 -16.121  1.00  0.00     0.121 A 
HETATM    2  C10 UNL     1      11.345 -16.449 -15.918  1.00  0.00     0.136 A 
HETATM    3  N3  UNL     1      12.391 -17.243 -16.287  1.00  0.00    -0.370 N 
ATOM      4  H3  UNL     1      12.325 -18.248 -16.126  1.00  0.00     0.164 HD
HETATM    5  C11 UNL     1      13.499 -16.755 -16.851  1.00  0.00     0.118 A 
HETATM    6  C12 UNL     1      13.584 -15.402 -17.066  1.00  0.00     0.062 A 
HETATM    7  N6  UNL     1      12.549 -14.641 -16.698  1.00  0.00    -0.340 N 
ATOM      8  H6  UNL     1      12.618 -13.636 -16.860  1.00  0.00     0.167 HD
ENDROOT
BRANCH   1   9
HETATM    9  N2  UNL     1      10.389 -14.229 -15.805  1.00  0.00    -0.348 N 
ATOM     10  H2  UNL     1      10.202 -14.189 -14.803  1.00  0.00     0.167 HD
BRANCH   9  11
HETATM   11  C8  UNL     1       9.555 -13.373 -16.543  1.00  0.00    -0.001 C 
HETATM   12  C2  UNL     1      10.011 -12.001 -16.868  1.00  0.00     0.065 C 
HETATM   13  C1  UNL     1      10.833 -11.771 -18.068  1.00  0.00     0.022 C 
HETATM   14  C3  UNL     1       8.745 -11.160 -17.025  1.00  0.00     0.068 C 
HETATM   15  N1  UNL     1       7.595 -11.913 -17.314  1.00  0.00    -0.392 N 
HETATM   16  C4  UNL     1       6.471 -11.735 -16.471  1.00  0.00     0.149 C 
HETATM   17  C5  UNL     1       7.672 -13.095 -18.059  1.00  0.00     0.084 C 
HETATM   18  C6  UNL     1       7.640 -12.767 -19.547  1.00  0.00     0.032 C 
HETATM   19  C7  UNL     1       8.865 -13.989 -17.758  1.00  0.00     0.078 C 
ENDBRANCH   9  11
ENDBRANCH   1   9
BRANCH   6  20
HETATM   20  C13 UNL     1      14.787 -14.818 -17.686  1.00  0.00     0.026 A 
HETATM   21  C14 UNL     1      16.061 -15.235 -17.480  1.00  0.00     0.122 A 
HETATM   22  N4  UNL     1      16.852 -14.451 -18.221  1.00  0.00    -0.309 N 
HETATM   23  N5  UNL     1      16.102 -13.557 -18.882  1.00  0.00    -0.298 N 
ATOM     24  H4  UNL     1      17.868 -14.523 -18.276  1.00  0.00     0.186 HD
HETATM   25  C20 UNL     1      14.793 -13.767 -18.561  1.00  0.00     0.125 A 
BRANCH  23  26
HETATM   26  C15 UNL     1      16.669 -12.572 -19.766  1.00  0.00     0.107 C 
HETATM   27  C16 UNL     1      17.645 -11.696 -18.993  1.00  0.00     0.027 C 
HETATM   28  C17 UNL     1      17.621 -10.407 -19.762  1.00  0.00     0.002 C 
HETATM   29  C18 UNL     1      16.174 -10.229 -20.100  1.00  0.00     0.002 C 
HETATM   30  C19 UNL     1      15.633 -11.621 -20.289  1.00  0.00     0.027 C 
ENDBRANCH  23  26
ENDBRANCH   6  20
TORSDOF 4
ENDMDL
