MODEL 1
REMARK VINA RESULT: -6.580787866      0.000      0.000
REMARK  9 active torsions:
REMARK  status: ('A' for Active; 'I' for Inactive)
REMARK    1  A    between atoms: C3_5  and  N2_6 
REMARK    2  A    between atoms: N3_8  and  N4_10 
REMARK       I    between atoms: N4_10  and  C4_12 
REMARK       I    between atoms: C4_12  and  N5_14 
REMARK    3  A    between atoms: N5_14  and  N6_16 
REMARK       I    between atoms: N6_16  and  C5_18 
REMARK    4  A    between atoms: C5_18  and  C6_20 
REMARK    5  A    between atoms: C6_20  and  N7_21 
REMARK    6  A    between atoms: C6_20  and  N8_25 
REMARK    7  A    between atoms: C7_31  and  C8_32 
REMARK    8  A    between atoms: C8_32  and  N10_33 
REMARK    9  A    between atoms: C8_32  and  O3_37 
ROOT
HETATM    1  N2  UNL     1      68.702  66.769 277.878  1.00  0.00    -0.117 N 
ATOM      2  H2  UNL     1      67.821  66.485 277.448  1.00  0.00     0.207 HD
HETATM    3  N3  UNL     1      69.829  66.393 277.431  1.00  0.00    -0.224 N 
ATOM      4  H3  UNL     1      70.672  66.713 277.907  1.00  0.00     0.209 HD
ENDROOT
BRANCH   3   5
HETATM    5  N4  UNL     1      69.967  65.560 276.315  1.00  0.00    -0.235 N 
HETATM    6  C4  UNL     1      68.845  65.084 275.590  1.00  0.00     0.354 C 
HETATM    7  O1  UNL     1      67.684  65.405 275.938  1.00  0.00    -0.244 OA
HETATM    8  N5  UNL     1      69.034  64.244 274.468  1.00  0.00    -0.248 N 
ATOM      9  H5  UNL     1      69.980  63.986 274.187  1.00  0.00     0.192 HD
ATOM     10  H4  UNL     1      70.903  65.288 276.014  1.00  0.00     0.193 HD
BRANCH   8  11
HETATM   11  N6  UNL     1      67.948  63.764 273.739  1.00  0.00    -0.263 N 
HETATM   12  C5  UNL     1      67.790  64.106 272.374  1.00  0.00     0.294 C 
HETATM   13  O2  UNL     1      68.647  64.853 271.821  1.00  0.00    -0.267 OA
ATOM     14  H6  UNL     1      67.260  63.162 274.193  1.00  0.00     0.190 HD
BRANCH  12  15
HETATM   15  C6  UNL     1      66.631  63.603 271.569  1.00  0.00     0.469 C 
BRANCH  15  16
HETATM   16  N7  UNL     1      66.740  64.087 270.215  1.00  0.00    -0.041 N 
ATOM     17  H73 UNL     1      65.829  64.237 269.785  1.00  0.00     0.277 HD
ATOM     18  H72 UNL     1      67.081  65.047 270.175  1.00  0.00     0.277 HD
ATOM     19  H71 UNL     1      67.322  63.448 269.671  1.00  0.00     0.277 HD
ENDBRANCH  15  16
BRANCH  15  20
HETATM   20  N8  UNL     1      66.669  62.165 271.540  1.00  0.00    -0.041 N 
ATOM     21  H83 UNL     1      67.609  61.804 271.378  1.00  0.00     0.277 HD
ATOM     22  H82 UNL     1      66.515  61.754 272.461  1.00  0.00     0.277 HD
ATOM     23  H81 UNL     1      66.000  61.829 270.847  1.00  0.00     0.277 HD
ENDBRANCH  15  20
ENDBRANCH  12  15
ENDBRANCH   8  11
ENDBRANCH   3   5
BRANCH   1  24
HETATM   24  C3  UNL     1      68.753  67.627 279.036  1.00  0.00     0.700 A 
HETATM   25  N1  UNL     1      69.782  67.535 279.898  1.00  0.00    -0.179 N 
HETATM   26  C2  UNL     1      69.857  68.331 281.000  1.00  0.00     0.095 A 
ATOM     27  H1  UNL     1      70.521  66.854 279.723  1.00  0.00     0.185 HD
HETATM   28  C1  UNL     1      71.010  68.202 281.933  1.00  0.00     0.089 C 
HETATM   29  N11 UNL     1      68.861  69.214 281.191  1.00  0.00    -0.331 N 
HETATM   30  C7  UNL     1      67.813  69.343 280.357  1.00  0.00     0.155 A 
ATOM     31  H11 UNL     1      68.902  69.819 282.012  1.00  0.00     0.168 HD
HETATM   32  N9  UNL     1      67.791  68.529 279.284  1.00  0.00    -0.174 N 
ATOM     33  H9  UNL     1      67.010  68.602 278.632  1.00  0.00     0.185 HD
BRANCH  30  34
HETATM   34  C8  UNL     1      66.717  70.324 280.577  1.00  0.00     0.385 C 
BRANCH  34  35
HETATM   35  N10 UNL     1      67.045  71.597 279.984  1.00  0.00    -0.046 N 
ATOM     36 3H10 UNL     1      66.890  72.368 280.634  1.00  0.00     0.277 HD
ATOM     37 2H10 UNL     1      68.051  71.706 279.856  1.00  0.00     0.277 HD
ATOM     38 1H10 UNL     1      66.535  71.731 279.110  1.00  0.00     0.277 HD
ENDBRANCH  34  35
BRANCH  34  39
HETATM   39  O3  UNL     1      65.575  69.847 279.912  1.00  0.00    -0.364 OA
ATOM     40  H3  UNL     1      64.977  69.509 280.568  1.00  0.00     0.212 HD
ENDBRANCH  34  39
ENDBRANCH  30  34
ENDBRANCH   1  24
TORSDOF 9
ENDMDL
MODEL 2
REMARK VINA RESULT: -5.966245942      1.681      1.683
REMARK  9 active torsions:
REMARK  status: ('A' for Active; 'I' for Inactive)
REMARK    1  A    between atoms: C3_5  and  N2_6 
REMARK    2  A    between atoms: N3_8  and  N4_10 
REMARK       I    between atoms: N4_10  and  C4_12 
REMARK       I    between atoms: C4_12  and  N5_14 
REMARK    3  A    between atoms: N5_14  and  N6_16 
REMARK       I    between atoms: N6_16  and  C5_18 
REMARK    4  A    between atoms: C5_18  and  C6_20 
REMARK    5  A    between atoms: C6_20  and  N7_21 
REMARK    6  A    between atoms: C6_20  and  N8_25 
REMARK    7  A    between atoms: C7_31  and  C8_32 
REMARK    8  A    between atoms: C8_32  and  N10_33 
REMARK    9  A    between atoms: C8_32  and  O3_37 
ROOT
HETATM    1  N2  UNL     1      68.499  66.854 278.248  1.00  0.00    -0.117 N 
ATOM      2  H2  UNL     1      67.713  66.253 278.000  1.00  0.00     0.207 HD
HETATM    3  N3  UNL     1      69.629  66.765 277.676  1.00  0.00    -0.224 N 
ATOM      4  H3  UNL     1      70.374  67.397 277.971  1.00  0.00     0.209 HD
ENDROOT
BRANCH   3   5
HETATM    5  N4  UNL     1      69.899  65.842 276.660  1.00  0.00    -0.235 N 
HETATM    6  C4  UNL     1      68.863  65.217 275.919  1.00  0.00     0.354 C 
HETATM    7  O1  UNL     1      67.662  65.483 276.162  1.00  0.00    -0.244 OA
HETATM    8  N5  UNL     1      69.184  64.290 274.900  1.00  0.00    -0.248 N 
ATOM      9  H5  UNL     1      70.162  64.077 274.705  1.00  0.00     0.192 HD
ATOM     10  H4  UNL     1      70.869  65.612 276.446  1.00  0.00     0.193 HD
BRANCH   8  11
HETATM   11  N6  UNL     1      68.185  63.664 274.159  1.00  0.00    -0.263 N 
HETATM   12  C5  UNL     1      68.179  62.256 274.006  1.00  0.00     0.294 C 
HETATM   13  O2  UNL     1      69.091  61.571 274.550  1.00  0.00    -0.267 OA
ATOM     14  H6  UNL     1      67.452  64.224 273.723  1.00  0.00     0.190 HD
BRANCH  12  15
HETATM   15  C6  UNL     1      67.116  61.558 273.214  1.00  0.00     0.469 C 
BRANCH  15  16
HETATM   16  N7  UNL     1      66.066  62.492 272.889  1.00  0.00    -0.041 N 
ATOM     17  H73 UNL     1      65.424  62.636 273.667  1.00  0.00     0.277 HD
ATOM     18  H72 UNL     1      66.413  63.448 272.809  1.00  0.00     0.277 HD
ATOM     19  H71 UNL     1      65.585  62.184 272.044  1.00  0.00     0.277 HD
ENDBRANCH  15  16
BRANCH  15  20
HETATM   20  N8  UNL     1      67.688  61.075 271.985  1.00  0.00    -0.041 N 
ATOM     21  H83 UNL     1      67.331  61.572 271.169  1.00  0.00     0.277 HD
ATOM     22  H82 UNL     1      68.671  61.329 271.888  1.00  0.00     0.277 HD
ATOM     23  H81 UNL     1      67.538  60.068 271.922  1.00  0.00     0.277 HD
ENDBRANCH  15  20
ENDBRANCH  12  15
ENDBRANCH   8  11
ENDBRANCH   3   5
BRANCH   1  24
HETATM   24  C3  UNL     1      68.405  67.865 279.273  1.00  0.00     0.700 A 
HETATM   25  N1  UNL     1      69.301  67.893 280.277  1.00  0.00    -0.179 N 
HETATM   26  C2  UNL     1      69.237  68.834 281.258  1.00  0.00     0.095 A 
ATOM     27  H1  UNL     1      70.043  67.194 280.303  1.00  0.00     0.185 HD
HETATM   28  C1  UNL     1      70.245  68.835 282.353  1.00  0.00     0.089 C 
HETATM   29  N11 UNL     1      68.242  69.736 281.183  1.00  0.00    -0.331 N 
HETATM   30  C7  UNL     1      67.324  69.748 280.200  1.00  0.00     0.155 A 
ATOM     31  H11 UNL     1      68.179  70.448 281.911  1.00  0.00     0.168 HD
HETATM   32  N9  UNL     1      67.436  68.793 279.256  1.00  0.00    -0.174 N 
ATOM     33  H9  UNL     1      66.755  68.775 278.497  1.00  0.00     0.185 HD
BRANCH  30  34
HETATM   34  C8  UNL     1      66.227  70.750 280.125  1.00  0.00     0.385 C 
BRANCH  34  35
HETATM   35  N10 UNL     1      65.242  70.504 281.149  1.00  0.00    -0.046 N 
ATOM     36 3H10 UNL     1      65.517  69.737 281.761  1.00  0.00     0.277 HD
ATOM     37 2H10 UNL     1      65.221  71.253 281.842  1.00  0.00     0.277 HD
ATOM     38 1H10 UNL     1      64.323  70.347 280.735  1.00  0.00     0.277 HD
ENDBRANCH  34  35
BRANCH  34  39
HETATM   39  O3  UNL     1      66.781  72.013 280.388  1.00  0.00    -0.364 OA
ATOM     40  H3  UNL     1      67.452  72.178 279.735  1.00  0.00     0.212 HD
ENDBRANCH  34  39
ENDBRANCH  30  34
ENDBRANCH   1  24
TORSDOF 9
ENDMDL
MODEL 3
REMARK VINA RESULT: -5.932287547      1.351      1.636
REMARK  9 active torsions:
REMARK  status: ('A' for Active; 'I' for Inactive)
REMARK    1  A    between atoms: C3_5  and  N2_6 
REMARK    2  A    between atoms: N3_8  and  N4_10 
REMARK       I    between atoms: N4_10  and  C4_12 
REMARK       I    between atoms: C4_12  and  N5_14 
REMARK    3  A    between atoms: N5_14  and  N6_16 
REMARK       I    between atoms: N6_16  and  C5_18 
REMARK    4  A    between atoms: C5_18  and  C6_20 
REMARK    5  A    between atoms: C6_20  and  N7_21 
REMARK    6  A    between atoms: C6_20  and  N8_25 
REMARK    7  A    between atoms: C7_31  and  C8_32 
REMARK    8  A    between atoms: C8_32  and  N10_33 
REMARK    9  A    between atoms: C8_32  and  O3_37 
ROOT
HETATM    1  N2  UNL     1      68.503  67.133 278.786  1.00  0.00    -0.117 N 
ATOM      2  H2  UNL     1      68.036  66.236 278.916  1.00  0.00     0.207 HD
HETATM    3  N3  UNL     1      69.396  67.312 277.902  1.00  0.00    -0.224 N 
ATOM      4  H3  UNL     1      69.825  68.234 277.823  1.00  0.00     0.209 HD
ENDROOT
BRANCH   3   5
HETATM    5  N4  UNL     1      69.818  66.303 277.030  1.00  0.00    -0.235 N 
HETATM    6  C4  UNL     1      68.898  65.477 276.335  1.00  0.00     0.354 C 
HETATM    7  O1  UNL     1      67.664  65.636 276.488  1.00  0.00    -0.244 OA
HETATM    8  N5  UNL     1      69.372  64.469 275.463  1.00  0.00    -0.248 N 
ATOM      9  H5  UNL     1      70.376  64.343 275.340  1.00  0.00     0.192 HD
ATOM     10  H4  UNL     1      70.818  66.157 276.889  1.00  0.00     0.193 HD
BRANCH   8  11
HETATM   11  N6  UNL     1      68.488  63.646 274.770  1.00  0.00    -0.263 N 
HETATM   12  C5  UNL     1      68.186  63.900 273.409  1.00  0.00     0.294 C 
HETATM   13  O2  UNL     1      68.728  64.883 272.828  1.00  0.00    -0.267 OA
ATOM     14  H6  UNL     1      68.054  62.854 275.245  1.00  0.00     0.190 HD
BRANCH  12  15
HETATM   15  C6  UNL     1      67.239  63.030 272.641  1.00  0.00     0.469 C 
BRANCH  15  16
HETATM   16  N7  UNL     1      66.714  62.005 273.509  1.00  0.00    -0.041 N 
ATOM     17  H73 UNL     1      67.453  61.467 273.961  1.00  0.00     0.277 HD
ATOM     18  H72 UNL     1      66.284  62.394 274.349  1.00  0.00     0.277 HD
ATOM     19  H71 UNL     1      66.071  61.411 272.986  1.00  0.00     0.277 HD
ENDBRANCH  15  16
BRANCH  15  20
HETATM   20  N8  UNL     1      66.139  63.833 272.174  1.00  0.00    -0.041 N 
ATOM     21  H83 UNL     1      66.325  64.832 272.256  1.00  0.00     0.277 HD
ATOM     22  H82 UNL     1      66.031  63.790 271.160  1.00  0.00     0.277 HD
ATOM     23  H81 UNL     1      65.291  63.554 272.667  1.00  0.00     0.277 HD
ENDBRANCH  15  20
ENDBRANCH  12  15
ENDBRANCH   8  11
ENDBRANCH   3   5
BRANCH   1  24
HETATM   24  C3  UNL     1      68.195  68.288 279.594  1.00  0.00     0.700 A 
HETATM   25  N1  UNL     1      68.813  68.468 280.775  1.00  0.00    -0.179 N 
HETATM   26  C2  UNL     1      68.543  69.548 281.559  1.00  0.00     0.095 A 
ATOM     27  H1  UNL     1      69.498  67.781 281.090  1.00  0.00     0.185 HD
HETATM   28  C1  UNL     1      69.246  69.715 282.861  1.00  0.00     0.089 C 
HETATM   29  N11 UNL     1      67.634  70.428 281.104  1.00  0.00    -0.331 N 
HETATM   30  C7  UNL     1      66.992  70.291 279.930  1.00  0.00     0.155 A 
ATOM     31  H11 UNL     1      67.420  71.243 281.680  1.00  0.00     0.168 HD
HETATM   32  N9  UNL     1      67.298  69.203 279.197  1.00  0.00    -0.174 N 
ATOM     33  H9  UNL     1      66.828  69.070 278.301  1.00  0.00     0.185 HD
BRANCH  30  34
HETATM   34  C8  UNL     1      65.988  71.271 279.435  1.00  0.00     0.385 C 
BRANCH  34  35
HETATM   35  N10 UNL     1      65.807  71.139 278.011  1.00  0.00    -0.046 N 
ATOM     36 3H10 UNL     1      64.848  70.882 277.774  1.00  0.00     0.277 HD
ATOM     37 2H10 UNL     1      65.844  72.043 277.539  1.00  0.00     0.277 HD
ATOM     38 1H10 UNL     1      66.482  70.480 277.620  1.00  0.00     0.277 HD
ENDBRANCH  34  35
BRANCH  34  39
HETATM   39  O3  UNL     1      64.755  70.961 280.033  1.00  0.00    -0.364 OA
ATOM     40  H3  UNL     1      64.101  71.548 279.671  1.00  0.00     0.212 HD
ENDBRANCH  34  39
ENDBRANCH  30  34
ENDBRANCH   1  24
TORSDOF 9
ENDMDL
MODEL 4
REMARK VINA RESULT: -5.899037039      1.100      1.100
REMARK  9 active torsions:
REMARK  status: ('A' for Active; 'I' for Inactive)
REMARK    1  A    between atoms: C3_5  and  N2_6 
REMARK    2  A    between atoms: N3_8  and  N4_10 
REMARK       I    between atoms: N4_10  and  C4_12 
REMARK       I    between atoms: C4_12  and  N5_14 
REMARK    3  A    between atoms: N5_14  and  N6_16 
REMARK       I    between atoms: N6_16  and  C5_18 
REMARK    4  A    between atoms: C5_18  and  C6_20 
REMARK    5  A    between atoms: C6_20  and  N7_21 
REMARK    6  A    between atoms: C6_20  and  N8_25 
REMARK    7  A    between atoms: C7_31  and  C8_32 
REMARK    8  A    between atoms: C8_32  and  N10_33 
REMARK    9  A    between atoms: C8_32  and  O3_37 
ROOT
HETATM    1  N2  UNL     1      68.684  66.699 277.839  1.00  0.00    -0.117 N 
ATOM      2  H2  UNL     1      67.792  66.395 277.447  1.00  0.00     0.207 HD
HETATM    3  N3  UNL     1      69.798  66.346 277.346  1.00  0.00    -0.224 N 
ATOM      4  H3  UNL     1      70.654  66.685 277.786  1.00  0.00     0.209 HD
ENDROOT
BRANCH   3   5
HETATM    5  N4  UNL     1      69.908  65.513 276.227  1.00  0.00    -0.235 N 
HETATM    6  C4  UNL     1      68.774  65.115 275.474  1.00  0.00     0.354 C 
HETATM    7  O1  UNL     1      67.628  65.507 275.800  1.00  0.00    -0.244 OA
HETATM    8  N5  UNL     1      68.933  64.272 274.349  1.00  0.00    -0.248 N 
ATOM      9  H5  UNL     1      69.866  63.956 274.087  1.00  0.00     0.192 HD
ATOM     10  H4  UNL     1      70.831  65.183 275.944  1.00  0.00     0.193 HD
BRANCH   8  11
HETATM   11  N6  UNL     1      67.834  63.868 273.594  1.00  0.00    -0.263 N 
HETATM   12  C5  UNL     1      67.619  62.496 273.316  1.00  0.00     0.294 C 
HETATM   13  O2  UNL     1      68.435  61.639 273.760  1.00  0.00    -0.267 OA
ATOM     14  H6  UNL     1      67.179  64.565 273.239  1.00  0.00     0.190 HD
BRANCH  12  15
HETATM   15  C6  UNL     1      66.446  62.035 272.507  1.00  0.00     0.469 C 
BRANCH  15  16
HETATM   16  N7  UNL     1      65.874  63.157 271.806  1.00  0.00    -0.041 N 
ATOM     17  H73 UNL     1      65.841  63.997 272.383  1.00  0.00     0.277 HD
ATOM     18  H72 UNL     1      66.490  63.509 271.073  1.00  0.00     0.277 HD
ATOM     19  H71 UNL     1      64.954  62.902 271.446  1.00  0.00     0.277 HD
ENDBRANCH  15  16
BRANCH  15  20
HETATM   20  N8  UNL     1      66.896  61.075 271.533  1.00  0.00    -0.041 N 
ATOM     21  H83 UNL     1      67.823  61.297 271.169  1.00  0.00     0.277 HD
ATOM     22  H82 UNL     1      67.119  60.172 271.952  1.00  0.00     0.277 HD
ATOM     23  H81 UNL     1      66.197  60.999 270.793  1.00  0.00     0.277 HD
ENDBRANCH  15  20
ENDBRANCH  12  15
ENDBRANCH   8  11
ENDBRANCH   3   5
BRANCH   1  24
HETATM   24  C3  UNL     1      68.765  67.560 278.993  1.00  0.00     0.700 A 
HETATM   25  N1  UNL     1      69.810  67.462 279.836  1.00  0.00    -0.179 N 
HETATM   26  C2  UNL     1      69.914  68.261 280.933  1.00  0.00     0.095 A 
ATOM     27  H1  UNL     1      70.539  66.774 279.648  1.00  0.00     0.185 HD
HETATM   28  C1  UNL     1      71.084  68.125 281.843  1.00  0.00     0.089 C 
HETATM   29  N11 UNL     1      68.930  69.154 281.141  1.00  0.00    -0.331 N 
HETATM   30  C7  UNL     1      67.867  69.289 280.327  1.00  0.00     0.155 A 
ATOM     31  H11 UNL     1      68.992  69.760 281.959  1.00  0.00     0.168 HD
HETATM   32  N9  UNL     1      67.816  68.471 279.257  1.00  0.00    -0.174 N 
ATOM     33  H9  UNL     1      67.023  68.549 278.621  1.00  0.00     0.185 HD
BRANCH  30  34
HETATM   34  C8  UNL     1      66.783  70.280 280.565  1.00  0.00     0.385 C 
BRANCH  34  35
HETATM   35  N10 UNL     1      67.104  71.544 279.949  1.00  0.00    -0.046 N 
ATOM     36 3H10 UNL     1      67.046  71.494 278.932  1.00  0.00     0.277 HD
ATOM     37 2H10 UNL     1      66.375  72.239 280.110  1.00  0.00     0.277 HD
ATOM     38 1H10 UNL     1      68.018  71.875 280.260  1.00  0.00     0.277 HD
ENDBRANCH  34  35
BRANCH  34  39
HETATM   39  O3  UNL     1      65.621  69.804 279.936  1.00  0.00    -0.364 OA
ATOM     40  H3  UNL     1      64.911  70.396 280.152  1.00  0.00     0.212 HD
ENDBRANCH  34  39
ENDBRANCH  30  34
ENDBRANCH   1  24
TORSDOF 9
ENDMDL
MODEL 5
REMARK VINA RESULT: -5.597158383      1.908      8.413
REMARK  9 active torsions:
REMARK  status: ('A' for Active; 'I' for Inactive)
REMARK    1  A    between atoms: C3_5  and  N2_6 
REMARK    2  A    between atoms: N3_8  and  N4_10 
REMARK       I    between atoms: N4_10  and  C4_12 
REMARK       I    between atoms: C4_12  and  N5_14 
REMARK    3  A    between atoms: N5_14  and  N6_16 
REMARK       I    between atoms: N6_16  and  C5_18 
REMARK    4  A    between atoms: C5_18  and  C6_20 
REMARK    5  A    between atoms: C6_20  and  N7_21 
REMARK    6  A    between atoms: C6_20  and  N8_25 
REMARK    7  A    between atoms: C7_31  and  C8_32 
REMARK    8  A    between atoms: C8_32  and  N10_33 
REMARK    9  A    between atoms: C8_32  and  O3_37 
ROOT
HETATM    1  N2  UNL     1      69.019  65.656 276.193  1.00  0.00    -0.117 N 
ATOM      2  H2  UNL     1      68.378  66.431 276.022  1.00  0.00     0.207 HD
HETATM    3  N3  UNL     1      69.952  65.722 277.051  1.00  0.00    -0.224 N 
ATOM      4  H3  UNL     1      70.558  64.911 277.174  1.00  0.00     0.209 HD
ENDROOT
BRANCH   3   5
HETATM    5  N4  UNL     1      70.187  66.856 277.836  1.00  0.00    -0.235 N 
HETATM    6  C4  UNL     1      69.211  67.365 278.731  1.00  0.00     0.354 C 
HETATM    7  O1  UNL     1      68.097  66.800 278.842  1.00  0.00    -0.244 OA
HETATM    8  N5  UNL     1      69.494  68.515 279.505  1.00  0.00    -0.248 N 
ATOM      9  H5  UNL     1      70.401  68.971 279.413  1.00  0.00     0.192 HD
ATOM     10  H4  UNL     1      71.086  67.332 277.762  1.00  0.00     0.193 HD
BRANCH   8  11
HETATM   11  N6  UNL     1      68.552  69.033 280.391  1.00  0.00    -0.263 N 
HETATM   12  C5  UNL     1      67.493  69.847 279.921  1.00  0.00     0.294 C 
HETATM   13  O2  UNL     1      67.410  70.100 278.685  1.00  0.00    -0.267 OA
ATOM     14  H6  UNL     1      68.626  68.824 281.388  1.00  0.00     0.190 HD
BRANCH  12  15
HETATM   15  C6  UNL     1      66.468  70.416 280.852  1.00  0.00     0.469 C 
BRANCH  15  16
HETATM   16  N7  UNL     1      66.380  71.842 280.658  1.00  0.00    -0.041 N 
ATOM     17  H73 UNL     1      67.294  72.269 280.514  1.00  0.00     0.277 HD
ATOM     18  H72 UNL     1      65.964  72.083 279.758  1.00  0.00     0.277 HD
ATOM     19  H71 UNL     1      65.877  72.262 281.440  1.00  0.00     0.277 HD
ENDBRANCH  15  16
BRANCH  15  20
HETATM   20  N8  UNL     1      65.185  69.838 280.548  1.00  0.00    -0.041 N 
ATOM     21  H83 UNL     1      64.745  70.273 279.738  1.00  0.00     0.277 HD
ATOM     22  H82 UNL     1      65.265  68.891 280.176  1.00  0.00     0.277 HD
ATOM     23  H81 UNL     1      64.596  69.881 281.380  1.00  0.00     0.277 HD
ENDBRANCH  15  20
ENDBRANCH  12  15
ENDBRANCH   8  11
ENDBRANCH   3   5
BRANCH   1  24
HETATM   24  C3  UNL     1      68.927  64.407 275.478  1.00  0.00     0.700 A 
HETATM   25  N1  UNL     1      69.731  63.380 275.808  1.00  0.00    -0.179 N 
HETATM   26  C2  UNL     1      69.667  62.190 275.150  1.00  0.00     0.095 A 
ATOM     27  H1  UNL     1      70.403  63.496 276.567  1.00  0.00     0.185 HD
HETATM   28  C1  UNL     1      70.573  61.075 275.542  1.00  0.00     0.089 C 
HETATM   29  N11 UNL     1      68.768  62.082 274.157  1.00  0.00    -0.331 N 
HETATM   30  C7  UNL     1      67.943  63.079 273.791  1.00  0.00     0.155 A 
ATOM     31  H11 UNL     1      68.707  61.196 273.653  1.00  0.00     0.168 HD
HETATM   32  N9  UNL     1      68.050  64.234 274.477  1.00  0.00    -0.174 N 
ATOM     33  H9  UNL     1      67.438  65.011 274.224  1.00  0.00     0.185 HD
BRANCH  30  34
HETATM   34  C8  UNL     1      66.949  62.950 272.691  1.00  0.00     0.385 C 
BRANCH  34  35
HETATM   35  N10 UNL     1      66.202  61.724 272.821  1.00  0.00    -0.046 N 
ATOM     36 3H10 UNL     1      65.932  61.547 273.788  1.00  0.00     0.277 HD
ATOM     37 2H10 UNL     1      65.270  61.804 272.413  1.00  0.00     0.277 HD
ATOM     38 1H10 UNL     1      66.722  60.941 272.424  1.00  0.00     0.277 HD
ENDBRANCH  34  35
BRANCH  34  39
HETATM   39  O3  UNL     1      66.029  64.003 272.818  1.00  0.00    -0.364 OA
ATOM     40  H3  UNL     1      65.698  64.206 271.952  1.00  0.00     0.212 HD
ENDBRANCH  34  39
ENDBRANCH  30  34
ENDBRANCH   1  24
TORSDOF 9
ENDMDL
