MODEL 1
REMARK VINA RESULT: -5.278519798      0.000      0.000
REMARK  8 active torsions:
REMARK  status: ('A' for Active; 'I' for Inactive)
REMARK    1  A    between atoms: S1_2  and  C2_3 
REMARK    2  A    between atoms: N2_6  and  C3_7 
REMARK    3  A    between atoms: C3_7  and  N3_8 
REMARK    4  A    between atoms: C3_7  and  O1_12 
REMARK    5  A    between atoms: C4_14  and  N4_15 
REMARK    6  A    between atoms: C5_18  and  C6_19 
REMARK    7  A    between atoms: N5_20  and  N6_22 
REMARK    8  A    between atoms: N6_22  and  N7_24 
ROOT
HETATM    1  C2  UNL     1      69.174  67.095 278.514  1.00  0.00     0.100 A 
HETATM    2  N1  UNL     1      70.435  66.808 278.881  1.00  0.00    -0.286 N 
ATOM      3  H1  UNL     1      71.058  66.148 278.416  1.00  0.00     0.188 HD
HETATM    4  N2  UNL     1      70.727  67.527 279.950  1.00  0.00    -0.221 N 
HETATM    5  C4  UNL     1      69.681  68.289 280.298  1.00  0.00     0.135 A 
HETATM    6  C5  UNL     1      68.686  68.030 279.400  1.00  0.00     0.061 A 
ENDROOT
BRANCH   6   7
HETATM    7  C6  UNL     1      67.353  68.609 279.356  1.00  0.00     0.126 C 
HETATM    8  N5  UNL     1      67.135  69.696 279.975  1.00  0.00    -0.295 N 
ATOM      9  H5  UNL     1      67.912  70.120 280.481  1.00  0.00     0.187 HD
BRANCH   8  10
HETATM   10  N6  UNL     1      65.903  70.349 280.008  1.00  0.00    -0.217 N 
ATOM     11  H6  UNL     1      65.327  70.323 280.849  1.00  0.00     0.210 HD
BRANCH  10  12
HETATM   12  N7  UNL     1      65.471  71.039 278.875  1.00  0.00    -0.124 N 
HETATM   13  N8  UNL     1      66.097  71.265 277.741  1.00  0.00    -0.246 N 
HETATM   14  C7  UNL     1      65.333  71.975 276.890  1.00  0.00     0.212 A 
ATOM     15  H8  UNL     1      67.041  70.941 277.532  1.00  0.00     0.192 HD
HETATM   16  N9  UNL     1      65.689  72.401 275.570  1.00  0.00    -0.062 NA
HETATM   17  N10 UNL     1      64.178  72.188 277.554  1.00  0.00    -0.279 N 
HETATM   18  C8  UNL     1      64.247  71.620 278.772  1.00  0.00     0.364 A 
ATOM     19  H10 UNL     1      63.376  72.702 277.189  1.00  0.00     0.173 HD
HETATM   20  O2  UNL     1      63.357  71.618 279.662  1.00  0.00    -0.243 OA
ENDBRANCH  10  12
ENDBRANCH   8  10
ENDBRANCH   6   7
BRANCH   1  21
HETATM   21  S1  UNL     1      68.346  66.360 277.116  1.00  0.00    -0.114 SA
HETATM   22  C1  UNL     1      69.530  65.263 276.293  1.00  0.00     0.097 C 
ENDBRANCH   1  21
BRANCH   5  23
HETATM   23  N4  UNL     1      69.644  69.116 281.312  1.00  0.00    -0.383 N 
ATOM     24  H42 UNL     1      70.396  69.717 281.652  1.00  0.00     0.157 HD
ATOM     25  H41 UNL     1      68.838  69.281 281.916  1.00  0.00     0.157 HD
ENDBRANCH   5  23
BRANCH   4  26
HETATM   26  C3  UNL     1      72.008  67.499 280.653  1.00  0.00     0.447 C 
BRANCH  26  27
HETATM   27  N3  UNL     1      72.849  66.487 279.996  1.00  0.00    -0.033 N 
ATOM     28  H33 UNL     1      72.891  65.608 280.511  1.00  0.00     0.279 HD
ATOM     29  H32 UNL     1      72.433  66.119 279.140  1.00  0.00     0.279 HD
ATOM     30  H31 UNL     1      73.767  66.905 279.844  1.00  0.00     0.279 HD
ENDBRANCH  26  27
BRANCH  26  31
HETATM   31  O1  UNL     1      71.830  67.131 281.983  1.00  0.00    -0.353 OA
ATOM     32  H1  UNL     1      71.694  67.897 282.527  1.00  0.00     0.214 HD
ENDBRANCH  26  31
ENDBRANCH   4  26
TORSDOF 8
ENDMDL
MODEL 2
REMARK VINA RESULT: -4.992925500      1.853      2.206
REMARK  8 active torsions:
REMARK  status: ('A' for Active; 'I' for Inactive)
REMARK    1  A    between atoms: S1_2  and  C2_3 
REMARK    2  A    between atoms: N2_6  and  C3_7 
REMARK    3  A    between atoms: C3_7  and  N3_8 
REMARK    4  A    between atoms: C3_7  and  O1_12 
REMARK    5  A    between atoms: C4_14  and  N4_15 
REMARK    6  A    between atoms: C5_18  and  C6_19 
REMARK    7  A    between atoms: N5_20  and  N6_22 
REMARK    8  A    between atoms: N6_22  and  N7_24 
ROOT
HETATM    1  C2  UNL     1      68.701  67.636 279.001  1.00  0.00     0.100 A 
HETATM    2  N1  UNL     1      69.831  67.406 279.692  1.00  0.00    -0.286 N 
ATOM      3  H1  UNL     1      70.477  66.631 279.541  1.00  0.00     0.188 HD
HETATM    4  N2  UNL     1      69.959  68.357 280.599  1.00  0.00    -0.221 N 
HETATM    5  C4  UNL     1      68.934  69.216 280.522  1.00  0.00     0.135 A 
HETATM    6  C5  UNL     1      68.124  68.776 279.515  1.00  0.00     0.061 A 
ENDROOT
BRANCH   6   7
HETATM    7  C6  UNL     1      66.883  69.372 279.046  1.00  0.00     0.126 C 
HETATM    8  N5  UNL     1      66.869  70.603 278.740  1.00  0.00    -0.295 N 
ATOM      9  H5  UNL     1      67.739  71.128 278.837  1.00  0.00     0.187 HD
BRANCH   8  10
HETATM   10  N6  UNL     1      65.745  71.288 278.280  1.00  0.00    -0.217 N 
ATOM     11  H6  UNL     1      65.099  71.722 278.939  1.00  0.00     0.210 HD
BRANCH  10  12
HETATM   12  N7  UNL     1      65.517  71.371 276.906  1.00  0.00    -0.124 N 
HETATM   13  N8  UNL     1      64.485  70.961 276.201  1.00  0.00    -0.246 N 
HETATM   14  C7  UNL     1      64.646  71.228 274.892  1.00  0.00     0.212 A 
ATOM     15  H8  UNL     1      63.666  70.500 276.597  1.00  0.00     0.192 HD
HETATM   16  N9  UNL     1      63.728  70.925 273.835  1.00  0.00    -0.062 NA
HETATM   17  N10 UNL     1      65.848  71.836 274.806  1.00  0.00    -0.279 N 
HETATM   18  C8  UNL     1      66.394  71.931 276.033  1.00  0.00     0.364 A 
ATOM     19  H10 UNL     1      66.278  72.171 273.944  1.00  0.00     0.173 HD
HETATM   20  O2  UNL     1      67.506  72.438 276.334  1.00  0.00    -0.243 OA
ENDBRANCH  10  12
ENDBRANCH   8  10
ENDBRANCH   6   7
BRANCH   1  21
HETATM   21  S1  UNL     1      68.114  66.606 277.668  1.00  0.00    -0.114 SA
HETATM   22  C1  UNL     1      69.565  65.931 276.818  1.00  0.00     0.097 C 
ENDBRANCH   1  21
BRANCH   5  23
HETATM   23  N4  UNL     1      68.762  70.269 281.280  1.00  0.00    -0.383 N 
ATOM     24  H42 UNL     1      68.036  70.417 281.981  1.00  0.00     0.157 HD
ATOM     25  H41 UNL     1      69.346  71.106 281.277  1.00  0.00     0.157 HD
ENDBRANCH   5  23
BRANCH   4  26
HETATM   26  C3  UNL     1      71.064  68.460 281.552  1.00  0.00     0.447 C 
BRANCH  26  27
HETATM   27  N3  UNL     1      71.836  67.211 281.468  1.00  0.00    -0.033 N 
ATOM     28  H33 UNL     1      71.257  66.399 281.255  1.00  0.00     0.279 HD
ATOM     29  H32 UNL     1      72.433  67.167 280.642  1.00  0.00     0.279 HD
ATOM     30  H31 UNL     1      72.355  67.114 282.340  1.00  0.00     0.279 HD
ENDBRANCH  26  27
BRANCH  26  31
HETATM   31  O1  UNL     1      70.581  68.595 282.850  1.00  0.00    -0.353 OA
ATOM     32  H1  UNL     1      69.946  67.915 283.043  1.00  0.00     0.214 HD
ENDBRANCH  26  31
ENDBRANCH   4  26
TORSDOF 8
ENDMDL
MODEL 3
REMARK VINA RESULT: -4.885205362      1.850      2.763
REMARK  8 active torsions:
REMARK  status: ('A' for Active; 'I' for Inactive)
REMARK    1  A    between atoms: S1_2  and  C2_3 
REMARK    2  A    between atoms: N2_6  and  C3_7 
REMARK    3  A    between atoms: C3_7  and  N3_8 
REMARK    4  A    between atoms: C3_7  and  O1_12 
REMARK    5  A    between atoms: C4_14  and  N4_15 
REMARK    6  A    between atoms: C5_18  and  C6_19 
REMARK    7  A    between atoms: N5_20  and  N6_22 
REMARK    8  A    between atoms: N6_22  and  N7_24 
ROOT
HETATM    1  C2  UNL     1      69.188  68.823 280.633  1.00  0.00     0.100 A 
HETATM    2  N1  UNL     1      70.404  68.317 280.905  1.00  0.00    -0.286 N 
ATOM      3  H1  UNL     1      70.981  68.549 281.714  1.00  0.00     0.188 HD
HETATM    4  N2  UNL     1      70.722  67.470 279.943  1.00  0.00    -0.221 N 
HETATM    5  C4  UNL     1      69.737  67.403 279.037  1.00  0.00     0.135 A 
HETATM    6  C5  UNL     1      68.755  68.253 279.456  1.00  0.00     0.061 A 
ENDROOT
BRANCH   6   7
HETATM    7  C6  UNL     1      67.483  68.531 278.810  1.00  0.00     0.126 C 
HETATM    8  N5  UNL     1      66.628  69.247 279.417  1.00  0.00    -0.295 N 
ATOM      9  H5  UNL     1      66.874  69.600 280.342  1.00  0.00     0.187 HD
BRANCH   8  10
HETATM   10  N6  UNL     1      65.376  69.583 278.904  1.00  0.00    -0.217 N 
ATOM     11  H6  UNL     1      64.551  69.040 279.158  1.00  0.00     0.210 HD
BRANCH  10  12
HETATM   12  N7  UNL     1      65.267  70.672 278.039  1.00  0.00    -0.124 N 
HETATM   13  N8  UNL     1      65.902  70.916 276.914  1.00  0.00    -0.246 N 
HETATM   14  C7  UNL     1      65.512  72.084 276.372  1.00  0.00     0.212 A 
ATOM     15  H8  UNL     1      66.601  70.297 276.503  1.00  0.00     0.192 HD
HETATM   16  N9  UNL     1      65.989  72.666 275.153  1.00  0.00    -0.062 NA
HETATM   17  N10 UNL     1      64.586  72.572 277.224  1.00  0.00    -0.279 N 
HETATM   18  C8  UNL     1      64.425  71.717 278.251  1.00  0.00     0.364 A 
ATOM     19  H10 UNL     1      64.086  73.453 277.108  1.00  0.00     0.173 HD
HETATM   20  O2  UNL     1      63.647  71.845 279.232  1.00  0.00    -0.243 OA
ENDBRANCH  10  12
ENDBRANCH   8  10
ENDBRANCH   6   7
BRANCH   1  21
HETATM   21  S1  UNL     1      68.346  70.013 281.660  1.00  0.00    -0.114 SA
HETATM   22  C1  UNL     1      69.067  69.913 283.319  1.00  0.00     0.097 C 
ENDBRANCH   1  21
BRANCH   5  23
HETATM   23  N4  UNL     1      69.740  66.657 277.961  1.00  0.00    -0.383 N 
ATOM     24  H42 UNL     1      69.727  65.638 277.912  1.00  0.00     0.157 HD
ATOM     25  H41 UNL     1      69.753  67.000 277.000  1.00  0.00     0.157 HD
ENDBRANCH   5  23
BRANCH   4  26
HETATM   26  C3  UNL     1      71.970  66.711 279.875  1.00  0.00     0.447 C 
BRANCH  26  27
HETATM   27  N3  UNL     1      73.003  67.500 280.564  1.00  0.00    -0.033 N 
ATOM     28  H33 UNL     1      72.775  67.688 281.540  1.00  0.00     0.279 HD
ATOM     29  H32 UNL     1      73.863  66.976 280.726  1.00  0.00     0.279 HD
ATOM     30  H31 UNL     1      73.151  68.350 280.019  1.00  0.00     0.279 HD
ENDBRANCH  26  27
BRANCH  26  31
HETATM   31  O1  UNL     1      72.362  66.528 278.553  1.00  0.00    -0.353 OA
ATOM     32  H1  UNL     1      72.731  65.662 278.430  1.00  0.00     0.214 HD
ENDBRANCH  26  31
ENDBRANCH   4  26
TORSDOF 8
ENDMDL
MODEL 4
REMARK VINA RESULT: -4.822409781      1.654      2.483
REMARK  8 active torsions:
REMARK  status: ('A' for Active; 'I' for Inactive)
REMARK    1  A    between atoms: S1_2  and  C2_3 
REMARK    2  A    between atoms: N2_6  and  C3_7 
REMARK    3  A    between atoms: C3_7  and  N3_8 
REMARK    4  A    between atoms: C3_7  and  O1_12 
REMARK    5  A    between atoms: C4_14  and  N4_15 
REMARK    6  A    between atoms: C5_18  and  C6_19 
REMARK    7  A    between atoms: N5_20  and  N6_22 
REMARK    8  A    between atoms: N6_22  and  N7_24 
ROOT
HETATM    1  C2  UNL     1      70.036  67.180 278.579  1.00  0.00     0.100 A 
HETATM    2  N1  UNL     1      71.113  67.133 279.383  1.00  0.00    -0.286 N 
ATOM      3  H1  UNL     1      72.011  66.707 279.156  1.00  0.00     0.188 HD
HETATM    4  N2  UNL     1      70.806  67.735 280.518  1.00  0.00    -0.221 N 
HETATM    5  C4  UNL     1      69.543  68.182 280.481  1.00  0.00     0.135 A 
HETATM    6  C5  UNL     1      69.038  67.840 279.260  1.00  0.00     0.061 A 
ENDROOT
BRANCH   6   7
HETATM    7  C6  UNL     1      67.705  68.105 278.743  1.00  0.00     0.126 C 
HETATM    8  N5  UNL     1      67.236  69.282 278.825  1.00  0.00    -0.295 N 
ATOM      9  H5  UNL     1      67.821  69.999 279.254  1.00  0.00     0.187 HD
BRANCH   8  10
HETATM   10  N6  UNL     1      65.975  69.661 278.366  1.00  0.00    -0.217 N 
ATOM     11  H6  UNL     1      65.765  69.658 277.368  1.00  0.00     0.210 HD
BRANCH  10  12
HETATM   12  N7  UNL     1      65.004  70.043 279.292  1.00  0.00    -0.124 N 
HETATM   13  N8  UNL     1      64.681  69.494 280.443  1.00  0.00    -0.246 N 
HETATM   14  C7  UNL     1      63.683  70.167 281.046  1.00  0.00     0.212 A 
ATOM     15  H8  UNL     1      65.130  68.664 280.830  1.00  0.00     0.192 HD
HETATM   16  N9  UNL     1      63.079  69.857 282.307  1.00  0.00    -0.062 NA
HETATM   17  N10 UNL     1      63.390  71.182 280.206  1.00  0.00    -0.279 N 
HETATM   18  C8  UNL     1      64.192  71.119 279.127  1.00  0.00     0.364 A 
ATOM     19  H10 UNL     1      62.671  71.887 280.364  1.00  0.00     0.173 HD
HETATM   20  O2  UNL     1      64.201  71.900 278.140  1.00  0.00    -0.243 OA
ENDBRANCH  10  12
ENDBRANCH   8  10
ENDBRANCH   6   7
BRANCH   1  21
HETATM   21  S1  UNL     1      69.983  66.491 276.935  1.00  0.00    -0.114 SA
HETATM   22  C1  UNL     1      68.409  65.613 276.760  1.00  0.00     0.097 C 
ENDBRANCH   1  21
BRANCH   5  23
HETATM   23  N4  UNL     1      68.932  68.821 281.446  1.00  0.00    -0.383 N 
ATOM     24  H42 UNL     1      67.930  68.847 281.636  1.00  0.00     0.157 HD
ATOM     25  H41 UNL     1      69.384  69.394 282.160  1.00  0.00     0.157 HD
ENDBRANCH   5  23
BRANCH   4  26
HETATM   26  C3  UNL     1      71.713  67.893 281.654  1.00  0.00     0.447 C 
BRANCH  26  27
HETATM   27  N3  UNL     1      72.147  66.547 282.060  1.00  0.00    -0.033 N 
ATOM     28  H33 UNL     1      73.149  66.399 281.942  1.00  0.00     0.279 HD
ATOM     29  H32 UNL     1      72.110  66.405 283.070  1.00  0.00     0.279 HD
ATOM     30  H31 UNL     1      71.581  65.875 281.542  1.00  0.00     0.279 HD
ENDBRANCH  26  27
BRANCH  26  31
HETATM   31  O1  UNL     1      71.058  68.489 282.726  1.00  0.00    -0.353 OA
ATOM     32  H1  UNL     1      70.755  69.358 282.492  1.00  0.00     0.214 HD
ENDBRANCH  26  31
ENDBRANCH   4  26
TORSDOF 8
ENDMDL
MODEL 5
REMARK VINA RESULT: -4.790704516      2.488      3.360
REMARK  8 active torsions:
REMARK  status: ('A' for Active; 'I' for Inactive)
REMARK    1  A    between atoms: S1_2  and  C2_3 
REMARK    2  A    between atoms: N2_6  and  C3_7 
REMARK    3  A    between atoms: C3_7  and  N3_8 
REMARK    4  A    between atoms: C3_7  and  O1_12 
REMARK    5  A    between atoms: C4_14  and  N4_15 
REMARK    6  A    between atoms: C5_18  and  C6_19 
REMARK    7  A    between atoms: N5_20  and  N6_22 
REMARK    8  A    between atoms: N6_22  and  N7_24 
ROOT
HETATM    1  C2  UNL     1      67.941  69.527 280.726  1.00  0.00     0.100 A 
HETATM    2  N1  UNL     1      68.983  69.072 281.443  1.00  0.00    -0.286 N 
ATOM      3  H1  UNL     1      69.233  69.365 282.388  1.00  0.00     0.188 HD
HETATM    4  N2  UNL     1      69.626  68.179 280.713  1.00  0.00    -0.221 N 
HETATM    5  C4  UNL     1      69.029  68.033 279.523  1.00  0.00     0.135 A 
HETATM    6  C5  UNL     1      67.958  68.879 279.511  1.00  0.00     0.061 A 
ENDROOT
BRANCH   6   7
HETATM    7  C6  UNL     1      66.997  69.085 278.439  1.00  0.00     0.126 C 
HETATM    8  N5  UNL     1      66.166  70.039 278.533  1.00  0.00    -0.295 N 
ATOM      9  H5  UNL     1      66.208  70.628 279.365  1.00  0.00     0.187 HD
BRANCH   8  10
HETATM   10  N6  UNL     1      65.198  70.338 277.574  1.00  0.00    -0.217 N 
ATOM     11  H6  UNL     1      64.268  69.926 277.633  1.00  0.00     0.210 HD
BRANCH  10  12
HETATM   12  N7  UNL     1      65.523  71.208 276.532  1.00  0.00    -0.124 N 
HETATM   13  N8  UNL     1      66.477  72.109 276.459  1.00  0.00    -0.246 N 
HETATM   14  C7  UNL     1      66.460  72.749 275.274  1.00  0.00     0.212 A 
ATOM     15  H8  UNL     1      67.146  72.299 277.204  1.00  0.00     0.192 HD
HETATM   16  N9  UNL     1      67.349  73.787 274.847  1.00  0.00    -0.062 NA
HETATM   17  N10 UNL     1      65.432  72.197 274.596  1.00  0.00    -0.279 N 
HETATM   18  C8  UNL     1      64.849  71.250 275.353  1.00  0.00     0.364 A 
ATOM     19  H10 UNL     1      65.142  72.458 273.653  1.00  0.00     0.173 HD
HETATM   20  O2  UNL     1      63.862  70.531 275.046  1.00  0.00    -0.243 OA
ENDBRANCH  10  12
ENDBRANCH   8  10
ENDBRANCH   6   7
BRANCH   1  21
HETATM   21  S1  UNL     1      66.783  70.753 281.309  1.00  0.00    -0.114 SA
HETATM   22  C1  UNL     1      65.137  69.997 281.303  1.00  0.00     0.097 C 
ENDBRANCH   1  21
BRANCH   5  23
HETATM   23  N4  UNL     1      69.417  67.226 278.568  1.00  0.00    -0.383 N 
ATOM     24  H42 UNL     1      69.251  67.324 277.566  1.00  0.00     0.157 HD
ATOM     25  H41 UNL     1      69.954  66.367 278.696  1.00  0.00     0.157 HD
ENDBRANCH   5  23
BRANCH   4  26
HETATM   26  C3  UNL     1      70.820  67.451 281.141  1.00  0.00     0.447 C 
BRANCH  26  27
HETATM   27  N3  UNL     1      71.405  68.192 282.269  1.00  0.00    -0.033 N 
ATOM     28  H33 UNL     1      70.914  69.062 282.473  1.00  0.00     0.279 HD
ATOM     29  H32 UNL     1      71.248  67.737 283.169  1.00  0.00     0.279 HD
ATOM     30  H31 UNL     1      72.394  68.333 282.062  1.00  0.00     0.279 HD
ENDBRANCH  26  27
BRANCH  26  31
HETATM   31  O1  UNL     1      71.756  67.397 280.114  1.00  0.00    -0.353 OA
ATOM     32  H1  UNL     1      72.057  68.270 279.888  1.00  0.00     0.214 HD
ENDBRANCH  26  31
ENDBRANCH   4  26
TORSDOF 8
ENDMDL
