MODEL 1
REMARK VINA RESULT: -6.336626960      0.000      0.000
REMARK  4 active torsions:
REMARK  status: ('A' for Active; 'I' for Inactive)
REMARK    1  A    between atoms: C3_3  and  C4_4 
REMARK    2  A    between atoms: C5_5  and  C6_6 
REMARK    3  A    between atoms: C6_6  and  N1_7 
REMARK    4  A    between atoms: C10_12  and  O1_14 
ROOT
HETATM    1  C1  UNL     1     -43.305 -56.320  63.464  1.00  0.00     0.013 C 
HETATM    2  C2  UNL     1     -43.303 -56.380  64.655  1.00  0.00    -0.105 C 
HETATM    3  C3  UNL     1     -43.304 -56.456  66.111  1.00  0.00     0.187 C 
ENDROOT
BRANCH   3   4
HETATM    4  C4  UNL     1     -41.991 -56.879  66.641  1.00  0.00    -0.088 C 
HETATM    5  C5  UNL     1     -40.906 -57.216  67.059  1.00  0.00    -0.060 C 
BRANCH   5   6
HETATM    6  C6  UNL     1     -39.579 -57.615  67.540  1.00  0.00     0.155 C 
BRANCH   6   7
HETATM    7  N1  UNL     1     -38.552 -56.964  66.831  1.00  0.00    -0.359 N 
HETATM    8  C7  UNL     1     -38.068 -55.751  67.344  1.00  0.00     0.094 C 
HETATM    9  C8  UNL     1     -36.593 -55.583  67.313  1.00  0.00     0.317 C 
HETATM   10  N2  UNL     1     -36.020 -55.998  66.075  1.00  0.00     0.103 N 
HETATM   11  C9  UNL     1     -34.746 -56.630  66.198  1.00  0.00     0.312 C 
HETATM   12  C14 UNL     1     -36.818 -56.806  65.235  1.00  0.00     0.262 C 
HETATM   13  C10 UNL     1     -34.465 -57.155  64.818  1.00  0.00     0.099 C 
HETATM   14  C11 UNL     1     -33.528 -58.345  64.863  1.00  0.00     0.049 C 
HETATM   15  C12 UNL     1     -35.842 -57.520  64.339  1.00  0.00     0.163 C 
HETATM   16  C13 UNL     1     -36.061 -57.070  62.951  1.00  0.00     0.069 C 
HETATM   17  N3  UNL     1     -36.243 -56.699  61.859  1.00  0.00    -0.197 NA
HETATM   18  C15 UNL     1     -37.688 -57.759  66.037  1.00  0.00     0.165 C 
BRANCH  13  19
HETATM   19  O1  UNL     1     -33.973 -56.178  63.978  1.00  0.00    -0.387 OA
ATOM     20  H1  UNL     1     -33.979 -56.449  63.067  1.00  0.00     0.210 HD
ENDBRANCH  13  19
ENDBRANCH   6   7
ENDBRANCH   5   6
ENDBRANCH   3   4
TORSDOF 4
ENDMDL
MODEL 2
REMARK VINA RESULT: -6.244584126      3.022      6.347
REMARK  4 active torsions:
REMARK  status: ('A' for Active; 'I' for Inactive)
REMARK    1  A    between atoms: C3_3  and  C4_4 
REMARK    2  A    between atoms: C5_5  and  C6_6 
REMARK    3  A    between atoms: C6_6  and  N1_7 
REMARK    4  A    between atoms: C10_12  and  O1_14 
ROOT
HETATM    1  C1  UNL     1     -36.557 -53.690  60.469  1.00  0.00     0.013 C 
HETATM    2  C2  UNL     1     -36.397 -54.846  60.714  1.00  0.00    -0.105 C 
HETATM    3  C3  UNL     1     -36.198 -56.259  61.012  1.00  0.00     0.187 C 
ENDROOT
BRANCH   3   4
HETATM    4  C4  UNL     1     -36.222 -56.525  62.465  1.00  0.00    -0.088 C 
HETATM    5  C5  UNL     1     -36.263 -56.745  63.655  1.00  0.00    -0.060 C 
BRANCH   5   6
HETATM    6  C6  UNL     1     -36.342 -57.009  65.095  1.00  0.00     0.155 C 
BRANCH   6   7
HETATM    7  N1  UNL     1     -37.629 -57.434  65.476  1.00  0.00    -0.359 N 
HETATM    8  C7  UNL     1     -37.738 -58.643  66.179  1.00  0.00     0.094 C 
HETATM    9  C8  UNL     1     -38.681 -58.636  67.327  1.00  0.00     0.317 C 
HETATM   10  N2  UNL     1     -39.915 -57.991  67.019  1.00  0.00     0.103 N 
HETATM   11  C9  UNL     1     -40.473 -57.241  68.098  1.00  0.00     0.312 C 
HETATM   12  C14 UNL     1     -39.943 -57.170  65.870  1.00  0.00     0.262 C 
HETATM   13  C10 UNL     1     -41.621 -56.501  67.472  1.00  0.00     0.099 C 
HETATM   14  C11 UNL     1     -41.938 -55.230  68.233  1.00  0.00     0.049 C 
HETATM   15  C12 UNL     1     -41.100 -56.233  66.088  1.00  0.00     0.163 C 
HETATM   16  C13 UNL     1     -42.129 -56.508  65.067  1.00  0.00     0.069 C 
HETATM   17  N3  UNL     1     -42.936 -56.742  64.256  1.00  0.00    -0.197 NA
HETATM   18  C15 UNL     1     -38.624 -56.443  65.668  1.00  0.00     0.165 C 
BRANCH  13  19
HETATM   19  O1  UNL     1     -42.747 -57.290  67.351  1.00  0.00    -0.387 OA
ATOM     20  H1  UNL     1     -42.576 -58.198  67.572  1.00  0.00     0.210 HD
ENDBRANCH  13  19
ENDBRANCH   6   7
ENDBRANCH   5   6
ENDBRANCH   3   4
TORSDOF 4
ENDMDL
MODEL 3
REMARK VINA RESULT: -5.978130968      1.461      1.615
REMARK  4 active torsions:
REMARK  status: ('A' for Active; 'I' for Inactive)
REMARK    1  A    between atoms: C3_3  and  C4_4 
REMARK    2  A    between atoms: C5_5  and  C6_6 
REMARK    3  A    between atoms: C6_6  and  N1_7 
REMARK    4  A    between atoms: C10_12  and  O1_14 
ROOT
HETATM    1  C1  UNL     1     -43.162 -56.373  63.485  1.00  0.00     0.013 C 
HETATM    2  C2  UNL     1     -43.479 -56.366  64.635  1.00  0.00    -0.105 C 
HETATM    3  C3  UNL     1     -43.867 -56.359  66.040  1.00  0.00     0.187 C 
ENDROOT
BRANCH   3   4
HETATM    4  C4  UNL     1     -42.783 -56.849  66.915  1.00  0.00    -0.088 C 
HETATM    5  C5  UNL     1     -41.878 -57.244  67.617  1.00  0.00    -0.060 C 
BRANCH   5   6
HETATM    6  C6  UNL     1     -40.765 -57.717  68.446  1.00  0.00     0.155 C 
BRANCH   6   7
HETATM    7  N1  UNL     1     -39.525 -57.264  67.958  1.00  0.00    -0.359 N 
HETATM    8  C7  UNL     1     -38.842 -56.293  68.705  1.00  0.00     0.094 C 
HETATM    9  C8  UNL     1     -37.379 -56.505  68.850  1.00  0.00     0.317 C 
HETATM   10  N2  UNL     1     -36.756 -56.887  67.626  1.00  0.00     0.103 N 
HETATM   11  C9  UNL     1     -35.699 -57.835  67.774  1.00  0.00     0.312 C 
HETATM   12  C14 UNL     1     -37.600 -57.348  66.591  1.00  0.00     0.262 C 
HETATM   13  C10 UNL     1     -35.364 -58.230  66.363  1.00  0.00     0.099 C 
HETATM   14  C11 UNL     1     -34.752 -59.615  66.310  1.00  0.00     0.049 C 
HETATM   15  C12 UNL     1     -36.708 -58.164  65.695  1.00  0.00     0.163 C 
HETATM   16  C13 UNL     1     -36.620 -57.496  64.382  1.00  0.00     0.069 C 
HETATM   17  N3  UNL     1     -36.557 -56.952  63.351  1.00  0.00    -0.197 NA
HETATM   18  C15 UNL     1     -38.774 -58.143  67.138  1.00  0.00     0.165 C 
BRANCH  13  19
HETATM   19  O1  UNL     1     -34.542 -57.310  65.744  1.00  0.00    -0.387 OA
ATOM     20  H1  UNL     1     -33.741 -57.704  65.419  1.00  0.00     0.210 HD
ENDBRANCH  13  19
ENDBRANCH   6   7
ENDBRANCH   5   6
ENDBRANCH   3   4
TORSDOF 4
ENDMDL
MODEL 4
REMARK VINA RESULT: -5.932227658      2.627      2.949
REMARK  4 active torsions:
REMARK  status: ('A' for Active; 'I' for Inactive)
REMARK    1  A    between atoms: C3_3  and  C4_4 
REMARK    2  A    between atoms: C5_5  and  C6_6 
REMARK    3  A    between atoms: C6_6  and  N1_7 
REMARK    4  A    between atoms: C10_12  and  O1_14 
ROOT
HETATM    1  C1  UNL     1     -43.097 -56.289  63.809  1.00  0.00     0.013 C 
HETATM    2  C2  UNL     1     -42.542 -56.617  64.812  1.00  0.00    -0.105 C 
HETATM    3  C3  UNL     1     -41.865 -57.021  66.038  1.00  0.00     0.187 C 
ENDROOT
BRANCH   3   4
HETATM    4  C4  UNL     1     -40.405 -57.142  65.848  1.00  0.00    -0.088 C 
HETATM    5  C5  UNL     1     -39.206 -57.219  65.696  1.00  0.00    -0.060 C 
BRANCH   5   6
HETATM    6  C6  UNL     1     -37.753 -57.284  65.510  1.00  0.00     0.155 C 
BRANCH   6   7
HETATM    7  N1  UNL     1     -37.206 -56.015  65.246  1.00  0.00    -0.359 N 
HETATM    8  C7  UNL     1     -37.124 -55.102  66.309  1.00  0.00     0.094 C 
HETATM    9  C8  UNL     1     -35.857 -54.332  66.398  1.00  0.00     0.317 C 
HETATM   10  N2  UNL     1     -35.424 -53.840  65.132  1.00  0.00     0.103 N 
HETATM   11  C9  UNL     1     -34.008 -53.850  64.949  1.00  0.00     0.312 C 
HETATM   12  C14 UNL     1     -36.006 -54.419  63.983  1.00  0.00     0.262 C 
HETATM   13  C10 UNL     1     -33.826 -53.502  63.498  1.00  0.00     0.099 C 
HETATM   14  C11 UNL     1     -32.521 -54.053  62.959  1.00  0.00     0.049 C 
HETATM   15  C12 UNL     1     -35.030 -54.147  62.871  1.00  0.00     0.163 C 
HETATM   16  C13 UNL     1     -35.669 -53.247  61.892  1.00  0.00     0.069 C 
HETATM   17  N3  UNL     1     -36.186 -52.530  61.129  1.00  0.00    -0.197 NA
HETATM   18  C15 UNL     1     -36.280 -55.901  64.179  1.00  0.00     0.165 C 
BRANCH  13  19
HETATM   19  O1  UNL     1     -33.912 -52.143  63.272  1.00  0.00    -0.387 OA
ATOM     20  H1  UNL     1     -33.121 -51.685  63.530  1.00  0.00     0.210 HD
ENDBRANCH  13  19
ENDBRANCH   6   7
ENDBRANCH   5   6
ENDBRANCH   3   4
TORSDOF 4
ENDMDL
MODEL 5
REMARK VINA RESULT: -5.822116098      1.660      2.270
REMARK  4 active torsions:
REMARK  status: ('A' for Active; 'I' for Inactive)
REMARK    1  A    between atoms: C3_3  and  C4_4 
REMARK    2  A    between atoms: C5_5  and  C6_6 
REMARK    3  A    between atoms: C6_6  and  N1_7 
REMARK    4  A    between atoms: C10_12  and  O1_14 
ROOT
HETATM    1  C1  UNL     1     -43.076 -56.371  63.775  1.00  0.00     0.013 C 
HETATM    2  C2  UNL     1     -43.009 -56.430  64.964  1.00  0.00    -0.105 C 
HETATM    3  C3  UNL     1     -42.925 -56.506  66.417  1.00  0.00     0.187 C 
ENDROOT
BRANCH   3   4
HETATM    4  C4  UNL     1     -41.699 -55.865  66.934  1.00  0.00    -0.088 C 
HETATM    5  C5  UNL     1     -40.689 -55.331  67.337  1.00  0.00    -0.060 C 
BRANCH   5   6
HETATM    6  C6  UNL     1     -39.458 -54.681  67.797  1.00  0.00     0.155 C 
BRANCH   6   7
HETATM    7  N1  UNL     1     -38.311 -55.353  67.336  1.00  0.00    -0.359 N 
HETATM    8  C7  UNL     1     -38.036 -56.622  67.869  1.00  0.00     0.094 C 
HETATM    9  C8  UNL     1     -37.596 -57.648  66.890  1.00  0.00     0.317 C 
HETATM   10  N2  UNL     1     -36.631 -57.148  65.968  1.00  0.00     0.103 N 
HETATM   11  C9  UNL     1     -36.760 -57.664  64.643  1.00  0.00     0.312 C 
HETATM   12  C14 UNL     1     -36.502 -55.745  65.868  1.00  0.00     0.262 C 
HETATM   13  C10 UNL     1     -35.796 -56.841  63.836  1.00  0.00     0.099 C 
HETATM   14  C11 UNL     1     -36.209 -56.780  62.379  1.00  0.00     0.049 C 
HETATM   15  C12 UNL     1     -35.881 -55.505  64.519  1.00  0.00     0.163 C 
HETATM   16  C13 UNL     1     -34.541 -54.918  64.714  1.00  0.00     0.069 C 
HETATM   17  N3  UNL     1     -33.482 -54.460  64.885  1.00  0.00    -0.197 NA
HETATM   18  C15 UNL     1     -37.841 -55.046  66.034  1.00  0.00     0.165 C 
BRANCH  13  19
HETATM   19  O1  UNL     1     -34.497 -57.291  63.955  1.00  0.00    -0.387 OA
ATOM     20  H1  UNL     1     -33.930 -56.942  63.277  1.00  0.00     0.210 HD
ENDBRANCH  13  19
ENDBRANCH   6   7
ENDBRANCH   5   6
ENDBRANCH   3   4
TORSDOF 4
ENDMDL
