MODEL 1
REMARK VINA RESULT: -7.956684128      0.000      0.000
REMARK  5 active torsions:
REMARK  status: ('A' for Active; 'I' for Inactive)
REMARK    1  A    between atoms: C2_2  and  C3_3 
REMARK    2  A    between atoms: C4_6  and  C5_7 
REMARK    3  A    between atoms: N3_17  and  C13_18 
REMARK    4  A    between atoms: C13_18  and  C14_19 
REMARK    5  A    between atoms: C14_19  and  N4_20 
ROOT
HETATM    1  C3  UNL     1      17.778 224.616  37.148  1.00  0.00     0.084 A 
HETATM    2  N1  UNL     1      18.321 224.861  38.336  1.00  0.00    -0.331 N 
ATOM      3  H1  UNL     1      19.335 224.848  38.449  1.00  0.00     0.168 HD
HETATM    4  C4  UNL     1      17.506 225.134  39.418  1.00  0.00     0.123 A 
HETATM    5  N3  UNL     1      16.187 225.156  39.302  1.00  0.00    -0.307 N 
HETATM    6  C20 UNL     1      15.666 224.902  38.067  1.00  0.00     0.181 A 
HETATM    7  S1  UNL     1      14.070 224.903  37.772  1.00  0.00    -0.040 SA
HETATM    8  N5  UNL     1      16.461 224.637  37.014  1.00  0.00    -0.322 N 
ATOM      9  H5  UNL     1      16.044 224.450  36.102  1.00  0.00     0.169 HD
ENDROOT
BRANCH   4  10
HETATM   10  C5  UNL     1      18.137 225.389  40.707  1.00  0.00     0.036 A 
HETATM   11  C6  UNL     1      19.060 226.366  41.003  1.00  0.00     0.104 A 
HETATM   12  N2  UNL     1      19.370 226.336  42.309  1.00  0.00    -0.364 N 
HETATM   13  C7  UNL     1      18.648 225.332  42.885  1.00  0.00     0.043 A 
ATOM     14  H2  UNL     1      20.028 226.952  42.785  1.00  0.00     0.165 HD
HETATM   15  C8  UNL     1      18.580 224.887  44.189  1.00  0.00     0.030 A 
HETATM   16  C12 UNL     1      17.873 224.730  41.902  1.00  0.00     0.006 A 
HETATM   17  C9  UNL     1      17.744 223.854  44.493  1.00  0.00     0.002 A 
HETATM   18  C10 UNL     1      16.965 223.240  43.538  1.00  0.00     0.001 A 
HETATM   19  C11 UNL     1      17.024 223.676  42.237  1.00  0.00     0.014 A 
ENDBRANCH   4  10
BRANCH   5  20
HETATM   20  C13 UNL     1      15.316 225.375  40.407  1.00  0.00     0.163 C 
BRANCH  20  21
HETATM   21  C14 UNL     1      14.830 226.800  40.526  1.00  0.00     0.292 C 
BRANCH  21  22
HETATM   22  N4  UNL     1      15.599 227.548  41.483  1.00  0.00     0.090 N 
HETATM   23  C15 UNL     1      15.452 227.002  42.827  1.00  0.00     0.272 C 
HETATM   24  C16 UNL     1      14.113 227.377  43.414  1.00  0.00     0.030 C 
HETATM   25  C17 UNL     1      13.950 228.859  43.432  1.00  0.00     0.003 C 
HETATM   26  C18 UNL     1      14.085 229.406  42.011  1.00  0.00     0.030 C 
HETATM   27  C19 UNL     1      15.425 228.955  41.481  1.00  0.00     0.272 C 
ENDBRANCH  21  22
ENDBRANCH  20  21
ENDBRANCH   5  20
BRANCH   1  28
HETATM   28  C2  UNL     1      18.672 224.317  35.967  1.00  0.00     0.072 C 
HETATM   29  C1  UNL     1      17.836 223.577  34.971  1.00  0.00     0.013 C 
ENDBRANCH   1  28
TORSDOF 5
ENDMDL
MODEL 2
REMARK VINA RESULT: -7.747228289      0.863      1.330
REMARK  5 active torsions:
REMARK  status: ('A' for Active; 'I' for Inactive)
REMARK    1  A    between atoms: C2_2  and  C3_3 
REMARK    2  A    between atoms: C4_6  and  C5_7 
REMARK    3  A    between atoms: N3_17  and  C13_18 
REMARK    4  A    between atoms: C13_18  and  C14_19 
REMARK    5  A    between atoms: C14_19  and  N4_20 
ROOT
HETATM    1  C3  UNL     1      17.912 224.524  36.811  1.00  0.00     0.084 A 
HETATM    2  N1  UNL     1      18.458 224.792  37.993  1.00  0.00    -0.331 N 
ATOM      3  H1  UNL     1      19.469 224.731  38.117  1.00  0.00     0.168 HD
HETATM    4  C4  UNL     1      17.650 225.154  39.054  1.00  0.00     0.123 A 
HETATM    5  N3  UNL     1      16.334 225.240  38.923  1.00  0.00    -0.307 N 
HETATM    6  C20 UNL     1      15.811 224.959  37.695  1.00  0.00     0.181 A 
HETATM    7  S1  UNL     1      14.220 225.030  37.383  1.00  0.00    -0.040 SA
HETATM    8  N5  UNL     1      16.599 224.607  36.662  1.00  0.00    -0.322 N 
ATOM      9  H5  UNL     1      16.180 224.402  35.755  1.00  0.00     0.169 HD
ENDROOT
BRANCH   4  10
HETATM   10  C5  UNL     1      18.283 225.432  40.337  1.00  0.00     0.036 A 
HETATM   11  C6  UNL     1      19.278 226.348  40.593  1.00  0.00     0.104 A 
HETATM   12  N2  UNL     1      19.568 226.368  41.903  1.00  0.00    -0.364 N 
HETATM   13  C7  UNL     1      18.759 225.461  42.523  1.00  0.00     0.043 A 
ATOM     14  H2  UNL     1      20.268 226.956  42.355  1.00  0.00     0.165 HD
HETATM   15  C8  UNL     1      18.639 225.100  43.849  1.00  0.00     0.030 A 
HETATM   16  C12 UNL     1      17.950 224.867  41.562  1.00  0.00     0.006 A 
HETATM   17  C9  UNL     1      17.718 224.157  44.197  1.00  0.00     0.002 A 
HETATM   18  C10 UNL     1      16.903 223.554  43.265  1.00  0.00     0.001 A 
HETATM   19  C11 UNL     1      17.015 223.906  41.942  1.00  0.00     0.014 A 
ENDBRANCH   4  10
BRANCH   5  20
HETATM   20  C13 UNL     1      15.467 225.552  40.009  1.00  0.00     0.163 C 
BRANCH  20  21
HETATM   21  C14 UNL     1      15.457 227.016  40.379  1.00  0.00     0.292 C 
BRANCH  21  22
HETATM   22  N4  UNL     1      14.228 227.397  41.019  1.00  0.00     0.090 N 
HETATM   23  C15 UNL     1      14.473 228.009  42.320  1.00  0.00     0.272 C 
HETATM   24  C16 UNL     1      14.836 226.960  43.344  1.00  0.00     0.030 C 
HETATM   25  C17 UNL     1      13.757 225.936  43.443  1.00  0.00     0.003 C 
HETATM   26  C18 UNL     1      13.533 225.294  42.075  1.00  0.00     0.030 C 
HETATM   27  C19 UNL     1      13.219 226.404  41.102  1.00  0.00     0.272 C 
ENDBRANCH  21  22
ENDBRANCH  20  21
ENDBRANCH   5  20
BRANCH   1  28
HETATM   28  C2  UNL     1      18.799 224.128  35.653  1.00  0.00     0.072 C 
HETATM   29  C1  UNL     1      17.928 223.409  34.671  1.00  0.00     0.013 C 
ENDBRANCH   1  28
TORSDOF 5
ENDMDL
MODEL 3
REMARK VINA RESULT: -7.512473518      1.781      4.607
REMARK  5 active torsions:
REMARK  status: ('A' for Active; 'I' for Inactive)
REMARK    1  A    between atoms: C2_2  and  C3_3 
REMARK    2  A    between atoms: C4_6  and  C5_7 
REMARK    3  A    between atoms: N3_17  and  C13_18 
REMARK    4  A    between atoms: C13_18  and  C14_19 
REMARK    5  A    between atoms: C14_19  and  N4_20 
ROOT
HETATM    1  C3  UNL     1      14.498 225.019  37.457  1.00  0.00     0.084 A 
HETATM    2  N1  UNL     1      14.071 225.258  38.693  1.00  0.00    -0.331 N 
ATOM      3  H1  UNL     1      13.071 225.291  38.893  1.00  0.00     0.168 HD
HETATM    4  C4  UNL     1      14.987 225.462  39.707  1.00  0.00     0.123 A 
HETATM    5  N3  UNL     1      16.291 225.426  39.478  1.00  0.00    -0.307 N 
HETATM    6  C20 UNL     1      16.691 225.176  38.198  1.00  0.00     0.181 A 
HETATM    7  S1  UNL     1      18.255 225.095  37.769  1.00  0.00    -0.040 SA
HETATM    8  N5  UNL     1      15.798 224.977  37.211  1.00  0.00    -0.322 N 
ATOM      9  H5  UNL     1      16.126 224.793  36.263  1.00  0.00     0.169 HD
ENDROOT
BRANCH   4  10
HETATM   10  C5  UNL     1      14.481 225.730  41.048  1.00  0.00     0.036 A 
HETATM   11  C6  UNL     1      14.013 224.811  41.959  1.00  0.00     0.104 A 
HETATM   12  N2  UNL     1      13.688 225.420  43.111  1.00  0.00    -0.364 N 
HETATM   13  C7  UNL     1      13.944 226.752  42.964  1.00  0.00     0.043 A 
ATOM     14  H2  UNL     1      13.317 224.968  43.946  1.00  0.00     0.165 HD
HETATM   15  C8  UNL     1      13.804 227.811  43.837  1.00  0.00     0.030 A 
HETATM   16  C12 UNL     1      14.440 226.964  41.684  1.00  0.00     0.006 A 
HETATM   17  C9  UNL     1      14.159 229.060  43.423  1.00  0.00     0.002 A 
HETATM   18  C10 UNL     1      14.653 229.298  42.160  1.00  0.00     0.001 A 
HETATM   19  C11 UNL     1      14.797 228.251  41.284  1.00  0.00     0.014 A 
ENDBRANCH   4  10
BRANCH   5  20
HETATM   20  C13 UNL     1      17.262 225.689  40.486  1.00  0.00     0.163 C 
BRANCH  20  21
HETATM   21  C14 UNL     1      17.661 224.469  41.282  1.00  0.00     0.292 C 
BRANCH  21  22
HETATM   22  N4  UNL     1      18.644 224.781  42.282  1.00  0.00     0.090 N 
HETATM   23  C15 UNL     1      18.979 223.609  43.083  1.00  0.00     0.272 C 
HETATM   24  C16 UNL     1      17.878 223.304  44.071  1.00  0.00     0.030 C 
HETATM   25  C17 UNL     1      17.627 224.483  44.949  1.00  0.00     0.003 C 
HETATM   26  C18 UNL     1      17.257 225.691  44.090  1.00  0.00     0.030 C 
HETATM   27  C19 UNL     1      18.381 225.905  43.105  1.00  0.00     0.272 C 
ENDBRANCH  21  22
ENDBRANCH  20  21
ENDBRANCH   5  20
BRANCH   1  28
HETATM   28  C2  UNL     1      13.493 224.797  36.351  1.00  0.00     0.072 C 
HETATM   29  C1  UNL     1      12.687 226.053  36.245  1.00  0.00     0.013 C 
ENDBRANCH   1  28
TORSDOF 5
ENDMDL
MODEL 4
REMARK VINA RESULT: -7.340565961      1.889      5.475
REMARK  5 active torsions:
REMARK  status: ('A' for Active; 'I' for Inactive)
REMARK    1  A    between atoms: C2_2  and  C3_3 
REMARK    2  A    between atoms: C4_6  and  C5_7 
REMARK    3  A    between atoms: N3_17  and  C13_18 
REMARK    4  A    between atoms: C13_18  and  C14_19 
REMARK    5  A    between atoms: C14_19  and  N4_20 
ROOT
HETATM    1  C3  UNL     1      14.802 228.643  41.463  1.00  0.00     0.084 A 
HETATM    2  N1  UNL     1      15.798 228.150  40.733  1.00  0.00    -0.331 N 
ATOM      3  H1  UNL     1      16.376 228.771  40.167  1.00  0.00     0.168 HD
HETATM    4  C4  UNL     1      16.047 226.791  40.745  1.00  0.00     0.123 A 
HETATM    5  N3  UNL     1      15.314 225.959  41.470  1.00  0.00    -0.307 N 
HETATM    6  C20 UNL     1      14.303 226.502  42.207  1.00  0.00     0.181 A 
HETATM    7  S1  UNL     1      13.327 225.609  43.147  1.00  0.00    -0.040 SA
HETATM    8  N5  UNL     1      14.061 227.826  42.195  1.00  0.00    -0.322 N 
ATOM      9  H5  UNL     1      13.297 228.205  42.756  1.00  0.00     0.169 HD
ENDROOT
BRANCH   4  10
HETATM   10  C5  UNL     1      17.142 226.285  39.926  1.00  0.00     0.036 A 
HETATM   11  C6  UNL     1      18.477 226.235  40.259  1.00  0.00     0.104 A 
HETATM   12  N2  UNL     1      19.181 225.649  39.278  1.00  0.00    -0.364 N 
HETATM   13  C7  UNL     1      18.308 225.306  38.286  1.00  0.00     0.043 A 
ATOM     14  H2  UNL     1      20.188 225.488  39.274  1.00  0.00     0.165 HD
HETATM   15  C8  UNL     1      18.504 224.674  37.076  1.00  0.00     0.030 A 
HETATM   16  C12 UNL     1      17.032 225.695  38.673  1.00  0.00     0.006 A 
HETATM   17  C9  UNL     1      17.428 224.439  36.272  1.00  0.00     0.002 A 
HETATM   18  C10 UNL     1      16.153 224.814  36.630  1.00  0.00     0.001 A 
HETATM   19  C11 UNL     1      15.948 225.443  37.834  1.00  0.00     0.014 A 
ENDBRANCH   4  10
BRANCH   5  20
HETATM   20  C13 UNL     1      15.505 224.548  41.460  1.00  0.00     0.163 C 
BRANCH  20  21
HETATM   21  C14 UNL     1      15.847 223.971  42.813  1.00  0.00     0.292 C 
BRANCH  21  22
HETATM   22  N4  UNL     1      17.267 223.844  42.996  1.00  0.00     0.090 N 
HETATM   23  C15 UNL     1      17.597 222.682  43.814  1.00  0.00     0.272 C 
HETATM   24  C16 UNL     1      17.300 222.951  45.270  1.00  0.00     0.030 C 
HETATM   25  C17 UNL     1      18.051 224.151  45.739  1.00  0.00     0.003 C 
HETATM   26  C18 UNL     1      17.673 225.359  44.883  1.00  0.00     0.030 C 
HETATM   27  C19 UNL     1      17.957 224.998  43.445  1.00  0.00     0.272 C 
ENDBRANCH  21  22
ENDBRANCH  20  21
ENDBRANCH   5  20
BRANCH   1  28
HETATM   28  C2  UNL     1      14.532 230.129  41.447  1.00  0.00     0.072 C 
HETATM   29  C1  UNL     1      15.277 230.689  40.277  1.00  0.00     0.013 C 
ENDBRANCH   1  28
TORSDOF 5
ENDMDL
MODEL 5
REMARK VINA RESULT: -7.061959685      1.920      5.001
REMARK  5 active torsions:
REMARK  status: ('A' for Active; 'I' for Inactive)
REMARK    1  A    between atoms: C2_2  and  C3_3 
REMARK    2  A    between atoms: C4_6  and  C5_7 
REMARK    3  A    between atoms: N3_17  and  C13_18 
REMARK    4  A    between atoms: C13_18  and  C14_19 
REMARK    5  A    between atoms: C14_19  and  N4_20 
ROOT
HETATM    1  C3  UNL     1      14.699 224.992  38.412  1.00  0.00     0.084 A 
HETATM    2  N1  UNL     1      14.228 225.522  39.537  1.00  0.00    -0.331 N 
ATOM      3  H1  UNL     1      13.222 225.556  39.705  1.00  0.00     0.168 HD
HETATM    4  C4  UNL     1      15.106 226.027  40.476  1.00  0.00     0.123 A 
HETATM    5  N3  UNL     1      16.416 225.998  40.284  1.00  0.00    -0.307 N 
HETATM    6  C20 UNL     1      16.862 225.445  39.120  1.00  0.00     0.181 A 
HETATM    7  S1  UNL     1      18.439 225.333  38.750  1.00  0.00    -0.040 SA
HETATM    8  N5  UNL     1      16.006 224.953  38.205  1.00  0.00    -0.322 N 
ATOM      9  H5  UNL     1      16.368 224.545  37.343  1.00  0.00     0.169 HD
ENDROOT
BRANCH   4  10
HETATM   10  C5  UNL     1      14.552 226.608  41.693  1.00  0.00     0.036 A 
HETATM   11  C6  UNL     1      14.131 225.937  42.818  1.00  0.00     0.104 A 
HETATM   12  N2  UNL     1      13.738 226.809  43.761  1.00  0.00    -0.364 N 
HETATM   13  C7  UNL     1      13.899 228.067  43.259  1.00  0.00     0.043 A 
ATOM     14  H2  UNL     1      13.382 226.572  44.687  1.00  0.00     0.165 HD
HETATM   15  C8  UNL     1      13.663 229.309  43.812  1.00  0.00     0.030 A 
HETATM   16  C12 UNL     1      14.407 227.962  41.970  1.00  0.00     0.006 A 
HETATM   17  C9  UNL     1      13.935 230.423  43.075  1.00  0.00     0.002 A 
HETATM   18  C10 UNL     1      14.439 230.347  41.796  1.00  0.00     0.001 A 
HETATM   19  C11 UNL     1      14.678 229.116  41.236  1.00  0.00     0.014 A 
ENDBRANCH   4  10
BRANCH   5  20
HETATM   20  C13 UNL     1      17.347 226.562  41.203  1.00  0.00     0.163 C 
BRANCH  20  21
HETATM   21  C14 UNL     1      17.217 226.023  42.608  1.00  0.00     0.292 C 
BRANCH  21  22
HETATM   22  N4  UNL     1      18.303 225.144  42.945  1.00  0.00     0.090 N 
HETATM   23  C15 UNL     1      18.011 223.767  42.561  1.00  0.00     0.272 C 
HETATM   24  C16 UNL     1      17.031 223.140  43.523  1.00  0.00     0.030 C 
HETATM   25  C17 UNL     1      17.563 223.193  44.914  1.00  0.00     0.003 C 
HETATM   26  C18 UNL     1      17.840 224.644  45.302  1.00  0.00     0.030 C 
HETATM   27  C19 UNL     1      18.789 225.211  44.275  1.00  0.00     0.272 C 
ENDBRANCH  21  22
ENDBRANCH  20  21
ENDBRANCH   5  20
BRANCH   1  28
HETATM   28  C2  UNL     1      13.736 224.441  37.387  1.00  0.00     0.072 C 
HETATM   29  C1  UNL     1      13.328 225.591  36.520  1.00  0.00     0.013 C 
ENDBRANCH   1  28
TORSDOF 5
ENDMDL
