MODEL 1
REMARK VINA RESULT: -8.792093907      0.000      0.000
REMARK  5 active torsions:
REMARK  status: ('A' for Active; 'I' for Inactive)
REMARK       I    between atoms: C1_2  and  N1_3 
REMARK    1  A    between atoms: C1_2  and  C7_10 
REMARK    2  A    between atoms: N1_3  and  C2_5 
REMARK    3  A    between atoms: N2_13  and  C10_14 
REMARK    4  A    between atoms: C10_14  and  C11_15 
REMARK    5  A    between atoms: C10_14  and  C14_21 
ROOT
HETATM    1  C7  UNL     1      17.809 225.376  44.255  1.00  0.00     0.107 C 
HETATM    2  C8  UNL     1      19.106 225.774  43.605  1.00  0.00     0.046 C 
HETATM    3  C9  UNL     1      19.039 225.267  42.182  1.00  0.00     0.275 C 
HETATM    4  N2  UNL     1      17.666 224.950  41.932  1.00  0.00     0.104 N 
HETATM    5  C18 UNL     1      17.046 224.629  43.179  1.00  0.00     0.287 C 
ENDROOT
BRANCH   4   6
HETATM    6  C10 UNL     1      16.956 225.937  41.185  1.00  0.00     0.312 C 
BRANCH   6   7
HETATM    7  C11 UNL     1      15.556 225.987  41.757  1.00  0.00     0.054 A 
HETATM    8  C12 UNL     1      14.656 224.973  41.566  1.00  0.00     0.078 A 
HETATM    9  S1  UNL     1      13.291 225.561  42.411  1.00  0.00    -0.095 SA
HETATM   10  C13 UNL     1      13.940 227.040  42.948  1.00  0.00     0.138 A 
HETATM   11  N3  UNL     1      15.161 227.015  42.460  1.00  0.00    -0.361 N 
ATOM     12  H3  UNL     1      15.797 227.795  42.628  1.00  0.00     0.165 HD
ENDBRANCH   6   7
BRANCH   6  13
HETATM   13  C14 UNL     1      16.919 225.635  39.722  1.00  0.00     0.021 A 
HETATM   14  C15 UNL     1      17.952 225.316  38.882  1.00  0.00     0.017 A 
HETATM   15  C16 UNL     1      17.661 225.088  37.601  1.00  0.00     0.008 A 
HETATM   16  C17 UNL     1      16.349 225.188  37.220  1.00  0.00     0.050 A 
HETATM   17  S2  UNL     1      15.568 225.602  38.679  1.00  0.00    -0.104 SA
ENDBRANCH   6  13
ENDBRANCH   4   6
BRANCH   1  18
HETATM   18  C1  UNL     1      18.048 224.393  45.364  1.00  0.00     0.223 C 
HETATM   19  O1  UNL     1      18.816 224.730  46.281  1.00  0.00    -0.273 OA
HETATM   20  N1  UNL     1      17.421 223.122  45.374  1.00  0.00    -0.356 N 
ATOM     21  H1  UNL     1      16.791 222.852  44.618  1.00  0.00     0.162 HD
BRANCH  20  22
HETATM   22  C2  UNL     1      17.683 222.219  46.458  1.00  0.00     0.084 C 
HETATM   23  C3  UNL     1      17.066 220.850  46.209  1.00  0.00     0.025 C 
HETATM   24  C4  UNL     1      17.120 220.261  47.621  1.00  0.00     0.002 C 
HETATM   25  C5  UNL     1      16.511 221.413  48.424  1.00  0.00     0.002 C 
HETATM   26  C6  UNL     1      16.995 222.647  47.738  1.00  0.00     0.025 C 
ENDBRANCH  20  22
ENDBRANCH   1  18
TORSDOF 5
ENDMDL
MODEL 2
REMARK VINA RESULT: -8.367968743      1.556      1.983
REMARK  5 active torsions:
REMARK  status: ('A' for Active; 'I' for Inactive)
REMARK       I    between atoms: C1_2  and  N1_3 
REMARK    1  A    between atoms: C1_2  and  C7_10 
REMARK    2  A    between atoms: N1_3  and  C2_5 
REMARK    3  A    between atoms: N2_13  and  C10_14 
REMARK    4  A    between atoms: C10_14  and  C11_15 
REMARK    5  A    between atoms: C10_14  and  C14_21 
ROOT
HETATM    1  C7  UNL     1      17.751 225.753  42.539  1.00  0.00     0.107 C 
HETATM    2  C8  UNL     1      18.914 226.136  41.664  1.00  0.00     0.046 C 
HETATM    3  C9  UNL     1      18.723 225.397  40.359  1.00  0.00     0.275 C 
HETATM    4  N2  UNL     1      17.367 224.941  40.350  1.00  0.00     0.104 N 
HETATM    5  C18 UNL     1      16.938 224.784  41.704  1.00  0.00     0.287 C 
ENDROOT
BRANCH   4   6
HETATM    6  C10 UNL     1      16.478 225.734  39.565  1.00  0.00     0.312 C 
BRANCH   6   7
HETATM    7  C11 UNL     1      15.088 225.494  40.110  1.00  0.00     0.054 A 
HETATM    8  C12 UNL     1      14.472 226.383  40.949  1.00  0.00     0.078 A 
HETATM    9  S1  UNL     1      12.973 225.611  41.229  1.00  0.00    -0.095 SA
HETATM   10  C13 UNL     1      13.218 224.223  40.274  1.00  0.00     0.138 A 
HETATM   11  N3  UNL     1      14.426 224.414  39.790  1.00  0.00    -0.361 N 
ATOM     12  H3  UNL     1      14.844 223.722  39.167  1.00  0.00     0.165 HD
ENDBRANCH   6   7
BRANCH   6  13
HETATM   13  C14 UNL     1      16.541 225.398  38.110  1.00  0.00     0.021 A 
HETATM   14  C15 UNL     1      17.367 224.517  37.464  1.00  0.00     0.017 A 
HETATM   15  C16 UNL     1      17.228 224.392  36.144  1.00  0.00     0.008 A 
HETATM   16  C17 UNL     1      16.268 225.153  35.531  1.00  0.00     0.050 A 
HETATM   17  S2  UNL     1      15.592 226.022  36.835  1.00  0.00    -0.104 SA
ENDBRANCH   6  13
ENDBRANCH   4   6
BRANCH   1  18
HETATM   18  C1  UNL     1      18.218 224.988  43.743  1.00  0.00     0.223 C 
HETATM   19  O1  UNL     1      19.332 225.273  44.214  1.00  0.00    -0.273 OA
HETATM   20  N1  UNL     1      17.420 223.974  44.329  1.00  0.00    -0.356 N 
ATOM     21  H1  UNL     1      16.507 223.745  43.937  1.00  0.00     0.162 HD
BRANCH  20  22
HETATM   22  C2  UNL     1      17.913 223.272  45.480  1.00  0.00     0.084 C 
HETATM   23  C3  UNL     1      17.047 222.066  45.814  1.00  0.00     0.025 C 
HETATM   24  C4  UNL     1      17.513 221.778  47.244  1.00  0.00     0.002 C 
HETATM   25  C5  UNL     1      17.416 223.178  47.853  1.00  0.00     0.002 C 
HETATM   26  C6  UNL     1      17.804 224.100  46.744  1.00  0.00     0.025 C 
ENDBRANCH  20  22
ENDBRANCH   1  18
TORSDOF 5
ENDMDL
MODEL 3
REMARK VINA RESULT: -8.278771724      0.998      1.117
REMARK  5 active torsions:
REMARK  status: ('A' for Active; 'I' for Inactive)
REMARK       I    between atoms: C1_2  and  N1_3 
REMARK    1  A    between atoms: C1_2  and  C7_10 
REMARK    2  A    between atoms: N1_3  and  C2_5 
REMARK    3  A    between atoms: N2_13  and  C10_14 
REMARK    4  A    between atoms: C10_14  and  C11_15 
REMARK    5  A    between atoms: C10_14  and  C14_21 
ROOT
HETATM    1  C7  UNL     1      17.667 225.251  43.825  1.00  0.00     0.107 C 
HETATM    2  C8  UNL     1      19.035 225.706  43.395  1.00  0.00     0.046 C 
HETATM    3  C9  UNL     1      19.196 225.261  41.958  1.00  0.00     0.275 C 
HETATM    4  N2  UNL     1      17.885 224.928  41.491  1.00  0.00     0.104 N 
HETATM    5  C18 UNL     1      17.094 224.538  42.616  1.00  0.00     0.287 C 
ENDROOT
BRANCH   4   6
HETATM    6  C10 UNL     1      17.269 225.932  40.687  1.00  0.00     0.312 C 
BRANCH   6   7
HETATM    7  C11 UNL     1      15.873 226.127  41.235  1.00  0.00     0.054 A 
HETATM    8  C12 UNL     1      14.910 225.159  41.136  1.00  0.00     0.078 A 
HETATM    9  S1  UNL     1      13.581 225.912  41.903  1.00  0.00    -0.095 SA
HETATM   10  C13 UNL     1      14.321 227.394  42.299  1.00  0.00     0.138 A 
HETATM   11  N3  UNL     1      15.541 227.243  41.828  1.00  0.00    -0.361 N 
ATOM     12  H3  UNL     1      16.224 227.994  41.926  1.00  0.00     0.165 HD
ENDBRANCH   6   7
BRANCH   6  13
HETATM   13  C14 UNL     1      17.221 225.561  39.240  1.00  0.00     0.021 A 
HETATM   14  C15 UNL     1      18.249 225.211  38.407  1.00  0.00     0.017 A 
HETATM   15  C16 UNL     1      17.949 224.920  37.140  1.00  0.00     0.008 A 
HETATM   16  C17 UNL     1      16.633 224.993  36.767  1.00  0.00     0.050 A 
HETATM   17  S2  UNL     1      15.861 225.470  38.212  1.00  0.00    -0.104 SA
ENDBRANCH   6  13
ENDBRANCH   4   6
BRANCH   1  18
HETATM   18  C1  UNL     1      17.763 224.225  44.916  1.00  0.00     0.223 C 
HETATM   19  O1  UNL     1      17.798 223.028  44.584  1.00  0.00    -0.273 OA
HETATM   20  N1  UNL     1      17.814 224.601  46.281  1.00  0.00    -0.356 N 
ATOM     21  H1  UNL     1      17.786 225.586  46.547  1.00  0.00     0.162 HD
BRANCH  20  22
HETATM   22  C2  UNL     1      17.907 223.581  47.287  1.00  0.00     0.084 C 
HETATM   23  C3  UNL     1      16.974 222.416  46.991  1.00  0.00     0.025 C 
HETATM   24  C4  UNL     1      16.955 221.723  48.357  1.00  0.00     0.002 C 
HETATM   25  C5  UNL     1      16.674 222.919  49.269  1.00  0.00     0.002 C 
HETATM   26  C6  UNL     1      17.402 224.057  48.633  1.00  0.00     0.025 C 
ENDBRANCH  20  22
ENDBRANCH   1  18
TORSDOF 5
ENDMDL
MODEL 4
REMARK VINA RESULT: -7.979006431      1.329      1.591
REMARK  5 active torsions:
REMARK  status: ('A' for Active; 'I' for Inactive)
REMARK       I    between atoms: C1_2  and  N1_3 
REMARK    1  A    between atoms: C1_2  and  C7_10 
REMARK    2  A    between atoms: N1_3  and  C2_5 
REMARK    3  A    between atoms: N2_13  and  C10_14 
REMARK    4  A    between atoms: C10_14  and  C11_15 
REMARK    5  A    between atoms: C10_14  and  C14_21 
ROOT
HETATM    1  C7  UNL     1      17.965 225.136  43.823  1.00  0.00     0.107 C 
HETATM    2  C8  UNL     1      18.956 224.611  42.820  1.00  0.00     0.046 C 
HETATM    3  C9  UNL     1      18.142 223.983  41.711  1.00  0.00     0.275 C 
HETATM    4  N2  UNL     1      16.802 224.454  41.879  1.00  0.00     0.104 N 
HETATM    5  C18 UNL     1      16.607 224.768  43.259  1.00  0.00     0.287 C 
ENDROOT
BRANCH   4   6
HETATM    6  C10 UNL     1      16.431 225.515  41.000  1.00  0.00     0.312 C 
BRANCH   6   7
HETATM    7  C11 UNL     1      14.920 225.520  40.943  1.00  0.00     0.054 A 
HETATM    8  C12 UNL     1      14.181 226.615  41.304  1.00  0.00     0.078 A 
HETATM    9  S1  UNL     1      12.587 226.058  41.044  1.00  0.00    -0.095 SA
HETATM   10  C13 UNL     1      12.951 224.487  40.499  1.00  0.00     0.138 A 
HETATM   11  N3  UNL     1      14.265 224.463  40.542  1.00  0.00    -0.361 N 
ATOM     12  H3  UNL     1      14.772 223.622  40.263  1.00  0.00     0.165 HD
ENDBRANCH   6   7
BRANCH   6  13
HETATM   13  C14 UNL     1      17.011 225.357  39.632  1.00  0.00     0.021 A 
HETATM   14  C15 UNL     1      16.424 224.855  38.501  1.00  0.00     0.017 A 
HETATM   15  C16 UNL     1      17.157 224.818  37.387  1.00  0.00     0.008 A 
HETATM   16  C17 UNL     1      18.442 225.286  37.457  1.00  0.00     0.050 A 
HETATM   17  S2  UNL     1      18.578 225.763  39.089  1.00  0.00    -0.104 SA
ENDBRANCH   6  13
ENDBRANCH   4   6
BRANCH   1  18
HETATM   18  C1  UNL     1      18.092 224.409  45.130  1.00  0.00     0.223 C 
HETATM   19  O1  UNL     1      18.788 224.930  46.018  1.00  0.00    -0.273 OA
HETATM   20  N1  UNL     1      17.443 223.169  45.353  1.00  0.00    -0.356 N 
ATOM     21  H1  UNL     1      16.872 222.747  44.620  1.00  0.00     0.162 HD
BRANCH  20  22
HETATM   22  C2  UNL     1      17.596 222.515  46.621  1.00  0.00     0.084 C 
HETATM   23  C3  UNL     1      16.508 221.476  46.851  1.00  0.00     0.025 C 
HETATM   24  C4  UNL     1      16.648 221.258  48.360  1.00  0.00     0.002 C 
HETATM   25  C5  UNL     1      16.656 222.708  48.849  1.00  0.00     0.002 C 
HETATM   26  C6  UNL     1      17.381 223.462  47.784  1.00  0.00     0.025 C 
ENDBRANCH  20  22
ENDBRANCH   1  18
TORSDOF 5
ENDMDL
MODEL 5
REMARK VINA RESULT: -7.832586713      1.331      3.256
REMARK  5 active torsions:
REMARK  status: ('A' for Active; 'I' for Inactive)
REMARK       I    between atoms: C1_2  and  N1_3 
REMARK    1  A    between atoms: C1_2  and  C7_10 
REMARK    2  A    between atoms: N1_3  and  C2_5 
REMARK    3  A    between atoms: N2_13  and  C10_14 
REMARK    4  A    between atoms: C10_14  and  C11_15 
REMARK    5  A    between atoms: C10_14  and  C14_21 
ROOT
HETATM    1  C7  UNL     1      16.674 224.737  43.784  1.00  0.00     0.107 C 
HETATM    2  C8  UNL     1      17.643 225.779  43.293  1.00  0.00     0.046 C 
HETATM    3  C9  UNL     1      17.936 225.435  41.849  1.00  0.00     0.275 C 
HETATM    4  N2  UNL     1      16.923 224.510  41.442  1.00  0.00     0.104 N 
HETATM    5  C18 UNL     1      16.460 223.814  42.601  1.00  0.00     0.287 C 
ENDROOT
BRANCH   4   6
HETATM    6  C10 UNL     1      15.870 225.084  40.670  1.00  0.00     0.312 C 
BRANCH   6   7
HETATM    7  C11 UNL     1      16.394 225.217  39.257  1.00  0.00     0.054 A 
HETATM    8  C12 UNL     1      15.559 225.290  38.175  1.00  0.00     0.078 A 
HETATM    9  S1  UNL     1      16.674 225.426  36.887  1.00  0.00    -0.095 SA
HETATM   10  C13 UNL     1      18.116 225.382  37.791  1.00  0.00     0.138 A 
HETATM   11  N3  UNL     1      17.680 225.266  39.027  1.00  0.00    -0.361 N 
ATOM     12  H3  UNL     1      18.341 225.215  39.801  1.00  0.00     0.165 HD
ENDBRANCH   6   7
BRANCH   6  13
HETATM   13  C14 UNL     1      15.428 226.411  41.196  1.00  0.00     0.021 A 
HETATM   14  C15 UNL     1      15.845 227.664  40.833  1.00  0.00     0.017 A 
HETATM   15  C16 UNL     1      15.293 228.705  41.457  1.00  0.00     0.008 A 
HETATM   16  C17 UNL     1      14.349 228.445  42.415  1.00  0.00     0.050 A 
HETATM   17  S2  UNL     1      14.270 226.740  42.406  1.00  0.00    -0.104 SA
ENDBRANCH   6  13
ENDBRANCH   4   6
BRANCH   1  18
HETATM   18  C1  UNL     1      17.293 223.902  44.867  1.00  0.00     0.223 C 
HETATM   19  O1  UNL     1      18.297 224.353  45.444  1.00  0.00    -0.273 OA
HETATM   20  N1  UNL     1      16.755 222.642  45.227  1.00  0.00    -0.356 N 
ATOM     21  H1  UNL     1      15.930 222.277  44.749  1.00  0.00     0.162 HD
BRANCH  20  22
HETATM   22  C2  UNL     1      17.383 221.882  46.270  1.00  0.00     0.084 C 
HETATM   23  C3  UNL     1      16.832 220.466  46.344  1.00  0.00     0.025 C 
HETATM   24  C4  UNL     1      17.330 220.047  47.730  1.00  0.00     0.002 C 
HETATM   25  C5  UNL     1      16.885 221.253  48.559  1.00  0.00     0.002 C 
HETATM   26  C6  UNL     1      17.056 222.422  47.648  1.00  0.00     0.025 C 
ENDBRANCH  20  22
ENDBRANCH   1  18
TORSDOF 5
ENDMDL
