MODEL 1
REMARK VINA RESULT: -7.120621421      0.000      0.000
REMARK  8 active torsions:
REMARK  status: ('A' for Active; 'I' for Inactive)
REMARK    1  A    between atoms: N1_2  and  C2_4 
REMARK    2  A    between atoms: C8_16  and  O1_17 
REMARK    3  A    between atoms: O1_17  and  C9_18 
REMARK       I    between atoms: C9_18  and  N6_20 
REMARK    4  A    between atoms: N6_20  and  N7_22 
REMARK    5  A    between atoms: N8_24  and  C10_26 
REMARK    6  A    between atoms: C10_26  and  O3_27 
REMARK    7  A    between atoms: C10_26  and  N9_29 
REMARK    8  A    between atoms: N9_29  and  N10_31 
ROOT
HETATM    1  C2  UNL     1      18.965   6.657   5.779  1.00  0.00     0.117 C 
HETATM    2  C3  UNL     1      18.842   5.781   4.561  1.00  0.00     0.096 C 
HETATM    3  N2  UNL     1      18.398   6.338   3.374  1.00  0.00    -0.375 N 
ATOM      4  H2  UNL     1      18.077   5.713   2.635  1.00  0.00     0.160 HD
HETATM    5  C4  UNL     1      18.366   7.745   3.137  1.00  0.00     0.247 C 
HETATM    6  C5  UNL     1      16.992   8.322   3.466  1.00  0.00     0.147 C 
HETATM    7  N3  UNL     1      16.025   8.905   2.959  1.00  0.00    -0.279 N 
ATOM      8  H3  UNL     1      15.246   9.131   3.577  1.00  0.00     0.179 HD
HETATM    9  C6  UNL     1      15.904   9.275   1.635  1.00  0.00     0.183 C 
HETATM   10  N4  UNL     1      15.820   9.571   0.535  1.00  0.00    -0.172 NA
HETATM   11  N5  UNL     1      17.379   7.826   4.722  1.00  0.00    -0.256 N 
HETATM   12  C7  UNL     1      17.601   7.258   5.982  1.00  0.00     0.087 C 
HETATM   13  C8  UNL     1      16.762   7.303   6.969  1.00  0.00     0.177 C 
HETATM   14  N11 UNL     1      18.647   8.478   4.375  1.00  0.00    -0.189 NA
HETATM   15  C11 UNL     1      19.635   7.929   5.214  1.00  0.00     0.160 C 
ENDROOT
BRANCH   1  16
HETATM   16  N1  UNL     1      19.636   6.192   6.879  1.00  0.00    -0.407 N 
HETATM   17  C1  UNL     1      19.775   4.786   7.040  1.00  0.00     0.141 C 
ATOM     18  H1  UNL     1      20.026   6.839   7.565  1.00  0.00     0.154 HD
ENDBRANCH   1  16
BRANCH  13  19
HETATM   19  O1  UNL     1      15.525   7.930   6.935  1.00  0.00    -0.270 OA
BRANCH  19  20
HETATM   20  C9  UNL     1      14.512   7.533   7.814  1.00  0.00     0.385 C 
HETATM   21  O2  UNL     1      14.129   6.338   7.701  1.00  0.00    -0.236 OA
HETATM   22  N6  UNL     1      13.958   8.424   8.769  1.00  0.00    -0.231 N 
ATOM     23  H6  UNL     1      14.293   9.385   8.830  1.00  0.00     0.194 HD
BRANCH  22  24
HETATM   24  N7  UNL     1      12.955   7.977   9.618  1.00  0.00    -0.239 N 
HETATM   25  N8  UNL     1      11.885   7.434   9.205  1.00  0.00    -0.275 N 
ATOM     26  H8  UNL     1      11.748   7.316   8.201  1.00  0.00     0.186 HD
ATOM     27  H7  UNL     1      13.085   8.090  10.624  1.00  0.00     0.208 HD
BRANCH  25  28
HETATM   28  C10 UNL     1      10.856   6.977  10.110  1.00  0.00     0.357 C 
BRANCH  28  29
HETATM   29  O3  UNL     1      10.787   7.849  11.202  1.00  0.00    -0.358 OA
ATOM     30  H3  UNL     1      10.690   7.341  12.000  1.00  0.00     0.214 HD
ENDBRANCH  28  29
BRANCH  28  31
HETATM   31  N9  UNL     1       9.565   6.821   9.519  1.00  0.00    -0.296 N 
ATOM     32  H9  UNL     1       9.001   5.980   9.646  1.00  0.00     0.184 HD
BRANCH  31  33
HETATM   33  N10 UNL     1       9.138   7.896   8.760  1.00  0.00    -0.346 N 
ATOM     34 2H10 UNL     1       8.729   8.726   9.190  1.00  0.00     0.176 HD
ATOM     35 1H10 UNL     1       9.265   7.789   7.754  1.00  0.00     0.176 HD
ENDBRANCH  31  33
ENDBRANCH  28  31
ENDBRANCH  25  28
ENDBRANCH  22  24
ENDBRANCH  19  20
ENDBRANCH  13  19
TORSDOF 8
ENDMDL
MODEL 2
REMARK VINA RESULT: -6.981113295      2.522      2.697
REMARK  8 active torsions:
REMARK  status: ('A' for Active; 'I' for Inactive)
REMARK    1  A    between atoms: N1_2  and  C2_4 
REMARK    2  A    between atoms: C8_16  and  O1_17 
REMARK    3  A    between atoms: O1_17  and  C9_18 
REMARK       I    between atoms: C9_18  and  N6_20 
REMARK    4  A    between atoms: N6_20  and  N7_22 
REMARK    5  A    between atoms: N8_24  and  C10_26 
REMARK    6  A    between atoms: C10_26  and  O3_27 
REMARK    7  A    between atoms: C10_26  and  N9_29 
REMARK    8  A    between atoms: N9_29  and  N10_31 
ROOT
HETATM    1  C2  UNL     1      19.030   6.795   6.229  1.00  0.00     0.117 C 
HETATM    2  C3  UNL     1      18.714   5.736   5.206  1.00  0.00     0.096 C 
HETATM    3  N2  UNL     1      18.279   6.123   3.950  1.00  0.00    -0.375 N 
ATOM      4  H2  UNL     1      17.831   5.425   3.355  1.00  0.00     0.160 HD
HETATM    5  C4  UNL     1      18.426   7.450   3.449  1.00  0.00     0.247 C 
HETATM    6  C5  UNL     1      17.166   8.273   3.707  1.00  0.00     0.147 C 
HETATM    7  N3  UNL     1      16.258   8.886   3.132  1.00  0.00    -0.279 N 
ATOM      8  H3  UNL     1      15.557   9.334   3.721  1.00  0.00     0.179 HD
HETATM    9  C6  UNL     1      16.108   9.020   1.766  1.00  0.00     0.183 C 
HETATM   10  N4  UNL     1      15.998   9.115   0.633  1.00  0.00    -0.172 NA
HETATM   11  N5  UNL     1      17.557   7.966   5.022  1.00  0.00    -0.256 N 
HETATM   12  C7  UNL     1      17.776   7.615   6.358  1.00  0.00     0.087 C 
HETATM   13  C8  UNL     1      17.012   7.964   7.347  1.00  0.00     0.177 C 
HETATM   14  N11 UNL     1      18.878   8.351   4.512  1.00  0.00    -0.189 NA
HETATM   15  C11 UNL     1      19.832   7.828   5.407  1.00  0.00     0.160 C 
ENDROOT
BRANCH   1  16
HETATM   16  N1  UNL     1      19.697   6.449   7.373  1.00  0.00    -0.407 N 
HETATM   17  C1  UNL     1      19.389   5.201   7.983  1.00  0.00     0.141 C 
ATOM     18  H1  UNL     1      20.397   7.070   7.779  1.00  0.00     0.154 HD
ENDBRANCH   1  16
BRANCH  13  19
HETATM   19  O1  UNL     1      15.873   8.747   7.235  1.00  0.00    -0.270 OA
BRANCH  19  20
HETATM   20  C9  UNL     1      15.467   9.552   8.304  1.00  0.00     0.385 C 
HETATM   21  O2  UNL     1      14.944  10.655   7.988  1.00  0.00    -0.236 OA
HETATM   22  N6  UNL     1      15.635   9.146   9.653  1.00  0.00    -0.231 N 
ATOM     23  H6  UNL     1      16.062   8.247   9.870  1.00  0.00     0.194 HD
BRANCH  22  24
HETATM   24  N7  UNL     1      15.211   9.985  10.675  1.00  0.00    -0.239 N 
HETATM   25  N8  UNL     1      13.989  10.166  10.965  1.00  0.00    -0.275 N 
ATOM     26  H8  UNL     1      13.277   9.673  10.427  1.00  0.00     0.186 HD
ATOM     27  H7  UNL     1      15.918  10.481  11.219  1.00  0.00     0.208 HD
BRANCH  25  28
HETATM   28  C10 UNL     1      13.575  11.045  12.034  1.00  0.00     0.357 C 
BRANCH  28  29
HETATM   29  O3  UNL     1      14.586  11.983  12.273  1.00  0.00    -0.358 OA
ATOM     30  H3  UNL     1      14.224  12.712  12.764  1.00  0.00     0.214 HD
ENDBRANCH  28  29
BRANCH  28  31
HETATM   31  N9  UNL     1      12.328  11.707  11.815  1.00  0.00    -0.296 N 
ATOM     32  H9  UNL     1      12.267  12.652  11.432  1.00  0.00     0.184 HD
BRANCH  31  33
HETATM   33  N10 UNL     1      11.209  10.971  12.161  1.00  0.00    -0.346 N 
ATOM     34 2H10 UNL     1      10.739  11.100  13.056  1.00  0.00     0.176 HD
ATOM     35 1H10 UNL     1      10.901  10.301  11.456  1.00  0.00     0.176 HD
ENDBRANCH  31  33
ENDBRANCH  28  31
ENDBRANCH  25  28
ENDBRANCH  22  24
ENDBRANCH  19  20
ENDBRANCH  13  19
TORSDOF 8
ENDMDL
MODEL 3
REMARK VINA RESULT: -6.664618798      3.583      8.236
REMARK  8 active torsions:
REMARK  status: ('A' for Active; 'I' for Inactive)
REMARK    1  A    between atoms: N1_2  and  C2_4 
REMARK    2  A    between atoms: C8_16  and  O1_17 
REMARK    3  A    between atoms: O1_17  and  C9_18 
REMARK       I    between atoms: C9_18  and  N6_20 
REMARK    4  A    between atoms: N6_20  and  N7_22 
REMARK    5  A    between atoms: N8_24  and  C10_26 
REMARK    6  A    between atoms: C10_26  and  O3_27 
REMARK    7  A    between atoms: C10_26  and  N9_29 
REMARK    8  A    between atoms: N9_29  and  N10_31 
ROOT
HETATM    1  C2  UNL     1      15.429   7.426  11.330  1.00  0.00     0.117 C 
HETATM    2  C3  UNL     1      15.732   7.946  12.711  1.00  0.00     0.096 C 
HETATM    3  N2  UNL     1      14.849   8.829  13.306  1.00  0.00    -0.375 N 
ATOM      4  H2  UNL     1      15.169   9.367  14.111  1.00  0.00     0.160 HD
HETATM    5  C4  UNL     1      13.512   9.022  12.847  1.00  0.00     0.247 C 
HETATM    6  C5  UNL     1      13.432  10.205  11.885  1.00  0.00     0.147 C 
HETATM    7  N3  UNL     1      12.918  11.321  11.741  1.00  0.00    -0.279 N 
ATOM      8  H3  UNL     1      13.139  11.826  10.883  1.00  0.00     0.179 HD
HETATM    9  C6  UNL     1      12.073  11.946  12.636  1.00  0.00     0.183 C 
HETATM   10  N4  UNL     1      11.379  12.449  13.391  1.00  0.00    -0.172 NA
HETATM   11  N5  UNL     1      14.304   9.352  11.186  1.00  0.00    -0.256 N 
HETATM   12  C7  UNL     1      15.275   8.647  10.466  1.00  0.00     0.087 C 
HETATM   13  C8  UNL     1      15.821   9.060   9.365  1.00  0.00     0.177 C 
HETATM   14  N11 UNL     1      13.309   8.342  11.565  1.00  0.00    -0.189 NA
HETATM   15  C11 UNL     1      13.925   7.084  11.423  1.00  0.00     0.160 C 
ENDROOT
BRANCH   1  16
HETATM   16  N1  UNL     1      16.146   6.370  10.835  1.00  0.00    -0.407 N 
HETATM   17  C1  UNL     1      17.457   6.147  11.341  1.00  0.00     0.141 C 
ATOM     18  H1  UNL     1      15.751   5.759  10.120  1.00  0.00     0.154 HD
ENDBRANCH   1  16
BRANCH  13  19
HETATM   19  O1  UNL     1      15.519  10.253   8.725  1.00  0.00    -0.270 OA
BRANCH  19  20
HETATM   20  C9  UNL     1      15.366  10.285   7.336  1.00  0.00     0.385 C 
HETATM   21  O2  UNL     1      14.544  11.135   6.897  1.00  0.00    -0.236 OA
HETATM   22  N6  UNL     1      16.091   9.415   6.482  1.00  0.00    -0.231 N 
ATOM     23  H6  UNL     1      16.747   8.740   6.873  1.00  0.00     0.194 HD
BRANCH  22  24
HETATM   24  N7  UNL     1      15.901   9.491   5.109  1.00  0.00    -0.239 N 
HETATM   25  N8  UNL     1      16.684   8.954   4.267  1.00  0.00    -0.275 N 
ATOM     26  H8  UNL     1      17.496   8.439   4.608  1.00  0.00     0.186 HD
ATOM     27  H7  UNL     1      15.091  10.004   4.759  1.00  0.00     0.208 HD
BRANCH  25  28
HETATM   28  C10 UNL     1      16.464   9.049   2.842  1.00  0.00     0.357 C 
BRANCH  28  29
HETATM   29  O3  UNL     1      16.683   7.795   2.261  1.00  0.00    -0.358 OA
ATOM     30  H3  UNL     1      15.881   7.500   1.846  1.00  0.00     0.214 HD
ENDBRANCH  28  29
BRANCH  28  31
HETATM   31  N9  UNL     1      15.180   9.551   2.467  1.00  0.00    -0.296 N 
ATOM     32  H9  UNL     1      14.410   9.640   3.130  1.00  0.00     0.184 HD
BRANCH  31  33
HETATM   33  N10 UNL     1      15.061   9.906   1.135  1.00  0.00    -0.346 N 
ATOM     34 2H10 UNL     1      15.373  10.815   0.794  1.00  0.00     0.176 HD
ATOM     35 1H10 UNL     1      14.642   9.195   0.537  1.00  0.00     0.176 HD
ENDBRANCH  31  33
ENDBRANCH  28  31
ENDBRANCH  25  28
ENDBRANCH  22  24
ENDBRANCH  19  20
ENDBRANCH  13  19
TORSDOF 8
ENDMDL
MODEL 4
REMARK VINA RESULT: -6.643546824      4.602      6.783
REMARK  8 active torsions:
REMARK  status: ('A' for Active; 'I' for Inactive)
REMARK    1  A    between atoms: N1_2  and  C2_4 
REMARK    2  A    between atoms: C8_16  and  O1_17 
REMARK    3  A    between atoms: O1_17  and  C9_18 
REMARK       I    between atoms: C9_18  and  N6_20 
REMARK    4  A    between atoms: N6_20  and  N7_22 
REMARK    5  A    between atoms: N8_24  and  C10_26 
REMARK    6  A    between atoms: C10_26  and  O3_27 
REMARK    7  A    between atoms: C10_26  and  N9_29 
REMARK    8  A    between atoms: N9_29  and  N10_31 
ROOT
HETATM    1  C2  UNL     1      15.577   8.938   9.179  1.00  0.00     0.117 C 
HETATM    2  C3  UNL     1      15.962   7.485   9.274  1.00  0.00     0.096 C 
HETATM    3  N2  UNL     1      14.964   6.527   9.333  1.00  0.00    -0.375 N 
ATOM      4  H2  UNL     1      15.210   5.589   9.647  1.00  0.00     0.160 HD
HETATM    5  C4  UNL     1      13.608   6.792   8.975  1.00  0.00     0.247 C 
HETATM    6  C5  UNL     1      12.783   7.163  10.204  1.00  0.00     0.147 C 
HETATM    7  N3  UNL     1      11.816   6.796  10.885  1.00  0.00    -0.279 N 
ATOM      8  H3  UNL     1      11.571   7.373  11.689  1.00  0.00     0.179 HD
HETATM    9  C6  UNL     1      11.039   5.679  10.655  1.00  0.00     0.183 C 
HETATM   10  N4  UNL     1      10.410   4.747  10.452  1.00  0.00    -0.172 NA
HETATM   11  N5  UNL     1      13.731   8.200  10.199  1.00  0.00    -0.256 N 
HETATM   12  C7  UNL     1      14.695   9.199  10.368  1.00  0.00     0.087 C 
HETATM   13  C8  UNL     1      14.710  10.051  11.345  1.00  0.00     0.177 C 
HETATM   14  N11 UNL     1      13.405   8.229   8.768  1.00  0.00    -0.189 NA
HETATM   15  C11 UNL     1      14.450   8.919   8.123  1.00  0.00     0.160 C 
ENDROOT
BRANCH   1  16
HETATM   16  N1  UNL     1      16.532   9.868   8.865  1.00  0.00    -0.407 N 
HETATM   17  C1  UNL     1      17.465   9.558   7.837  1.00  0.00     0.141 C 
ATOM     18  H1  UNL     1      16.573  10.761   9.357  1.00  0.00     0.154 HD
ENDBRANCH   1  16
BRANCH  13  19
HETATM   19  O1  UNL     1      13.769  10.114  12.362  1.00  0.00    -0.270 OA
BRANCH  19  20
HETATM   20  C9  UNL     1      12.574  10.814  12.171  1.00  0.00     0.385 C 
HETATM   21  O2  UNL     1      12.668  11.882  11.506  1.00  0.00    -0.236 OA
HETATM   22  N6  UNL     1      11.341  10.347  12.693  1.00  0.00    -0.231 N 
ATOM     23  H6  UNL     1      11.304   9.479  13.227  1.00  0.00     0.194 HD
BRANCH  22  24
HETATM   24  N7  UNL     1      10.184  11.082  12.471  1.00  0.00    -0.239 N 
HETATM   25  N8  UNL     1       9.515  11.017  11.395  1.00  0.00    -0.275 N 
ATOM     26  H8  UNL     1       9.835  10.397  10.652  1.00  0.00     0.186 HD
ATOM     27  H7  UNL     1       9.856  11.705  13.209  1.00  0.00     0.208 HD
BRANCH  25  28
HETATM   28  C10 UNL     1       8.314  11.794  11.188  1.00  0.00     0.357 C 
BRANCH  28  29
HETATM   29  O3  UNL     1       8.243  12.796  12.163  1.00  0.00    -0.358 OA
ATOM     30  H3  UNL     1       8.062  12.397  13.006  1.00  0.00     0.214 HD
ENDBRANCH  28  29
BRANCH  28  31
HETATM   31  N9  UNL     1       8.186  12.362   9.884  1.00  0.00    -0.296 N 
ATOM     32  H9  UNL     1       7.577  11.964   9.169  1.00  0.00     0.184 HD
BRANCH  31  33
HETATM   33  N10 UNL     1       8.951  13.494   9.664  1.00  0.00    -0.346 N 
ATOM     34 2H10 UNL     1       8.799  14.093   8.853  1.00  0.00     0.176 HD
ATOM     35 1H10 UNL     1       9.664  13.674  10.370  1.00  0.00     0.176 HD
ENDBRANCH  31  33
ENDBRANCH  28  31
ENDBRANCH  25  28
ENDBRANCH  22  24
ENDBRANCH  19  20
ENDBRANCH  13  19
TORSDOF 8
ENDMDL
MODEL 5
REMARK VINA RESULT: -6.637836616      3.662      6.824
REMARK  8 active torsions:
REMARK  status: ('A' for Active; 'I' for Inactive)
REMARK    1  A    between atoms: N1_2  and  C2_4 
REMARK    2  A    between atoms: C8_16  and  O1_17 
REMARK    3  A    between atoms: O1_17  and  C9_18 
REMARK       I    between atoms: C9_18  and  N6_20 
REMARK    4  A    between atoms: N6_20  and  N7_22 
REMARK    5  A    between atoms: N8_24  and  C10_26 
REMARK    6  A    between atoms: C10_26  and  O3_27 
REMARK    7  A    between atoms: C10_26  and  N9_29 
REMARK    8  A    between atoms: N9_29  and  N10_31 
ROOT
HETATM    1  C2  UNL     1      15.703   9.783   8.305  1.00  0.00     0.117 C 
HETATM    2  C3  UNL     1      15.387  11.037   7.534  1.00  0.00     0.096 C 
HETATM    3  N2  UNL     1      15.202  10.957   6.164  1.00  0.00    -0.375 N 
ATOM      4  H2  UNL     1      15.241  11.817   5.618  1.00  0.00     0.160 HD
HETATM    5  C4  UNL     1      14.960   9.727   5.482  1.00  0.00     0.247 C 
HETATM    6  C5  UNL     1      16.261   9.136   4.946  1.00  0.00     0.147 C 
HETATM    7  N3  UNL     1      16.836   8.817   3.897  1.00  0.00    -0.279 N 
ATOM      8  H3  UNL     1      17.773   8.424   3.984  1.00  0.00     0.179 HD
HETATM    9  C6  UNL     1      16.325   8.942   2.621  1.00  0.00     0.183 C 
HETATM   10  N4  UNL     1      15.887   9.058   1.573  1.00  0.00    -0.172 NA
HETATM   11  N5  UNL     1      16.521   9.139   6.327  1.00  0.00    -0.256 N 
HETATM   12  C7  UNL     1      16.937   9.215   7.660  1.00  0.00     0.087 C 
HETATM   13  C8  UNL     1      18.110   8.866   8.087  1.00  0.00     0.177 C 
HETATM   14  N11 UNL     1      15.161   8.592   6.387  1.00  0.00    -0.189 NA
HETATM   15  C11 UNL     1      14.708   8.763   7.710  1.00  0.00     0.160 C 
ENDROOT
BRANCH   1  16
HETATM   16  N1  UNL     1      15.637   9.799   9.672  1.00  0.00    -0.407 N 
HETATM   17  C1  UNL     1      14.518   9.184  10.302  1.00  0.00     0.141 C 
ATOM     18  H1  UNL     1      16.371  10.240  10.227  1.00  0.00     0.154 HD
ENDBRANCH   1  16
BRANCH  13  19
HETATM   19  O1  UNL     1      19.126   8.350   7.295  1.00  0.00    -0.270 OA
BRANCH  19  20
HETATM   20  C9  UNL     1      19.562   7.035   7.480  1.00  0.00     0.385 C 
HETATM   21  O2  UNL     1      19.837   6.399   6.427  1.00  0.00    -0.236 OA
HETATM   22  N6  UNL     1      19.686   6.461   8.771  1.00  0.00    -0.231 N 
ATOM     23  H6  UNL     1      19.453   7.007   9.601  1.00  0.00     0.194 HD
BRANCH  22  24
HETATM   24  N7  UNL     1      20.125   5.151   8.896  1.00  0.00    -0.239 N 
HETATM   25  N8  UNL     1      20.881   4.757   9.838  1.00  0.00    -0.275 N 
ATOM     26  H8  UNL     1      21.183   5.431  10.541  1.00  0.00     0.186 HD
ATOM     27  H7  UNL     1      19.827   4.470   8.198  1.00  0.00     0.208 HD
BRANCH  25  28
HETATM   28  C10 UNL     1      21.325   3.387   9.945  1.00  0.00     0.357 C 
BRANCH  28  29
HETATM   29  O3  UNL     1      22.640   3.294   9.474  1.00  0.00    -0.358 OA
ATOM     30  H3  UNL     1      22.883   2.377   9.409  1.00  0.00     0.214 HD
ENDBRANCH  28  29
BRANCH  28  31
HETATM   31  N9  UNL     1      21.228   2.827  11.255  1.00  0.00    -0.296 N 
ATOM     32  H9  UNL     1      21.587   1.899  11.484  1.00  0.00     0.184 HD
BRANCH  31  33
HETATM   33  N10 UNL     1      20.611   3.637  12.191  1.00  0.00    -0.346 N 
ATOM     34 2H10 UNL     1      20.232   4.551  11.941  1.00  0.00     0.176 HD
ATOM     35 1H10 UNL     1      20.567   3.249  13.133  1.00  0.00     0.176 HD
ENDBRANCH  31  33
ENDBRANCH  28  31
ENDBRANCH  25  28
ENDBRANCH  22  24
ENDBRANCH  19  20
ENDBRANCH  13  19
TORSDOF 8
ENDMDL
