MODEL 1
REMARK VINA RESULT: -7.566158264      0.000      0.000
REMARK  6 active torsions:
REMARK  status: ('A' for Active; 'I' for Inactive)
REMARK    1  A    between atoms: C4_4  and  N1_5 
REMARK    2  A    between atoms: N1_5  and  S1_7 
REMARK    3  A    between atoms: S1_7  and  C5_10 
REMARK    4  A    between atoms: C14_20  and  O4_21 
REMARK    5  A    between atoms: C15_23  and  O5_24 
REMARK    6  A    between atoms: C16_26  and  O6_27 
ROOT
HETATM    1  C1  UNL     1     -26.935 -14.632   1.501  1.00  0.00     0.012 C 
HETATM    2  C2  UNL     1     -27.665 -14.542   0.546  1.00  0.00    -0.105 C 
HETATM    3  C3  UNL     1     -28.580 -14.437  -0.617  1.00  0.00     0.145 C 
HETATM    4  C4  UNL     1     -27.767 -14.254  -1.854  1.00  0.00     0.249 C 
HETATM    5  O3  UNL     1     -26.702 -13.408  -1.543  1.00  0.00    -0.357 OA
HETATM    6  C12 UNL     1     -27.000 -12.072  -1.790  1.00  0.00     0.151 C 
HETATM    7  C13 UNL     1     -27.331 -11.784  -3.218  1.00  0.00     0.042 C 
HETATM    8  C14 UNL     1     -28.005 -11.580  -0.805  1.00  0.00     0.178 C 
HETATM    9  C15 UNL     1     -29.385 -12.084  -0.993  1.00  0.00     0.179 C 
HETATM   10  C16 UNL     1     -29.649 -13.438  -0.406  1.00  0.00     0.169 C 
ENDROOT
BRANCH   4  11
HETATM   11  N1  UNL     1     -27.179 -15.533  -2.205  1.00  0.00    -0.287 N 
ATOM     12  H1  UNL     1     -26.532 -16.039  -1.600  1.00  0.00     0.175 HD
BRANCH  11  13
HETATM   13  S1  UNL     1     -27.682 -16.107  -3.738  1.00  0.00     0.260 S 
HETATM   14  O1  UNL     1     -26.478 -16.809  -4.352  1.00  0.00    -0.200 OA
HETATM   15  O2  UNL     1     -28.069 -15.024  -4.670  1.00  0.00    -0.200 OA
BRANCH  13  16
HETATM   16  C5  UNL     1     -28.941 -17.317  -3.626  1.00  0.00     0.079 A 
HETATM   17  C6  UNL     1     -29.245 -17.884  -2.423  1.00  0.00     0.026 A 
HETATM   18  C7  UNL     1     -30.241 -18.837  -2.349  1.00  0.00     0.008 A 
HETATM   19  C8  UNL     1     -30.951 -19.244  -3.461  1.00  0.00    -0.062 A 
HETATM   20  C9  UNL     1     -32.029 -20.286  -3.340  1.00  0.00     0.048 C 
HETATM   21  C10 UNL     1     -30.638 -18.666  -4.674  1.00  0.00     0.008 A 
HETATM   22  C11 UNL     1     -29.645 -17.718  -4.739  1.00  0.00     0.026 A 
ENDBRANCH  13  16
ENDBRANCH  11  13
ENDBRANCH   4  11
BRANCH  10  23
HETATM   23  O6  UNL     1     -30.844 -13.917  -0.981  1.00  0.00    -0.391 OA
ATOM     24  H6  UNL     1     -31.226 -14.568  -0.404  1.00  0.00     0.210 HD
ENDBRANCH  10  23
BRANCH   9  25
HETATM   25  O5  UNL     1     -30.247 -11.183  -0.317  1.00  0.00    -0.390 OA
ATOM     26  H5  UNL     1     -31.121 -11.332  -0.656  1.00  0.00     0.210 HD
ENDBRANCH   9  25
BRANCH   8  27
HETATM   27  O4  UNL     1     -28.022 -10.166  -0.837  1.00  0.00    -0.390 OA
ATOM     28  H4  UNL     1     -27.396  -9.837  -0.204  1.00  0.00     0.210 HD
ENDBRANCH   8  27
TORSDOF 6
ENDMDL
MODEL 2
REMARK VINA RESULT: -7.441697298      0.705      1.198
REMARK  6 active torsions:
REMARK  status: ('A' for Active; 'I' for Inactive)
REMARK    1  A    between atoms: C4_4  and  N1_5 
REMARK    2  A    between atoms: N1_5  and  S1_7 
REMARK    3  A    between atoms: S1_7  and  C5_10 
REMARK    4  A    between atoms: C14_20  and  O4_21 
REMARK    5  A    between atoms: C15_23  and  O5_24 
REMARK    6  A    between atoms: C16_26  and  O6_27 
ROOT
HETATM    1  C1  UNL     1     -27.078 -14.939   1.771  1.00  0.00     0.012 C 
HETATM    2  C2  UNL     1     -27.678 -14.673   0.759  1.00  0.00    -0.105 C 
HETATM    3  C3  UNL     1     -28.434 -14.356  -0.477  1.00  0.00     0.145 C 
HETATM    4  C4  UNL     1     -27.477 -13.881  -1.518  1.00  0.00     0.249 C 
HETATM    5  O3  UNL     1     -26.523 -13.081  -0.887  1.00  0.00    -0.357 OA
HETATM    6  C12 UNL     1     -26.875 -11.736  -0.892  1.00  0.00     0.151 C 
HETATM    7  C13 UNL     1     -27.031 -11.160  -2.262  1.00  0.00     0.042 C 
HETATM    8  C14 UNL     1     -28.035 -11.505   0.017  1.00  0.00     0.178 C 
HETATM    9  C15 UNL     1     -29.340 -12.009  -0.470  1.00  0.00     0.179 C 
HETATM   10  C16 UNL     1     -29.587 -13.466  -0.222  1.00  0.00     0.169 C 
ENDROOT
BRANCH   4  11
HETATM   11  N1  UNL     1     -26.761 -15.031  -2.037  1.00  0.00    -0.287 N 
ATOM     12  H1  UNL     1     -26.027 -15.516  -1.521  1.00  0.00     0.175 HD
BRANCH  11  13
HETATM   13  S1  UNL     1     -27.275 -15.492  -3.605  1.00  0.00     0.260 S 
HETATM   14  O1  UNL     1     -26.058 -16.089  -4.299  1.00  0.00    -0.200 OA
HETATM   15  O2  UNL     1     -27.724 -14.349  -4.432  1.00  0.00    -0.200 OA
BRANCH  13  16
HETATM   16  C5  UNL     1     -28.484 -16.757  -3.574  1.00  0.00     0.079 A 
HETATM   17  C6  UNL     1     -29.103 -17.144  -4.727  1.00  0.00     0.026 A 
HETATM   18  C7  UNL     1     -30.055 -18.143  -4.687  1.00  0.00     0.008 A 
HETATM   19  C8  UNL     1     -30.409 -18.773  -3.511  1.00  0.00    -0.062 A 
HETATM   20  C9  UNL     1     -31.452 -19.857  -3.510  1.00  0.00     0.048 C 
HETATM   21  C10 UNL     1     -29.779 -18.376  -2.351  1.00  0.00     0.008 A 
HETATM   22  C11 UNL     1     -28.833 -17.381  -2.398  1.00  0.00     0.026 A 
ENDBRANCH  13  16
ENDBRANCH  11  13
ENDBRANCH   4  11
BRANCH  10  23
HETATM   23  O6  UNL     1     -30.659 -13.855  -1.051  1.00  0.00    -0.391 OA
ATOM     24  H6  UNL     1     -31.021 -14.672  -0.727  1.00  0.00     0.210 HD
ENDBRANCH  10  23
BRANCH   9  25
HETATM   25  O5  UNL     1     -30.343 -11.308   0.245  1.00  0.00    -0.390 OA
ATOM     26  H5  UNL     1     -30.517 -10.509  -0.238  1.00  0.00     0.210 HD
ENDBRANCH   9  25
BRANCH   8  27
HETATM   27  O4  UNL     1     -28.143 -10.119   0.277  1.00  0.00    -0.390 OA
ATOM     28  H4  UNL     1     -29.060  -9.899   0.392  1.00  0.00     0.210 HD
ENDBRANCH   8  27
TORSDOF 6
ENDMDL
MODEL 3
REMARK VINA RESULT: -7.263409937      1.586      2.384
REMARK  6 active torsions:
REMARK  status: ('A' for Active; 'I' for Inactive)
REMARK    1  A    between atoms: C4_4  and  N1_5 
REMARK    2  A    between atoms: N1_5  and  S1_7 
REMARK    3  A    between atoms: S1_7  and  C5_10 
REMARK    4  A    between atoms: C14_20  and  O4_21 
REMARK    5  A    between atoms: C15_23  and  O5_24 
REMARK    6  A    between atoms: C16_26  and  O6_27 
ROOT
HETATM    1  C1  UNL     1     -25.031 -15.235   1.057  1.00  0.00     0.012 C 
HETATM    2  C2  UNL     1     -26.067 -15.658   0.608  1.00  0.00    -0.105 C 
HETATM    3  C3  UNL     1     -27.342 -16.195   0.073  1.00  0.00     0.145 C 
HETATM    4  C4  UNL     1     -27.646 -15.514  -1.218  1.00  0.00     0.249 C 
HETATM    5  O3  UNL     1     -27.289 -14.171  -1.086  1.00  0.00    -0.357 OA
HETATM    6  C12 UNL     1     -28.350 -13.381  -0.658  1.00  0.00     0.151 C 
HETATM    7  C13 UNL     1     -29.520 -13.390  -1.587  1.00  0.00     0.042 C 
HETATM    8  C14 UNL     1     -28.680 -13.692   0.763  1.00  0.00     0.178 C 
HETATM    9  C15 UNL     1     -29.350 -14.993   0.994  1.00  0.00     0.179 C 
HETATM   10  C16 UNL     1     -28.430 -16.173   1.074  1.00  0.00     0.169 C 
ENDROOT
BRANCH   4  11
HETATM   11  N1  UNL     1     -26.777 -16.065  -2.240  1.00  0.00    -0.287 N 
ATOM     12  H1  UNL     1     -25.802 -16.314  -2.074  1.00  0.00     0.175 HD
BRANCH  11  13
HETATM   13  S1  UNL     1     -27.555 -16.257  -3.754  1.00  0.00     0.260 S 
HETATM   14  O1  UNL     1     -26.522 -16.860  -4.697  1.00  0.00    -0.200 OA
HETATM   15  O2  UNL     1     -27.989 -14.976  -4.354  1.00  0.00    -0.200 OA
BRANCH  13  16
HETATM   16  C5  UNL     1     -28.879 -17.400  -3.692  1.00  0.00     0.079 A 
HETATM   17  C6  UNL     1     -29.579 -17.703  -4.823  1.00  0.00     0.026 A 
HETATM   18  C7  UNL     1     -30.621 -18.607  -4.759  1.00  0.00     0.008 A 
HETATM   19  C8  UNL     1     -30.986 -19.223  -3.579  1.00  0.00    -0.062 A 
HETATM   20  C9  UNL     1     -32.128 -20.202  -3.551  1.00  0.00     0.048 C 
HETATM   21  C10 UNL     1     -30.273 -18.912  -2.441  1.00  0.00     0.008 A 
HETATM   22  C11 UNL     1     -29.237 -18.012  -2.512  1.00  0.00     0.026 A 
ENDBRANCH  13  16
ENDBRANCH  11  13
ENDBRANCH   4  11
BRANCH  10  23
HETATM   23  O6  UNL     1     -29.220 -17.330   0.918  1.00  0.00    -0.391 OA
ATOM     24  H6  UNL     1     -29.163 -17.853   1.710  1.00  0.00     0.210 HD
ENDBRANCH  10  23
BRANCH   9  25
HETATM   25  O5  UNL     1     -29.993 -14.904   2.255  1.00  0.00    -0.390 OA
ATOM     26  H5  UNL     1     -30.805 -15.392   2.184  1.00  0.00     0.210 HD
ENDBRANCH   9  25
BRANCH   8  27
HETATM   27  O4  UNL     1     -29.491 -12.656   1.281  1.00  0.00    -0.390 OA
ATOM     28  H4  UNL     1     -28.958 -12.095   1.832  1.00  0.00     0.210 HD
ENDBRANCH   8  27
TORSDOF 6
ENDMDL
MODEL 4
REMARK VINA RESULT: -6.953394881      3.992      6.956
REMARK  6 active torsions:
REMARK  status: ('A' for Active; 'I' for Inactive)
REMARK    1  A    between atoms: C4_4  and  N1_5 
REMARK    2  A    between atoms: N1_5  and  S1_7 
REMARK    3  A    between atoms: S1_7  and  C5_10 
REMARK    4  A    between atoms: C14_20  and  O4_21 
REMARK    5  A    between atoms: C15_23  and  O5_24 
REMARK    6  A    between atoms: C16_26  and  O6_27 
ROOT
HETATM    1  C1  UNL     1     -26.205 -15.786  -0.496  1.00  0.00     0.012 C 
HETATM    2  C2  UNL     1     -26.230 -15.349  -1.620  1.00  0.00    -0.105 C 
HETATM    3  C3  UNL     1     -26.276 -14.827  -3.007  1.00  0.00     0.145 C 
HETATM    4  C4  UNL     1     -25.114 -13.917  -3.218  1.00  0.00     0.249 C 
HETATM    5  O3  UNL     1     -24.933 -13.179  -2.047  1.00  0.00    -0.357 OA
HETATM    6  C12 UNL     1     -25.619 -11.970  -2.073  1.00  0.00     0.151 C 
HETATM    7  C13 UNL     1     -25.198 -11.063  -3.182  1.00  0.00     0.042 C 
HETATM    8  C14 UNL     1     -27.088 -12.212  -1.990  1.00  0.00     0.178 C 
HETATM    9  C15 UNL     1     -27.714 -12.773  -3.210  1.00  0.00     0.179 C 
HETATM   10  C16 UNL     1     -27.598 -14.260  -3.354  1.00  0.00     0.169 C 
ENDROOT
BRANCH   4  11
HETATM   11  N1  UNL     1     -23.922 -14.729  -3.373  1.00  0.00    -0.287 N 
ATOM     12  H1  UNL     1     -23.587 -15.377  -2.660  1.00  0.00     0.175 HD
BRANCH  11  13
HETATM   13  S1  UNL     1     -23.135 -14.489  -4.875  1.00  0.00     0.260 S 
HETATM   14  O1  UNL     1     -24.209 -14.603  -5.948  1.00  0.00    -0.200 OA
HETATM   15  O2  UNL     1     -22.118 -15.523  -5.173  1.00  0.00    -0.200 OA
BRANCH  13  16
HETATM   16  C5  UNL     1     -22.459 -12.883  -5.034  1.00  0.00     0.079 A 
HETATM   17  C6  UNL     1     -22.614 -12.184  -6.195  1.00  0.00     0.026 A 
HETATM   18  C7  UNL     1     -22.076 -10.917  -6.306  1.00  0.00     0.008 A 
HETATM   19  C8  UNL     1     -21.378 -10.323  -5.274  1.00  0.00    -0.062 A 
HETATM   20  C9  UNL     1     -20.806  -8.941  -5.434  1.00  0.00     0.048 C 
HETATM   21  C10 UNL     1     -21.226 -11.036  -4.103  1.00  0.00     0.008 A 
HETATM   22  C11 UNL     1     -21.764 -12.297  -4.000  1.00  0.00     0.026 A 
ENDBRANCH  13  16
ENDBRANCH  11  13
ENDBRANCH   4  11
BRANCH  10  23
HETATM   23  O6  UNL     1     -27.893 -14.575  -4.696  1.00  0.00    -0.391 OA
ATOM     24  H6  UNL     1     -27.324 -14.070  -5.265  1.00  0.00     0.210 HD
ENDBRANCH  10  23
BRANCH   9  25
HETATM   25  O5  UNL     1     -29.101 -12.489  -3.127  1.00  0.00    -0.390 OA
ATOM     26  H5  UNL     1     -29.228 -11.624  -3.497  1.00  0.00     0.210 HD
ENDBRANCH   9  25
BRANCH   8  27
HETATM   27  O4  UNL     1     -27.734 -10.999  -1.656  1.00  0.00    -0.390 OA
ATOM     28  H4  UNL     1     -27.581 -10.369  -2.350  1.00  0.00     0.210 HD
ENDBRANCH   8  27
TORSDOF 6
ENDMDL
MODEL 5
REMARK VINA RESULT: -6.841784528      3.522      6.715
REMARK  6 active torsions:
REMARK  status: ('A' for Active; 'I' for Inactive)
REMARK    1  A    between atoms: C4_4  and  N1_5 
REMARK    2  A    between atoms: N1_5  and  S1_7 
REMARK    3  A    between atoms: S1_7  and  C5_10 
REMARK    4  A    between atoms: C14_20  and  O4_21 
REMARK    5  A    between atoms: C15_23  and  O5_24 
REMARK    6  A    between atoms: C16_26  and  O6_27 
ROOT
HETATM    1  C1  UNL     1     -25.676 -15.830   0.733  1.00  0.00     0.012 C 
HETATM    2  C2  UNL     1     -25.925 -15.800  -0.446  1.00  0.00    -0.105 C 
HETATM    3  C3  UNL     1     -26.230 -15.786  -1.898  1.00  0.00     0.145 C 
HETATM    4  C4  UNL     1     -26.173 -14.379  -2.388  1.00  0.00     0.249 C 
HETATM    5  O3  UNL     1     -26.731 -13.562  -1.403  1.00  0.00    -0.357 OA
HETATM    6  C12 UNL     1     -28.093 -13.356  -1.598  1.00  0.00     0.151 C 
HETATM    7  C13 UNL     1     -28.422 -12.693  -2.895  1.00  0.00     0.042 C 
HETATM    8  C14 UNL     1     -28.845 -14.615  -1.332  1.00  0.00     0.178 C 
HETATM    9  C15 UNL     1     -28.701 -15.675  -2.357  1.00  0.00     0.179 C 
HETATM   10  C16 UNL     1     -27.471 -16.522  -2.222  1.00  0.00     0.169 C 
ENDROOT
BRANCH   4  11
HETATM   11  N1  UNL     1     -24.780 -13.990  -2.494  1.00  0.00    -0.287 N 
ATOM     12  H1  UNL     1     -24.224 -13.666  -1.702  1.00  0.00     0.175 HD
BRANCH  11  13
HETATM   13  S1  UNL     1     -24.161 -14.131  -4.086  1.00  0.00     0.260 S 
HETATM   14  O1  UNL     1     -25.365 -14.289  -5.004  1.00  0.00    -0.200 OA
HETATM   15  O2  UNL     1     -23.313 -15.329  -4.279  1.00  0.00    -0.200 OA
BRANCH  13  16
HETATM   16  C5  UNL     1     -23.332 -12.684  -4.618  1.00  0.00     0.079 A 
HETATM   17  C6  UNL     1     -23.187 -11.624  -3.772  1.00  0.00     0.026 A 
HETATM   18  C7  UNL     1     -22.530 -10.490  -4.206  1.00  0.00     0.008 A 
HETATM   19  C8  UNL     1     -22.010 -10.385  -5.480  1.00  0.00    -0.062 A 
HETATM   20  C9  UNL     1     -21.302  -9.131  -5.916  1.00  0.00     0.048 C 
HETATM   21  C10 UNL     1     -22.162 -11.461  -6.330  1.00  0.00     0.008 A 
HETATM   22  C11 UNL     1     -22.816 -12.587  -5.891  1.00  0.00     0.026 A 
ENDBRANCH  13  16
ENDBRANCH  11  13
ENDBRANCH   4  11
BRANCH  10  23
HETATM   23  O6  UNL     1     -27.295 -17.201  -3.445  1.00  0.00    -0.391 OA
ATOM     24  H6  UNL     1     -26.567 -16.812  -3.914  1.00  0.00     0.210 HD
ENDBRANCH  10  23
BRANCH   9  25
HETATM   25  O5  UNL     1     -29.805 -16.550  -2.200  1.00  0.00    -0.390 OA
ATOM     26  H5  UNL     1     -29.603 -17.338  -2.691  1.00  0.00     0.210 HD
ENDBRANCH   9  25
BRANCH   8  27
HETATM   27  O4  UNL     1     -30.216 -14.305  -1.179  1.00  0.00    -0.390 OA
ATOM     28  H4  UNL     1     -30.427 -14.292  -0.253  1.00  0.00     0.210 HD
ENDBRANCH   8  27
TORSDOF 6
ENDMDL
