MODEL 1
REMARK VINA RESULT: -7.758861889      0.000      0.000
REMARK  7 active torsions:
REMARK  status: ('A' for Active; 'I' for Inactive)
REMARK    1  A    between atoms: C8_8  and  C9_9 
REMARK    2  A    between atoms: C9_9  and  C10_10 
REMARK    3  A    between atoms: C10_10  and  O1_11 
REMARK    4  A    between atoms: C13_15  and  O2_16 
REMARK    5  A    between atoms: C14_18  and  C15_19 
REMARK    6  A    between atoms: C16_20  and  O3_21 
REMARK    7  A    between atoms: C19_26  and  O5_27 
ROOT
HETATM    1  C1  UNL     1      22.281  15.309 -11.425  1.00  0.00     0.044 C 
HETATM    2  C2  UNL     1      23.449  16.135 -11.885  1.00  0.00    -0.069 C 
HETATM    3  C3  UNL     1      23.234  17.328 -12.401  1.00  0.00    -0.017 C 
HETATM    4  C4  UNL     1      24.369  18.131 -12.845  1.00  0.00     0.024 C 
HETATM    5  C5  UNL     1      24.074  19.295 -13.743  1.00  0.00     0.013 C 
HETATM    6  C6  UNL     1      25.310  20.215 -13.452  1.00  0.00     0.028 C 
HETATM    7  C7  UNL     1      26.376  19.384 -14.157  1.00  0.00    -0.023 C 
HETATM    8  C8  UNL     1      26.451  18.070 -14.066  1.00  0.00    -0.070 C 
HETATM    9  C11 UNL     1      25.498  17.230 -13.293  1.00  0.00     0.019 C 
HETATM   10  C12 UNL     1      24.880  16.364 -14.394  1.00  0.00     0.024 C 
HETATM   11  C13 UNL     1      25.893  16.568 -12.061  1.00  0.00     0.092 C 
HETATM   12  C14 UNL     1      27.095  15.867 -11.683  1.00  0.00     0.039 C 
HETATM   13  C20 UNL     1      26.640  14.864 -10.636  1.00  0.00     0.087 C 
HETATM   14  C21 UNL     1      25.198  15.230 -10.356  1.00  0.00     0.142 C 
HETATM   15  O6  UNL     1      24.668  15.228  -9.311  1.00  0.00    -0.297 OA
HETATM   16  C22 UNL     1      24.771  15.556 -11.765  1.00  0.00     0.072 C 
HETATM   17  C23 UNL     1      24.893  14.239 -12.446  1.00  0.00     0.031 C 
ENDROOT
BRANCH  12  18
HETATM   18  C15 UNL     1      28.233  16.626 -11.119  1.00  0.00     0.056 C 
HETATM   19  C16 UNL     1      28.603  16.543  -9.679  1.00  0.00     0.157 C 
HETATM   20  C17 UNL     1      29.985  17.167  -9.777  1.00  0.00     0.182 A 
HETATM   21  O4  UNL     1      31.191  16.708  -9.820  1.00  0.00    -0.370 OA
HETATM   22  C18 UNL     1      30.506  16.010 -10.688  1.00  0.00     0.182 A 
HETATM   23  C19 UNL     1      29.587  16.314 -11.785  1.00  0.00     0.157 C 
BRANCH  19  24
HETATM   24  O3  UNL     1      28.729  15.357  -9.062  1.00  0.00    -0.392 OA
ATOM     25  H3  UNL     1      28.051  14.695  -9.127  1.00  0.00     0.210 HD
ENDBRANCH  19  24
BRANCH  23  26
HETATM   26  O5  UNL     1      29.492  15.243 -12.664  1.00  0.00    -0.392 OA
ATOM     27  H5  UNL     1      30.248  14.670 -12.602  1.00  0.00     0.210 HD
ENDBRANCH  23  26
ENDBRANCH  12  18
BRANCH  11  28
HETATM   28  O2  UNL     1      25.799  17.546 -11.014  1.00  0.00    -0.387 OA
ATOM     29  H2  UNL     1      25.673  17.069 -10.202  1.00  0.00     0.210 HD
ENDBRANCH  11  28
BRANCH   8  30
HETATM   30  C9  UNL     1      27.555  17.373 -14.831  1.00  0.00     0.060 C 
BRANCH  30  31
HETATM   31  C10 UNL     1      27.643  17.695 -16.267  1.00  0.00     0.168 C 
BRANCH  31  32
HETATM   32  O1  UNL     1      28.501  18.701 -16.640  1.00  0.00    -0.401 OA
ATOM     33  H1  UNL     1      28.798  18.712 -17.542  1.00  0.00     0.209 HD
ENDBRANCH  31  32
ENDBRANCH  30  31
ENDBRANCH   8  30
TORSDOF 7
ENDMDL
MODEL 2
REMARK VINA RESULT: -7.025081805      1.496      1.959
REMARK  7 active torsions:
REMARK  status: ('A' for Active; 'I' for Inactive)
REMARK    1  A    between atoms: C8_8  and  C9_9 
REMARK    2  A    between atoms: C9_9  and  C10_10 
REMARK    3  A    between atoms: C10_10  and  O1_11 
REMARK    4  A    between atoms: C13_15  and  O2_16 
REMARK    5  A    between atoms: C14_18  and  C15_19 
REMARK    6  A    between atoms: C16_20  and  O3_21 
REMARK    7  A    between atoms: C19_26  and  O5_27 
ROOT
HETATM    1  C1  UNL     1      22.008  18.336 -12.324  1.00  0.00     0.044 C 
HETATM    2  C2  UNL     1      23.377  18.273 -12.942  1.00  0.00    -0.069 C 
HETATM    3  C3  UNL     1      23.657  19.046 -13.971  1.00  0.00    -0.017 C 
HETATM    4  C4  UNL     1      24.987  18.988 -14.569  1.00  0.00     0.024 C 
HETATM    5  C5  UNL     1      25.153  19.591 -15.932  1.00  0.00     0.013 C 
HETATM    6  C6  UNL     1      26.684  19.928 -15.924  1.00  0.00     0.028 C 
HETATM    7  C7  UNL     1      27.224  18.504 -16.012  1.00  0.00    -0.023 C 
HETATM    8  C8  UNL     1      26.731  17.496 -15.320  1.00  0.00    -0.070 C 
HETATM    9  C11 UNL     1      25.574  17.605 -14.391  1.00  0.00     0.019 C 
HETATM   10  C12 UNL     1      24.556  16.671 -15.048  1.00  0.00     0.024 C 
HETATM   11  C13 UNL     1      25.744  17.507 -12.951  1.00  0.00     0.092 C 
HETATM   12  C14 UNL     1      26.550  16.640 -12.129  1.00  0.00     0.039 C 
HETATM   13  C20 UNL     1      25.794  16.545 -10.814  1.00  0.00     0.087 C 
HETATM   14  C21 UNL     1      24.681  17.562 -10.939  1.00  0.00     0.142 C 
HETATM   15  O6  UNL     1      24.289  18.274 -10.096  1.00  0.00    -0.297 OA
HETATM   16  C22 UNL     1      24.323  17.329 -12.385  1.00  0.00     0.072 C 
HETATM   17  C23 UNL     1      23.808  15.934 -12.363  1.00  0.00     0.031 C 
ENDROOT
BRANCH  12  18
HETATM   18  C15 UNL     1      27.947  17.021 -11.821  1.00  0.00     0.056 C 
HETATM   19  C16 UNL     1      28.412  17.262 -10.427  1.00  0.00     0.157 C 
HETATM   20  C17 UNL     1      29.908  17.220 -10.691  1.00  0.00     0.182 A 
HETATM   21  O4  UNL     1      30.835  16.333 -10.543  1.00  0.00    -0.370 OA
HETATM   22  C18 UNL     1      29.844  15.727 -11.145  1.00  0.00     0.182 A 
HETATM   23  C19 UNL     1      28.997  16.004 -12.306  1.00  0.00     0.157 C 
BRANCH  19  24
HETATM   24  O3  UNL     1      28.142  16.388  -9.444  1.00  0.00    -0.392 OA
ATOM     25  H3  UNL     1      28.744  16.262  -8.720  1.00  0.00     0.210 HD
ENDBRANCH  19  24
BRANCH  23  26
HETATM   26  O5  UNL     1      28.404  14.839 -12.776  1.00  0.00    -0.392 OA
ATOM     27  H5  UNL     1      27.667  15.025 -13.346  1.00  0.00     0.210 HD
ENDBRANCH  23  26
ENDBRANCH  12  18
BRANCH  11  28
HETATM   28  O2  UNL     1      26.168  18.801 -12.493  1.00  0.00    -0.387 OA
ATOM     29  H2  UNL     1      25.624  19.441 -12.937  1.00  0.00     0.210 HD
ENDBRANCH  11  28
BRANCH   8  30
HETATM   30  C9  UNL     1      27.359  16.133 -15.518  1.00  0.00     0.060 C 
BRANCH  30  31
HETATM   31  C10 UNL     1      28.737  16.131 -16.042  1.00  0.00     0.168 C 
BRANCH  31  32
HETATM   32  O1  UNL     1      29.529  15.051 -15.737  1.00  0.00    -0.401 OA
ATOM     33  H1  UNL     1      30.370  14.987 -16.174  1.00  0.00     0.209 HD
ENDBRANCH  31  32
ENDBRANCH  30  31
ENDBRANCH   8  30
TORSDOF 7
ENDMDL
MODEL 3
REMARK VINA RESULT: -6.722604296      2.012      5.256
REMARK  7 active torsions:
REMARK  status: ('A' for Active; 'I' for Inactive)
REMARK    1  A    between atoms: C8_8  and  C9_9 
REMARK    2  A    between atoms: C9_9  and  C10_10 
REMARK    3  A    between atoms: C10_10  and  O1_11 
REMARK    4  A    between atoms: C13_15  and  O2_16 
REMARK    5  A    between atoms: C14_18  and  C15_19 
REMARK    6  A    between atoms: C16_20  and  O3_21 
REMARK    7  A    between atoms: C19_26  and  O5_27 
ROOT
HETATM    1  C1  UNL     1      23.114  20.241 -13.815  1.00  0.00     0.044 C 
HETATM    2  C2  UNL     1      23.915  19.029 -13.429  1.00  0.00    -0.069 C 
HETATM    3  C3  UNL     1      23.447  18.212 -12.507  1.00  0.00    -0.017 C 
HETATM    4  C4  UNL     1      24.223  17.033 -12.135  1.00  0.00     0.024 C 
HETATM    5  C5  UNL     1      23.850  16.344 -10.857  1.00  0.00     0.013 C 
HETATM    6  C6  UNL     1      24.375  14.893 -11.137  1.00  0.00     0.028 C 
HETATM    7  C7  UNL     1      25.871  15.179 -11.055  1.00  0.00    -0.023 C 
HETATM    8  C8  UNL     1      26.438  16.240 -11.594  1.00  0.00    -0.070 C 
HETATM    9  C11 UNL     1      25.699  17.304 -12.325  1.00  0.00     0.019 C 
HETATM   10  C12 UNL     1      25.976  18.532 -11.454  1.00  0.00     0.024 C 
HETATM   11  C13 UNL     1      25.818  17.462 -13.765  1.00  0.00     0.092 C 
HETATM   12  C14 UNL     1      26.949  17.388 -14.655  1.00  0.00     0.039 C 
HETATM   13  C20 UNL     1      26.580  18.294 -15.819  1.00  0.00     0.087 C 
HETATM   14  C21 UNL     1      25.133  18.662 -15.573  1.00  0.00     0.142 C 
HETATM   15  O6  UNL     1      24.290  18.757 -16.381  1.00  0.00    -0.297 OA
HETATM   16  C22 UNL     1      25.195  18.835 -14.076  1.00  0.00     0.072 C 
HETATM   17  C23 UNL     1      26.104  20.003 -13.930  1.00  0.00     0.031 C 
ENDROOT
BRANCH  12  18
HETATM   18  C15 UNL     1      27.354  16.078 -15.211  1.00  0.00     0.056 C 
HETATM   19  C16 UNL     1      27.178  15.741 -16.651  1.00  0.00     0.157 C 
HETATM   20  C17 UNL     1      28.080  14.520 -16.696  1.00  0.00     0.182 A 
HETATM   21  O4  UNL     1      29.291  14.295 -17.086  1.00  0.00    -0.370 OA
HETATM   22  C18 UNL     1      29.342  15.367 -16.339  1.00  0.00     0.182 A 
HETATM   23  C19 UNL     1      28.845  15.747 -15.016  1.00  0.00     0.157 C 
BRANCH  19  24
HETATM   24  O3  UNL     1      27.578  16.586 -17.616  1.00  0.00    -0.392 OA
ATOM     25  H3  UNL     1      28.399  17.059 -17.544  1.00  0.00     0.210 HD
ENDBRANCH  19  24
BRANCH  23  26
HETATM   26  O5  UNL     1      29.551  16.833 -14.515  1.00  0.00    -0.392 OA
ATOM     27  H5  UNL     1      30.396  16.930 -14.940  1.00  0.00     0.210 HD
ENDBRANCH  23  26
ENDBRANCH  12  18
BRANCH  11  28
HETATM   28  O2  UNL     1      24.929  16.505 -14.362  1.00  0.00    -0.387 OA
ATOM     29  H2  UNL     1      24.831  15.794 -13.740  1.00  0.00     0.210 HD
ENDBRANCH  11  28
BRANCH   8  30
HETATM   30  C9  UNL     1      27.933  16.403 -11.422  1.00  0.00     0.060 C 
BRANCH  30  31
HETATM   31  C10 UNL     1      28.455  16.145 -10.068  1.00  0.00     0.168 C 
BRANCH  31  32
HETATM   32  O1  UNL     1      28.085  17.013  -9.070  1.00  0.00    -0.401 OA
ATOM     33  H1  UNL     1      28.383  16.820  -8.189  1.00  0.00     0.209 HD
ENDBRANCH  31  32
ENDBRANCH  30  31
ENDBRANCH   8  30
TORSDOF 7
ENDMDL
MODEL 4
REMARK VINA RESULT: -6.707205299      2.244      5.125
REMARK  7 active torsions:
REMARK  status: ('A' for Active; 'I' for Inactive)
REMARK    1  A    between atoms: C8_8  and  C9_9 
REMARK    2  A    between atoms: C9_9  and  C10_10 
REMARK    3  A    between atoms: C10_10  and  O1_11 
REMARK    4  A    between atoms: C13_15  and  O2_16 
REMARK    5  A    between atoms: C14_18  and  C15_19 
REMARK    6  A    between atoms: C16_20  and  O3_21 
REMARK    7  A    between atoms: C19_26  and  O5_27 
ROOT
HETATM    1  C1  UNL     1      24.229  20.167 -18.106  1.00  0.00     0.044 C 
HETATM    2  C2  UNL     1      24.274  19.452 -16.785  1.00  0.00    -0.069 C 
HETATM    3  C3  UNL     1      23.147  19.086 -16.209  1.00  0.00    -0.017 C 
HETATM    4  C4  UNL     1      23.191  18.389 -14.928  1.00  0.00     0.024 C 
HETATM    5  C5  UNL     1      21.916  18.318 -14.142  1.00  0.00     0.013 C 
HETATM    6  C6  UNL     1      22.169  17.034 -13.280  1.00  0.00     0.028 C 
HETATM    7  C7  UNL     1      23.226  17.603 -12.339  1.00  0.00    -0.023 C 
HETATM    8  C8  UNL     1      24.215  18.376 -12.742  1.00  0.00    -0.070 C 
HETATM    9  C11 UNL     1      24.415  18.814 -14.148  1.00  0.00     0.019 C 
HETATM   10  C12 UNL     1      24.279  20.334 -14.025  1.00  0.00     0.024 C 
HETATM   11  C13 UNL     1      25.510  18.302 -14.957  1.00  0.00     0.092 C 
HETATM   12  C14 UNL     1      26.894  18.039 -14.654  1.00  0.00     0.039 C 
HETATM   13  C20 UNL     1      27.615  18.208 -15.981  1.00  0.00     0.087 C 
HETATM   14  C21 UNL     1      26.508  18.367 -17.001  1.00  0.00     0.142 C 
HETATM   15  O6  UNL     1      26.484  17.912 -18.080  1.00  0.00    -0.297 OA
HETATM   16  C22 UNL     1      25.574  19.226 -16.187  1.00  0.00     0.072 C 
HETATM   17  C23 UNL     1      26.360  20.476 -16.015  1.00  0.00     0.031 C 
ENDROOT
BRANCH  12  18
HETATM   18  C15 UNL     1      27.279  16.724 -14.094  1.00  0.00     0.056 C 
HETATM   19  C16 UNL     1      28.224  15.812 -14.796  1.00  0.00     0.157 C 
HETATM   20  C17 UNL     1      28.523  14.879 -13.634  1.00  0.00     0.182 A 
HETATM   21  O4  UNL     1      29.489  14.762 -12.785  1.00  0.00    -0.370 OA
HETATM   22  C18 UNL     1      29.171  16.031 -12.802  1.00  0.00     0.182 A 
HETATM   23  C19 UNL     1      27.931  16.802 -12.701  1.00  0.00     0.157 C 
BRANCH  19  24
HETATM   24  O3  UNL     1      29.395  16.261 -15.276  1.00  0.00    -0.392 OA
ATOM     25  H3  UNL     1      30.219  15.876 -15.001  1.00  0.00     0.210 HD
ENDBRANCH  19  24
BRANCH  23  26
HETATM   26  O5  UNL     1      28.193  18.114 -12.329  1.00  0.00    -0.392 OA
ATOM     27  H5  UNL     1      29.126  18.291 -12.294  1.00  0.00     0.210 HD
ENDBRANCH  23  26
ENDBRANCH  12  18
BRANCH  11  28
HETATM   28  O2  UNL     1      25.088  17.028 -15.468  1.00  0.00    -0.387 OA
ATOM     29  H2  UNL     1      25.469  16.365 -14.904  1.00  0.00     0.210 HD
ENDBRANCH  11  28
BRANCH   8  30
HETATM   30  C9  UNL     1      25.185  18.881 -11.694  1.00  0.00     0.060 C 
BRANCH  30  31
HETATM   31  C10 UNL     1      25.165  18.167 -10.404  1.00  0.00     0.168 C 
BRANCH  31  32
HETATM   32  O1  UNL     1      26.370  17.753  -9.891  1.00  0.00    -0.401 OA
ATOM     33  H1  UNL     1      27.157  18.011 -10.358  1.00  0.00     0.209 HD
ENDBRANCH  31  32
ENDBRANCH  30  31
ENDBRANCH   8  30
TORSDOF 7
ENDMDL
MODEL 5
REMARK VINA RESULT: -6.631777273      2.142      6.414
REMARK  7 active torsions:
REMARK  status: ('A' for Active; 'I' for Inactive)
REMARK    1  A    between atoms: C8_8  and  C9_9 
REMARK    2  A    between atoms: C9_9  and  C10_10 
REMARK    3  A    between atoms: C10_10  and  O1_11 
REMARK    4  A    between atoms: C13_15  and  O2_16 
REMARK    5  A    between atoms: C14_18  and  C15_19 
REMARK    6  A    between atoms: C16_20  and  O3_21 
REMARK    7  A    between atoms: C19_26  and  O5_27 
ROOT
HETATM    1  C1  UNL     1      29.040  15.248 -17.274  1.00  0.00     0.044 C 
HETATM    2  C2  UNL     1      28.504  15.697 -15.944  1.00  0.00    -0.069 C 
HETATM    3  C3  UNL     1      29.289  15.666 -14.887  1.00  0.00    -0.017 C 
HETATM    4  C4  UNL     1      28.770  16.106 -13.596  1.00  0.00     0.024 C 
HETATM    5  C5  UNL     1      29.550  15.719 -12.375  1.00  0.00     0.013 C 
HETATM    6  C6  UNL     1      29.116  16.846 -11.376  1.00  0.00     0.028 C 
HETATM    7  C7  UNL     1      27.681  16.387 -11.134  1.00  0.00    -0.023 C 
HETATM    8  C8  UNL     1      26.883  15.966 -12.096  1.00  0.00    -0.070 C 
HETATM    9  C11 UNL     1      27.280  15.855 -13.524  1.00  0.00     0.019 C 
HETATM   10  C12 UNL     1      27.135  14.352 -13.774  1.00  0.00     0.024 C 
HETATM   11  C13 UNL     1      26.749  16.757 -14.533  1.00  0.00     0.092 C 
HETATM   12  C14 UNL     1      25.429  17.289 -14.756  1.00  0.00     0.039 C 
HETATM   13  C20 UNL     1      25.367  17.546 -16.253  1.00  0.00     0.087 C 
HETATM   14  C21 UNL     1      26.780  17.314 -16.740  1.00  0.00     0.142 C 
HETATM   15  O6  UNL     1      27.351  17.939 -17.550  1.00  0.00    -0.297 OA
HETATM   16  C22 UNL     1      27.120  16.119 -15.885  1.00  0.00     0.072 C 
HETATM   17  C23 UNL     1      26.176  15.087 -16.391  1.00  0.00     0.031 C 
ENDROOT
BRANCH  12  18
HETATM   18  C15 UNL     1      25.018  18.532 -14.066  1.00  0.00     0.056 C 
HETATM   19  C16 UNL     1      24.783  19.805 -14.802  1.00  0.00     0.157 C 
HETATM   20  C17 UNL     1      24.048  20.554 -13.703  1.00  0.00     0.182 A 
HETATM   21  O4  UNL     1      22.808  20.807 -13.445  1.00  0.00    -0.370 OA
HETATM   22  C18 UNL     1      22.870  19.528 -13.713  1.00  0.00     0.182 A 
HETATM   23  C19 UNL     1      23.701  18.406 -13.276  1.00  0.00     0.157 C 
BRANCH  19  24
HETATM   24  O3  UNL     1      24.020  19.838 -15.906  1.00  0.00    -0.392 OA
ATOM     25  H3  UNL     1      23.883  19.058 -16.432  1.00  0.00     0.210 HD
ENDBRANCH  19  24
BRANCH  23  26
HETATM   26  O5  UNL     1      23.068  17.195 -13.523  1.00  0.00    -0.392 OA
ATOM     27  H5  UNL     1      22.126  17.298 -13.594  1.00  0.00     0.210 HD
ENDBRANCH  23  26
ENDBRANCH  12  18
BRANCH  11  28
HETATM   28  O2  UNL     1      27.528  17.962 -14.464  1.00  0.00    -0.387 OA
ATOM     29  H2  UNL     1      26.914  18.681 -14.367  1.00  0.00     0.210 HD
ENDBRANCH  11  28
BRANCH   8  30
HETATM   30  C9  UNL     1      25.487  15.528 -11.708  1.00  0.00     0.060 C 
BRANCH  30  31
HETATM   31  C10 UNL     1      25.396  14.623 -10.548  1.00  0.00     0.168 C 
BRANCH  31  32
HETATM   32  O1  UNL     1      24.731  15.082  -9.437  1.00  0.00    -0.401 OA
ATOM     33  H1  UNL     1      23.855  14.749  -9.282  1.00  0.00     0.209 HD
ENDBRANCH  31  32
ENDBRANCH  30  31
ENDBRANCH   8  30
TORSDOF 7
ENDMDL
