MODEL 1
REMARK VINA RESULT: -7.233402379      0.000      0.000
REMARK  7 active torsions:
REMARK  status: ('A' for Active; 'I' for Inactive)
REMARK    1  A    between atoms: C2_2  and  N1_4 
REMARK    2  A    between atoms: N1_4  and  C4_6 
REMARK    3  A    between atoms: C5_9  and  O1_10 
REMARK    4  A    between atoms: C6_12  and  C7_13 
REMARK    5  A    between atoms: C7_13  and  C8_14 
REMARK    6  A    between atoms: C11_20  and  C12_21 
REMARK    7  A    between atoms: C12_21  and  O3_24 
ROOT
HETATM    1  C8  UNL     1     -26.011 -13.823  -3.176  1.00  0.00     0.112 A 
HETATM    2  N3  UNL     1     -25.093 -13.543  -2.237  1.00  0.00    -0.309 N 
ATOM      3  H3  UNL     1     -25.395 -13.348  -1.283  1.00  0.00     0.170 HD
HETATM    4  C9  UNL     1     -23.787 -13.516  -2.532  1.00  0.00     0.262 A 
HETATM    5  O2  UNL     1     -23.009 -13.240  -1.563  1.00  0.00    -0.267 OA
HETATM    6  C10 UNL     1     -23.290 -13.772  -3.819  1.00  0.00     0.099 A 
HETATM    7  C11 UNL     1     -22.006 -13.720  -3.996  1.00  0.00     0.032 C 
HETATM    8  C15 UNL     1     -24.265 -14.052  -4.743  1.00  0.00     0.262 A 
HETATM    9  O4  UNL     1     -23.965 -14.296  -5.917  1.00  0.00    -0.267 OA
HETATM   10  N4  UNL     1     -25.595 -14.075  -4.418  1.00  0.00    -0.309 N 
ATOM     11  H4  UNL     1     -26.283 -14.289  -5.141  1.00  0.00     0.170 HD
ENDROOT
BRANCH   1  12
HETATM   12  C7  UNL     1     -27.294 -13.839  -2.839  1.00  0.00     0.072 C 
BRANCH  12  13
HETATM   13  C6  UNL     1     -28.042 -15.103  -2.671  1.00  0.00     0.062 A 
HETATM   14  C5  UNL     1     -29.080 -15.362  -1.813  1.00  0.00     0.159 A 
HETATM   15  N2  UNL     1     -29.598 -16.554  -1.829  1.00  0.00    -0.316 N 
HETATM   16  C4  UNL     1     -29.101 -17.462  -2.670  1.00  0.00     0.147 A 
ATOM     17  H2  UNL     1     -30.371 -16.791  -1.207  1.00  0.00     0.170 HD
HETATM   18  S1  UNL     1     -27.859 -16.602  -3.467  1.00  0.00    -0.050 SA
BRANCH  14  19
HETATM   19  O1  UNL     1     -29.543 -14.325  -0.949  1.00  0.00    -0.345 OA
ATOM     20  H1  UNL     1     -28.958 -13.730  -0.495  1.00  0.00     0.219 HD
ENDBRANCH  14  19
BRANCH  16  21
HETATM   21  N1  UNL     1     -29.485 -18.709  -2.833  1.00  0.00    -0.366 N 
ATOM     22  H1  UNL     1     -29.129 -19.406  -2.179  1.00  0.00     0.162 HD
BRANCH  21  23
HETATM   23  C2  UNL     1     -30.362 -19.150  -3.861  1.00  0.00     0.075 C 
HETATM   24  C1  UNL     1     -30.492 -18.209  -5.029  1.00  0.00     0.032 C 
HETATM   25  C3  UNL     1     -31.732 -19.574  -3.368  1.00  0.00     0.032 C 
ENDBRANCH  21  23
ENDBRANCH  16  21
ENDBRANCH  12  13
ENDBRANCH   1  12
BRANCH   7  26
HETATM   26  C12 UNL     1     -21.194 -13.936  -5.201  1.00  0.00     0.069 C 
HETATM   27  C13 UNL     1     -19.697 -13.980  -4.811  1.00  0.00     0.050 C 
HETATM   28  C14 UNL     1     -21.316 -12.894  -6.260  1.00  0.00     0.050 C 
BRANCH  26  29
HETATM   29  O3  UNL     1     -21.428 -15.201  -5.730  1.00  0.00    -0.387 OA
ATOM     30  H3  UNL     1     -20.608 -15.632  -5.944  1.00  0.00     0.211 HD
ENDBRANCH  26  29
ENDBRANCH   7  26
TORSDOF 7
ENDMDL
MODEL 2
REMARK VINA RESULT: -7.032787206      1.660      2.324
REMARK  7 active torsions:
REMARK  status: ('A' for Active; 'I' for Inactive)
REMARK    1  A    between atoms: C2_2  and  N1_4 
REMARK    2  A    between atoms: N1_4  and  C4_6 
REMARK    3  A    between atoms: C5_9  and  O1_10 
REMARK    4  A    between atoms: C6_12  and  C7_13 
REMARK    5  A    between atoms: C7_13  and  C8_14 
REMARK    6  A    between atoms: C11_20  and  C12_21 
REMARK    7  A    between atoms: C12_21  and  O3_24 
ROOT
HETATM    1  C8  UNL     1     -25.710 -13.906  -2.747  1.00  0.00     0.112 A 
HETATM    2  N3  UNL     1     -25.285 -14.772  -3.682  1.00  0.00    -0.309 N 
ATOM      3  H3  UNL     1     -25.695 -15.705  -3.723  1.00  0.00     0.170 HD
HETATM    4  C9  UNL     1     -24.333 -14.431  -4.560  1.00  0.00     0.262 A 
HETATM    5  O2  UNL     1     -24.012 -15.333  -5.400  1.00  0.00    -0.267 OA
HETATM    6  C10 UNL     1     -23.719 -13.170  -4.569  1.00  0.00     0.099 A 
HETATM    7  C11 UNL     1     -22.807 -12.945  -5.464  1.00  0.00     0.032 C 
HETATM    8  C15 UNL     1     -24.185 -12.321  -3.597  1.00  0.00     0.262 A 
HETATM    9  O4  UNL     1     -23.728 -11.177  -3.493  1.00  0.00    -0.267 OA
HETATM   10  N4  UNL     1     -25.160 -12.690  -2.709  1.00  0.00    -0.309 N 
ATOM     11  H4  UNL     1     -25.474 -12.023  -2.005  1.00  0.00     0.170 HD
ENDROOT
BRANCH   1  12
HETATM   12  C7  UNL     1     -26.654 -14.285  -1.897  1.00  0.00     0.072 C 
BRANCH  12  13
HETATM   13  C6  UNL     1     -27.626 -15.347  -2.233  1.00  0.00     0.062 A 
HETATM   14  C5  UNL     1     -28.407 -15.455  -3.356  1.00  0.00     0.159 A 
HETATM   15  N2  UNL     1     -29.200 -16.481  -3.448  1.00  0.00    -0.316 N 
HETATM   16  C4  UNL     1     -29.219 -17.373  -2.457  1.00  0.00     0.147 A 
ATOM     17  H2  UNL     1     -29.798 -16.600  -4.265  1.00  0.00     0.170 HD
HETATM   18  S1  UNL     1     -28.076 -16.741  -1.355  1.00  0.00    -0.050 SA
BRANCH  14  19
HETATM   19  O1  UNL     1     -28.316 -14.449  -4.363  1.00  0.00    -0.345 OA
ATOM     20  H1  UNL     1     -28.000 -13.570  -4.190  1.00  0.00     0.219 HD
ENDBRANCH  14  19
BRANCH  16  21
HETATM   21  N1  UNL     1     -29.945 -18.465  -2.365  1.00  0.00    -0.366 N 
ATOM     22  H1  UNL     1     -30.169 -18.811  -1.432  1.00  0.00     0.162 HD
BRANCH  21  23
HETATM   23  C2  UNL     1     -30.439 -19.196  -3.480  1.00  0.00     0.075 C 
HETATM   24  C1  UNL     1     -30.317 -18.489  -4.804  1.00  0.00     0.032 C 
HETATM   25  C3  UNL     1     -31.844 -19.735  -3.296  1.00  0.00     0.032 C 
ENDBRANCH  21  23
ENDBRANCH  16  21
ENDBRANCH  12  13
ENDBRANCH   1  12
BRANCH   7  26
HETATM   26  C12 UNL     1     -21.997 -11.748  -5.727  1.00  0.00     0.069 C 
HETATM   27  C13 UNL     1     -21.220 -11.936  -7.053  1.00  0.00     0.050 C 
HETATM   28  C14 UNL     1     -20.978 -11.414  -4.693  1.00  0.00     0.050 C 
BRANCH  26  29
HETATM   29  O3  UNL     1     -22.813 -10.650  -5.984  1.00  0.00    -0.387 OA
ATOM     30  H3  UNL     1     -22.732 -10.377  -6.890  1.00  0.00     0.211 HD
ENDBRANCH  26  29
ENDBRANCH   7  26
TORSDOF 7
ENDMDL
MODEL 3
REMARK VINA RESULT: -7.021033787      2.431      4.011
REMARK  7 active torsions:
REMARK  status: ('A' for Active; 'I' for Inactive)
REMARK    1  A    between atoms: C2_2  and  N1_4 
REMARK    2  A    between atoms: N1_4  and  C4_6 
REMARK    3  A    between atoms: C5_9  and  O1_10 
REMARK    4  A    between atoms: C6_12  and  C7_13 
REMARK    5  A    between atoms: C7_13  and  C8_14 
REMARK    6  A    between atoms: C11_20  and  C12_21 
REMARK    7  A    between atoms: C12_21  and  O3_24 
ROOT
HETATM    1  C8  UNL     1     -25.871 -15.059  -3.324  1.00  0.00     0.112 A 
HETATM    2  N3  UNL     1     -25.158 -14.394  -2.401  1.00  0.00    -0.309 N 
ATOM      3  H3  UNL     1     -25.558 -14.236  -1.476  1.00  0.00     0.170 HD
HETATM    4  C9  UNL     1     -23.930 -13.933  -2.674  1.00  0.00     0.262 A 
HETATM    5  O2  UNL     1     -23.350 -13.318  -1.722  1.00  0.00    -0.267 OA
HETATM    6  C10 UNL     1     -23.309 -14.107  -3.920  1.00  0.00     0.099 A 
HETATM    7  C11 UNL     1     -22.117 -13.619  -4.077  1.00  0.00     0.032 C 
HETATM    8  C15 UNL     1     -24.075 -14.791  -4.829  1.00  0.00     0.262 A 
HETATM    9  O4  UNL     1     -23.648 -15.014  -5.968  1.00  0.00    -0.267 OA
HETATM   10  N4  UNL     1     -25.329 -15.254  -4.528  1.00  0.00    -0.309 N 
ATOM     11  H4  UNL     1     -25.859 -15.759  -5.238  1.00  0.00     0.170 HD
ENDROOT
BRANCH   1  12
HETATM   12  C7  UNL     1     -27.082 -15.498  -3.011  1.00  0.00     0.072 C 
BRANCH  12  13
HETATM   13  C6  UNL     1     -28.076 -14.635  -2.340  1.00  0.00     0.062 A 
HETATM   14  C5  UNL     1     -29.255 -15.008  -1.745  1.00  0.00     0.159 A 
HETATM   15  N2  UNL     1     -29.986 -14.076  -1.209  1.00  0.00    -0.316 N 
HETATM   16  C4  UNL     1     -29.562 -12.813  -1.261  1.00  0.00     0.147 A 
ATOM     17  H2  UNL     1     -30.870 -14.309  -0.756  1.00  0.00     0.170 HD
HETATM   18  S1  UNL     1     -28.078 -12.944  -2.097  1.00  0.00    -0.050 SA
BRANCH  14  19
HETATM   19  O1  UNL     1     -29.624 -16.386  -1.739  1.00  0.00    -0.345 OA
ATOM     20  H1  UNL     1     -30.015 -16.820  -2.488  1.00  0.00     0.219 HD
ENDBRANCH  14  19
BRANCH  16  21
HETATM   21  N1  UNL     1     -30.153 -11.741  -0.782  1.00  0.00    -0.366 N 
ATOM     22  H1  UNL     1     -30.999 -11.414  -1.250  1.00  0.00     0.162 HD
BRANCH  21  23
HETATM   23  C2  UNL     1     -29.692 -11.006   0.344  1.00  0.00     0.075 C 
HETATM   24  C1  UNL     1     -28.785  -9.850   0.016  1.00  0.00     0.032 C 
HETATM   25  C3  UNL     1     -29.084 -11.862   1.438  1.00  0.00     0.032 C 
ENDBRANCH  21  23
ENDBRANCH  16  21
ENDBRANCH  12  13
ENDBRANCH   1  12
BRANCH   7  26
HETATM   26  C12 UNL     1     -21.220 -13.638  -5.240  1.00  0.00     0.069 C 
HETATM   27  C13 UNL     1     -19.815 -13.147  -4.813  1.00  0.00     0.050 C 
HETATM   28  C14 UNL     1     -21.627 -12.778  -6.387  1.00  0.00     0.050 C 
BRANCH  26  29
HETATM   29  O3  UNL     1     -20.992 -14.943  -5.664  1.00  0.00    -0.387 OA
ATOM     30  H3  UNL     1     -20.913 -14.980  -6.610  1.00  0.00     0.211 HD
ENDBRANCH  26  29
ENDBRANCH   7  26
TORSDOF 7
ENDMDL
MODEL 4
REMARK VINA RESULT: -6.996866257      1.790      2.482
REMARK  7 active torsions:
REMARK  status: ('A' for Active; 'I' for Inactive)
REMARK    1  A    between atoms: C2_2  and  N1_4 
REMARK    2  A    between atoms: N1_4  and  C4_6 
REMARK    3  A    between atoms: C5_9  and  O1_10 
REMARK    4  A    between atoms: C6_12  and  C7_13 
REMARK    5  A    between atoms: C7_13  and  C8_14 
REMARK    6  A    between atoms: C11_20  and  C12_21 
REMARK    7  A    between atoms: C12_21  and  O3_24 
ROOT
HETATM    1  C8  UNL     1     -25.935 -13.753  -2.635  1.00  0.00     0.112 A 
HETATM    2  N3  UNL     1     -25.503 -14.666  -3.520  1.00  0.00    -0.309 N 
ATOM      3  H3  UNL     1     -25.928 -15.593  -3.532  1.00  0.00     0.170 HD
HETATM    4  C9  UNL     1     -24.524 -14.379  -4.389  1.00  0.00     0.262 A 
HETATM    5  O2  UNL     1     -24.198 -15.322  -5.180  1.00  0.00    -0.267 OA
HETATM    6  C10 UNL     1     -23.888 -13.130  -4.437  1.00  0.00     0.099 A 
HETATM    7  C11 UNL     1     -22.951 -12.959  -5.318  1.00  0.00     0.032 C 
HETATM    8  C15 UNL     1     -24.363 -12.231  -3.514  1.00  0.00     0.262 A 
HETATM    9  O4  UNL     1     -23.890 -11.091  -3.449  1.00  0.00    -0.267 OA
HETATM   10  N4  UNL     1     -25.366 -12.546  -2.636  1.00  0.00    -0.309 N 
ATOM     11  H4  UNL     1     -25.685 -11.843  -1.970  1.00  0.00     0.170 HD
ENDROOT
BRANCH   1  12
HETATM   12  C7  UNL     1     -26.907 -14.079  -1.794  1.00  0.00     0.072 C 
BRANCH  12  13
HETATM   13  C6  UNL     1     -27.509 -15.429  -1.781  1.00  0.00     0.062 A 
HETATM   14  C5  UNL     1     -27.143 -16.511  -1.020  1.00  0.00     0.159 A 
HETATM   15  N2  UNL     1     -27.815 -17.613  -1.169  1.00  0.00    -0.316 N 
HETATM   16  C4  UNL     1     -28.818 -17.644  -2.047  1.00  0.00     0.147 A 
ATOM     17  H2  UNL     1     -27.577 -18.442  -0.624  1.00  0.00     0.170 HD
HETATM   18  S1  UNL     1     -28.814 -16.059  -2.684  1.00  0.00    -0.050 SA
BRANCH  14  19
HETATM   19  O1  UNL     1     -26.054 -16.381  -0.107  1.00  0.00    -0.345 OA
ATOM     20  H1  UNL     1     -26.145 -16.516   0.829  1.00  0.00     0.219 HD
ENDBRANCH  14  19
BRANCH  16  21
HETATM   21  N1  UNL     1     -29.608 -18.654  -2.338  1.00  0.00    -0.366 N 
ATOM     22  H1  UNL     1     -29.561 -19.482  -1.744  1.00  0.00     0.162 HD
BRANCH  21  23
HETATM   23  C2  UNL     1     -30.522 -18.670  -3.426  1.00  0.00     0.075 C 
HETATM   24  C1  UNL     1     -31.620 -19.694  -3.315  1.00  0.00     0.032 C 
HETATM   25  C3  UNL     1     -29.864 -18.747  -4.790  1.00  0.00     0.032 C 
ENDBRANCH  21  23
ENDBRANCH  16  21
ENDBRANCH  12  13
ENDBRANCH   1  12
BRANCH   7  26
HETATM   26  C12 UNL     1     -22.115 -11.788  -5.612  1.00  0.00     0.069 C 
HETATM   27  C13 UNL     1     -21.312 -12.044  -6.911  1.00  0.00     0.050 C 
HETATM   28  C14 UNL     1     -21.112 -11.427  -4.570  1.00  0.00     0.050 C 
BRANCH  26  29
HETATM   29  O3  UNL     1     -22.905 -10.688  -5.932  1.00  0.00    -0.387 OA
ATOM     30  H3  UNL     1     -23.825 -10.889  -5.809  1.00  0.00     0.211 HD
ENDBRANCH  26  29
ENDBRANCH   7  26
TORSDOF 7
ENDMDL
MODEL 5
REMARK VINA RESULT: -6.875464350      2.541      3.055
REMARK  7 active torsions:
REMARK  status: ('A' for Active; 'I' for Inactive)
REMARK    1  A    between atoms: C2_2  and  N1_4 
REMARK    2  A    between atoms: N1_4  and  C4_6 
REMARK    3  A    between atoms: C5_9  and  O1_10 
REMARK    4  A    between atoms: C6_12  and  C7_13 
REMARK    5  A    between atoms: C7_13  and  C8_14 
REMARK    6  A    between atoms: C11_20  and  C12_21 
REMARK    7  A    between atoms: C12_21  and  O3_24 
ROOT
HETATM    1  C8  UNL     1     -24.478 -12.821  -2.778  1.00  0.00     0.112 A 
HETATM    2  N3  UNL     1     -23.383 -13.564  -3.007  1.00  0.00    -0.309 N 
ATOM      3  H3  UNL     1     -23.352 -14.526  -2.672  1.00  0.00     0.170 HD
HETATM    4  C9  UNL     1     -22.332 -13.061  -3.667  1.00  0.00     0.262 A 
HETATM    5  O2  UNL     1     -21.351 -13.857  -3.825  1.00  0.00    -0.267 OA
HETATM    6  C10 UNL     1     -22.296 -11.748  -4.159  1.00  0.00     0.099 A 
HETATM    7  C11 UNL     1     -21.226 -11.363  -4.784  1.00  0.00     0.032 C 
HETATM    8  C15 UNL     1     -23.436 -11.029  -3.900  1.00  0.00     0.262 A 
HETATM    9  O4  UNL     1     -23.536  -9.856  -4.279  1.00  0.00    -0.267 OA
HETATM   10  N4  UNL     1     -24.499 -11.563  -3.224  1.00  0.00    -0.309 N 
ATOM     11  H4  UNL     1     -25.325 -10.989  -3.057  1.00  0.00     0.170 HD
ENDROOT
BRANCH   1  12
HETATM   12  C7  UNL     1     -25.496 -13.358  -2.120  1.00  0.00     0.072 C 
BRANCH  12  13
HETATM   13  C6  UNL     1     -26.592 -14.064  -2.817  1.00  0.00     0.062 A 
HETATM   14  C5  UNL     1     -27.609 -13.521  -3.561  1.00  0.00     0.159 A 
HETATM   15  N2  UNL     1     -28.475 -14.332  -4.091  1.00  0.00    -0.316 N 
HETATM   16  C4  UNL     1     -28.336 -15.644  -3.890  1.00  0.00     0.147 A 
ATOM     17  H2  UNL     1     -29.247 -13.972  -4.651  1.00  0.00     0.170 HD
HETATM   18  S1  UNL     1     -26.935 -15.734  -2.918  1.00  0.00    -0.050 SA
BRANCH  14  19
HETATM   19  O1  UNL     1     -27.673 -12.104  -3.719  1.00  0.00    -0.345 OA
ATOM     20  H1  UNL     1     -27.355 -11.655  -4.494  1.00  0.00     0.219 HD
ENDBRANCH  14  19
BRANCH  16  21
HETATM   21  N1  UNL     1     -29.101 -16.616  -4.338  1.00  0.00    -0.366 N 
ATOM     22  H1  UNL     1     -29.651 -16.440  -5.178  1.00  0.00     0.162 HD
BRANCH  21  23
HETATM   23  C2  UNL     1     -29.212 -17.895  -3.728  1.00  0.00     0.075 C 
HETATM   24  C1  UNL     1     -30.113 -18.863  -4.448  1.00  0.00     0.032 C 
HETATM   25  C3  UNL     1     -29.555 -17.851  -2.252  1.00  0.00     0.032 C 
ENDBRANCH  21  23
ENDBRANCH  16  21
ENDBRANCH  12  13
ENDBRANCH   1  12
BRANCH   7  26
HETATM   26  C12 UNL     1     -20.890 -10.074  -5.405  1.00  0.00     0.069 C 
HETATM   27  C13 UNL     1     -19.585 -10.224  -6.224  1.00  0.00     0.050 C 
HETATM   28  C14 UNL     1     -20.661  -8.941  -4.464  1.00  0.00     0.050 C 
BRANCH  26  29
HETATM   29  O3  UNL     1     -21.837  -9.730  -6.365  1.00  0.00    -0.387 OA
ATOM     30  H3  UNL     1     -22.032  -8.801  -6.325  1.00  0.00     0.211 HD
ENDBRANCH  26  29
ENDBRANCH   7  26
TORSDOF 7
ENDMDL
