MODEL 1
REMARK VINA RESULT: -8.460248358      0.000      0.000
REMARK  11 active torsions:
REMARK  status: ('A' for Active; 'I' for Inactive)
REMARK    1  A    between atoms: N2_5  and  C4_6 
REMARK    2  A    between atoms: C4_6  and  C5_7 
REMARK    3  A    between atoms: C7_9  and  N3_10 
REMARK    4  A    between atoms: N3_10  and  C8_12 
REMARK    5  A    between atoms: C8_12  and  O1_13 
REMARK    6  A    between atoms: C8_12  and  C9_15 
REMARK    7  A    between atoms: C9_15  and  C10_16 
REMARK    8  A    between atoms: C10_16  and  C11_17 
REMARK    9  A    between atoms: C11_17  and  N4_18 
REMARK   10  A    between atoms: C18_27  and  N5_28 
REMARK   11  A    between atoms: C21_31  and  N6_32 
ROOT
HETATM    1  C5  UNL     1     -11.397  24.220  54.218  1.00  0.00    -0.025 A 
HETATM    2  C6  UNL     1     -12.613  24.908  54.403  1.00  0.00     0.039 A 
HETATM    3  C7  UNL     1     -12.945  26.014  53.684  1.00  0.00     0.036 A 
HETATM    4  C17 UNL     1     -12.016  26.464  52.722  1.00  0.00     0.058 A 
HETATM    5  C18 UNL     1     -10.820  25.825  52.509  1.00  0.00     0.033 A 
HETATM    6  C23 UNL     1     -10.550  24.711  53.274  1.00  0.00     0.039 A 
ENDROOT
BRANCH   3   7
HETATM    7  N3  UNL     1     -14.143  26.756  53.872  1.00  0.00    -0.337 N 
ATOM      8  H3  UNL     1     -14.901  26.554  53.219  1.00  0.00     0.168 HD
BRANCH   7   9
HETATM    9  C8  UNL     1     -14.412  27.721  54.834  1.00  0.00     0.140 C 
BRANCH   9  10
HETATM   10  O1  UNL     1     -15.061  28.755  54.372  1.00  0.00    -0.346 OA
ATOM     11  H1  UNL     1     -15.255  29.410  55.033  1.00  0.00     0.219 HD
ENDBRANCH   9  10
BRANCH   9  12
HETATM   12  C9  UNL     1     -14.107  27.786  56.227  1.00  0.00     0.053 C 
BRANCH  12  13
HETATM   13  C10 UNL     1     -14.029  26.958  57.196  1.00  0.00     0.007 C 
BRANCH  13  14
HETATM   14  C11 UNL     1     -14.724  25.716  57.418  1.00  0.00     0.300 C 
BRANCH  14  15
HETATM   15  N4  UNL     1     -14.805  25.415  58.864  1.00  0.00     0.092 N 
HETATM   16  C12 UNL     1     -15.555  24.178  58.982  1.00  0.00     0.278 C 
HETATM   17  C13 UNL     1     -16.304  24.118  60.299  1.00  0.00     0.109 C 
HETATM   18  C14 UNL     1     -17.355  25.203  60.387  1.00  0.00     0.246 C 
HETATM   19  F1  UNL     1     -18.628  24.696  60.265  1.00  0.00    -0.206 F 
HETATM   20  F2  UNL     1     -17.221  25.814  61.617  1.00  0.00    -0.206 F 
HETATM   21  C15 UNL     1     -17.058  26.259  59.344  1.00  0.00     0.109 C 
HETATM   22  C16 UNL     1     -15.557  26.534  59.417  1.00  0.00     0.278 C 
ENDBRANCH  14  15
ENDBRANCH  13  14
ENDBRANCH  12  13
ENDBRANCH   9  12
ENDBRANCH   7   9
ENDBRANCH   3   7
BRANCH   1  23
HETATM   23  C4  UNL     1     -11.172  23.030  55.058  1.00  0.00     0.063 C 
HETATM   24  C24 UNL     1      -9.704  23.141  55.498  1.00  0.00     0.036 C 
HETATM   25  C25 UNL     1      -9.515  24.497  56.117  1.00  0.00     0.003 C 
HETATM   26  C26 UNL     1     -10.486  24.742  57.234  1.00  0.00     0.000 C 
HETATM   27  C27 UNL     1     -11.458  23.654  57.490  1.00  0.00     0.003 C 
HETATM   28  C28 UNL     1     -12.008  22.958  56.274  1.00  0.00     0.036 C 
BRANCH  23  29
HETATM   29  N2  UNL     1     -11.321  21.853  54.273  1.00  0.00    -0.356 N 
HETATM   30  C3  UNL     1     -11.765  20.692  54.919  1.00  0.00     0.094 C 
HETATM   31  C2  UNL     1     -12.997  20.116  54.297  1.00  0.00     0.317 C 
HETATM   32  N1  UNL     1     -12.963  20.120  52.844  1.00  0.00     0.093 N 
HETATM   33  C1  UNL     1     -14.313  19.763  52.411  1.00  0.00     0.310 C 
HETATM   34  C30 UNL     1     -12.718  21.462  52.361  1.00  0.00     0.317 C 
HETATM   35  C29 UNL     1     -11.379  21.968  52.890  1.00  0.00     0.094 C 
ENDBRANCH  23  29
ENDBRANCH   1  23
BRANCH   5  36
HETATM   36  N5  UNL     1      -9.917  26.315  51.528  1.00  0.00    -0.379 N 
HETATM   37  C19 UNL     1      -9.547  27.699  51.312  1.00  0.00     0.125 C 
HETATM   38  C20 UNL     1      -9.548  27.807  49.782  1.00  0.00     0.054 C 
HETATM   39  C21 UNL     1      -9.269  26.411  49.299  1.00  0.00     0.202 C 
HETATM   40  C22 UNL     1      -9.168  25.564  50.544  1.00  0.00     0.155 C 
BRANCH  39  41
HETATM   41  N6  UNL     1      -8.008  26.369  48.548  1.00  0.00    -0.073 N 
ATOM     42  H63 UNL     1      -7.555  25.458  48.616  1.00  0.00     0.274 HD
ATOM     43  H62 UNL     1      -8.166  26.386  47.541  1.00  0.00     0.274 HD
ATOM     44  H61 UNL     1      -7.390  27.123  48.848  1.00  0.00     0.274 HD
ENDBRANCH  39  41
ENDBRANCH   5  36
TORSDOF 11
ENDMDL
MODEL 2
REMARK VINA RESULT: -8.128490296      1.304      3.031
REMARK  11 active torsions:
REMARK  status: ('A' for Active; 'I' for Inactive)
REMARK    1  A    between atoms: N2_5  and  C4_6 
REMARK    2  A    between atoms: C4_6  and  C5_7 
REMARK    3  A    between atoms: C7_9  and  N3_10 
REMARK    4  A    between atoms: N3_10  and  C8_12 
REMARK    5  A    between atoms: C8_12  and  O1_13 
REMARK    6  A    between atoms: C8_12  and  C9_15 
REMARK    7  A    between atoms: C9_15  and  C10_16 
REMARK    8  A    between atoms: C10_16  and  C11_17 
REMARK    9  A    between atoms: C11_17  and  N4_18 
REMARK   10  A    between atoms: C18_27  and  N5_28 
REMARK   11  A    between atoms: C21_31  and  N6_32 
ROOT
HETATM    1  C5  UNL     1     -11.599  24.142  54.473  1.00  0.00    -0.025 A 
HETATM    2  C6  UNL     1     -12.761  24.937  54.516  1.00  0.00     0.039 A 
HETATM    3  C7  UNL     1     -12.942  26.017  53.707  1.00  0.00     0.036 A 
HETATM    4  C17 UNL     1     -11.906  26.325  52.800  1.00  0.00     0.058 A 
HETATM    5  C18 UNL     1     -10.757  25.578  52.724  1.00  0.00     0.033 A 
HETATM    6  C23 UNL     1     -10.643  24.500  53.574  1.00  0.00     0.039 A 
ENDROOT
BRANCH   3   7
HETATM    7  N3  UNL     1     -14.082  26.864  53.753  1.00  0.00    -0.337 N 
ATOM      8  H3  UNL     1     -14.731  26.781  52.969  1.00  0.00     0.168 HD
BRANCH   7   9
HETATM    9  C8  UNL     1     -14.424  27.791  54.729  1.00  0.00     0.140 C 
BRANCH   9  10
HETATM   10  O1  UNL     1     -15.184  28.757  54.291  1.00  0.00    -0.346 OA
ATOM     11  H1  UNL     1     -16.090  28.686  54.569  1.00  0.00     0.219 HD
ENDBRANCH   9  10
BRANCH   9  12
HETATM   12  C9  UNL     1     -14.094  27.877  56.114  1.00  0.00     0.053 C 
BRANCH  12  13
HETATM   13  C10 UNL     1     -14.214  27.128  57.142  1.00  0.00     0.007 C 
BRANCH  13  14
HETATM   14  C11 UNL     1     -14.979  25.922  57.331  1.00  0.00     0.300 C 
BRANCH  14  15
HETATM   15  N4  UNL     1     -14.984  25.526  58.757  1.00  0.00     0.092 N 
HETATM   16  C12 UNL     1     -15.750  24.296  58.835  1.00  0.00     0.278 C 
HETATM   17  C13 UNL     1     -16.425  24.159  60.186  1.00  0.00     0.109 C 
HETATM   18  C14 UNL     1     -17.447  25.252  60.406  1.00  0.00     0.246 C 
HETATM   19  F1  UNL     1     -18.736  24.775  60.325  1.00  0.00    -0.206 F 
HETATM   20  F2  UNL     1     -17.233  25.777  61.665  1.00  0.00    -0.206 F 
HETATM   21  C15 UNL     1     -17.190  26.372  59.420  1.00  0.00     0.109 C 
HETATM   22  C16 UNL     1     -15.681  26.617  59.425  1.00  0.00     0.278 C 
ENDBRANCH  14  15
ENDBRANCH  13  14
ENDBRANCH  12  13
ENDBRANCH   9  12
ENDBRANCH   7   9
ENDBRANCH   3   7
BRANCH   1  23
HETATM   23  C4  UNL     1     -11.542  22.996  55.398  1.00  0.00     0.063 C 
HETATM   24  C24 UNL     1     -12.870  22.256  55.177  1.00  0.00     0.036 C 
HETATM   25  C25 UNL     1     -12.998  21.980  53.705  1.00  0.00     0.003 C 
HETATM   26  C26 UNL     1     -11.811  21.233  53.171  1.00  0.00     0.000 C 
HETATM   27  C27 UNL     1     -10.736  20.951  54.150  1.00  0.00     0.003 C 
HETATM   28  C28 UNL     1     -10.441  22.044  55.142  1.00  0.00     0.036 C 
BRANCH  23  29
HETATM   29  N2  UNL     1     -11.502  23.464  56.740  1.00  0.00    -0.356 N 
HETATM   30  C3  UNL     1     -12.504  23.022  57.613  1.00  0.00     0.094 C 
HETATM   31  C2  UNL     1     -11.958  22.355  58.835  1.00  0.00     0.317 C 
HETATM   32  N1  UNL     1     -10.812  23.045  59.403  1.00  0.00     0.093 N 
HETATM   33  C1  UNL     1     -10.264  22.145  60.417  1.00  0.00     0.310 C 
HETATM   34  C30 UNL     1      -9.784  23.204  58.397  1.00  0.00     0.317 C 
HETATM   35  C29 UNL     1     -10.325  24.020  57.226  1.00  0.00     0.094 C 
ENDBRANCH  23  29
ENDBRANCH   1  23
BRANCH   5  36
HETATM   36  N5  UNL     1      -9.742  25.928  51.793  1.00  0.00    -0.379 N 
HETATM   37  C19 UNL     1      -8.643  26.844  52.020  1.00  0.00     0.125 C 
HETATM   38  C20 UNL     1      -8.590  27.631  50.704  1.00  0.00     0.054 C 
HETATM   39  C21 UNL     1      -9.171  26.698  49.677  1.00  0.00     0.202 C 
HETATM   40  C22 UNL     1      -9.569  25.456  50.437  1.00  0.00     0.155 C 
BRANCH  39  41
HETATM   41  N6  UNL     1      -8.169  26.373  48.654  1.00  0.00    -0.073 N 
ATOM     42  H63 UNL     1      -7.743  27.212  48.260  1.00  0.00     0.274 HD
ATOM     43  H62 UNL     1      -7.333  25.955  49.061  1.00  0.00     0.274 HD
ATOM     44  H61 UNL     1      -8.578  25.781  47.931  1.00  0.00     0.274 HD
ENDBRANCH  39  41
ENDBRANCH   5  36
TORSDOF 11
ENDMDL
MODEL 3
REMARK VINA RESULT: -7.813155695      1.280      3.146
REMARK  11 active torsions:
REMARK  status: ('A' for Active; 'I' for Inactive)
REMARK    1  A    between atoms: N2_5  and  C4_6 
REMARK    2  A    between atoms: C4_6  and  C5_7 
REMARK    3  A    between atoms: C7_9  and  N3_10 
REMARK    4  A    between atoms: N3_10  and  C8_12 
REMARK    5  A    between atoms: C8_12  and  O1_13 
REMARK    6  A    between atoms: C8_12  and  C9_15 
REMARK    7  A    between atoms: C9_15  and  C10_16 
REMARK    8  A    between atoms: C10_16  and  C11_17 
REMARK    9  A    between atoms: C11_17  and  N4_18 
REMARK   10  A    between atoms: C18_27  and  N5_28 
REMARK   11  A    between atoms: C21_31  and  N6_32 
ROOT
HETATM    1  C5  UNL     1     -11.567  24.537  53.934  1.00  0.00    -0.025 A 
HETATM    2  C6  UNL     1     -12.366  25.516  54.556  1.00  0.00     0.039 A 
HETATM    3  C7  UNL     1     -12.351  26.824  54.177  1.00  0.00     0.036 A 
HETATM    4  C17 UNL     1     -11.491  27.180  53.116  1.00  0.00     0.058 A 
HETATM    5  C18 UNL     1     -10.696  26.258  52.482  1.00  0.00     0.033 A 
HETATM    6  C23 UNL     1     -10.764  24.953  52.919  1.00  0.00     0.039 A 
ENDROOT
BRANCH   3   7
HETATM    7  N3  UNL     1     -13.112  27.844  54.809  1.00  0.00    -0.337 N 
ATOM      8  H3  UNL     1     -12.591  28.669  55.109  1.00  0.00     0.168 HD
BRANCH   7   9
HETATM    9  C8  UNL     1     -14.476  27.861  55.070  1.00  0.00     0.140 C 
BRANCH   9  10
HETATM   10  O1  UNL     1     -15.152  28.646  54.275  1.00  0.00    -0.346 OA
ATOM     11  H1  UNL     1     -16.092  28.607  54.410  1.00  0.00     0.219 HD
ENDBRANCH   9  10
BRANCH   9  12
HETATM   12  C9  UNL     1     -15.266  27.179  56.043  1.00  0.00     0.053 C 
BRANCH  12  13
HETATM   13  C10 UNL     1     -15.047  26.520  57.115  1.00  0.00     0.007 C 
BRANCH  13  14
HETATM   14  C11 UNL     1     -14.457  26.938  58.361  1.00  0.00     0.300 C 
BRANCH  14  15
HETATM   15  N4  UNL     1     -14.726  25.945  59.424  1.00  0.00     0.092 N 
HETATM   16  C12 UNL     1     -15.592  24.941  58.833  1.00  0.00     0.278 C 
HETATM   17  C13 UNL     1     -16.487  24.308  59.880  1.00  0.00     0.109 C 
HETATM   18  C14 UNL     1     -17.440  25.320  60.478  1.00  0.00     0.246 C 
HETATM   19  F1  UNL     1     -18.732  25.127  60.044  1.00  0.00    -0.206 F 
HETATM   20  F2  UNL     1     -17.392  25.180  61.850  1.00  0.00    -0.206 F 
HETATM   21  C15 UNL     1     -16.935  26.713  60.166  1.00  0.00     0.109 C 
HETATM   22  C16 UNL     1     -15.433  26.704  60.447  1.00  0.00     0.278 C 
ENDBRANCH  14  15
ENDBRANCH  13  14
ENDBRANCH  12  13
ENDBRANCH   9  12
ENDBRANCH   7   9
ENDBRANCH   3   7
BRANCH   1  23
HETATM   23  C4  UNL     1     -11.693  23.157  54.438  1.00  0.00     0.063 C 
HETATM   24  C24 UNL     1     -13.206  22.890  54.456  1.00  0.00     0.036 C 
HETATM   25  C25 UNL     1     -13.739  23.201  53.086  1.00  0.00     0.003 C 
HETATM   26  C26 UNL     1     -13.018  22.434  52.017  1.00  0.00     0.000 C 
HETATM   27  C27 UNL     1     -11.910  21.568  52.485  1.00  0.00     0.003 C 
HETATM   28  C28 UNL     1     -11.057  22.125  53.593  1.00  0.00     0.036 C 
BRANCH  23  29
HETATM   29  N2  UNL     1     -11.205  23.087  55.772  1.00  0.00    -0.356 N 
HETATM   30  C3  UNL     1      -9.915  23.573  56.020  1.00  0.00     0.094 C 
HETATM   31  C2  UNL     1      -9.886  24.632  57.076  1.00  0.00     0.317 C 
HETATM   32  N1  UNL     1     -10.733  24.327  58.217  1.00  0.00     0.093 N 
HETATM   33  C1  UNL     1     -10.779  25.549  59.020  1.00  0.00     0.310 C 
HETATM   34  C30 UNL     1     -12.087  24.077  57.773  1.00  0.00     0.317 C 
HETATM   35  C29 UNL     1     -12.107  22.893  56.810  1.00  0.00     0.094 C 
ENDBRANCH  23  29
ENDBRANCH   1  23
BRANCH   5  36
HETATM   36  N5  UNL     1      -9.847  26.665  51.417  1.00  0.00    -0.379 N 
HETATM   37  C19 UNL     1      -9.637  28.020  50.952  1.00  0.00     0.125 C 
HETATM   38  C20 UNL     1      -9.639  27.851  49.427  1.00  0.00     0.054 C 
HETATM   39  C21 UNL     1      -9.198  26.432  49.199  1.00  0.00     0.202 C 
HETATM   40  C22 UNL     1      -9.009  25.840  50.575  1.00  0.00     0.155 C 
BRANCH  39  41
HETATM   41  N6  UNL     1      -7.934  26.401  48.451  1.00  0.00    -0.073 N 
ATOM     42  H63 UNL     1      -8.073  26.614  47.464  1.00  0.00     0.274 HD
ATOM     43  H62 UNL     1      -7.331  27.187  48.693  1.00  0.00     0.274 HD
ATOM     44  H61 UNL     1      -7.464  25.505  48.584  1.00  0.00     0.274 HD
ENDBRANCH  39  41
ENDBRANCH   5  36
TORSDOF 11
ENDMDL
MODEL 4
REMARK VINA RESULT: -7.810931424      3.801      7.383
REMARK  11 active torsions:
REMARK  status: ('A' for Active; 'I' for Inactive)
REMARK    1  A    between atoms: N2_5  and  C4_6 
REMARK    2  A    between atoms: C4_6  and  C5_7 
REMARK    3  A    between atoms: C7_9  and  N3_10 
REMARK    4  A    between atoms: N3_10  and  C8_12 
REMARK    5  A    between atoms: C8_12  and  O1_13 
REMARK    6  A    between atoms: C8_12  and  C9_15 
REMARK    7  A    between atoms: C9_15  and  C10_16 
REMARK    8  A    between atoms: C10_16  and  C11_17 
REMARK    9  A    between atoms: C11_17  and  N4_18 
REMARK   10  A    between atoms: C18_27  and  N5_28 
REMARK   11  A    between atoms: C21_31  and  N6_32 
ROOT
HETATM    1  C5  UNL     1      -9.230  26.195  51.537  1.00  0.00    -0.025 A 
HETATM    2  C6  UNL     1      -9.713  24.923  51.171  1.00  0.00     0.039 A 
HETATM    3  C7  UNL     1     -10.832  24.377  51.722  1.00  0.00     0.036 A 
HETATM    4  C17 UNL     1     -11.512  25.141  52.694  1.00  0.00     0.058 A 
HETATM    5  C18 UNL     1     -11.077  26.384  53.080  1.00  0.00     0.033 A 
HETATM    6  C23 UNL     1      -9.937  26.872  52.480  1.00  0.00     0.039 A 
ENDROOT
BRANCH   3   7
HETATM    7  N3  UNL     1     -11.323  23.081  51.407  1.00  0.00    -0.337 N 
ATOM      8  H3  UNL     1     -10.661  22.313  51.518  1.00  0.00     0.168 HD
BRANCH   7   9
HETATM    9  C8  UNL     1     -12.593  22.729  50.966  1.00  0.00     0.140 C 
BRANCH   9  10
HETATM   10  O1  UNL     1     -12.835  23.078  49.732  1.00  0.00    -0.346 OA
ATOM     11  H1  UNL     1     -13.629  22.697  49.377  1.00  0.00     0.219 HD
ENDBRANCH   9  10
BRANCH   9  12
HETATM   12  C9  UNL     1     -13.672  22.060  51.616  1.00  0.00     0.053 C 
BRANCH  12  13
HETATM   13  C10 UNL     1     -13.840  21.419  52.708  1.00  0.00     0.007 C 
BRANCH  13  14
HETATM   14  C11 UNL     1     -12.993  20.453  53.360  1.00  0.00     0.300 C 
BRANCH  14  15
HETATM   15  N4  UNL     1     -12.786  20.817  54.779  1.00  0.00     0.092 N 
HETATM   16  C12 UNL     1     -12.962  22.256  54.860  1.00  0.00     0.278 C 
HETATM   17  C13 UNL     1     -12.133  22.844  55.986  1.00  0.00     0.109 C 
HETATM   18  C14 UNL     1     -10.652  22.660  55.736  1.00  0.00     0.246 C 
HETATM   19  F1  UNL     1     -10.038  23.845  55.399  1.00  0.00    -0.206 F 
HETATM   20  F2  UNL     1     -10.091  22.169  56.897  1.00  0.00    -0.206 F 
HETATM   21  C15 UNL     1     -10.461  21.596  54.677  1.00  0.00     0.109 C 
HETATM   22  C16 UNL     1     -11.401  20.447  55.041  1.00  0.00     0.278 C 
ENDBRANCH  14  15
ENDBRANCH  13  14
ENDBRANCH  12  13
ENDBRANCH   9  12
ENDBRANCH   7   9
ENDBRANCH   3   7
BRANCH   1  23
HETATM   23  C4  UNL     1      -8.014  26.667  50.851  1.00  0.00     0.063 C 
HETATM   24  C24 UNL     1      -8.360  26.590  49.356  1.00  0.00     0.036 C 
HETATM   25  C25 UNL     1      -9.639  27.350  49.145  1.00  0.00     0.003 C 
HETATM   26  C26 UNL     1      -9.545  28.757  49.657  1.00  0.00     0.000 C 
HETATM   27  C27 UNL     1      -8.261  29.121  50.301  1.00  0.00     0.003 C 
HETATM   28  C28 UNL     1      -7.627  28.060  51.158  1.00  0.00     0.036 C 
BRANCH  23  29
HETATM   29  N2  UNL     1      -6.938  25.775  51.113  1.00  0.00    -0.356 N 
HETATM   30  C3  UNL     1      -6.377  25.094  50.025  1.00  0.00     0.094 C 
HETATM   31  C2  UNL     1      -4.905  25.320  49.894  1.00  0.00     0.317 C 
HETATM   32  N1  UNL     1      -4.202  25.274  51.165  1.00  0.00     0.093 N 
HETATM   33  C1  UNL     1      -2.846  25.750  50.891  1.00  0.00     0.310 C 
HETATM   34  C30 UNL     1      -4.790  26.220  52.088  1.00  0.00     0.317 C 
HETATM   35  C29 UNL     1      -6.258  25.875  52.321  1.00  0.00     0.094 C 
ENDBRANCH  23  29
ENDBRANCH   1  23
BRANCH   5  36
HETATM   36  N5  UNL     1     -11.797  27.116  54.063  1.00  0.00    -0.379 N 
HETATM   37  C19 UNL     1     -13.207  27.444  54.031  1.00  0.00     0.125 C 
HETATM   38  C20 UNL     1     -13.219  28.899  54.521  1.00  0.00     0.054 C 
HETATM   39  C21 UNL     1     -11.985  29.027  55.370  1.00  0.00     0.202 C 
HETATM   40  C22 UNL     1     -11.303  27.682  55.299  1.00  0.00     0.155 C 
BRANCH  39  41
HETATM   41  N6  UNL     1     -12.348  29.343  56.758  1.00  0.00    -0.073 N 
ATOM     42  H63 UNL     1     -11.544  29.288  57.382  1.00  0.00     0.274 HD
ATOM     43  H62 UNL     1     -12.565  30.332  56.877  1.00  0.00     0.274 HD
ATOM     44  H61 UNL     1     -13.113  28.746  57.071  1.00  0.00     0.274 HD
ENDBRANCH  39  41
ENDBRANCH   5  36
TORSDOF 11
ENDMDL
MODEL 5
REMARK VINA RESULT: -7.757544948      1.896      4.670
REMARK  11 active torsions:
REMARK  status: ('A' for Active; 'I' for Inactive)
REMARK    1  A    between atoms: N2_5  and  C4_6 
REMARK    2  A    between atoms: C4_6  and  C5_7 
REMARK    3  A    between atoms: C7_9  and  N3_10 
REMARK    4  A    between atoms: N3_10  and  C8_12 
REMARK    5  A    between atoms: C8_12  and  O1_13 
REMARK    6  A    between atoms: C8_12  and  C9_15 
REMARK    7  A    between atoms: C9_15  and  C10_16 
REMARK    8  A    between atoms: C10_16  and  C11_17 
REMARK    9  A    between atoms: C11_17  and  N4_18 
REMARK   10  A    between atoms: C18_27  and  N5_28 
REMARK   11  A    between atoms: C21_31  and  N6_32 
ROOT
HETATM    1  C5  UNL     1     -11.062  24.788  55.189  1.00  0.00    -0.025 A 
HETATM    2  C6  UNL     1     -11.887  25.912  54.984  1.00  0.00     0.039 A 
HETATM    3  C7  UNL     1     -12.958  25.891  54.145  1.00  0.00     0.036 A 
HETATM    4  C17 UNL     1     -13.227  24.682  53.468  1.00  0.00     0.058 A 
HETATM    5  C18 UNL     1     -12.450  23.563  53.638  1.00  0.00     0.033 A 
HETATM    6  C23 UNL     1     -11.381  23.658  54.503  1.00  0.00     0.039 A 
ENDROOT
BRANCH   3   7
HETATM    7  N3  UNL     1     -13.786  27.016  53.884  1.00  0.00    -0.337 N 
ATOM      8  H3  UNL     1     -13.711  27.418  52.949  1.00  0.00     0.168 HD
BRANCH   7   9
HETATM    9  C8  UNL     1     -14.685  27.637  54.741  1.00  0.00     0.140 C 
BRANCH   9  10
HETATM   10  O1  UNL     1     -15.110  28.793  54.308  1.00  0.00    -0.346 OA
ATOM     11  H1  UNL     1     -14.418  29.431  54.182  1.00  0.00     0.219 HD
ENDBRANCH   9  10
BRANCH   9  12
HETATM   12  C9  UNL     1     -15.223  27.243  56.003  1.00  0.00     0.053 C 
BRANCH  12  13
HETATM   13  C10 UNL     1     -14.815  26.579  57.015  1.00  0.00     0.007 C 
BRANCH  13  14
HETATM   14  C11 UNL     1     -14.480  27.021  58.344  1.00  0.00     0.300 C 
BRANCH  14  15
HETATM   15  N4  UNL     1     -14.689  25.931  59.324  1.00  0.00     0.092 N 
HETATM   16  C12 UNL     1     -15.587  24.982  58.691  1.00  0.00     0.278 C 
HETATM   17  C13 UNL     1     -16.422  24.249  59.723  1.00  0.00     0.109 C 
HETATM   18  C14 UNL     1     -17.339  25.197  60.464  1.00  0.00     0.246 C 
HETATM   19  F1  UNL     1     -18.654  25.038  60.088  1.00  0.00    -0.206 F 
HETATM   20  F2  UNL     1     -17.215  24.929  61.813  1.00  0.00    -0.206 F 
HETATM   21  C15 UNL     1     -16.853  26.615  60.256  1.00  0.00     0.109 C 
HETATM   22  C16 UNL     1     -15.337  26.588  60.451  1.00  0.00     0.278 C 
ENDBRANCH  14  15
ENDBRANCH  13  14
ENDBRANCH  12  13
ENDBRANCH   9  12
ENDBRANCH   7   9
ENDBRANCH   3   7
BRANCH   1  23
HETATM   23  C4  UNL     1      -9.943  24.948  56.135  1.00  0.00     0.063 C 
HETATM   24  C24 UNL     1     -10.593  25.503  57.411  1.00  0.00     0.036 C 
HETATM   25  C25 UNL     1     -11.719  24.581  57.786  1.00  0.00     0.003 C 
HETATM   26  C26 UNL     1     -11.255  23.161  57.930  1.00  0.00     0.000 C 
HETATM   27  C27 UNL     1      -9.822  22.922  57.641  1.00  0.00     0.003 C 
HETATM   28  C28 UNL     1      -9.242  23.695  56.487  1.00  0.00     0.036 C 
BRANCH  23  29
HETATM   29  N2  UNL     1      -9.027  25.915  55.636  1.00  0.00    -0.356 N 
HETATM   30  C3  UNL     1      -8.483  25.701  54.364  1.00  0.00     0.094 C 
HETATM   31  C2  UNL     1      -8.725  26.843  53.429  1.00  0.00     0.317 C 
HETATM   32  N1  UNL     1      -8.526  28.143  54.047  1.00  0.00     0.093 N 
HETATM   33  C1  UNL     1      -9.033  29.125  53.089  1.00  0.00     0.310 C 
HETATM   34  C30 UNL     1      -9.353  28.258  55.229  1.00  0.00     0.317 C 
HETATM   35  C29 UNL     1      -8.980  27.169  56.232  1.00  0.00     0.094 C 
ENDBRANCH  23  29
ENDBRANCH   1  23
BRANCH   5  36
HETATM   36  N5  UNL     1     -12.761  22.368  52.935  1.00  0.00    -0.379 N 
HETATM   37  C19 UNL     1     -12.623  22.145  51.511  1.00  0.00     0.125 C 
HETATM   38  C20 UNL     1     -13.909  21.381  51.169  1.00  0.00     0.054 C 
HETATM   39  C21 UNL     1     -14.299  20.696  52.450  1.00  0.00     0.202 C 
HETATM   40  C22 UNL     1     -13.268  21.122  53.467  1.00  0.00     0.155 C 
BRANCH  39  41
HETATM   41  N6  UNL     1     -14.276  19.237  52.279  1.00  0.00    -0.073 N 
ATOM     42  H63 UNL     1     -13.428  18.823  52.667  1.00  0.00     0.274 HD
ATOM     43  H62 UNL     1     -14.959  18.775  52.879  1.00  0.00     0.274 HD
ATOM     44  H61 UNL     1     -14.404  18.992  51.298  1.00  0.00     0.274 HD
ENDBRANCH  39  41
ENDBRANCH   5  36
TORSDOF 11
ENDMDL
