MODEL 1
REMARK VINA RESULT: -7.305474418      0.000      0.000
REMARK  4 active torsions:
REMARK  status: ('A' for Active; 'I' for Inactive)
REMARK    1  A    between atoms: C3_3  and  N1_4 
REMARK    2  A    between atoms: C6_7  and  N2_8 
REMARK    3  A    between atoms: N3_12  and  C10_13 
REMARK    4  A    between atoms: C10_13  and  C11_14 
ROOT
HETATM    1  C1  UNL     1     178.855  30.164 529.425  1.00  0.00     0.013 C 
HETATM    2  C2  UNL     1     179.164  30.685 528.395  1.00  0.00    -0.087 C 
HETATM    3  C3  UNL     1     179.547  31.302 527.109  1.00  0.00     0.364 C 
ENDROOT
BRANCH   3   4
HETATM    4  N1  UNL     1     180.200  30.315 526.271  1.00  0.00     0.099 N 
HETATM    5  C4  UNL     1     179.273  29.588 525.447  1.00  0.00     0.275 C 
HETATM    6  C5  UNL     1     180.021  28.442 524.806  1.00  0.00     0.055 C 
HETATM    7  C6  UNL     1     181.524  28.604 525.070  1.00  0.00     0.086 C 
HETATM    8  C17 UNL     1     181.895  29.975 524.563  1.00  0.00     0.055 C 
HETATM    9  C18 UNL     1     181.156  30.992 525.405  1.00  0.00     0.275 C 
BRANCH   7  10
HETATM   10  N2  UNL     1     182.296  27.551 524.572  1.00  0.00    -0.387 N 
HETATM   11  C7  UNL     1     183.670  27.804 524.305  1.00  0.00     0.127 C 
HETATM   12  C8  UNL     1     184.221  26.719 523.437  1.00  0.00     0.064 C 
HETATM   13  C9  UNL     1     184.599  25.459 524.187  1.00  0.00     0.065 C 
HETATM   14  N3  UNL     1     184.299  25.492 525.563  1.00  0.00    -0.363 N 
HETATM   15  C15 UNL     1     182.948  25.610 525.957  1.00  0.00     0.171 C 
HETATM   16  C16 UNL     1     182.049  26.221 524.933  1.00  0.00     0.078 C 
BRANCH  14  17
HETATM   17  C10 UNL     1     185.177  24.868 526.465  1.00  0.00     0.121 C 
BRANCH  17  18
HETATM   18  C11 UNL     1     185.850  25.740 527.445  1.00  0.00     0.064 A 
HETATM   19  C12 UNL     1     186.030  25.495 528.783  1.00  0.00     0.120 A 
HETATM   20  N4  UNL     1     186.689  26.519 529.340  1.00  0.00    -0.354 N 
HETATM   21  C13 UNL     1     186.925  27.403 528.363  1.00  0.00     0.077 A 
ATOM     22  H4  UNL     1     186.959  26.609 530.320  1.00  0.00     0.166 HD
HETATM   23  C14 UNL     1     187.648  28.709 528.569  1.00  0.00     0.089 C 
HETATM   24  N5  UNL     1     186.423  26.936 527.232  1.00  0.00    -0.344 N 
ATOM     25  H5  UNL     1     186.464  27.413 526.331  1.00  0.00     0.167 HD
ENDBRANCH  17  18
ENDBRANCH  14  17
ENDBRANCH   7  10
ENDBRANCH   3   4
TORSDOF 4
ENDMDL
MODEL 2
REMARK VINA RESULT: -7.060634695      1.541      6.676
REMARK  4 active torsions:
REMARK  status: ('A' for Active; 'I' for Inactive)
REMARK    1  A    between atoms: C3_3  and  N1_4 
REMARK    2  A    between atoms: C6_7  and  N2_8 
REMARK    3  A    between atoms: N3_12  and  C10_13 
REMARK    4  A    between atoms: C10_13  and  C11_14 
ROOT
HETATM    1  C1  UNL     1     187.578  28.778 528.076  1.00  0.00     0.013 C 
HETATM    2  C2  UNL     1     187.584  28.024 527.150  1.00  0.00    -0.087 C 
HETATM    3  C3  UNL     1     187.567  27.104 525.994  1.00  0.00     0.364 C 
ENDROOT
BRANCH   3   4
HETATM    4  N1  UNL     1     186.224  27.030 525.452  1.00  0.00     0.099 N 
HETATM    5  C4  UNL     1     186.202  26.578 524.087  1.00  0.00     0.275 C 
HETATM    6  C5  UNL     1     184.800  26.766 523.557  1.00  0.00     0.055 C 
HETATM    7  C6  UNL     1     183.864  27.142 524.713  1.00  0.00     0.086 C 
HETATM    8  C17 UNL     1     184.017  26.056 525.748  1.00  0.00     0.055 C 
HETATM    9  C18 UNL     1     185.441  26.104 526.258  1.00  0.00     0.275 C 
BRANCH   7  10
HETATM   10  N2  UNL     1     182.553  27.405 524.310  1.00  0.00    -0.387 N 
HETATM   11  C7  UNL     1     181.497  26.958 525.150  1.00  0.00     0.127 C 
HETATM   12  C8  UNL     1     180.209  26.975 524.391  1.00  0.00     0.064 C 
HETATM   13  C9  UNL     1     179.561  28.341 524.306  1.00  0.00     0.065 C 
HETATM   14  N3  UNL     1     180.315  29.378 524.889  1.00  0.00    -0.363 N 
HETATM   15  C15 UNL     1     181.582  29.680 524.345  1.00  0.00     0.171 C 
HETATM   16  C16 UNL     1     182.221  28.561 523.590  1.00  0.00     0.078 C 
BRANCH  14  17
HETATM   17  C10 UNL     1     179.642  30.415 525.558  1.00  0.00     0.121 C 
BRANCH  17  18
HETATM   18  C11 UNL     1     179.441  30.247 527.009  1.00  0.00     0.064 A 
HETATM   19  C12 UNL     1     178.736  29.250 527.634  1.00  0.00     0.120 A 
HETATM   20  N4  UNL     1     178.783  29.433 528.960  1.00  0.00    -0.354 N 
HETATM   21  C13 UNL     1     179.512  30.536 529.170  1.00  0.00     0.077 A 
ATOM     22  H4  UNL     1     178.348  28.847 529.672  1.00  0.00     0.166 HD
HETATM   23  C14 UNL     1     179.809  31.099 530.537  1.00  0.00     0.089 C 
HETATM   24  N5  UNL     1     179.904  31.021 528.003  1.00  0.00    -0.344 N 
ATOM     25  H5  UNL     1     180.473  31.858 527.877  1.00  0.00     0.167 HD
ENDBRANCH  17  18
ENDBRANCH  14  17
ENDBRANCH   7  10
ENDBRANCH   3   4
TORSDOF 4
ENDMDL
MODEL 3
REMARK VINA RESULT: -7.058031388      1.645      6.588
REMARK  4 active torsions:
REMARK  status: ('A' for Active; 'I' for Inactive)
REMARK    1  A    between atoms: C3_3  and  N1_4 
REMARK    2  A    between atoms: C6_7  and  N2_8 
REMARK    3  A    between atoms: N3_12  and  C10_13 
REMARK    4  A    between atoms: C10_13  and  C11_14 
ROOT
HETATM    1  C1  UNL     1     187.429  27.260 530.320  1.00  0.00     0.013 C 
HETATM    2  C2  UNL     1     187.671  27.736 529.252  1.00  0.00    -0.087 C 
HETATM    3  C3  UNL     1     187.941  28.330 527.926  1.00  0.00     0.364 C 
ENDROOT
BRANCH   3   4
HETATM    4  N1  UNL     1     186.778  28.169 527.075  1.00  0.00     0.099 N 
HETATM    5  C4  UNL     1     186.134  29.419 526.775  1.00  0.00     0.275 C 
HETATM    6  C5  UNL     1     184.820  29.113 526.095  1.00  0.00     0.055 C 
HETATM    7  C6  UNL     1     184.755  27.618 525.761  1.00  0.00     0.086 C 
HETATM    8  C17 UNL     1     185.985  27.316 524.942  1.00  0.00     0.055 C 
HETATM    9  C18 UNL     1     187.193  27.551 525.824  1.00  0.00     0.275 C 
BRANCH   7  10
HETATM   10  N2  UNL     1     183.543  27.224 525.188  1.00  0.00    -0.387 N 
HETATM   11  C7  UNL     1     182.542  26.697 526.049  1.00  0.00     0.127 C 
HETATM   12  C8  UNL     1     181.505  25.987 525.238  1.00  0.00     0.064 C 
HETATM   13  C9  UNL     1     180.479  26.905 524.608  1.00  0.00     0.065 C 
HETATM   14  N3  UNL     1     180.715  28.276 524.828  1.00  0.00    -0.363 N 
HETATM   15  C15 UNL     1     181.897  28.849 524.311  1.00  0.00     0.171 C 
HETATM   16  C16 UNL     1     183.009  27.880 524.071  1.00  0.00     0.078 C 
BRANCH  14  17
HETATM   17  C10 UNL     1     179.617  29.134 525.015  1.00  0.00     0.121 C 
BRANCH  17  18
HETATM   18  C11 UNL     1     179.564  29.871 526.291  1.00  0.00     0.064 A 
HETATM   19  C12 UNL     1     180.004  31.149 526.524  1.00  0.00     0.120 A 
HETATM   20  N4  UNL     1     179.781  31.472 527.805  1.00  0.00    -0.354 N 
HETATM   21  C13 UNL     1     179.204  30.408 528.375  1.00  0.00     0.077 A 
ATOM     22  H4  UNL     1     180.008  32.357 528.259  1.00  0.00     0.166 HD
HETATM   23  C14 UNL     1     178.788  30.353 529.823  1.00  0.00     0.089 C 
HETATM   24  N5  UNL     1     179.075  29.452 527.469  1.00  0.00    -0.344 N 
ATOM     25  H5  UNL     1     178.665  28.534 527.639  1.00  0.00     0.167 HD
ENDBRANCH  17  18
ENDBRANCH  14  17
ENDBRANCH   7  10
ENDBRANCH   3   4
TORSDOF 4
ENDMDL
MODEL 4
REMARK VINA RESULT: -7.028470427      1.399      6.650
REMARK  4 active torsions:
REMARK  status: ('A' for Active; 'I' for Inactive)
REMARK    1  A    between atoms: C3_3  and  N1_4 
REMARK    2  A    between atoms: C6_7  and  N2_8 
REMARK    3  A    between atoms: N3_12  and  C10_13 
REMARK    4  A    between atoms: C10_13  and  C11_14 
ROOT
HETATM    1  C1  UNL     1     187.453  27.609 530.098  1.00  0.00     0.013 C 
HETATM    2  C2  UNL     1     187.572  27.978 528.968  1.00  0.00    -0.087 C 
HETATM    3  C3  UNL     1     187.690  28.431 527.567  1.00  0.00     0.364 C 
ENDROOT
BRANCH   3   4
HETATM    4  N1  UNL     1     186.569  27.925 526.797  1.00  0.00     0.099 N 
HETATM    5  C4  UNL     1     186.952  27.496 525.479  1.00  0.00     0.275 C 
HETATM    6  C5  UNL     1     185.690  27.219 524.695  1.00  0.00     0.055 C 
HETATM    7  C6  UNL     1     184.483  27.264 525.642  1.00  0.00     0.086 C 
HETATM    8  C17 UNL     1     184.780  26.282 526.747  1.00  0.00     0.055 C 
HETATM    9  C18 UNL     1     185.990  26.790 527.501  1.00  0.00     0.275 C 
BRANCH   7  10
HETATM   10  N2  UNL     1     183.258  27.085 524.995  1.00  0.00    -0.387 N 
HETATM   11  C7  UNL     1     182.165  26.600 525.764  1.00  0.00     0.127 C 
HETATM   12  C8  UNL     1     181.085  26.113 524.851  1.00  0.00     0.064 C 
HETATM   13  C9  UNL     1     180.205  27.212 524.295  1.00  0.00     0.065 C 
HETATM   14  N3  UNL     1     180.595  28.513 524.669  1.00  0.00    -0.363 N 
HETATM   15  C15 UNL     1     181.859  28.985 524.252  1.00  0.00     0.171 C 
HETATM   16  C16 UNL     1     182.854  27.915 523.940  1.00  0.00     0.078 C 
BRANCH  14  17
HETATM   17  C10 UNL     1     179.602  29.477 524.916  1.00  0.00     0.121 C 
BRANCH  17  18
HETATM   18  C11 UNL     1     179.589  30.084 526.259  1.00  0.00     0.064 A 
HETATM   19  C12 UNL     1     180.094  31.308 526.616  1.00  0.00     0.120 A 
HETATM   20  N4  UNL     1     179.891  31.512 527.925  1.00  0.00    -0.354 N 
HETATM   21  C13 UNL     1     179.261  30.426 528.389  1.00  0.00     0.077 A 
ATOM     22  H4  UNL     1     180.163  32.334 528.463  1.00  0.00     0.166 HD
HETATM   23  C14 UNL     1     178.846  30.247 529.827  1.00  0.00     0.089 C 
HETATM   24  N5  UNL     1     179.082  29.574 527.392  1.00  0.00    -0.344 N 
ATOM     25  H5  UNL     1     178.626  28.665 527.473  1.00  0.00     0.167 HD
ENDBRANCH  17  18
ENDBRANCH  14  17
ENDBRANCH   7  10
ENDBRANCH   3   4
TORSDOF 4
ENDMDL
MODEL 5
REMARK VINA RESULT: -6.995146987      1.382      6.667
REMARK  4 active torsions:
REMARK  status: ('A' for Active; 'I' for Inactive)
REMARK    1  A    between atoms: C3_3  and  N1_4 
REMARK    2  A    between atoms: C6_7  and  N2_8 
REMARK    3  A    between atoms: N3_12  and  C10_13 
REMARK    4  A    between atoms: C10_13  and  C11_14 
ROOT
HETATM    1  C1  UNL     1     186.743  27.620 529.579  1.00  0.00     0.013 C 
HETATM    2  C2  UNL     1     186.720  26.752 528.760  1.00  0.00    -0.087 C 
HETATM    3  C3  UNL     1     186.678  25.696 527.727  1.00  0.00     0.364 C 
ENDROOT
BRANCH   3   4
HETATM    4  N1  UNL     1     185.628  25.992 526.771  1.00  0.00     0.099 N 
HETATM    5  C4  UNL     1     186.139  26.270 525.456  1.00  0.00     0.275 C 
HETATM    6  C5  UNL     1     184.998  26.792 524.615  1.00  0.00     0.055 C 
HETATM    7  C6  UNL     1     183.680  26.617 525.380  1.00  0.00     0.086 C 
HETATM    8  C17 UNL     1     183.594  25.155 525.740  1.00  0.00     0.055 C 
HETATM    9  C18 UNL     1     184.733  24.846 526.686  1.00  0.00     0.275 C 
BRANCH   7  10
HETATM   10  N2  UNL     1     182.569  27.135 524.708  1.00  0.00    -0.387 N 
HETATM   11  C7  UNL     1     181.278  26.792 525.196  1.00  0.00     0.127 C 
HETATM   12  C8  UNL     1     180.251  27.100 524.155  1.00  0.00     0.064 C 
HETATM   13  C9  UNL     1     179.842  28.557 524.102  1.00  0.00     0.065 C 
HETATM   14  N3  UNL     1     180.552  29.390 524.988  1.00  0.00    -0.363 N 
HETATM   15  C15 UNL     1     181.947  29.526 524.816  1.00  0.00     0.171 C 
HETATM   16  C16 UNL     1     182.601  28.394 524.094  1.00  0.00     0.078 C 
BRANCH  14  17
HETATM   17  C10 UNL     1     179.877  30.456 525.608  1.00  0.00     0.121 C 
BRANCH  17  18
HETATM   18  C11 UNL     1     179.528  30.281 527.029  1.00  0.00     0.064 A 
HETATM   19  C12 UNL     1     178.772  29.276 527.576  1.00  0.00     0.120 A 
HETATM   20  N4  UNL     1     178.679  29.456 528.900  1.00  0.00    -0.354 N 
HETATM   21  C13 UNL     1     179.370  30.565 529.187  1.00  0.00     0.077 A 
ATOM     22  H4  UNL     1     178.178  28.863 529.562  1.00  0.00     0.166 HD
HETATM   23  C14 UNL     1     179.518  31.127 530.578  1.00  0.00     0.089 C 
HETATM   24  N5  UNL     1     179.876  31.057 528.068  1.00  0.00    -0.344 N 
ATOM     25  H5  UNL     1     180.447  31.900 528.003  1.00  0.00     0.167 HD
ENDBRANCH  17  18
ENDBRANCH  14  17
ENDBRANCH   7  10
ENDBRANCH   3   4
TORSDOF 4
ENDMDL
