MODEL 1
REMARK VINA RESULT: -6.069543494      0.000      0.000
REMARK  11 active torsions:
REMARK  status: ('A' for Active; 'I' for Inactive)
REMARK    1  A    between atoms: N1_1  and  C1_4 
REMARK    2  A    between atoms: C2_7  and  N3_8 
REMARK    3  A    between atoms: N3_8  and  N4_10 
REMARK    4  A    between atoms: C3_13  and  O1_14 
REMARK    5  A    between atoms: O1_14  and  C4_15 
REMARK    6  A    between atoms: C4_15  and  C5_16 
REMARK    7  A    between atoms: C5_16  and  N5_17 
REMARK    8  A    between atoms: C6_18  and  O2_19 
REMARK    9  A    between atoms: C8_24  and  N7_25 
REMARK   10  A    between atoms: N7_25  and  N8_27 
REMARK   11  A    between atoms: N11_36  and  N12_37 
ROOT
HETATM    1  C4  UNL     1      -0.925 -28.071  15.043  1.00  0.00     0.198 C 
ENDROOT
BRANCH   1   2
HETATM    2  O1  UNL     1      -0.397 -29.381  15.035  1.00  0.00    -0.329 OA
BRANCH   2   3
HETATM    3  C3  UNL     1       0.165 -29.879  16.193  1.00  0.00     0.228 A 
HETATM    4  C2  UNL     1       1.476 -29.697  16.522  1.00  0.00     0.190 A 
HETATM    5  N2  UNL     1       1.887 -30.257  17.699  1.00  0.00    -0.170 N 
HETATM    6  C1  UNL     1       1.068 -30.950  18.501  1.00  0.00     0.693 A 
ATOM      7  H2  UNL     1       2.861 -30.143  17.979  1.00  0.00     0.186 HD
HETATM    8  N13 UNL     1      -0.217 -31.103  18.135  1.00  0.00    -0.109 N 
HETATM    9  N11 UNL     1      -0.677 -30.586  17.008  1.00  0.00    -0.161 N 
ATOM     10  H13 UNL     1      -0.850 -31.628  18.739  1.00  0.00     0.208 HD
BRANCH   4  11
HETATM   11  N3  UNL     1       2.271 -29.031  15.795  1.00  0.00    -0.288 N 
ATOM     12  H3  UNL     1       2.919 -29.582  15.232  1.00  0.00     0.188 HD
BRANCH  11  13
HETATM   13  N4  UNL     1       2.380 -27.669  15.662  1.00  0.00    -0.343 N 
ATOM     14  H42 UNL     1       1.847 -27.134  16.348  1.00  0.00     0.176 HD
ATOM     15  H41 UNL     1       2.914 -27.134  14.978  1.00  0.00     0.176 HD
ENDBRANCH  11  13
ENDBRANCH   4  11
BRANCH   6  16
HETATM   16  N1  UNL     1       1.494 -31.469  19.611  1.00  0.00    -0.233 N 
ATOM     17  H12 UNL     1       1.468 -30.924  20.472  1.00  0.00     0.174 HD
ATOM     18  H11 UNL     1       1.860 -32.421  19.643  1.00  0.00     0.174 HD
ENDBRANCH   6  16
BRANCH   9  19
HETATM   19  N12 UNL     1      -2.012 -30.756  16.661  1.00  0.00    -0.321 N 
ATOM     20 2H12 UNL     1      -2.293 -31.556  16.094  1.00  0.00     0.179 HD
ATOM     21 1H12 UNL     1      -2.716 -30.087  16.975  1.00  0.00     0.179 HD
ENDBRANCH   9  19
ENDBRANCH   2   3
ENDBRANCH   1   2
BRANCH   1  22
HETATM   22  C5  UNL     1      -1.863 -27.862  13.866  1.00  0.00     0.161 C 
BRANCH  22  23
HETATM   23  N5  UNL     1      -3.207 -28.263  14.169  1.00  0.00    -0.295 N 
HETATM   24  C6  UNL     1      -3.736 -29.493  14.098  1.00  0.00     0.225 A 
HETATM   25  N6  UNL     1      -5.023 -29.434  14.466  1.00  0.00    -0.316 N 
HETATM   26  C7  UNL     1      -5.336 -28.166  14.779  1.00  0.00     0.126 A 
ATOM     27  H6  UNL     1      -5.663 -30.227  14.503  1.00  0.00     0.169 HD
HETATM   28  C8  UNL     1      -6.500 -27.549  15.213  1.00  0.00     0.151 A 
HETATM   29  C10 UNL     1      -4.192 -27.417  14.593  1.00  0.00     0.142 A 
HETATM   30  N9  UNL     1      -6.433 -26.230  15.429  1.00  0.00    -0.336 N 
HETATM   31  C9  UNL     1      -5.319 -25.494  15.250  1.00  0.00     0.183 A 
ATOM     32  H9  UNL     1      -7.276 -25.753  15.749  1.00  0.00     0.168 HD
HETATM   33  N10 UNL     1      -4.188 -26.082  14.830  1.00  0.00    -0.336 N 
ATOM     34  H10 UNL     1      -3.339 -25.533  14.692  1.00  0.00     0.168 HD
BRANCH  24  35
HETATM   35  O2  UNL     1      -3.006 -30.614  13.695  1.00  0.00    -0.332 OA
ATOM     36  H2  UNL     1      -2.788 -31.329  14.282  1.00  0.00     0.221 HD
ENDBRANCH  24  35
BRANCH  28  37
HETATM   37  N7  UNL     1      -7.557 -28.255  15.382  1.00  0.00    -0.290 N 
ATOM     38  H7  UNL     1      -8.118 -28.520  14.571  1.00  0.00     0.188 HD
BRANCH  37  39
HETATM   39  N8  UNL     1      -7.954 -28.667  16.657  1.00  0.00    -0.344 N 
ATOM     40  H82 UNL     1      -8.152 -27.954  17.359  1.00  0.00     0.176 HD
ATOM     41  H81 UNL     1      -8.046 -29.657  16.886  1.00  0.00     0.176 HD
ENDBRANCH  37  39
ENDBRANCH  28  37
ENDBRANCH  22  23
ENDBRANCH   1  22
TORSDOF 11
ENDMDL
MODEL 2
REMARK VINA RESULT: -5.946636891      0.485      2.109
REMARK  11 active torsions:
REMARK  status: ('A' for Active; 'I' for Inactive)
REMARK    1  A    between atoms: N1_1  and  C1_4 
REMARK    2  A    between atoms: C2_7  and  N3_8 
REMARK    3  A    between atoms: N3_8  and  N4_10 
REMARK    4  A    between atoms: C3_13  and  O1_14 
REMARK    5  A    between atoms: O1_14  and  C4_15 
REMARK    6  A    between atoms: C4_15  and  C5_16 
REMARK    7  A    between atoms: C5_16  and  N5_17 
REMARK    8  A    between atoms: C6_18  and  O2_19 
REMARK    9  A    between atoms: C8_24  and  N7_25 
REMARK   10  A    between atoms: N7_25  and  N8_27 
REMARK   11  A    between atoms: N11_36  and  N12_37 
ROOT
HETATM    1  C4  UNL     1      -0.877 -27.960  15.164  1.00  0.00     0.198 C 
ENDROOT
BRANCH   1   2
HETATM    2  O1  UNL     1      -0.268 -29.231  15.089  1.00  0.00    -0.329 OA
BRANCH   2   3
HETATM    3  C3  UNL     1       0.142 -29.844  16.256  1.00  0.00     0.228 A 
HETATM    4  C2  UNL     1      -0.692 -30.587  17.039  1.00  0.00     0.190 A 
HETATM    5  N2  UNL     1      -0.141 -31.125  18.168  1.00  0.00    -0.170 N 
HETATM    6  C1  UNL     1       1.143 -30.947  18.508  1.00  0.00     0.693 A 
ATOM      7  H2  UNL     1      -0.733 -31.686  18.779  1.00  0.00     0.186 HD
HETATM    8  N13 UNL     1       1.928 -30.208  17.704  1.00  0.00    -0.109 N 
HETATM    9  N11 UNL     1       1.455 -29.660  16.597  1.00  0.00    -0.161 N 
ATOM     10  H13 UNL     1       2.907 -30.067  17.952  1.00  0.00     0.208 HD
BRANCH   4  11
HETATM   11  N3  UNL     1      -1.905 -30.789  16.736  1.00  0.00    -0.288 N 
ATOM     12  H3  UNL     1      -2.420 -29.971  16.409  1.00  0.00     0.188 HD
BRANCH  11  13
HETATM   13  N4  UNL     1      -2.621 -31.960  16.788  1.00  0.00    -0.343 N 
ATOM     14  H42 UNL     1      -3.566 -31.860  17.157  1.00  0.00     0.176 HD
ATOM     15  H41 UNL     1      -2.334 -32.897  16.509  1.00  0.00     0.176 HD
ENDBRANCH  11  13
ENDBRANCH   4  11
BRANCH   6  16
HETATM   16  N1  UNL     1       1.631 -31.473  19.588  1.00  0.00    -0.233 N 
ATOM     17  H12 UNL     1       1.968 -30.874  20.342  1.00  0.00     0.174 HD
ATOM     18  H11 UNL     1       1.689 -32.485  19.704  1.00  0.00     0.174 HD
ENDBRANCH   6  16
BRANCH   9  19
HETATM   19  N12 UNL     1       2.292 -28.905  15.784  1.00  0.00    -0.321 N 
ATOM     20 2H12 UNL     1       2.023 -27.959  15.514  1.00  0.00     0.179 HD
ATOM     21 1H12 UNL     1       3.179 -29.291  15.458  1.00  0.00     0.179 HD
ENDBRANCH   9  19
ENDBRANCH   2   3
ENDBRANCH   1   2
BRANCH   1  22
HETATM   22  C5  UNL     1      -1.821 -27.746  13.994  1.00  0.00     0.161 C 
BRANCH  22  23
HETATM   23  N5  UNL     1      -3.155 -28.183  14.288  1.00  0.00    -0.295 N 
HETATM   24  C6  UNL     1      -3.638 -29.433  14.263  1.00  0.00     0.225 A 
HETATM   25  N6  UNL     1      -4.933 -29.406  14.604  1.00  0.00    -0.316 N 
HETATM   26  C7  UNL     1      -5.298 -28.138  14.853  1.00  0.00     0.126 A 
ATOM     27  H6  UNL     1      -5.544 -30.220  14.665  1.00  0.00     0.169 HD
HETATM   28  C8  UNL     1      -6.493 -27.547  15.236  1.00  0.00     0.151 A 
HETATM   29  C10 UNL     1      -4.179 -27.356  14.655  1.00  0.00     0.142 A 
HETATM   30  N9  UNL     1      -6.479 -26.218  15.393  1.00  0.00    -0.336 N 
HETATM   31  C9  UNL     1      -5.390 -25.450  15.202  1.00  0.00     0.183 A 
ATOM     32  H9  UNL     1      -7.346 -25.759  15.675  1.00  0.00     0.168 HD
HETATM   33  N10 UNL     1      -4.229 -26.013  14.830  1.00  0.00    -0.336 N 
ATOM     34  H10 UNL     1      -3.398 -25.439  14.683  1.00  0.00     0.168 HD
BRANCH  24  35
HETATM   35  O2  UNL     1      -2.858 -30.544  13.926  1.00  0.00    -0.332 OA
ATOM     36  H2  UNL     1      -3.111 -31.170  13.257  1.00  0.00     0.221 HD
ENDBRANCH  24  35
BRANCH  28  37
HETATM   37  N7  UNL     1      -7.527 -28.284  15.416  1.00  0.00    -0.290 N 
ATOM     38  H7  UNL     1      -8.064 -28.602  14.609  1.00  0.00     0.188 HD
BRANCH  37  39
HETATM   39  N8  UNL     1      -7.931 -28.658  16.701  1.00  0.00    -0.344 N 
ATOM     40  H82 UNL     1      -7.257 -28.585  17.463  1.00  0.00     0.176 HD
ATOM     41  H81 UNL     1      -8.877 -28.998  16.878  1.00  0.00     0.176 HD
ENDBRANCH  37  39
ENDBRANCH  28  37
ENDBRANCH  22  23
ENDBRANCH   1  22
TORSDOF 11
ENDMDL
MODEL 3
REMARK VINA RESULT: -5.766754317      1.646      1.827
REMARK  11 active torsions:
REMARK  status: ('A' for Active; 'I' for Inactive)
REMARK    1  A    between atoms: N1_1  and  C1_4 
REMARK    2  A    between atoms: C2_7  and  N3_8 
REMARK    3  A    between atoms: N3_8  and  N4_10 
REMARK    4  A    between atoms: C3_13  and  O1_14 
REMARK    5  A    between atoms: O1_14  and  C4_15 
REMARK    6  A    between atoms: C4_15  and  C5_16 
REMARK    7  A    between atoms: C5_16  and  N5_17 
REMARK    8  A    between atoms: C6_18  and  O2_19 
REMARK    9  A    between atoms: C8_24  and  N7_25 
REMARK   10  A    between atoms: N7_25  and  N8_27 
REMARK   11  A    between atoms: N11_36  and  N12_37 
ROOT
HETATM    1  C4  UNL     1      -1.980 -28.782  15.331  1.00  0.00     0.198 C 
ENDROOT
BRANCH   1   2
HETATM    2  O1  UNL     1      -1.104 -29.878  15.177  1.00  0.00    -0.329 OA
BRANCH   2   3
HETATM    3  C3  UNL     1      -0.224 -30.177  16.197  1.00  0.00     0.228 A 
HETATM    4  C2  UNL     1       1.019 -29.623  16.294  1.00  0.00     0.190 A 
HETATM    5  N2  UNL     1       1.777 -30.024  17.358  1.00  0.00    -0.170 N 
HETATM    6  C1  UNL     1       1.346 -30.909  18.267  1.00  0.00     0.693 A 
ATOM      7  H2  UNL     1       2.713 -29.633  17.464  1.00  0.00     0.186 HD
HETATM    8  N13 UNL     1       0.113 -31.427  18.131  1.00  0.00    -0.109 N 
HETATM    9  N11 UNL     1      -0.670 -31.080  17.123  1.00  0.00    -0.161 N 
ATOM     10  H13 UNL     1      -0.226 -32.100  18.818  1.00  0.00     0.208 HD
BRANCH   4  11
HETATM   11  N3  UNL     1       1.448 -28.770  15.462  1.00  0.00    -0.288 N 
ATOM     12  H3  UNL     1       1.014 -28.798  14.539  1.00  0.00     0.188 HD
BRANCH  11  13
HETATM   13  N4  UNL     1       2.419 -27.814  15.632  1.00  0.00    -0.343 N 
ATOM     14  H42 UNL     1       2.366 -27.037  14.974  1.00  0.00     0.176 HD
ATOM     15  H41 UNL     1       3.170 -27.783  16.320  1.00  0.00     0.176 HD
ENDBRANCH  11  13
ENDBRANCH   4  11
BRANCH   6  16
HETATM   16  N1  UNL     1       2.095 -31.266  19.265  1.00  0.00    -0.233 N 
ATOM     17  H12 UNL     1       3.029 -31.639  19.095  1.00  0.00     0.174 HD
ATOM     18  H11 UNL     1       1.768 -31.183  20.228  1.00  0.00     0.174 HD
ENDBRANCH   6  16
BRANCH   9  19
HETATM   19  N12 UNL     1      -1.942 -31.629  17.013  1.00  0.00    -0.321 N 
ATOM     20 2H12 UNL     1      -2.639 -31.183  16.416  1.00  0.00     0.179 HD
ATOM     21 1H12 UNL     1      -2.183 -32.480  17.522  1.00  0.00     0.179 HD
ENDBRANCH   9  19
ENDBRANCH   2   3
ENDBRANCH   1   2
BRANCH   1  22
HETATM   22  C5  UNL     1      -1.856 -27.824  14.159  1.00  0.00     0.161 C 
BRANCH  22  23
HETATM   23  N5  UNL     1      -3.104 -27.643  13.474  1.00  0.00    -0.295 N 
HETATM   24  C6  UNL     1      -3.502 -28.203  12.323  1.00  0.00     0.225 A 
HETATM   25  N6  UNL     1      -4.735 -27.769  12.033  1.00  0.00    -0.316 N 
HETATM   26  C7  UNL     1      -5.145 -26.926  12.994  1.00  0.00     0.126 A 
ATOM     27  H6  UNL     1      -5.277 -28.038  11.211  1.00  0.00     0.169 HD
HETATM   28  C8  UNL     1      -6.311 -26.202  13.194  1.00  0.00     0.151 A 
HETATM   29  C10 UNL     1      -4.118 -26.839  13.911  1.00  0.00     0.142 A 
HETATM   30  N9  UNL     1      -6.363 -25.446  14.298  1.00  0.00    -0.336 N 
HETATM   31  C9  UNL     1      -5.364 -25.358  15.196  1.00  0.00     0.183 A 
ATOM     32  H9  UNL     1      -7.211 -24.904  14.468  1.00  0.00     0.168 HD
HETATM   33  N10 UNL     1      -4.232 -26.055  15.011  1.00  0.00    -0.336 N 
ATOM     34  H10 UNL     1      -3.469 -25.995  15.686  1.00  0.00     0.168 HD
BRANCH  24  35
HETATM   35  O2  UNL     1      -2.705 -29.090  11.592  1.00  0.00    -0.332 OA
ATOM     36  H2  UNL     1      -2.941 -29.405  10.728  1.00  0.00     0.221 HD
ENDBRANCH  24  35
BRANCH  28  37
HETATM   37  N7  UNL     1      -7.259 -26.289  12.335  1.00  0.00    -0.290 N 
ATOM     38  H7  UNL     1      -7.224 -27.020  11.623  1.00  0.00     0.188 HD
BRANCH  37  39
HETATM   39  N8  UNL     1      -8.339 -25.402  12.358  1.00  0.00    -0.344 N 
ATOM     40  H82 UNL     1      -8.186 -24.443  12.047  1.00  0.00     0.176 HD
ATOM     41  H81 UNL     1      -9.261 -25.702  12.676  1.00  0.00     0.176 HD
ENDBRANCH  37  39
ENDBRANCH  28  37
ENDBRANCH  22  23
ENDBRANCH   1  22
TORSDOF 11
ENDMDL
MODEL 4
REMARK VINA RESULT: -5.648305544      1.508      7.322
REMARK  11 active torsions:
REMARK  status: ('A' for Active; 'I' for Inactive)
REMARK    1  A    between atoms: N1_1  and  C1_4 
REMARK    2  A    between atoms: C2_7  and  N3_8 
REMARK    3  A    between atoms: N3_8  and  N4_10 
REMARK    4  A    between atoms: C3_13  and  O1_14 
REMARK    5  A    between atoms: O1_14  and  C4_15 
REMARK    6  A    between atoms: C4_15  and  C5_16 
REMARK    7  A    between atoms: C5_16  and  N5_17 
REMARK    8  A    between atoms: C6_18  and  O2_19 
REMARK    9  A    between atoms: C8_24  and  N7_25 
REMARK   10  A    between atoms: N7_25  and  N8_27 
REMARK   11  A    between atoms: N11_36  and  N12_37 
ROOT
HETATM    1  C4  UNL     1      -3.031 -27.672  14.812  1.00  0.00     0.198 C 
ENDROOT
BRANCH   1   2
HETATM    2  O1  UNL     1      -4.209 -27.542  14.046  1.00  0.00    -0.329 OA
BRANCH   2   3
HETATM    3  C3  UNL     1      -5.419 -27.417  14.699  1.00  0.00     0.228 A 
HETATM    4  C2  UNL     1      -6.146 -28.487  15.129  1.00  0.00     0.190 A 
HETATM    5  N2  UNL     1      -7.328 -28.202  15.754  1.00  0.00    -0.170 N 
HETATM    6  C1  UNL     1      -7.768 -26.951  15.945  1.00  0.00     0.693 A 
ATOM      7  H2  UNL     1      -7.901 -28.976  16.089  1.00  0.00     0.186 HD
HETATM    8  N13 UNL     1      -7.015 -25.927  15.504  1.00  0.00    -0.109 N 
HETATM    9  N11 UNL     1      -5.862 -26.136  14.892  1.00  0.00    -0.161 N 
ATOM     10  H13 UNL     1      -7.340 -24.970  15.646  1.00  0.00     0.208 HD
BRANCH   4  11
HETATM   11  N3  UNL     1      -5.749 -29.681  14.981  1.00  0.00    -0.288 N 
ATOM     12  H3  UNL     1      -5.622 -30.213  15.841  1.00  0.00     0.188 HD
BRANCH  11  13
HETATM   13  N4  UNL     1      -5.468 -30.355  13.818  1.00  0.00    -0.343 N 
ATOM     14  H42 UNL     1      -5.099 -29.770  13.070  1.00  0.00     0.176 HD
ATOM     15  H41 UNL     1      -5.578 -31.348  13.613  1.00  0.00     0.176 HD
ENDBRANCH  11  13
ENDBRANCH   4  11
BRANCH   6  16
HETATM   16  N1  UNL     1      -8.896 -26.719  16.542  1.00  0.00    -0.233 N 
ATOM     17  H12 UNL     1      -9.427 -27.489  16.948  1.00  0.00     0.174 HD
ATOM     18  H11 UNL     1      -9.270 -25.772  16.616  1.00  0.00     0.174 HD
ENDBRANCH   6  16
BRANCH   9  19
HETATM   19  N12 UNL     1      -5.104 -25.057  14.453  1.00  0.00    -0.321 N 
ATOM     20 2H12 UNL     1      -4.198 -24.864  14.880  1.00  0.00     0.179 HD
ATOM     21 1H12 UNL     1      -5.447 -24.457  13.702  1.00  0.00     0.179 HD
ENDBRANCH   9  19
ENDBRANCH   2   3
ENDBRANCH   1   2
BRANCH   1  22
HETATM   22  C5  UNL     1      -2.165 -28.800  14.280  1.00  0.00     0.161 C 
BRANCH  22  23
HETATM   23  N5  UNL     1      -1.556 -29.558  15.335  1.00  0.00    -0.295 N 
HETATM   24  C6  UNL     1      -2.092 -30.561  16.045  1.00  0.00     0.225 A 
HETATM   25  N6  UNL     1      -1.189 -30.996  16.933  1.00  0.00    -0.316 N 
HETATM   26  C7  UNL     1      -0.062 -30.278  16.805  1.00  0.00     0.126 A 
ATOM     27  H6  UNL     1      -1.335 -31.752  17.602  1.00  0.00     0.169 HD
HETATM   28  C8  UNL     1       1.164 -30.301  17.455  1.00  0.00     0.151 A 
HETATM   29  C10 UNL     1      -0.285 -29.365  15.796  1.00  0.00     0.142 A 
HETATM   30  N9  UNL     1       2.075 -29.410  17.045  1.00  0.00    -0.336 N 
HETATM   31  C9  UNL     1       1.863 -28.517  16.060  1.00  0.00     0.183 A 
ATOM     32  H9  UNL     1       2.984 -29.408  17.507  1.00  0.00     0.168 HD
HETATM   33  N10 UNL     1       0.680 -28.486  15.426  1.00  0.00    -0.336 N 
ATOM     34  H10 UNL     1       0.509 -27.813  14.678  1.00  0.00     0.168 HD
BRANCH  24  35
HETATM   35  O2  UNL     1      -3.394 -31.029  15.839  1.00  0.00    -0.332 OA
ATOM     36  H2  UNL     1      -3.590 -31.803  15.324  1.00  0.00     0.221 HD
ENDBRANCH  24  35
BRANCH  28  37
HETATM   37  N7  UNL     1       1.360 -31.154  18.392  1.00  0.00    -0.290 N 
ATOM     38  H7  UNL     1       0.638 -31.844  18.601  1.00  0.00     0.188 HD
BRANCH  37  39
HETATM   39  N8  UNL     1       2.546 -31.155  19.131  1.00  0.00    -0.344 N 
ATOM     40  H82 UNL     1       2.571 -30.641  20.012  1.00  0.00     0.176 HD
ATOM     41  H81 UNL     1       3.372 -31.657  18.802  1.00  0.00     0.176 HD
ENDBRANCH  37  39
ENDBRANCH  28  37
ENDBRANCH  22  23
ENDBRANCH   1  22
TORSDOF 11
ENDMDL
MODEL 5
REMARK VINA RESULT: -5.633088663      1.892      7.529
REMARK  11 active torsions:
REMARK  status: ('A' for Active; 'I' for Inactive)
REMARK    1  A    between atoms: N1_1  and  C1_4 
REMARK    2  A    between atoms: C2_7  and  N3_8 
REMARK    3  A    between atoms: N3_8  and  N4_10 
REMARK    4  A    between atoms: C3_13  and  O1_14 
REMARK    5  A    between atoms: O1_14  and  C4_15 
REMARK    6  A    between atoms: C4_15  and  C5_16 
REMARK    7  A    between atoms: C5_16  and  N5_17 
REMARK    8  A    between atoms: C6_18  and  O2_19 
REMARK    9  A    between atoms: C8_24  and  N7_25 
REMARK   10  A    between atoms: N7_25  and  N8_27 
REMARK   11  A    between atoms: N11_36  and  N12_37 
ROOT
HETATM    1  C4  UNL     1      -2.945 -27.098  14.696  1.00  0.00     0.198 C 
ENDROOT
BRANCH   1   2
HETATM    2  O1  UNL     1      -4.247 -27.599  14.915  1.00  0.00    -0.329 OA
BRANCH   2   3
HETATM    3  C3  UNL     1      -5.289 -27.099  14.160  1.00  0.00     0.228 A 
HETATM    4  C2  UNL     1      -5.702 -27.668  12.992  1.00  0.00     0.190 A 
HETATM    5  N2  UNL     1      -6.743 -27.053  12.355  1.00  0.00    -0.170 N 
HETATM    6  C1  UNL     1      -7.340 -25.952  12.832  1.00  0.00     0.693 A 
ATOM      7  H2  UNL     1      -7.080 -27.448  11.478  1.00  0.00     0.186 HD
HETATM    8  N13 UNL     1      -6.899 -25.427  13.989  1.00  0.00    -0.109 N 
HETATM    9  N11 UNL     1      -5.895 -25.975  14.653  1.00  0.00    -0.161 N 
ATOM     10  H13 UNL     1      -7.348 -24.590  14.362  1.00  0.00     0.208 HD
BRANCH   4  11
HETATM   11  N3  UNL     1      -5.171 -28.719  12.524  1.00  0.00    -0.288 N 
ATOM     12  H3  UNL     1      -4.722 -28.617  11.614  1.00  0.00     0.188 HD
BRANCH  11  13
HETATM   13  N4  UNL     1      -5.117 -29.975  13.076  1.00  0.00    -0.343 N 
ATOM     14  H42 UNL     1      -5.894 -30.195  13.699  1.00  0.00     0.176 HD
ATOM     15  H41 UNL     1      -4.413 -30.700  12.945  1.00  0.00     0.176 HD
ENDBRANCH  11  13
ENDBRANCH   4  11
BRANCH   6  16
HETATM   16  N1  UNL     1      -8.326 -25.395  12.200  1.00  0.00    -0.233 N 
ATOM     17  H12 UNL     1      -8.275 -24.410  11.939  1.00  0.00     0.174 HD
ATOM     18  H11 UNL     1      -9.163 -25.924  11.954  1.00  0.00     0.174 HD
ENDBRANCH   6  16
BRANCH   9  19
HETATM   19  N12 UNL     1      -5.466 -25.412  15.849  1.00  0.00    -0.321 N 
ATOM     20 2H12 UNL     1      -4.499 -25.103  15.949  1.00  0.00     0.179 HD
ATOM     21 1H12 UNL     1      -6.115 -25.301  16.629  1.00  0.00     0.179 HD
ENDBRANCH   9  19
ENDBRANCH   2   3
ENDBRANCH   1   2
BRANCH   1  22
HETATM   22  C5  UNL     1      -2.056 -28.163  14.077  1.00  0.00     0.161 C 
BRANCH  22  23
HETATM   23  N5  UNL     1      -1.535 -29.070  15.059  1.00  0.00    -0.295 N 
HETATM   24  C6  UNL     1      -2.158 -30.108  15.635  1.00  0.00     0.225 A 
HETATM   25  N6  UNL     1      -1.317 -30.694  16.498  1.00  0.00    -0.316 N 
HETATM   26  C7  UNL     1      -0.144 -30.041  16.486  1.00  0.00     0.126 A 
ATOM     27  H6  UNL     1      -1.534 -31.509  17.072  1.00  0.00     0.169 HD
HETATM   28  C8  UNL     1       1.052 -30.214  17.167  1.00  0.00     0.151 A 
HETATM   29  C10 UNL     1      -0.273 -29.010  15.578  1.00  0.00     0.142 A 
HETATM   30  N9  UNL     1       2.030 -29.343  16.888  1.00  0.00    -0.336 N 
HETATM   31  C9  UNL     1       1.910 -28.336  16.003  1.00  0.00     0.183 A 
ATOM     32  H9  UNL     1       2.920 -29.450  17.376  1.00  0.00     0.168 HD
HETATM   33  N10 UNL     1       0.756 -28.160  15.340  1.00  0.00    -0.336 N 
ATOM     34  H10 UNL     1       0.656 -27.399  14.667  1.00  0.00     0.168 HD
BRANCH  24  35
HETATM   35  O2  UNL     1      -3.476 -30.466  15.338  1.00  0.00    -0.332 OA
ATOM     36  H2  UNL     1      -4.122 -29.845  15.022  1.00  0.00     0.221 HD
ENDBRANCH  24  35
BRANCH  28  37
HETATM   37  N7  UNL     1       1.160 -31.175  18.009  1.00  0.00    -0.290 N 
ATOM     38  H7  UNL     1       0.497 -31.949  17.973  1.00  0.00     0.188 HD
BRANCH  37  39
HETATM   39  N8  UNL     1       2.172 -31.180  18.973  1.00  0.00    -0.344 N 
ATOM     40  H82 UNL     1       1.909 -31.098  19.955  1.00  0.00     0.176 HD
ATOM     41  H81 UNL     1       3.154 -31.265  18.706  1.00  0.00     0.176 HD
ENDBRANCH  37  39
ENDBRANCH  28  37
ENDBRANCH  22  23
ENDBRANCH   1  22
TORSDOF 11
ENDMDL
