MODEL 1
REMARK VINA RESULT: -7.045214247      0.000      0.000
REMARK  5 active torsions:
REMARK  status: ('A' for Active; 'I' for Inactive)
REMARK    1  A    between atoms: N1_1  and  N2_4 
REMARK    2  A    between atoms: N3_6  and  C2_7 
REMARK    3  A    between atoms: C2_7  and  O1_8 
REMARK    4  A    between atoms: O1_8  and  C3_9 
REMARK    5  A    between atoms: C3_9  and  N4_10 
ROOT
HETATM    1  C2  UNL     1      -7.300   7.926  -7.464  1.00  0.00     0.317 C 
ENDROOT
BRANCH   1   2
HETATM    2  N3  UNL     1      -6.708   8.788  -6.458  1.00  0.00    -0.247 N 
HETATM    3  C1  UNL     1      -6.721  10.138  -6.485  1.00  0.00     0.243 A 
HETATM    4  N2  UNL     1      -6.087  10.634  -5.409  1.00  0.00    -0.183 N 
HETATM    5  N10 UNL     1      -5.685   9.580  -4.722  1.00  0.00     0.015 NA
HETATM    6  N9  UNL     1      -6.060   8.459  -5.354  1.00  0.00    -0.002 NA
BRANCH   4   7
HETATM    7  N1  UNL     1      -5.919  11.995  -5.130  1.00  0.00    -0.325 N 
ATOM      8  H12 UNL     1      -5.078  12.503  -4.857  1.00  0.00     0.178 HD
ATOM      9  H11 UNL     1      -6.659  12.697  -5.165  1.00  0.00     0.178 HD
ENDBRANCH   4   7
ENDBRANCH   1   2
BRANCH   1  10
HETATM   10  O1  UNL     1      -8.118   6.952  -6.938  1.00  0.00    -0.349 OA
BRANCH  10  11
HETATM   11  C3  UNL     1      -7.713   5.666  -7.181  1.00  0.00     0.337 C 
BRANCH  11  12
HETATM   12  N4  UNL     1      -7.167   5.116  -5.944  1.00  0.00    -0.183 N 
HETATM   13  N5  UNL     1      -6.993   5.693  -4.779  1.00  0.00    -0.211 N 
HETATM   14  N6  UNL     1      -6.465   4.849  -3.900  1.00  0.00     0.006 NA
ATOM     15  H5  UNL     1      -7.232   6.663  -4.575  1.00  0.00     0.206 HD
HETATM   16  N7  UNL     1      -6.310   3.710  -4.552  1.00  0.00     0.008 NA
HETATM   17  N8  UNL     1      -6.739   3.871  -5.806  1.00  0.00     0.010 NA
ENDBRANCH  11  12
ENDBRANCH  10  11
ENDBRANCH   1  10
TORSDOF 5
ENDMDL
MODEL 2
REMARK VINA RESULT: -6.934916958      0.627      1.131
REMARK  5 active torsions:
REMARK  status: ('A' for Active; 'I' for Inactive)
REMARK    1  A    between atoms: N1_1  and  N2_4 
REMARK    2  A    between atoms: N3_6  and  C2_7 
REMARK    3  A    between atoms: C2_7  and  O1_8 
REMARK    4  A    between atoms: O1_8  and  C3_9 
REMARK    5  A    between atoms: C3_9  and  N4_10 
ROOT
HETATM    1  C2  UNL     1      -6.820   7.887  -7.036  1.00  0.00     0.317 C 
ENDROOT
BRANCH   1   2
HETATM    2  N3  UNL     1      -6.638   9.124  -6.301  1.00  0.00    -0.247 N 
HETATM    3  C1  UNL     1      -6.846  10.363  -6.798  1.00  0.00     0.243 A 
HETATM    4  N2  UNL     1      -6.587  11.292  -5.862  1.00  0.00    -0.183 N 
HETATM    5  N10 UNL     1      -6.217  10.617  -4.790  1.00  0.00     0.015 NA
HETATM    6  N9  UNL     1      -6.246   9.303  -5.051  1.00  0.00    -0.002 NA
BRANCH   4   7
HETATM    7  N1  UNL     1      -6.703  12.675  -6.048  1.00  0.00    -0.325 N 
ATOM      8  H12 UNL     1      -6.502  13.238  -6.875  1.00  0.00     0.178 HD
ATOM      9  H11 UNL     1      -7.021  13.338  -5.341  1.00  0.00     0.178 HD
ENDBRANCH   4   7
ENDBRANCH   1   2
BRANCH   1  10
HETATM   10  O1  UNL     1      -7.963   7.207  -6.687  1.00  0.00    -0.349 OA
BRANCH  10  11
HETATM   11  C3  UNL     1      -7.951   5.868  -6.981  1.00  0.00     0.337 C 
BRANCH  11  12
HETATM   12  N4  UNL     1      -7.210   5.176  -5.930  1.00  0.00    -0.183 N 
HETATM   13  N5  UNL     1      -6.351   4.189  -6.024  1.00  0.00    -0.211 N 
HETATM   14  N6  UNL     1      -5.892   3.837  -4.829  1.00  0.00     0.006 NA
ATOM     15  H5  UNL     1      -6.072   3.750  -6.901  1.00  0.00     0.206 HD
HETATM   16  N7  UNL     1      -6.493   4.640  -3.969  1.00  0.00     0.008 NA
HETATM   17  N8  UNL     1      -7.302   5.462  -4.641  1.00  0.00     0.010 NA
ENDBRANCH  11  12
ENDBRANCH  10  11
ENDBRANCH   1  10
TORSDOF 5
ENDMDL
MODEL 3
REMARK VINA RESULT: -6.822823550      1.953      2.469
REMARK  5 active torsions:
REMARK  status: ('A' for Active; 'I' for Inactive)
REMARK    1  A    between atoms: N1_1  and  N2_4 
REMARK    2  A    between atoms: N3_6  and  C2_7 
REMARK    3  A    between atoms: C2_7  and  O1_8 
REMARK    4  A    between atoms: O1_8  and  C3_9 
REMARK    5  A    between atoms: C3_9  and  N4_10 
ROOT
HETATM    1  C2  UNL     1      -6.311   9.289  -5.516  1.00  0.00     0.317 C 
ENDROOT
BRANCH   1   2
HETATM    2  N3  UNL     1      -5.590  10.501  -5.176  1.00  0.00    -0.247 N 
HETATM    3  C1  UNL     1      -6.054  11.757  -5.351  1.00  0.00     0.243 A 
HETATM    4  N2  UNL     1      -5.143  12.654  -4.937  1.00  0.00    -0.183 N 
HETATM    5  N10 UNL     1      -4.117  11.940  -4.508  1.00  0.00     0.015 NA
HETATM    6  N9  UNL     1      -4.384  10.635  -4.651  1.00  0.00    -0.002 NA
BRANCH   4   7
HETATM    7  N1  UNL     1      -5.305  14.044  -4.978  1.00  0.00    -0.325 N 
ATOM      8  H12 UNL     1      -5.959  14.636  -4.466  1.00  0.00     0.178 HD
ATOM      9  H11 UNL     1      -4.759  14.681  -5.558  1.00  0.00     0.178 HD
ENDBRANCH   4   7
ENDBRANCH   1   2
BRANCH   1  10
HETATM   10  O1  UNL     1      -5.591   8.140  -5.282  1.00  0.00    -0.349 OA
BRANCH  10  11
HETATM   11  C3  UNL     1      -6.006   7.409  -4.199  1.00  0.00     0.337 C 
BRANCH  11  12
HETATM   12  N4  UNL     1      -5.893   5.991  -4.533  1.00  0.00    -0.183 N 
HETATM   13  N5  UNL     1      -5.054   5.388  -5.340  1.00  0.00    -0.211 N 
HETATM   14  N6  UNL     1      -5.278   4.079  -5.372  1.00  0.00     0.006 NA
ATOM     15  H5  UNL     1      -4.325   5.861  -5.873  1.00  0.00     0.206 HD
HETATM   16  N7  UNL     1      -6.293   3.873  -4.553  1.00  0.00     0.008 NA
HETATM   17  N8  UNL     1      -6.673   5.045  -4.036  1.00  0.00     0.010 NA
ENDBRANCH  11  12
ENDBRANCH  10  11
ENDBRANCH   1  10
TORSDOF 5
ENDMDL
MODEL 4
REMARK VINA RESULT: -6.712165147      2.355      3.357
REMARK  5 active torsions:
REMARK  status: ('A' for Active; 'I' for Inactive)
REMARK    1  A    between atoms: N1_1  and  N2_4 
REMARK    2  A    between atoms: N3_6  and  C2_7 
REMARK    3  A    between atoms: C2_7  and  O1_8 
REMARK    4  A    between atoms: O1_8  and  C3_9 
REMARK    5  A    between atoms: C3_9  and  N4_10 
ROOT
HETATM    1  C2  UNL     1      -6.079   8.234  -5.838  1.00  0.00     0.317 C 
ENDROOT
BRANCH   1   2
HETATM    2  N3  UNL     1      -6.934   7.796  -6.925  1.00  0.00    -0.247 N 
HETATM    3  C1  UNL     1      -7.708   8.604  -7.680  1.00  0.00     0.243 A 
HETATM    4  N2  UNL     1      -8.377   7.887  -8.599  1.00  0.00    -0.183 N 
HETATM    5  N10 UNL     1      -8.010   6.634  -8.402  1.00  0.00     0.015 NA
HETATM    6  N9  UNL     1      -7.136   6.574  -7.388  1.00  0.00    -0.002 NA
BRANCH   4   7
HETATM    7  N1  UNL     1      -9.266   8.417  -9.542  1.00  0.00    -0.325 N 
ATOM      8  H12 UNL     1      -9.077   8.795 -10.471  1.00  0.00     0.178 HD
ATOM      9  H11 UNL     1     -10.275   8.497  -9.417  1.00  0.00     0.178 HD
ENDBRANCH   4   7
ENDBRANCH   1   2
BRANCH   1  10
HETATM   10  O1  UNL     1      -6.518   7.828  -4.598  1.00  0.00    -0.349 OA
BRANCH  10  11
HETATM   11  C3  UNL     1      -5.624   7.070  -3.888  1.00  0.00     0.337 C 
BRANCH  11  12
HETATM   12  N4  UNL     1      -5.702   5.695  -4.373  1.00  0.00    -0.183 N 
HETATM   13  N5  UNL     1      -4.936   5.068  -5.233  1.00  0.00    -0.211 N 
HETATM   14  N6  UNL     1      -5.339   3.815  -5.409  1.00  0.00     0.006 NA
ATOM     15  H5  UNL     1      -4.135   5.488  -5.705  1.00  0.00     0.206 HD
HETATM   16  N7  UNL     1      -6.393   3.669  -4.627  1.00  0.00     0.008 NA
HETATM   17  N8  UNL     1      -6.618   4.821  -3.990  1.00  0.00     0.010 NA
ENDBRANCH  11  12
ENDBRANCH  10  11
ENDBRANCH   1  10
TORSDOF 5
ENDMDL
MODEL 5
REMARK VINA RESULT: -6.616792389      2.024      2.808
REMARK  5 active torsions:
REMARK  status: ('A' for Active; 'I' for Inactive)
REMARK    1  A    between atoms: N1_1  and  N2_4 
REMARK    2  A    between atoms: N3_6  and  C2_7 
REMARK    3  A    between atoms: C2_7  and  O1_8 
REMARK    4  A    between atoms: O1_8  and  C3_9 
REMARK    5  A    between atoms: C3_9  and  N4_10 
ROOT
HETATM    1  C2  UNL     1      -6.396   9.776  -6.073  1.00  0.00     0.317 C 
ENDROOT
BRANCH   1   2
HETATM    2  N3  UNL     1      -5.632  10.837  -5.443  1.00  0.00    -0.247 N 
HETATM    3  C1  UNL     1      -5.918  12.154  -5.523  1.00  0.00     0.243 A 
HETATM    4  N2  UNL     1      -5.017  12.872  -4.830  1.00  0.00    -0.183 N 
HETATM    5  N10 UNL     1      -4.177  11.987  -4.326  1.00  0.00     0.015 NA
HETATM    6  N9  UNL     1      -4.545  10.752  -4.695  1.00  0.00    -0.002 NA
BRANCH   4   7
HETATM    7  N1  UNL     1      -5.022  14.266  -4.707  1.00  0.00    -0.325 N 
ATOM      8  H12 UNL     1      -5.701  14.946  -5.050  1.00  0.00     0.178 HD
ATOM      9  H11 UNL     1      -4.306  14.816  -4.231  1.00  0.00     0.178 HD
ENDBRANCH   4   7
ENDBRANCH   1   2
BRANCH   1  10
HETATM   10  O1  UNL     1      -6.588   8.684  -5.259  1.00  0.00    -0.349 OA
BRANCH  10  11
HETATM   11  C3  UNL     1      -6.012   7.523  -5.705  1.00  0.00     0.337 C 
BRANCH  11  12
HETATM   12  N4  UNL     1      -7.059   6.685  -6.284  1.00  0.00    -0.183 N 
HETATM   13  N5  UNL     1      -7.424   6.550  -7.536  1.00  0.00    -0.211 N 
HETATM   14  N6  UNL     1      -8.424   5.684  -7.653  1.00  0.00     0.006 NA
ATOM     15  H5  UNL     1      -6.995   7.045  -8.318  1.00  0.00     0.206 HD
HETATM   16  N7  UNL     1      -8.682   5.272  -6.425  1.00  0.00     0.008 NA
HETATM   17  N8  UNL     1      -7.846   5.885  -5.582  1.00  0.00     0.010 NA
ENDBRANCH  11  12
ENDBRANCH  10  11
ENDBRANCH   1  10
TORSDOF 5
ENDMDL
