MODEL 1
REMARK VINA RESULT: -8.342885851      0.000      0.000
REMARK  3 active torsions:
REMARK  status: ('A' for Active; 'I' for Inactive)
REMARK    1  A    between atoms: C2_2  and  C3_3 
REMARK    2  A    between atoms: C12_18  and  C13_19 
REMARK    3  A    between atoms: C13_19  and  C14_20 
ROOT
HETATM    1  C3  UNL     1       6.029   2.007 -29.631  1.00  0.00     0.272 C 
HETATM    2  C4  UNL     1       6.926   1.770 -28.454  1.00  0.00     0.052 A 
HETATM    3  N1  UNL     1       7.809   2.555 -27.793  1.00  0.00    -0.355 N 
ATOM      4  H1  UNL     1       8.009   3.525 -28.035  1.00  0.00     0.166 HD
HETATM    5  C5  UNL     1       8.390   1.893 -26.776  1.00  0.00     0.063 A 
HETATM    6  C6  UNL     1       9.333   2.210 -25.813  1.00  0.00     0.058 A 
HETATM    7  C7  UNL     1       9.749   1.297 -24.866  1.00  0.00     0.024 A 
HETATM    8  C8  UNL     1      10.763   1.625 -23.823  1.00  0.00     0.070 C 
HETATM    9  N2  UNL     1       9.195   0.077 -24.922  1.00  0.00    -0.305 N 
ATOM     10  H2  UNL     1       9.476  -0.630 -24.242  1.00  0.00     0.186 HD
HETATM   11  N3  UNL     1       8.294  -0.232 -25.838  1.00  0.00    -0.298 N 
ATOM     12  H3  UNL     1       7.912  -1.177 -25.823  1.00  0.00     0.187 HD
HETATM   13  C9  UNL     1       7.845   0.602 -26.785  1.00  0.00     0.083 A 
HETATM   14  C10 UNL     1       6.957   0.564 -27.821  1.00  0.00    -0.001 A 
HETATM   15  C11 UNL     1       6.095  -0.540 -28.304  1.00  0.00     0.079 C 
HETATM   16  C12 UNL     1       5.110  -0.206 -29.328  1.00  0.00     0.228 C 
HETATM   17  N4  UNL     1       4.884   1.192 -29.595  1.00  0.00     0.099 N 
HETATM   18  C17 UNL     1       4.163   1.352 -30.852  1.00  0.00     0.311 C 
ENDROOT
BRANCH  16  19
HETATM   19  C13 UNL     1       3.808  -0.885 -29.167  1.00  0.00     0.040 C 
BRANCH  19  20
HETATM   20  C14 UNL     1       3.107  -0.864 -27.879  1.00  0.00    -0.021 C 
HETATM   21  C15 UNL     1       2.383  -2.233 -27.695  1.00  0.00     0.009 C 
HETATM   22  C16 UNL     1       2.053   0.142 -27.622  1.00  0.00     0.009 C 
ENDBRANCH  19  20
ENDBRANCH  16  19
BRANCH   1  23
HETATM   23  C2  UNL     1       5.603   3.476 -29.599  1.00  0.00     0.038 C 
HETATM   24  C1  UNL     1       6.719   4.400 -29.966  1.00  0.00     0.007 C 
ENDBRANCH   1  23
TORSDOF 3
ENDMDL
MODEL 2
REMARK VINA RESULT: -7.262376636      5.336      9.445
REMARK  3 active torsions:
REMARK  status: ('A' for Active; 'I' for Inactive)
REMARK    1  A    between atoms: C2_2  and  C3_3 
REMARK    2  A    between atoms: C12_18  and  C13_19 
REMARK    3  A    between atoms: C13_19  and  C14_20 
ROOT
HETATM    1  C3  UNL     1       0.976  -1.125 -27.785  1.00  0.00     0.272 C 
HETATM    2  C4  UNL     1      -0.260  -1.952 -27.608  1.00  0.00     0.052 A 
HETATM    3  N1  UNL     1      -1.573  -1.713 -27.836  1.00  0.00    -0.355 N 
ATOM      4  H1  UNL     1      -1.942  -0.835 -28.201  1.00  0.00     0.166 HD
HETATM    5  C5  UNL     1      -2.330  -2.779 -27.522  1.00  0.00     0.063 A 
HETATM    6  C6  UNL     1      -3.684  -3.064 -27.560  1.00  0.00     0.058 A 
HETATM    7  C7  UNL     1      -4.188  -4.285 -27.162  1.00  0.00     0.024 A 
HETATM    8  C8  UNL     1      -5.643  -4.606 -27.198  1.00  0.00     0.070 C 
HETATM    9  N2  UNL     1      -3.298  -5.192 -26.730  1.00  0.00    -0.305 N 
ATOM     10  H2  UNL     1      -3.628  -6.107 -26.424  1.00  0.00     0.186 HD
HETATM   11  N3  UNL     1      -2.004  -4.926 -26.691  1.00  0.00    -0.298 N 
ATOM     12  H3  UNL     1      -1.382  -5.661 -26.354  1.00  0.00     0.187 HD
HETATM   13  C9  UNL     1      -1.447  -3.765 -27.061  1.00  0.00     0.083 A 
HETATM   14  C10 UNL     1      -0.195  -3.226 -27.128  1.00  0.00    -0.001 A 
HETATM   15  C11 UNL     1       1.119  -3.807 -26.769  1.00  0.00     0.079 C 
HETATM   16  C12 UNL     1       2.303  -3.035 -27.134  1.00  0.00     0.228 C 
HETATM   17  N4  UNL     1       2.113  -1.918 -28.024  1.00  0.00     0.099 N 
HETATM   18  C17 UNL     1       3.289  -1.057 -28.006  1.00  0.00     0.311 C 
ENDROOT
BRANCH  16  19
HETATM   19  C13 UNL     1       3.439  -3.849 -27.614  1.00  0.00     0.040 C 
BRANCH  19  20
HETATM   20  C14 UNL     1       3.469  -5.298 -27.390  1.00  0.00    -0.021 C 
HETATM   21  C15 UNL     1       4.325  -5.577 -26.117  1.00  0.00     0.009 C 
HETATM   22  C16 UNL     1       4.040  -6.196 -28.417  1.00  0.00     0.009 C 
ENDBRANCH  19  20
ENDBRANCH  16  19
BRANCH   1  23
HETATM   23  C2  UNL     1       0.746  -0.202 -28.984  1.00  0.00     0.038 C 
HETATM   24  C1  UNL     1       0.838  -0.930 -30.287  1.00  0.00     0.007 C 
ENDBRANCH   1  23
TORSDOF 3
ENDMDL
MODEL 3
REMARK VINA RESULT: -7.237560387      3.969      7.012
REMARK  3 active torsions:
REMARK  status: ('A' for Active; 'I' for Inactive)
REMARK    1  A    between atoms: C2_2  and  C3_3 
REMARK    2  A    between atoms: C12_18  and  C13_19 
REMARK    3  A    between atoms: C13_19  and  C14_20 
ROOT
HETATM    1  C3  UNL     1       0.519  -2.918 -27.067  1.00  0.00     0.272 C 
HETATM    2  C4  UNL     1       1.535  -2.022 -27.709  1.00  0.00     0.052 A 
HETATM    3  N1  UNL     1       1.468  -0.776 -28.233  1.00  0.00    -0.355 N 
ATOM      4  H1  UNL     1       0.619  -0.212 -28.268  1.00  0.00     0.166 HD
HETATM    5  C5  UNL     1       2.663  -0.374 -28.701  1.00  0.00     0.063 A 
HETATM    6  C6  UNL     1       3.140   0.772 -29.316  1.00  0.00     0.058 A 
HETATM    7  C7  UNL     1       4.459   0.904 -29.697  1.00  0.00     0.024 A 
HETATM    8  C8  UNL     1       4.986   2.132 -30.359  1.00  0.00     0.070 C 
HETATM    9  N2  UNL     1       5.266  -0.137 -29.445  1.00  0.00    -0.305 N 
ATOM     10  H2  UNL     1       6.249  -0.082 -29.712  1.00  0.00     0.186 HD
HETATM   11  N3  UNL     1       4.818  -1.233 -28.859  1.00  0.00    -0.298 N 
ATOM     12  H3  UNL     1       5.486  -1.987 -28.695  1.00  0.00     0.187 HD
HETATM   13  C9  UNL     1       3.554  -1.430 -28.463  1.00  0.00     0.083 A 
HETATM   14  C10 UNL     1       2.831  -2.416 -27.857  1.00  0.00    -0.001 A 
HETATM   15  C11 UNL     1       3.248  -3.756 -27.382  1.00  0.00     0.079 C 
HETATM   16  C12 UNL     1       2.273  -4.511 -26.601  1.00  0.00     0.228 C 
HETATM   17  N4  UNL     1       1.104  -3.804 -26.145  1.00  0.00     0.099 N 
HETATM   18  C17 UNL     1       0.085  -4.750 -25.705  1.00  0.00     0.311 C 
ENDROOT
BRANCH  16  19
HETATM   19  C13 UNL     1       2.850  -5.270 -25.473  1.00  0.00     0.040 C 
BRANCH  19  20
HETATM   20  C14 UNL     1       3.372  -6.627 -25.672  1.00  0.00    -0.021 C 
HETATM   21  C15 UNL     1       4.913  -6.596 -25.437  1.00  0.00     0.009 C 
HETATM   22  C16 UNL     1       3.216  -7.298 -26.980  1.00  0.00     0.009 C 
ENDBRANCH  19  20
ENDBRANCH  16  19
BRANCH   1  23
HETATM   23  C2  UNL     1      -0.489  -2.026 -26.339  1.00  0.00     0.038 C 
HETATM   24  C1  UNL     1      -1.806  -1.965 -27.042  1.00  0.00     0.007 C 
ENDBRANCH   1  23
TORSDOF 3
ENDMDL
MODEL 4
REMARK VINA RESULT: -7.133785507      3.486      6.404
REMARK  3 active torsions:
REMARK  status: ('A' for Active; 'I' for Inactive)
REMARK    1  A    between atoms: C2_2  and  C3_3 
REMARK    2  A    between atoms: C12_18  and  C13_19 
REMARK    3  A    between atoms: C13_19  and  C14_20 
ROOT
HETATM    1  C3  UNL     1       0.032  -1.699 -27.800  1.00  0.00     0.272 C 
HETATM    2  C4  UNL     1       1.294  -0.983 -28.173  1.00  0.00     0.052 A 
HETATM    3  N1  UNL     1       1.547   0.266 -28.630  1.00  0.00    -0.355 N 
ATOM      4  H1  UNL     1       0.831   0.970 -28.806  1.00  0.00     0.166 HD
HETATM    5  C5  UNL     1       2.864   0.461 -28.825  1.00  0.00     0.063 A 
HETATM    6  C6  UNL     1       3.642   1.518 -29.267  1.00  0.00     0.058 A 
HETATM    7  C7  UNL     1       5.015   1.425 -29.367  1.00  0.00     0.024 A 
HETATM    8  C8  UNL     1       5.866   2.554 -29.841  1.00  0.00     0.070 C 
HETATM    9  N2  UNL     1       5.567   0.254 -29.015  1.00  0.00    -0.305 N 
ATOM     10  H2  UNL     1       6.579   0.142 -29.074  1.00  0.00     0.186 HD
HETATM   11  N3  UNL     1       4.830  -0.758 -28.592  1.00  0.00    -0.298 N 
ATOM     12  H3  UNL     1       5.313  -1.619 -28.338  1.00  0.00     0.187 HD
HETATM   13  C9  UNL     1       3.496  -0.739 -28.471  1.00  0.00     0.083 A 
HETATM   14  C10 UNL     1       2.508  -1.595 -28.078  1.00  0.00    -0.001 A 
HETATM   15  C11 UNL     1       2.588  -2.995 -27.602  1.00  0.00     0.079 C 
HETATM   16  C12 UNL     1       1.359  -3.583 -27.077  1.00  0.00     0.228 C 
HETATM   17  N4  UNL     1       0.256  -2.692 -26.828  1.00  0.00     0.099 N 
HETATM   18  C17 UNL     1      -0.976  -3.454 -26.655  1.00  0.00     0.311 C 
ENDROOT
BRANCH  16  19
HETATM   19  C13 UNL     1       1.554  -4.453 -25.898  1.00  0.00     0.040 C 
BRANCH  19  20
HETATM   20  C14 UNL     1       2.160  -5.781 -26.040  1.00  0.00    -0.021 C 
HETATM   21  C15 UNL     1       1.207  -6.825 -25.380  1.00  0.00     0.009 C 
HETATM   22  C16 UNL     1       3.481  -6.063 -25.438  1.00  0.00     0.009 C 
ENDBRANCH  19  20
ENDBRANCH  16  19
BRANCH   1  23
HETATM   23  C2  UNL     1      -0.942  -0.659 -27.241  1.00  0.00     0.038 C 
HETATM   24  C1  UNL     1      -0.376   0.076 -26.069  1.00  0.00     0.007 C 
ENDBRANCH   1  23
TORSDOF 3
ENDMDL
MODEL 5
REMARK VINA RESULT: -7.130311746      5.320      8.613
REMARK  3 active torsions:
REMARK  status: ('A' for Active; 'I' for Inactive)
REMARK    1  A    between atoms: C2_2  and  C3_3 
REMARK    2  A    between atoms: C12_18  and  C13_19 
REMARK    3  A    between atoms: C13_19  and  C14_20 
ROOT
HETATM    1  C3  UNL     1       0.322  -3.480 -26.078  1.00  0.00     0.272 C 
HETATM    2  C4  UNL     1       0.849  -2.646 -27.205  1.00  0.00     0.052 A 
HETATM    3  N1  UNL     1       2.078  -2.159 -27.499  1.00  0.00    -0.355 N 
ATOM      4  H1  UNL     1       2.908  -2.310 -26.925  1.00  0.00     0.166 HD
HETATM    5  C5  UNL     1       2.067  -1.452 -28.642  1.00  0.00     0.063 A 
HETATM    6  C6  UNL     1       3.017  -0.761 -29.376  1.00  0.00     0.058 A 
HETATM    7  C7  UNL     1       2.705  -0.109 -30.550  1.00  0.00     0.024 A 
HETATM    8  C8  UNL     1       3.717   0.639 -31.350  1.00  0.00     0.070 C 
HETATM    9  N2  UNL     1       1.427  -0.174 -30.954  1.00  0.00    -0.305 N 
ATOM     10  H2  UNL     1       1.153   0.295 -31.817  1.00  0.00     0.186 HD
HETATM   11  N3  UNL     1       0.516  -0.832 -30.259  1.00  0.00    -0.298 N 
ATOM     12  H3  UNL     1      -0.437  -0.844 -30.623  1.00  0.00     0.187 HD
HETATM   13  C9  UNL     1       0.748  -1.485 -29.113  1.00  0.00     0.083 A 
HETATM   14  C10 UNL     1       0.035  -2.222 -28.212  1.00  0.00    -0.001 A 
HETATM   15  C11 UNL     1      -1.401  -2.586 -28.195  1.00  0.00     0.079 C 
HETATM   16  C12 UNL     1      -1.825  -3.548 -27.183  1.00  0.00     0.228 C 
HETATM   17  N4  UNL     1      -0.790  -4.249 -26.465  1.00  0.00     0.099 N 
HETATM   18  C17 UNL     1      -1.347  -4.887 -25.278  1.00  0.00     0.311 C 
ENDROOT
BRANCH  16  19
HETATM   19  C13 UNL     1      -2.834  -4.521 -27.650  1.00  0.00     0.040 C 
BRANCH  19  20
HETATM   20  C14 UNL     1      -4.246  -4.368 -27.287  1.00  0.00    -0.021 C 
HETATM   21  C15 UNL     1      -5.099  -5.221 -28.276  1.00  0.00     0.009 C 
HETATM   22  C16 UNL     1      -4.881  -3.033 -27.316  1.00  0.00     0.009 C 
ENDBRANCH  19  20
ENDBRANCH  16  19
BRANCH   1  23
HETATM   23  C2  UNL     1       1.448  -4.414 -25.629  1.00  0.00     0.038 C 
HETATM   24  C1  UNL     1       1.923  -5.302 -26.733  1.00  0.00     0.007 C 
ENDBRANCH   1  23
TORSDOF 3
ENDMDL
