MODEL 1
REMARK VINA RESULT: -5.100724541      0.000      0.000
REMARK  5 active torsions:
REMARK  status: ('A' for Active; 'I' for Inactive)
REMARK    1  A    between atoms: C3_3  and  N1_4 
REMARK    2  A    between atoms: N1_4  and  C5_6 
REMARK    3  A    between atoms: C7_8  and  C8_9 
REMARK    4  A    between atoms: C8_9  and  C9_10 
REMARK    5  A    between atoms: C11_23  and  N7_24 
ROOT
HETATM    1  C1  UNL     1      24.096  17.617  11.477  1.00  0.00     0.013 C 
HETATM    2  C2  UNL     1      23.784  16.852  12.361  1.00  0.00    -0.087 C 
HETATM    3  C3  UNL     1      23.424  15.911  13.455  1.00  0.00     0.365 C 
ENDROOT
BRANCH   3   4
HETATM    4  N1  UNL     1      22.298  16.550  14.181  1.00  0.00     0.104 N 
HETATM    5  C4  UNL     1      21.221  16.527  13.167  1.00  0.00     0.311 C 
BRANCH   4   6
HETATM    6  C5  UNL     1      22.009  15.716  15.314  1.00  0.00     0.266 C 
HETATM    7  C6  UNL     1      20.606  15.163  15.327  1.00  0.00     0.074 C 
HETATM    8  C7  UNL     1      20.387  14.181  16.420  1.00  0.00     0.140 C 
HETATM    9  O1  UNL     1      21.449  14.168  17.393  1.00  0.00    -0.329 OA
HETATM   10  C10 UNL     1      22.062  15.396  17.711  1.00  0.00     0.169 A 
HETATM   11  N6  UNL     1      22.361  15.797  18.933  1.00  0.00    -0.170 N 
HETATM   12  C13 UNL     1      22.368  16.237  16.631  1.00  0.00     0.068 A 
HETATM   13  C11 UNL     1      22.954  16.984  19.219  1.00  0.00     0.679 A 
ATOM     14  H6  UNL     1      22.133  15.177  19.710  1.00  0.00     0.186 HD
HETATM   15  N8  UNL     1      23.256  17.799  18.208  1.00  0.00    -0.178 N 
HETATM   16  C12 UNL     1      22.968  17.436  16.918  1.00  0.00     0.144 A 
ATOM     17  H8  UNL     1      23.703  18.697  18.395  1.00  0.00     0.185 HD
HETATM   18  N9  UNL     1      23.363  18.364  15.938  1.00  0.00    -0.081 NA
BRANCH   8  19
HETATM   19  C8  UNL     1      19.139  14.462  17.230  1.00  0.00     0.112 C 
BRANCH  19  20
HETATM   20  C9  UNL     1      18.147  13.363  17.200  1.00  0.00     0.115 A 
HETATM   21  N2  UNL     1      18.199  12.160  16.597  1.00  0.00    -0.272 N 
HETATM   22  N3  UNL     1      17.082  11.506  16.859  1.00  0.00    -0.227 N 
ATOM     23  H2  UNL     1      18.974  11.813  16.032  1.00  0.00     0.190 HD
HETATM   24  N4  UNL     1      16.305  12.233  17.609  1.00  0.00    -0.227 N 
ATOM     25  H3  UNL     1      16.861  10.569  16.523  1.00  0.00     0.210 HD
HETATM   26  N5  UNL     1      16.941  13.369  17.826  1.00  0.00    -0.272 N 
ATOM     27  H4  UNL     1      15.383  11.974  17.961  1.00  0.00     0.210 HD
ATOM     28  H5  UNL     1      16.579  14.142  18.384  1.00  0.00     0.190 HD
ENDBRANCH  19  20
ENDBRANCH   8  19
BRANCH  13  29
HETATM   29  N7  UNL     1      23.176  17.219  20.455  1.00  0.00    -0.234 N 
ATOM     30  H72 UNL     1      23.436  16.523  21.154  1.00  0.00     0.174 HD
ATOM     31  H71 UNL     1      23.080  18.190  20.752  1.00  0.00     0.174 HD
ENDBRANCH  13  29
ENDBRANCH   4   6
ENDBRANCH   3   4
TORSDOF 5
ENDMDL
MODEL 2
REMARK VINA RESULT: -5.027998918      2.666      5.130
REMARK  5 active torsions:
REMARK  status: ('A' for Active; 'I' for Inactive)
REMARK    1  A    between atoms: C3_3  and  N1_4 
REMARK    2  A    between atoms: N1_4  and  C5_6 
REMARK    3  A    between atoms: C7_8  and  C8_9 
REMARK    4  A    between atoms: C8_9  and  C9_10 
REMARK    5  A    between atoms: C11_23  and  N7_24 
ROOT
HETATM    1  C1  UNL     1      22.995  17.912   8.854  1.00  0.00     0.013 C 
HETATM    2  C2  UNL     1      23.598  17.971   9.901  1.00  0.00    -0.087 C 
HETATM    3  C3  UNL     1      24.330  18.065  11.193  1.00  0.00     0.365 C 
ENDROOT
BRANCH   3   4
HETATM    4  N1  UNL     1      24.077  16.780  11.893  1.00  0.00     0.104 N 
HETATM    5  C4  UNL     1      25.350  16.056  11.685  1.00  0.00     0.311 C 
BRANCH   4   6
HETATM    6  C5  UNL     1      23.841  17.100  13.273  1.00  0.00     0.266 C 
HETATM    7  C6  UNL     1      24.953  16.676  14.199  1.00  0.00     0.074 C 
HETATM    8  C7  UNL     1      24.756  17.160  15.590  1.00  0.00     0.140 C 
HETATM    9  O1  UNL     1      23.436  17.683  15.828  1.00  0.00    -0.329 OA
HETATM   10  C10 UNL     1      22.354  17.054  15.180  1.00  0.00     0.169 A 
HETATM   11  N6  UNL     1      21.202  16.755  15.751  1.00  0.00    -0.170 N 
HETATM   12  C13 UNL     1      22.541  16.732  13.828  1.00  0.00     0.068 A 
HETATM   13  C11 UNL     1      20.171  16.150  15.108  1.00  0.00     0.679 A 
ATOM     14  H6  UNL     1      21.078  16.994  16.735  1.00  0.00     0.186 HD
HETATM   15  N8  UNL     1      20.324  15.836  13.822  1.00  0.00    -0.178 N 
HETATM   16  C12 UNL     1      21.500  16.121  13.177  1.00  0.00     0.144 A 
ATOM     17  H8  UNL     1      19.565  15.381  13.316  1.00  0.00     0.185 HD
HETATM   18  N9  UNL     1      21.529  15.771  11.815  1.00  0.00    -0.081 NA
BRANCH   8  19
HETATM   19  C8  UNL     1      24.920  16.069  16.627  1.00  0.00     0.112 C 
BRANCH  19  20
HETATM   20  C9  UNL     1      23.982  16.182  17.768  1.00  0.00     0.115 A 
HETATM   21  N2  UNL     1      23.767  17.203  18.619  1.00  0.00    -0.272 N 
HETATM   22  N3  UNL     1      22.821  16.851  19.471  1.00  0.00    -0.227 N 
ATOM     23  H2  UNL     1      24.254  18.098  18.607  1.00  0.00     0.190 HD
HETATM   24  N4  UNL     1      22.409  15.645  19.209  1.00  0.00    -0.227 N 
ATOM     25  H3  UNL     1      22.464  17.440  20.224  1.00  0.00     0.210 HD
HETATM   26  N5  UNL     1      23.109  15.223  18.171  1.00  0.00    -0.272 N 
ATOM     27  H4  UNL     1      21.687  15.126  19.708  1.00  0.00     0.210 HD
ATOM     28  H5  UNL     1      23.008  14.306  17.735  1.00  0.00     0.190 HD
ENDBRANCH  19  20
ENDBRANCH   8  19
BRANCH  13  29
HETATM   29  N7  UNL     1      19.122  15.932  15.806  1.00  0.00    -0.234 N 
ATOM     30  H72 UNL     1      18.898  16.379  16.695  1.00  0.00     0.174 HD
ATOM     31  H71 UNL     1      18.465  15.249  15.428  1.00  0.00     0.174 HD
ENDBRANCH  13  29
ENDBRANCH   4   6
ENDBRANCH   3   4
TORSDOF 5
ENDMDL
MODEL 3
REMARK VINA RESULT: -4.921460813      2.891      4.941
REMARK  5 active torsions:
REMARK  status: ('A' for Active; 'I' for Inactive)
REMARK    1  A    between atoms: C3_3  and  N1_4 
REMARK    2  A    between atoms: N1_4  and  C5_6 
REMARK    3  A    between atoms: C7_8  and  C8_9 
REMARK    4  A    between atoms: C8_9  and  C9_10 
REMARK    5  A    between atoms: C11_23  and  N7_24 
ROOT
HETATM    1  C1  UNL     1      23.739  17.913   9.277  1.00  0.00     0.013 C 
HETATM    2  C2  UNL     1      24.050  17.808  10.442  1.00  0.00    -0.087 C 
HETATM    3  C3  UNL     1      24.426  17.702  11.877  1.00  0.00     0.365 C 
ENDROOT
BRANCH   3   4
HETATM    4  N1  UNL     1      23.776  16.462  12.372  1.00  0.00     0.104 N 
HETATM    5  C4  UNL     1      24.939  15.640  12.772  1.00  0.00     0.311 C 
BRANCH   4   6
HETATM    6  C5  UNL     1      22.956  16.841  13.489  1.00  0.00     0.266 C 
HETATM    7  C6  UNL     1      23.475  16.361  14.821  1.00  0.00     0.074 C 
HETATM    8  C7  UNL     1      22.697  16.902  15.966  1.00  0.00     0.140 C 
HETATM    9  O1  UNL     1      21.464  17.531  15.569  1.00  0.00    -0.329 OA
HETATM   10  C10 UNL     1      20.757  16.966  14.489  1.00  0.00     0.169 A 
HETATM   11  N6  UNL     1      19.452  16.774  14.458  1.00  0.00    -0.170 N 
HETATM   12  C13 UNL     1      21.521  16.590  13.375  1.00  0.00     0.068 A 
HETATM   13  C11 UNL     1      18.789  16.230  13.406  1.00  0.00     0.679 A 
ATOM     14  H6  UNL     1      18.907  17.051  15.275  1.00  0.00     0.186 HD
HETATM   15  N8  UNL     1      19.494  15.866  12.335  1.00  0.00    -0.178 N 
HETATM   16  C12 UNL     1      20.853  16.041  12.310  1.00  0.00     0.144 A 
ATOM     17  H8  UNL     1      19.020  15.455  11.530  1.00  0.00     0.185 HD
HETATM   18  N9  UNL     1      21.480  15.648  11.114  1.00  0.00    -0.081 NA
BRANCH   8  19
HETATM   19  C8  UNL     1      22.273  15.833  16.952  1.00  0.00     0.112 C 
BRANCH  19  20
HETATM   20  C9  UNL     1      21.340  16.319  17.995  1.00  0.00     0.115 A 
HETATM   21  N2  UNL     1      20.057  15.989  18.235  1.00  0.00    -0.272 N 
HETATM   22  N3  UNL     1      19.634  16.672  19.283  1.00  0.00    -0.227 N 
ATOM     23  H2  UNL     1      19.505  15.322  17.698  1.00  0.00     0.190 HD
HETATM   24  N4  UNL     1      20.588  17.433  19.736  1.00  0.00    -0.227 N 
ATOM     25  H3  UNL     1      18.696  16.613  19.680  1.00  0.00     0.210 HD
HETATM   26  N5  UNL     1      21.636  17.228  18.959  1.00  0.00    -0.272 N 
ATOM     27  H4  UNL     1      20.537  18.065  20.535  1.00  0.00     0.210 HD
ATOM     28  H5  UNL     1      22.541  17.688  19.068  1.00  0.00     0.190 HD
ENDBRANCH  19  20
ENDBRANCH   8  19
BRANCH  13  29
HETATM   29  N7  UNL     1      17.523  16.114  13.537  1.00  0.00    -0.234 N 
ATOM     30  H72 UNL     1      17.035  15.893  14.405  1.00  0.00     0.174 HD
ATOM     31  H71 UNL     1      16.969  16.256  12.692  1.00  0.00     0.174 HD
ENDBRANCH  13  29
ENDBRANCH   4   6
ENDBRANCH   3   4
TORSDOF 5
ENDMDL
MODEL 4
REMARK VINA RESULT: -4.852932045      3.126      7.333
REMARK  5 active torsions:
REMARK  status: ('A' for Active; 'I' for Inactive)
REMARK    1  A    between atoms: C3_3  and  N1_4 
REMARK    2  A    between atoms: N1_4  and  C5_6 
REMARK    3  A    between atoms: C7_8  and  C8_9 
REMARK    4  A    between atoms: C8_9  and  C9_10 
REMARK    5  A    between atoms: C11_23  and  N7_24 
ROOT
HETATM    1  C1  UNL     1      23.065  16.742  20.265  1.00  0.00     0.013 C 
HETATM    2  C2  UNL     1      23.364  16.417  19.139  1.00  0.00    -0.087 C 
HETATM    3  C3  UNL     1      23.734  15.995  17.761  1.00  0.00     0.365 C 
ENDROOT
BRANCH   3   4
HETATM    4  N1  UNL     1      22.633  16.469  16.886  1.00  0.00     0.104 N 
HETATM    5  C4  UNL     1      22.524  17.894  17.268  1.00  0.00     0.311 C 
BRANCH   4   6
HETATM    6  C5  UNL     1      23.076  16.292  15.531  1.00  0.00     0.266 C 
HETATM    7  C6  UNL     1      24.147  17.264  15.104  1.00  0.00     0.074 C 
HETATM    8  C7  UNL     1      24.696  16.957  13.758  1.00  0.00     0.140 C 
HETATM    9  O1  UNL     1      23.916  15.986  13.035  1.00  0.00    -0.329 OA
HETATM   10  C10 UNL     1      22.517  16.019  13.194  1.00  0.00     0.169 A 
HETATM   11  N6  UNL     1      21.642  15.907  12.211  1.00  0.00    -0.170 N 
HETATM   12  C13 UNL     1      22.043  16.182  14.503  1.00  0.00     0.068 A 
HETATM   13  C11 UNL     1      20.297  15.939  12.385  1.00  0.00     0.679 A 
ATOM     14  H6  UNL     1      21.999  15.790  11.263  1.00  0.00     0.186 HD
HETATM   15  N8  UNL     1      19.823  16.092  13.622  1.00  0.00    -0.178 N 
HETATM   16  C12 UNL     1      20.684  16.213  14.681  1.00  0.00     0.144 A 
ATOM     17  H8  UNL     1      18.815  16.119  13.780  1.00  0.00     0.185 HD
HETATM   18  N9  UNL     1      20.064  16.337  15.938  1.00  0.00    -0.081 NA
BRANCH   8  19
HETATM   19  C8  UNL     1      24.737  18.163  12.844  1.00  0.00     0.112 C 
BRANCH  19  20
HETATM   20  C9  UNL     1      24.649  17.825  11.404  1.00  0.00     0.115 A 
HETATM   21  N2  UNL     1      25.508  17.153  10.615  1.00  0.00    -0.272 N 
HETATM   22  N3  UNL     1      25.000  17.085   9.398  1.00  0.00    -0.227 N 
ATOM     23  H2  UNL     1      26.402  16.761  10.909  1.00  0.00     0.190 HD
HETATM   24  N4  UNL     1      23.845  17.684   9.362  1.00  0.00    -0.227 N 
ATOM     25  H3  UNL     1      25.447  16.629   8.602  1.00  0.00     0.210 HD
HETATM   26  N5  UNL     1      23.617  18.141  10.580  1.00  0.00    -0.272 N 
ATOM     27  H4  UNL     1      23.234  17.781   8.551  1.00  0.00     0.210 HD
ATOM     28  H5  UNL     1      22.784  18.658  10.862  1.00  0.00     0.190 HD
ENDBRANCH  19  20
ENDBRANCH   8  19
BRANCH  13  29
HETATM   29  N7  UNL     1      19.589  15.817  11.328  1.00  0.00    -0.234 N 
ATOM     30  H72 UNL     1      19.507  14.971  10.764  1.00  0.00     0.174 HD
ATOM     31  H71 UNL     1      19.069  16.645  11.037  1.00  0.00     0.174 HD
ENDBRANCH  13  29
ENDBRANCH   4   6
ENDBRANCH   3   4
TORSDOF 5
ENDMDL
MODEL 5
REMARK VINA RESULT: -4.776107058      1.455      4.385
REMARK  5 active torsions:
REMARK  status: ('A' for Active; 'I' for Inactive)
REMARK    1  A    between atoms: C3_3  and  N1_4 
REMARK    2  A    between atoms: N1_4  and  C5_6 
REMARK    3  A    between atoms: C7_8  and  C8_9 
REMARK    4  A    between atoms: C8_9  and  C9_10 
REMARK    5  A    between atoms: C11_23  and  N7_24 
ROOT
HETATM    1  C1  UNL     1      20.682  17.544  19.733  1.00  0.00     0.013 C 
HETATM    2  C2  UNL     1      21.787  17.668  19.255  1.00  0.00    -0.087 C 
HETATM    3  C3  UNL     1      23.154  17.824  18.690  1.00  0.00     0.365 C 
ENDROOT
BRANCH   3   4
HETATM    4  N1  UNL     1      23.363  16.646  17.811  1.00  0.00     0.104 N 
HETATM    5  C4  UNL     1      23.667  15.578  18.789  1.00  0.00     0.311 C 
BRANCH   4   6
HETATM    6  C5  UNL     1      22.125  16.424  17.116  1.00  0.00     0.266 C 
HETATM    7  C6  UNL     1      21.363  15.213  17.592  1.00  0.00     0.074 C 
HETATM    8  C7  UNL     1      20.019  15.100  16.969  1.00  0.00     0.140 C 
HETATM    9  O1  UNL     1      19.834  15.992  15.854  1.00  0.00    -0.329 OA
HETATM   10  C10 UNL     1      20.941  16.234  15.016  1.00  0.00     0.169 A 
HETATM   11  N6  UNL     1      20.898  16.259  13.697  1.00  0.00    -0.170 N 
HETATM   12  C13 UNL     1      22.167  16.464  15.656  1.00  0.00     0.068 A 
HETATM   13  C11 UNL     1      21.976  16.495  12.907  1.00  0.00     0.679 A 
ATOM     14  H6  UNL     1      20.001  16.089  13.243  1.00  0.00     0.186 HD
HETATM   15  N8  UNL     1      23.153  16.719  13.493  1.00  0.00    -0.178 N 
HETATM   16  C12 UNL     1      23.257  16.704  14.860  1.00  0.00     0.144 A 
ATOM     17  H8  UNL     1      23.979  16.900  12.923  1.00  0.00     0.185 HD
HETATM   18  N9  UNL     1      24.541  16.985  15.359  1.00  0.00    -0.081 NA
BRANCH   8  19
HETATM   19  C8  UNL     1      19.742  13.725  16.400  1.00  0.00     0.112 C 
BRANCH  19  20
HETATM   20  C9  UNL     1      18.459  13.138  16.852  1.00  0.00     0.115 A 
HETATM   21  N2  UNL     1      17.492  13.658  17.630  1.00  0.00    -0.272 N 
HETATM   22  N3  UNL     1      16.523  12.769  17.752  1.00  0.00    -0.227 N 
ATOM     23  H2  UNL     1      17.506  14.585  18.056  1.00  0.00     0.190 HD
HETATM   24  N4  UNL     1      16.819  11.692  17.083  1.00  0.00    -0.227 N 
ATOM     25  H3  UNL     1      15.668  12.906  18.291  1.00  0.00     0.210 HD
HETATM   26  N5  UNL     1      17.998  11.902  16.528  1.00  0.00    -0.272 N 
ATOM     27  H4  UNL     1      16.250  10.849  17.003  1.00  0.00     0.210 HD
ATOM     28  H5  UNL     1      18.493  11.232  15.939  1.00  0.00     0.190 HD
ENDBRANCH  19  20
ENDBRANCH   8  19
BRANCH  13  29
HETATM   29  N7  UNL     1      21.765  16.485  11.647  1.00  0.00    -0.234 N 
ATOM     30  H72 UNL     1      21.015  16.985  11.167  1.00  0.00     0.174 HD
ATOM     31  H71 UNL     1      22.407  15.924  11.087  1.00  0.00     0.174 HD
ENDBRANCH  13  29
ENDBRANCH   4   6
ENDBRANCH   3   4
TORSDOF 5
ENDMDL
