MODEL 1
REMARK VINA RESULT: -4.703412185      0.000      0.000
REMARK  7 active torsions:
REMARK  status: ('A' for Active; 'I' for Inactive)
REMARK    1  A    between atoms: N1_2  and  C2_3 
REMARK    2  A    between atoms: N1_2  and  C4_7 
REMARK    3  A    between atoms: C2_3  and  C3_4 
REMARK    4  A    between atoms: C3_4  and  O1_5 
REMARK    5  A    between atoms: C5_10  and  N3_11 
REMARK    6  A    between atoms: C11_22  and  N6_23 
REMARK    7  A    between atoms: C12_28  and  N8_29 
ROOT
HETATM    1  C4  UNL     1      46.741  44.061 173.631  1.00  0.00     0.136 A 
HETATM    2  N2  UNL     1      48.091  44.390 173.596  1.00  0.00    -0.176 N 
ATOM      3  H2  UNL     1      48.337  45.379 173.627  1.00  0.00     0.186 HD
HETATM    4  C5  UNL     1      49.070  43.525 173.527  1.00  0.00     0.683 A 
HETATM    5  N4  UNL     1      48.747  42.217 173.488  1.00  0.00    -0.175 N 
ATOM      6  H4  UNL     1      49.495  41.526 173.435  1.00  0.00     0.186 HD
HETATM    7  C10 UNL     1      47.487  41.800 173.519  1.00  0.00     0.154 A 
HETATM    8  N5  UNL     1      47.203  40.494 173.488  1.00  0.00    -0.175 N 
ATOM      9  H5  UNL     1      47.957  39.809 173.433  1.00  0.00     0.186 HD
HETATM   10  C11 UNL     1      45.943  40.089 173.527  1.00  0.00     0.679 A 
HETATM   11  N7  UNL     1      44.944  40.959 173.598  1.00  0.00    -0.176 N 
ATOM     12  H7  UNL     1      43.982  40.623 173.629  1.00  0.00     0.186 HD
HETATM   13  C12 UNL     1      45.190  42.279 173.631  1.00  0.00     0.132 A 
HETATM   14  C13 UNL     1      46.469  42.746 173.591  1.00  0.00     0.098 A 
ENDROOT
BRANCH   1  15
HETATM   15  N1  UNL     1      45.899  45.184 173.664  1.00  0.00    -0.368 N 
HETATM   16  C1  UNL     1      45.462  45.776 172.440  1.00  0.00     0.151 C 
BRANCH  15  17
HETATM   17  C2  UNL     1      45.575  45.798 174.913  1.00  0.00     0.150 C 
BRANCH  17  18
HETATM   18  C3  UNL     1      46.206  47.099 175.256  1.00  0.00     0.183 C 
BRANCH  18  19
HETATM   19  O1  UNL     1      47.595  47.061 175.114  1.00  0.00    -0.399 OA
ATOM     20  H1  UNL     1      47.959  47.921 174.938  1.00  0.00     0.209 HD
ENDBRANCH  18  19
ENDBRANCH  17  18
ENDBRANCH  15  17
ENDBRANCH   1  15
BRANCH   4  21
HETATM   21  N3  UNL     1      50.455  43.855 173.489  1.00  0.00    -0.213 N 
HETATM   22  C6  UNL     1      51.374  43.173 172.591  1.00  0.00     0.167 C 
HETATM   23  C7  UNL     1      52.407  42.514 173.509  1.00  0.00     0.188 C 
HETATM   24  O2  UNL     1      52.986  43.435 174.371  1.00  0.00    -0.388 OA
HETATM   25  C8  UNL     1      52.557  44.733 174.155  1.00  0.00     0.188 C 
HETATM   26  C9  UNL     1      51.044  44.883 174.331  1.00  0.00     0.167 C 
ENDBRANCH   4  21
BRANCH  13  27
HETATM   27  N8  UNL     1      44.211  43.054 173.717  1.00  0.00    -0.384 N 
ATOM     28  H82 UNL     1      44.013  43.749 172.996  1.00  0.00     0.157 HD
ATOM     29  H81 UNL     1      43.617  42.982 174.543  1.00  0.00     0.157 HD
ENDBRANCH  13  27
BRANCH  10  30
HETATM   30  N6  UNL     1      45.619  38.820 173.498  1.00  0.00    -0.234 N 
ATOM     31  H62 UNL     1      46.276  38.189 173.041  1.00  0.00     0.174 HD
ATOM     32  H61 UNL     1      44.754  38.473 173.911  1.00  0.00     0.174 HD
ENDBRANCH  10  30
TORSDOF 7
ENDMDL
MODEL 2
REMARK VINA RESULT: -4.518740896      2.312      5.470
REMARK  7 active torsions:
REMARK  status: ('A' for Active; 'I' for Inactive)
REMARK    1  A    between atoms: N1_2  and  C2_3 
REMARK    2  A    between atoms: N1_2  and  C4_7 
REMARK    3  A    between atoms: C2_3  and  C3_4 
REMARK    4  A    between atoms: C3_4  and  O1_5 
REMARK    5  A    between atoms: C5_10  and  N3_11 
REMARK    6  A    between atoms: C11_22  and  N6_23 
REMARK    7  A    between atoms: C12_28  and  N8_29 
ROOT
HETATM    1  C4  UNL     1      49.877  42.312 174.421  1.00  0.00     0.136 A 
HETATM    2  N2  UNL     1      49.017  43.357 174.101  1.00  0.00    -0.176 N 
ATOM      3  H2  UNL     1      49.433  44.269 173.912  1.00  0.00     0.186 HD
HETATM    4  C5  UNL     1      47.716  43.257 174.024  1.00  0.00     0.683 A 
HETATM    5  N4  UNL     1      47.166  42.052 174.272  1.00  0.00    -0.175 N 
ATOM      6  H4  UNL     1      46.152  41.952 174.217  1.00  0.00     0.186 HD
HETATM    7  C10 UNL     1      47.900  40.991 174.583  1.00  0.00     0.154 A 
HETATM    8  N5  UNL     1      47.321  39.808 174.814  1.00  0.00    -0.175 N 
ATOM      9  H5  UNL     1      46.307  39.717 174.758  1.00  0.00     0.186 HD
HETATM   10  C11 UNL     1      48.064  38.755 175.116  1.00  0.00     0.679 A 
HETATM   11  N7  UNL     1      49.386  38.847 175.194  1.00  0.00    -0.176 N 
ATOM     12  H7  UNL     1      49.937  38.021 175.427  1.00  0.00     0.186 HD
HETATM   13  C12 UNL     1      50.003  40.018 174.970  1.00  0.00     0.132 A 
HETATM   14  C13 UNL     1      49.282  41.131 174.658  1.00  0.00     0.098 A 
ENDROOT
BRANCH   1  15
HETATM   15  N1  UNL     1      51.225  42.701 174.473  1.00  0.00    -0.368 N 
HETATM   16  C1  UNL     1      51.755  43.253 175.680  1.00  0.00     0.151 C 
BRANCH  15  17
HETATM   17  C2  UNL     1      52.030  42.653 173.293  1.00  0.00     0.150 C 
BRANCH  17  18
HETATM   18  C3  UNL     1      51.584  43.402 172.091  1.00  0.00     0.183 C 
BRANCH  18  19
HETATM   19  O1  UNL     1      51.995  42.786 170.907  1.00  0.00    -0.399 OA
ATOM     20  H1  UNL     1      52.449  41.968 171.069  1.00  0.00     0.209 HD
ENDBRANCH  18  19
ENDBRANCH  17  18
ENDBRANCH  15  17
ENDBRANCH   1  15
BRANCH   4  21
HETATM   21  N3  UNL     1      46.830  44.323 173.699  1.00  0.00    -0.213 N 
HETATM   22  C6  UNL     1      45.570  44.505 174.404  1.00  0.00     0.167 C 
HETATM   23  C7  UNL     1      44.492  44.385 173.324  1.00  0.00     0.188 C 
HETATM   24  O2  UNL     1      44.721  45.262 172.273  1.00  0.00    -0.388 OA
HETATM   25  C8  UNL     1      45.815  46.085 172.474  1.00  0.00     0.188 C 
HETATM   26  C9  UNL     1      47.113  45.294 172.656  1.00  0.00     0.167 C 
ENDBRANCH   4  21
BRANCH  13  27
HETATM   27  N8  UNL     1      51.252  40.043 175.040  1.00  0.00    -0.384 N 
ATOM     28  H82 UNL     1      51.789  39.223 175.324  1.00  0.00     0.157 HD
ATOM     29  H81 UNL     1      51.725  40.919 174.818  1.00  0.00     0.157 HD
ENDBRANCH  13  27
BRANCH  10  30
HETATM   30  N6  UNL     1      47.540  37.578 175.350  1.00  0.00    -0.234 N 
ATOM     31  H62 UNL     1      47.933  36.790 174.835  1.00  0.00     0.174 HD
ATOM     32  H61 UNL     1      46.777  37.447 176.013  1.00  0.00     0.174 HD
ENDBRANCH  10  30
TORSDOF 7
ENDMDL
MODEL 3
REMARK VINA RESULT: -4.414179590      1.659      2.055
REMARK  7 active torsions:
REMARK  status: ('A' for Active; 'I' for Inactive)
REMARK    1  A    between atoms: N1_2  and  C2_3 
REMARK    2  A    between atoms: N1_2  and  C4_7 
REMARK    3  A    between atoms: C2_3  and  C3_4 
REMARK    4  A    between atoms: C3_4  and  O1_5 
REMARK    5  A    between atoms: C5_10  and  N3_11 
REMARK    6  A    between atoms: C11_22  and  N6_23 
REMARK    7  A    between atoms: C12_28  and  N8_29 
ROOT
HETATM    1  C4  UNL     1      46.612  42.937 174.255  1.00  0.00     0.136 A 
HETATM    2  N2  UNL     1      47.983  43.161 174.207  1.00  0.00    -0.176 N 
ATOM      3  H2  UNL     1      48.305  44.128 174.250  1.00  0.00     0.186 HD
HETATM    4  C5  UNL     1      48.891  42.225 174.111  1.00  0.00     0.683 A 
HETATM    5  N4  UNL     1      48.468  40.947 174.056  1.00  0.00    -0.175 N 
ATOM      6  H4  UNL     1      49.160  40.201 173.981  1.00  0.00     0.186 HD
HETATM    7  C10 UNL     1      47.181  40.627 174.096  1.00  0.00     0.154 A 
HETATM    8  N5  UNL     1      46.796  39.348 174.048  1.00  0.00    -0.175 N 
ATOM      9  H5  UNL     1      47.494  38.608 173.973  1.00  0.00     0.186 HD
HETATM   10  C11 UNL     1      45.510  39.040 174.099  1.00  0.00     0.679 A 
HETATM   11  N7  UNL     1      44.582  39.983 174.198  1.00  0.00    -0.176 N 
ATOM     12  H7  UNL     1      43.596  39.721 174.236  1.00  0.00     0.186 HD
HETATM   13  C12 UNL     1      44.929  41.280 174.248  1.00  0.00     0.132 A 
HETATM   14  C13 UNL     1      46.240  41.647 174.198  1.00  0.00     0.098 A 
ENDROOT
BRANCH   1  15
HETATM   15  N1  UNL     1      45.860  44.120 174.318  1.00  0.00    -0.368 N 
HETATM   16  C1  UNL     1      45.587  44.718 175.587  1.00  0.00     0.151 C 
BRANCH  15  17
HETATM   17  C2  UNL     1      45.274  44.659 173.131  1.00  0.00     0.150 C 
BRANCH  17  18
HETATM   18  C3  UNL     1      45.974  45.761 172.423  1.00  0.00     0.183 C 
BRANCH  18  19
HETATM   19  O1  UNL     1      45.235  46.241 171.340  1.00  0.00    -0.399 OA
ATOM     20  H1  UNL     1      45.576  45.931 170.509  1.00  0.00     0.209 HD
ENDBRANCH  18  19
ENDBRANCH  17  18
ENDBRANCH  15  17
ENDBRANCH   1  15
BRANCH   4  21
HETATM   21  N3  UNL     1      50.297  42.449 174.059  1.00  0.00    -0.213 N 
HETATM   22  C6  UNL     1      50.852  43.668 173.494  1.00  0.00     0.167 C 
HETATM   23  C7  UNL     1      51.721  43.202 172.323  1.00  0.00     0.188 C 
HETATM   24  O2  UNL     1      52.650  42.251 172.723  1.00  0.00    -0.388 OA
HETATM   25  C8  UNL     1      52.628  42.002 174.084  1.00  0.00     0.188 C 
HETATM   26  C9  UNL     1      51.267  41.489 174.560  1.00  0.00     0.167 C 
ENDBRANCH   4  21
BRANCH  13  27
HETATM   27  N8  UNL     1      44.013  42.126 174.359  1.00  0.00    -0.384 N 
ATOM     28  H82 UNL     1      43.255  42.187 173.679  1.00  0.00     0.157 HD
ATOM     29  H81 UNL     1      44.053  42.770 175.149  1.00  0.00     0.157 HD
ENDBRANCH  13  27
BRANCH  10  30
HETATM   30  N6  UNL     1      45.088  37.801 174.054  1.00  0.00    -0.234 N 
ATOM     31  H62 UNL     1      45.606  37.161 173.453  1.00  0.00     0.174 HD
ATOM     32  H61 UNL     1      44.282  37.484 174.592  1.00  0.00     0.174 HD
ENDBRANCH  10  30
TORSDOF 7
ENDMDL
MODEL 4
REMARK VINA RESULT: -4.328153850      7.622      9.963
REMARK  7 active torsions:
REMARK  status: ('A' for Active; 'I' for Inactive)
REMARK    1  A    between atoms: N1_2  and  C2_3 
REMARK    2  A    between atoms: N1_2  and  C4_7 
REMARK    3  A    between atoms: C2_3  and  C3_4 
REMARK    4  A    between atoms: C3_4  and  O1_5 
REMARK    5  A    between atoms: C5_10  and  N3_11 
REMARK    6  A    between atoms: C11_22  and  N6_23 
REMARK    7  A    between atoms: C12_28  and  N8_29 
ROOT
HETATM    1  C4  UNL     1      53.600  43.163 166.318  1.00  0.00     0.136 A 
HETATM    2  N2  UNL     1      54.237  41.949 166.083  1.00  0.00    -0.176 N 
ATOM      3  H2  UNL     1      54.707  41.830 165.186  1.00  0.00     0.186 HD
HETATM    4  C5  UNL     1      54.278  40.951 166.926  1.00  0.00     0.683 A 
HETATM    5  N4  UNL     1      53.658  41.108 168.112  1.00  0.00    -0.175 N 
ATOM      6  H4  UNL     1      53.678  40.342 168.785  1.00  0.00     0.186 HD
HETATM    7  C10 UNL     1      53.024  42.229 168.434  1.00  0.00     0.154 A 
HETATM    8  N5  UNL     1      52.428  42.355 169.624  1.00  0.00    -0.175 N 
ATOM      9  H5  UNL     1      52.452  41.583 170.290  1.00  0.00     0.186 HD
HETATM   10  C11 UNL     1      51.805  43.480 169.938  1.00  0.00     0.679 A 
HETATM   11  N7  UNL     1      51.760  44.499 169.089  1.00  0.00    -0.176 N 
ATOM     12  H7  UNL     1      51.276  45.357 169.354  1.00  0.00     0.186 HD
HETATM   13  C12 UNL     1      52.347  44.411 167.884  1.00  0.00     0.132 A 
HETATM   14  C13 UNL     1      52.998  43.272 167.514  1.00  0.00     0.098 A 
ENDROOT
BRANCH   1  15
HETATM   15  N1  UNL     1      53.675  44.047 165.230  1.00  0.00    -0.368 N 
HETATM   16  C1  UNL     1      54.836  44.863 165.061  1.00  0.00     0.151 C 
BRANCH  15  17
HETATM   17  C2  UNL     1      52.550  44.212 164.364  1.00  0.00     0.150 C 
BRANCH  17  18
HETATM   18  C3  UNL     1      52.358  45.516 163.681  1.00  0.00     0.183 C 
BRANCH  18  19
HETATM   19  O1  UNL     1      52.307  46.579 164.585  1.00  0.00    -0.399 OA
ATOM     20  H1  UNL     1      53.127  47.057 164.620  1.00  0.00     0.209 HD
ENDBRANCH  18  19
ENDBRANCH  17  18
ENDBRANCH  15  17
ENDBRANCH   1  15
BRANCH   4  21
HETATM   21  N3  UNL     1      54.926  39.705 166.691  1.00  0.00    -0.213 N 
HETATM   22  C6  UNL     1      56.283  39.641 166.172  1.00  0.00     0.167 C 
HETATM   23  C7  UNL     1      56.165  38.884 164.846  1.00  0.00     0.188 C 
HETATM   24  O2  UNL     1      55.529  37.661 165.011  1.00  0.00    -0.388 OA
HETATM   25  C8  UNL     1      55.220  37.377 166.330  1.00  0.00     0.188 C 
HETATM   26  C9  UNL     1      54.290  38.424 166.947  1.00  0.00     0.167 C 
ENDBRANCH   4  21
BRANCH  13  27
HETATM   27  N8  UNL     1      52.289  45.408 167.131  1.00  0.00    -0.384 N 
ATOM     28  H82 UNL     1      53.018  46.122 167.131  1.00  0.00     0.157 HD
ATOM     29  H81 UNL     1      51.476  45.499 166.522  1.00  0.00     0.157 HD
ENDBRANCH  13  27
BRANCH  10  30
HETATM   30  N6  UNL     1      51.208  43.647 171.091  1.00  0.00    -0.234 N 
ATOM     31  H62 UNL     1      50.238  43.961 171.064  1.00  0.00     0.174 HD
ATOM     32  H61 UNL     1      51.682  43.474 171.977  1.00  0.00     0.174 HD
ENDBRANCH  10  30
TORSDOF 7
ENDMDL
MODEL 5
REMARK VINA RESULT: -4.254648545      3.242      5.050
REMARK  7 active torsions:
REMARK  status: ('A' for Active; 'I' for Inactive)
REMARK    1  A    between atoms: N1_2  and  C2_3 
REMARK    2  A    between atoms: N1_2  and  C4_7 
REMARK    3  A    between atoms: C2_3  and  C3_4 
REMARK    4  A    between atoms: C3_4  and  O1_5 
REMARK    5  A    between atoms: C5_10  and  N3_11 
REMARK    6  A    between atoms: C11_22  and  N6_23 
REMARK    7  A    between atoms: C12_28  and  N8_29 
ROOT
HETATM    1  C4  UNL     1      50.343  42.195 174.686  1.00  0.00     0.136 A 
HETATM    2  N2  UNL     1      51.186  41.152 175.056  1.00  0.00    -0.176 N 
ATOM      3  H2  UNL     1      52.145  41.389 175.309  1.00  0.00     0.186 HD
HETATM    4  C5  UNL     1      50.840  39.892 175.103  1.00  0.00     0.683 A 
HETATM    5  N4  UNL     1      49.572  39.579 174.770  1.00  0.00    -0.175 N 
ATOM      6  H4  UNL     1      49.282  38.602 174.799  1.00  0.00     0.186 HD
HETATM    7  C10 UNL     1      48.690  40.501 174.405  1.00  0.00     0.154 A 
HETATM    8  N5  UNL     1      47.437  40.156 174.089  1.00  0.00    -0.175 N 
ATOM      9  H5  UNL     1      47.155  39.177 174.121  1.00  0.00     0.186 HD
HETATM   10  C11 UNL     1      46.563  41.085 173.735  1.00  0.00     0.679 A 
HETATM   11  N7  UNL     1      46.905  42.367 173.686  1.00  0.00    -0.176 N 
ATOM     12  H7  UNL     1      46.214  43.065 173.412  1.00  0.00     0.186 HD
HETATM   13  C12 UNL     1      48.154  42.752 173.996  1.00  0.00     0.132 A 
HETATM   14  C13 UNL     1      49.090  41.833 174.364  1.00  0.00     0.098 A 
ENDROOT
BRANCH   1  15
HETATM   15  N1  UNL     1      50.980  43.446 174.683  1.00  0.00    -0.368 N 
HETATM   16  C1  UNL     1      50.715  44.377 175.734  1.00  0.00     0.151 C 
BRANCH  15  17
HETATM   17  C2  UNL     1      51.798  43.829 173.575  1.00  0.00     0.150 C 
BRANCH  17  18
HETATM   18  C3  UNL     1      51.316  43.549 172.198  1.00  0.00     0.183 C 
BRANCH  18  19
HETATM   19  O1  UNL     1      52.240  42.808 171.460  1.00  0.00    -0.399 OA
ATOM     20  H1  UNL     1      52.242  41.891 171.707  1.00  0.00     0.209 HD
ENDBRANCH  18  19
ENDBRANCH  17  18
ENDBRANCH  15  17
ENDBRANCH   1  15
BRANCH   4  21
HETATM   21  N3  UNL     1      51.698  38.820 175.478  1.00  0.00    -0.213 N 
HETATM   22  C6  UNL     1      53.068  39.057 175.908  1.00  0.00     0.167 C 
HETATM   23  C7  UNL     1      53.936  38.300 174.899  1.00  0.00     0.188 C 
HETATM   24  O2  UNL     1      53.562  36.967 174.802  1.00  0.00    -0.388 OA
HETATM   25  C8  UNL     1      52.553  36.615 175.682  1.00  0.00     0.188 C 
HETATM   26  C9  UNL     1      51.277  37.429 175.460  1.00  0.00     0.167 C 
ENDBRANCH   4  21
BRANCH  13  27
HETATM   27  N8  UNL     1      48.416  43.975 173.950  1.00  0.00    -0.384 N 
ATOM     28  H82 UNL     1      49.304  44.319 173.583  1.00  0.00     0.157 HD
ATOM     29  H81 UNL     1      47.717  44.626 174.308  1.00  0.00     0.157 HD
ENDBRANCH  13  27
BRANCH  10  30
HETATM   30  N6  UNL     1      45.327  40.793 173.418  1.00  0.00    -0.234 N 
ATOM     31  H62 UNL     1      44.608  41.043 174.096  1.00  0.00     0.174 HD
ATOM     32  H61 UNL     1      45.087  40.338 172.538  1.00  0.00     0.174 HD
ENDBRANCH  10  30
TORSDOF 7
ENDMDL
