MODEL 1
REMARK VINA RESULT: -5.700152440      0.000      0.000
REMARK  8 active torsions:
REMARK  status: ('A' for Active; 'I' for Inactive)
REMARK       I    between atoms: C2_2  and  N1_4 
REMARK    1  A    between atoms: C7_9  and  N2_10 
REMARK    2  A    between atoms: N2_10  and  C8_12 
REMARK    3  A    between atoms: C8_12  and  C9_13 
REMARK    4  A    between atoms: C9_13  and  O2_14 
REMARK    5  A    between atoms: C10_16  and  O3_17 
REMARK    6  A    between atoms: C10_16  and  N3_19 
REMARK       I    between atoms: N3_19  and  C11_20 
REMARK       I    between atoms: C11_20  and  N5_22 
REMARK    7  A    between atoms: N5_22  and  N6_24 
REMARK    8  A    between atoms: N6_24  and  N7_25 
ROOT
HETATM    1  C8  UNL     1      15.479  -7.970  28.822  1.00  0.00     0.099 C 
HETATM    2  C10 UNL     1      14.369  -8.527  29.548  1.00  0.00     0.243 C 
ENDROOT
BRANCH   1   3
HETATM    3  N2  UNL     1      15.441  -6.639  28.748  1.00  0.00    -0.359 N 
ATOM      4  H2  UNL     1      15.384  -6.280  27.796  1.00  0.00     0.165 HD
BRANCH   3   5
HETATM    5  C7  UNL     1      15.463  -5.643  29.729  1.00  0.00     0.005 C 
HETATM    6  C6  UNL     1      16.059  -4.351  29.624  1.00  0.00     0.054 C 
HETATM    7  C5  UNL     1      15.591  -3.550  30.854  1.00  0.00     0.007 C 
HETATM    8  C4  UNL     1      16.683  -3.410  31.848  1.00  0.00     0.020 C 
HETATM    9  C3  UNL     1      17.138  -4.681  32.471  1.00  0.00     0.126 C 
HETATM   10  N1  UNL     1      16.614  -5.870  31.911  1.00  0.00    -0.347 N 
HETATM   11  C2  UNL     1      17.319  -7.078  32.312  1.00  0.00     0.216 C 
HETATM   12  C12 UNL     1      15.475  -6.195  31.112  1.00  0.00     0.178 C 
HETATM   13  C1  UNL     1      18.243  -6.969  33.548  1.00  0.00     0.117 C 
HETATM   14  O1  UNL     1      17.217  -8.131  31.747  1.00  0.00    -0.274 OA
ENDBRANCH   3   5
ENDBRANCH   1   3
BRANCH   1  15
HETATM   15  C9  UNL     1      16.651  -8.838  28.650  1.00  0.00     0.226 C 
BRANCH  15  16
HETATM   16  O2  UNL     1      16.429 -10.240  28.854  1.00  0.00    -0.395 OA
ATOM     17  H2  UNL     1      17.021 -10.826  28.396  1.00  0.00     0.209 HD
ENDBRANCH  15  16
ENDBRANCH   1  15
BRANCH   2  18
HETATM   18  O3  UNL     1      13.193  -7.744  29.093  1.00  0.00    -0.334 OA
ATOM     19  H3  UNL     1      13.300  -7.675  28.152  1.00  0.00     0.220 HD
ENDBRANCH   2  18
BRANCH   2  20
HETATM   20  N3  UNL     1      14.078  -9.462  30.419  1.00  0.00    -0.345 NA
HETATM   21  C11 UNL     1      13.791 -10.409  31.298  1.00  0.00     0.296 C 
HETATM   22  N4  UNL     1      12.585 -10.411  32.020  1.00  0.00    -0.047 NA
HETATM   23  N5  UNL     1      14.474 -11.576  31.636  1.00  0.00    -0.175 N 
ATOM     24  H5  UNL     1      14.718 -11.854  32.586  1.00  0.00     0.207 HD
BRANCH  23  25
HETATM   25  N6  UNL     1      14.747 -12.245  30.591  1.00  0.00    -0.240 NA
BRANCH  25  26
HETATM   26  N7  UNL     1      15.084 -12.617  29.485  1.00  0.00    -0.260 N 
ATOM     27  H72 UNL     1      16.002 -12.915  29.816  1.00  0.00     0.193 HD
ATOM     28  H71 UNL     1      15.138 -12.850  28.493  1.00  0.00     0.193 HD
ENDBRANCH  25  26
ENDBRANCH  23  25
ENDBRANCH   2  20
TORSDOF 8
ENDMDL
MODEL 2
REMARK VINA RESULT: -4.993085852      9.007     10.884
REMARK  8 active torsions:
REMARK  status: ('A' for Active; 'I' for Inactive)
REMARK       I    between atoms: C2_2  and  N1_4 
REMARK    1  A    between atoms: C7_9  and  N2_10 
REMARK    2  A    between atoms: N2_10  and  C8_12 
REMARK    3  A    between atoms: C8_12  and  C9_13 
REMARK    4  A    between atoms: C9_13  and  O2_14 
REMARK    5  A    between atoms: C10_16  and  O3_17 
REMARK    6  A    between atoms: C10_16  and  N3_19 
REMARK       I    between atoms: N3_19  and  C11_20 
REMARK       I    between atoms: C11_20  and  N5_22 
REMARK    7  A    between atoms: N5_22  and  N6_24 
REMARK    8  A    between atoms: N6_24  and  N7_25 
ROOT
HETATM    1  C8  UNL     1      25.581  -2.258  32.942  1.00  0.00     0.099 C 
HETATM    2  C10 UNL     1      25.158  -3.576  32.547  1.00  0.00     0.243 C 
ENDROOT
BRANCH   1   3
HETATM    3  N2  UNL     1      24.941  -1.287  32.290  1.00  0.00    -0.359 N 
ATOM      4  H2  UNL     1      24.770  -1.493  31.306  1.00  0.00     0.165 HD
BRANCH   3   5
HETATM    5  C7  UNL     1      24.459  -0.040  32.699  1.00  0.00     0.005 C 
HETATM    6  C6  UNL     1      25.153   0.934  33.476  1.00  0.00     0.054 C 
HETATM    7  C5  UNL     1      24.304   2.218  33.434  1.00  0.00     0.007 C 
HETATM    8  C4  UNL     1      23.601   2.437  34.722  1.00  0.00     0.020 C 
HETATM    9  C3  UNL     1      22.582   1.412  35.069  1.00  0.00     0.126 C 
HETATM   10  N1  UNL     1      22.539   0.270  34.235  1.00  0.00    -0.347 N 
HETATM   11  C2  UNL     1      21.779  -0.842  34.785  1.00  0.00     0.216 C 
HETATM   12  C12 UNL     1      22.985  -0.032  32.911  1.00  0.00     0.178 C 
HETATM   13  C1  UNL     1      20.824  -0.520  35.959  1.00  0.00     0.117 C 
HETATM   14  O1  UNL     1      21.852  -1.968  34.380  1.00  0.00    -0.274 OA
ENDBRANCH   3   5
ENDBRANCH   1   3
BRANCH   1  15
HETATM   15  C9  UNL     1      26.288  -2.154  34.224  1.00  0.00     0.226 C 
BRANCH  15  16
HETATM   16  O2  UNL     1      26.351  -3.355  35.006  1.00  0.00    -0.395 OA
ATOM     17  H2  UNL     1      25.518  -3.774  35.192  1.00  0.00     0.209 HD
ENDBRANCH  15  16
ENDBRANCH   1  15
BRANCH   2  18
HETATM   18  O3  UNL     1      25.024  -3.500  31.071  1.00  0.00    -0.334 OA
ATOM     19  H3  UNL     1      25.916  -3.419  30.754  1.00  0.00     0.220 HD
ENDBRANCH   2  18
BRANCH   2  20
HETATM   20  N3  UNL     1      24.885  -4.757  33.044  1.00  0.00    -0.345 NA
HETATM   21  C11 UNL     1      24.606  -5.952  33.540  1.00  0.00     0.296 C 
HETATM   22  N4  UNL     1      25.161  -6.401  34.751  1.00  0.00    -0.047 NA
HETATM   23  N5  UNL     1      23.717  -6.934  33.107  1.00  0.00    -0.175 N 
ATOM     24  H5  UNL     1      23.958  -7.913  32.956  1.00  0.00     0.207 HD
BRANCH  23  25
HETATM   25  N6  UNL     1      22.562  -6.435  32.928  1.00  0.00    -0.240 NA
BRANCH  25  26
HETATM   26  N7  UNL     1      21.373  -6.185  32.929  1.00  0.00    -0.260 N 
ATOM     27  H72 UNL     1      21.285  -6.393  33.924  1.00  0.00     0.193 HD
ATOM     28  H71 UNL     1      20.416  -5.929  32.688  1.00  0.00     0.193 HD
ENDBRANCH  25  26
ENDBRANCH  23  25
ENDBRANCH   2  20
TORSDOF 8
ENDMDL
MODEL 3
REMARK VINA RESULT: -4.909598477     10.281     11.819
REMARK  8 active torsions:
REMARK  status: ('A' for Active; 'I' for Inactive)
REMARK       I    between atoms: C2_2  and  N1_4 
REMARK    1  A    between atoms: C7_9  and  N2_10 
REMARK    2  A    between atoms: N2_10  and  C8_12 
REMARK    3  A    between atoms: C8_12  and  C9_13 
REMARK    4  A    between atoms: C9_13  and  O2_14 
REMARK    5  A    between atoms: C10_16  and  O3_17 
REMARK    6  A    between atoms: C10_16  and  N3_19 
REMARK       I    between atoms: N3_19  and  C11_20 
REMARK       I    between atoms: C11_20  and  N5_22 
REMARK    7  A    between atoms: N5_22  and  N6_24 
REMARK    8  A    between atoms: N6_24  and  N7_25 
ROOT
HETATM    1  C8  UNL     1      25.582  -1.558  32.940  1.00  0.00     0.099 C 
HETATM    2  C10 UNL     1      25.154  -2.928  33.043  1.00  0.00     0.243 C 
ENDROOT
BRANCH   1   3
HETATM    3  N2  UNL     1      25.705  -0.959  34.125  1.00  0.00    -0.359 N 
ATOM      4  H2  UNL     1      26.242  -1.497  34.805  1.00  0.00     0.165 HD
BRANCH   3   5
HETATM    5  C7  UNL     1      25.239   0.266  34.612  1.00  0.00     0.005 C 
HETATM    6  C6  UNL     1      25.528   0.849  35.881  1.00  0.00     0.054 C 
HETATM    7  C5  UNL     1      24.999   2.295  35.831  1.00  0.00     0.007 C 
HETATM    8  C4  UNL     1      23.752   2.436  36.622  1.00  0.00     0.020 C 
HETATM    9  C3  UNL     1      22.586   1.670  36.108  1.00  0.00     0.126 C 
HETATM   10  N1  UNL     1      22.853   0.766  35.053  1.00  0.00    -0.347 N 
HETATM   11  C2  UNL     1      21.785  -0.190  34.803  1.00  0.00     0.216 C 
HETATM   12  C12 UNL     1      23.893   0.622  34.083  1.00  0.00     0.178 C 
HETATM   13  C1  UNL     1      20.400   0.137  35.411  1.00  0.00     0.117 C 
HETATM   14  O1  UNL     1      21.922  -1.193  34.161  1.00  0.00    -0.274 OA
ENDBRANCH   3   5
ENDBRANCH   1   3
BRANCH   1  15
HETATM   15  C9  UNL     1      26.205  -1.160  31.672  1.00  0.00     0.226 C 
BRANCH  15  16
HETATM   16  O2  UNL     1      25.704   0.045  31.077  1.00  0.00    -0.395 OA
ATOM     17  H2  UNL     1      25.285   0.658  31.670  1.00  0.00     0.209 HD
ENDBRANCH  15  16
ENDBRANCH   1  15
BRANCH   2  18
HETATM   18  O3  UNL     1      24.104  -2.915  34.091  1.00  0.00    -0.334 OA
ATOM     19  H3  UNL     1      24.339  -3.626  34.675  1.00  0.00     0.220 HD
ENDBRANCH   2  18
BRANCH   2  20
HETATM   20  N3  UNL     1      25.370  -4.112  32.525  1.00  0.00    -0.345 NA
HETATM   21  C11 UNL     1      25.591  -5.305  31.995  1.00  0.00     0.296 C 
HETATM   22  N4  UNL     1      25.369  -6.491  32.716  1.00  0.00    -0.047 NA
HETATM   23  N5  UNL     1      25.963  -5.674  30.703  1.00  0.00    -0.175 N 
ATOM     24  H5  UNL     1      26.744  -6.290  30.475  1.00  0.00     0.207 HD
BRANCH  23  25
HETATM   25  N6  UNL     1      25.191  -5.134  29.851  1.00  0.00    -0.240 NA
BRANCH  25  26
HETATM   26  N7  UNL     1      24.419  -4.413  29.251  1.00  0.00    -0.260 N 
ATOM     27  H72 UNL     1      24.568  -4.910  28.372  1.00  0.00     0.193 HD
ATOM     28  H71 UNL     1      23.747  -3.698  28.971  1.00  0.00     0.193 HD
ENDBRANCH  25  26
ENDBRANCH  23  25
ENDBRANCH   2  20
TORSDOF 8
ENDMDL
MODEL 4
REMARK VINA RESULT: -4.705243038      8.865     12.108
REMARK  8 active torsions:
REMARK  status: ('A' for Active; 'I' for Inactive)
REMARK       I    between atoms: C2_2  and  N1_4 
REMARK    1  A    between atoms: C7_9  and  N2_10 
REMARK    2  A    between atoms: N2_10  and  C8_12 
REMARK    3  A    between atoms: C8_12  and  C9_13 
REMARK    4  A    between atoms: C9_13  and  O2_14 
REMARK    5  A    between atoms: C10_16  and  O3_17 
REMARK    6  A    between atoms: C10_16  and  N3_19 
REMARK       I    between atoms: N3_19  and  C11_20 
REMARK       I    between atoms: C11_20  and  N5_22 
REMARK    7  A    between atoms: N5_22  and  N6_24 
REMARK    8  A    between atoms: N6_24  and  N7_25 
ROOT
HETATM    1  C8  UNL     1      25.400  -1.624  33.462  1.00  0.00     0.099 C 
HETATM    2  C10 UNL     1      24.787  -0.593  34.256  1.00  0.00     0.243 C 
ENDROOT
BRANCH   1   3
HETATM    3  N2  UNL     1      25.636  -2.742  34.150  1.00  0.00    -0.359 N 
ATOM      4  H2  UNL     1      25.707  -2.599  35.157  1.00  0.00     0.165 HD
BRANCH   3   5
HETATM    5  C7  UNL     1      25.804  -4.072  33.753  1.00  0.00     0.005 C 
HETATM    6  C6  UNL     1      26.104  -4.542  32.440  1.00  0.00     0.054 C 
HETATM    7  C5  UNL     1      26.441  -6.039  32.576  1.00  0.00     0.007 C 
HETATM    8  C4  UNL     1      25.332  -6.886  32.073  1.00  0.00     0.020 C 
HETATM    9  C3  UNL     1      24.065  -6.792  32.844  1.00  0.00     0.126 C 
HETATM   10  N1  UNL     1      24.013  -5.782  33.833  1.00  0.00    -0.347 N 
HETATM   11  C2  UNL     1      22.674  -5.501  34.329  1.00  0.00     0.216 C 
HETATM   12  C12 UNL     1      24.984  -5.022  34.555  1.00  0.00     0.178 C 
HETATM   13  C1  UNL     1      21.585  -6.559  34.031  1.00  0.00     0.117 C 
HETATM   14  O1  UNL     1      22.381  -4.515  34.946  1.00  0.00    -0.274 OA
ENDBRANCH   3   5
ENDBRANCH   1   3
BRANCH   1  15
HETATM   15  C9  UNL     1      25.290  -1.482  32.005  1.00  0.00     0.226 C 
BRANCH  15  16
HETATM   16  O2  UNL     1      24.854  -0.200  31.531  1.00  0.00    -0.395 OA
ATOM     17  H2  UNL     1      24.627  -0.153  30.609  1.00  0.00     0.209 HD
ENDBRANCH  15  16
ENDBRANCH   1  15
BRANCH   2  18
HETATM   18  O3  UNL     1      25.502  -0.645  35.555  1.00  0.00    -0.334 OA
ATOM     19  H3  UNL     1      25.954  -1.480  35.547  1.00  0.00     0.220 HD
ENDBRANCH   2  18
BRANCH   2  20
HETATM   20  N3  UNL     1      23.864   0.336  34.196  1.00  0.00    -0.345 NA
HETATM   21  C11 UNL     1      22.931   1.273  34.142  1.00  0.00     0.296 C 
HETATM   22  N4  UNL     1      22.673   1.998  32.965  1.00  0.00    -0.047 NA
HETATM   23  N5  UNL     1      21.993   1.681  35.089  1.00  0.00    -0.175 N 
ATOM     24  H5  UNL     1      21.844   2.646  35.383  1.00  0.00     0.207 HD
BRANCH  23  25
HETATM   25  N6  UNL     1      21.350   0.679  35.533  1.00  0.00    -0.240 NA
BRANCH  25  26
HETATM   26  N7  UNL     1      20.972  -0.304  36.138  1.00  0.00    -0.260 N 
ATOM     27  H72 UNL     1      20.138   0.174  36.482  1.00  0.00     0.193 HD
ATOM     28  H71 UNL     1      20.863  -1.230  36.552  1.00  0.00     0.193 HD
ENDBRANCH  25  26
ENDBRANCH  23  25
ENDBRANCH   2  20
TORSDOF 8
ENDMDL
MODEL 5
REMARK VINA RESULT: -4.470850584      9.378     12.370
REMARK  8 active torsions:
REMARK  status: ('A' for Active; 'I' for Inactive)
REMARK       I    between atoms: C2_2  and  N1_4 
REMARK    1  A    between atoms: C7_9  and  N2_10 
REMARK    2  A    between atoms: N2_10  and  C8_12 
REMARK    3  A    between atoms: C8_12  and  C9_13 
REMARK    4  A    between atoms: C9_13  and  O2_14 
REMARK    5  A    between atoms: C10_16  and  O3_17 
REMARK    6  A    between atoms: C10_16  and  N3_19 
REMARK       I    between atoms: N3_19  and  C11_20 
REMARK       I    between atoms: C11_20  and  N5_22 
REMARK    7  A    between atoms: N5_22  and  N6_24 
REMARK    8  A    between atoms: N6_24  and  N7_25 
ROOT
HETATM    1  C8  UNL     1      24.785  -1.453  34.087  1.00  0.00     0.099 C 
HETATM    2  C10 UNL     1      23.466  -0.945  34.359  1.00  0.00     0.243 C 
ENDROOT
BRANCH   1   3
HETATM    3  N2  UNL     1      24.856  -2.134  32.942  1.00  0.00    -0.359 N 
ATOM      4  H2  UNL     1      24.494  -1.625  32.136  1.00  0.00     0.165 HD
BRANCH   3   5
HETATM    5  C7  UNL     1      25.333  -3.412  32.637  1.00  0.00     0.005 C 
HETATM    6  C6  UNL     1      25.394  -4.018  31.348  1.00  0.00     0.054 C 
HETATM    7  C5  UNL     1      26.226  -5.306  31.506  1.00  0.00     0.007 C 
HETATM    8  C4  UNL     1      25.361  -6.510  31.468  1.00  0.00     0.020 C 
HETATM    9  C3  UNL     1      24.397  -6.633  32.593  1.00  0.00     0.126 C 
HETATM   10  N1  UNL     1      24.293  -5.511  33.448  1.00  0.00    -0.347 N 
HETATM   11  C2  UNL     1      23.129  -5.531  34.319  1.00  0.00     0.216 C 
HETATM   12  C12 UNL     1      25.123  -4.386  33.745  1.00  0.00     0.178 C 
HETATM   13  C1  UNL     1      22.407  -6.890  34.488  1.00  0.00     0.117 C 
HETATM   14  O1  UNL     1      22.712  -4.570  34.903  1.00  0.00    -0.274 OA
ENDBRANCH   3   5
ENDBRANCH   1   3
BRANCH   1  15
HETATM   15  C9  UNL     1      25.892  -0.831  34.823  1.00  0.00     0.226 C 
BRANCH  15  16
HETATM   16  O2  UNL     1      25.743   0.565  35.118  1.00  0.00    -0.395 OA
ATOM     17  H2  UNL     1      25.859   1.160  34.385  1.00  0.00     0.209 HD
ENDBRANCH  15  16
ENDBRANCH   1  15
BRANCH   2  18
HETATM   18  O3  UNL     1      22.553  -2.051  33.981  1.00  0.00    -0.334 OA
ATOM     19  H3  UNL     1      21.823  -1.622  33.548  1.00  0.00     0.220 HD
ENDBRANCH   2  18
BRANCH   2  20
HETATM   20  N3  UNL     1      22.852   0.115  34.823  1.00  0.00    -0.345 NA
HETATM   21  C11 UNL     1      22.237   1.189  35.292  1.00  0.00     0.296 C 
HETATM   22  N4  UNL     1      20.865   1.186  35.599  1.00  0.00    -0.047 NA
HETATM   23  N5  UNL     1      22.736   2.437  35.662  1.00  0.00    -0.175 N 
ATOM     24  H5  UNL     1      22.374   3.331  35.330  1.00  0.00     0.207 HD
BRANCH  23  25
HETATM   25  N6  UNL     1      23.707   2.302  36.471  1.00  0.00    -0.240 NA
BRANCH  25  26
HETATM   26  N7  UNL     1      24.512   2.411  37.373  1.00  0.00    -0.260 N 
ATOM     27  H72 UNL     1      24.175   3.342  37.621  1.00  0.00     0.193 HD
ATOM     28  H71 UNL     1      25.257   2.274  38.056  1.00  0.00     0.193 HD
ENDBRANCH  25  26
ENDBRANCH  23  25
ENDBRANCH   2  20
TORSDOF 8
ENDMDL
