MODEL 1
REMARK VINA RESULT: -5.625127830      0.000      0.000
REMARK  2 active torsions:
REMARK  status: ('A' for Active; 'I' for Inactive)
REMARK    1  A    between atoms: C3_4  and  C4_5 
REMARK    2  A    between atoms: C9_15  and  C10_16 
ROOT
HETATM    1  N1  UNL     1     -12.434 -18.719  18.090  1.00  0.00    -0.197 NA
HETATM    2  C1  UNL     1     -13.465 -19.107  18.447  1.00  0.00     0.067 C 
HETATM    3  C2  UNL     1     -14.797 -19.603  18.879  1.00  0.00     0.142 C 
HETATM    4  C3  UNL     1     -15.267 -18.776  19.994  1.00  0.00     0.078 C 
HETATM    5  C7  UNL     1     -16.730 -18.621  20.159  1.00  0.00     0.060 C 
HETATM    6  C8  UNL     1     -17.521 -18.698  18.937  1.00  0.00     0.001 C 
HETATM    7  S1  UNL     1     -18.677 -17.894  18.769  1.00  0.00    -0.089 SA
HETATM    8  C9  UNL     1     -17.112 -19.624  17.869  1.00  0.00     0.121 C 
HETATM    9  C14 UNL     1     -15.632 -19.721  17.680  1.00  0.00     0.168 C 
HETATM   10  C15 UNL     1     -15.359 -21.010  17.026  1.00  0.00     0.087 C 
HETATM   11  N4  UNL     1     -15.131 -22.028  16.514  1.00  0.00    -0.195 NA
HETATM   12  C16 UNL     1     -15.211 -18.687  16.705  1.00  0.00     0.087 C 
HETATM   13  N5  UNL     1     -14.899 -17.878  15.939  1.00  0.00    -0.195 NA
ENDROOT
BRANCH   4  14
HETATM   14  C4  UNL     1     -14.704 -19.295  21.296  1.00  0.00     0.078 C 
HETATM   15  N2  UNL     1     -15.106 -20.337  21.932  1.00  0.00    -0.378 N 
HETATM   16  C5  UNL     1     -14.363 -20.567  23.146  1.00  0.00     0.140 C 
ATOM     17  H2  UNL     1     -15.868 -20.936  21.613  1.00  0.00     0.160 HD
HETATM   18  C6  UNL     1     -13.122 -19.711  22.968  1.00  0.00     0.140 C 
HETATM   19  N3  UNL     1     -13.634 -18.716  22.035  1.00  0.00    -0.378 N 
ATOM     20  H3  UNL     1     -13.284 -17.764  21.929  1.00  0.00     0.160 HD
ENDBRANCH   4  14
BRANCH   8  21
HETATM   21  C10 UNL     1     -17.718 -20.983  18.105  1.00  0.00     0.064 A 
HETATM   22  C11 UNL     1     -17.561 -21.762  19.228  1.00  0.00     0.035 A 
HETATM   23  C12 UNL     1     -18.296 -22.933  19.015  1.00  0.00     0.027 A 
HETATM   24  C13 UNL     1     -18.850 -22.789  17.779  1.00  0.00     0.142 A 
HETATM   25  O1  UNL     1     -18.491 -21.624  17.264  1.00  0.00    -0.326 OA
ENDBRANCH   8  21
TORSDOF 2
ENDMDL
MODEL 2
REMARK VINA RESULT: -5.496634329      2.800      5.084
REMARK  2 active torsions:
REMARK  status: ('A' for Active; 'I' for Inactive)
REMARK    1  A    between atoms: C3_4  and  C4_5 
REMARK    2  A    between atoms: C9_15  and  C10_16 
ROOT
HETATM    1  N1  UNL     1     -16.392 -19.375  14.976  1.00  0.00    -0.197 NA
HETATM    2  C1  UNL     1     -16.238 -19.230  16.114  1.00  0.00     0.067 C 
HETATM    3  C2  UNL     1     -16.021 -19.064  17.575  1.00  0.00     0.142 C 
HETATM    4  C3  UNL     1     -17.320 -19.135  18.253  1.00  0.00     0.078 C 
HETATM    5  C7  UNL     1     -17.335 -19.642  19.643  1.00  0.00     0.060 C 
HETATM    6  C8  UNL     1     -16.292 -20.602  19.984  1.00  0.00     0.001 C 
HETATM    7  S1  UNL     1     -16.554 -21.673  20.876  1.00  0.00    -0.089 SA
HETATM    8  C9  UNL     1     -14.953 -20.452  19.394  1.00  0.00     0.121 C 
HETATM    9  C14 UNL     1     -14.961 -19.995  17.970  1.00  0.00     0.168 C 
HETATM   10  C15 UNL     1     -13.652 -19.379  17.702  1.00  0.00     0.087 C 
HETATM   11  N4  UNL     1     -12.624 -18.886  17.480  1.00  0.00    -0.195 NA
HETATM   12  C16 UNL     1     -15.024 -21.187  17.091  1.00  0.00     0.087 C 
HETATM   13  N5  UNL     1     -15.068 -22.127  16.419  1.00  0.00    -0.195 NA
ENDROOT
BRANCH   4  14
HETATM   14  C4  UNL     1     -17.982 -17.778  18.244  1.00  0.00     0.078 C 
HETATM   15  N2  UNL     1     -17.933 -16.906  19.188  1.00  0.00    -0.378 N 
HETATM   16  C5  UNL     1     -18.670 -15.707  18.874  1.00  0.00     0.140 C 
ATOM     17  H2  UNL     1     -17.428 -17.047  20.063  1.00  0.00     0.160 HD
HETATM   18  C6  UNL     1     -18.866 -15.796  17.372  1.00  0.00     0.140 C 
HETATM   19  N3  UNL     1     -18.770 -17.238  17.189  1.00  0.00    -0.378 N 
ATOM     20  H3  UNL     1     -19.197 -17.771  16.431  1.00  0.00     0.160 HD
ENDBRANCH   4  14
BRANCH   8  21
HETATM   21  C10 UNL     1     -14.111 -19.541  20.250  1.00  0.00     0.064 A 
HETATM   22  C11 UNL     1     -14.494 -18.325  20.768  1.00  0.00     0.035 A 
HETATM   23  C12 UNL     1     -13.404 -17.833  21.494  1.00  0.00     0.027 A 
HETATM   24  C13 UNL     1     -12.434 -18.781  21.371  1.00  0.00     0.142 A 
HETATM   25  O1  UNL     1     -12.881 -19.782  20.629  1.00  0.00    -0.326 OA
ENDBRANCH   8  21
TORSDOF 2
ENDMDL
MODEL 3
REMARK VINA RESULT: -5.425064868      2.539      3.801
REMARK  2 active torsions:
REMARK  status: ('A' for Active; 'I' for Inactive)
REMARK    1  A    between atoms: C3_4  and  C4_5 
REMARK    2  A    between atoms: C9_15  and  C10_16 
ROOT
HETATM    1  N1  UNL     1     -14.503 -22.892  19.094  1.00  0.00    -0.197 NA
HETATM    2  C1  UNL     1     -14.698 -21.790  18.798  1.00  0.00     0.067 C 
HETATM    3  C2  UNL     1     -14.965 -20.384  18.400  1.00  0.00     0.142 C 
HETATM    4  C3  UNL     1     -13.683 -19.690  18.240  1.00  0.00     0.078 C 
HETATM    5  C7  UNL     1     -13.629 -18.573  17.270  1.00  0.00     0.060 C 
HETATM    6  C8  UNL     1     -14.542 -18.667  16.138  1.00  0.00     0.001 C 
HETATM    7  S1  UNL     1     -14.159 -18.198  14.855  1.00  0.00    -0.089 SA
HETATM    8  C9  UNL     1     -15.877 -19.253  16.334  1.00  0.00     0.121 C 
HETATM    9  C14 UNL     1     -15.900 -20.418  17.272  1.00  0.00     0.168 C 
HETATM   10  C15 UNL     1     -17.273 -20.536  17.786  1.00  0.00     0.087 C 
HETATM   11  N4  UNL     1     -18.353 -20.637  18.203  1.00  0.00    -0.195 NA
HETATM   12  C16 UNL     1     -15.661 -21.657  16.494  1.00  0.00     0.087 C 
HETATM   13  N5  UNL     1     -15.479 -22.615  15.872  1.00  0.00    -0.195 NA
ENDROOT
BRANCH   4  14
HETATM   14  C4  UNL     1     -13.207 -19.171  19.576  1.00  0.00     0.078 C 
HETATM   15  N2  UNL     1     -11.997 -19.190  20.008  1.00  0.00    -0.378 N 
HETATM   16  C5  UNL     1     -11.868 -18.618  21.325  1.00  0.00     0.140 C 
ATOM     17  H2  UNL     1     -11.213 -19.569  19.476  1.00  0.00     0.160 HD
HETATM   18  C6  UNL     1     -13.161 -17.842  21.500  1.00  0.00     0.140 C 
HETATM   19  N3  UNL     1     -14.021 -18.573  20.579  1.00  0.00    -0.378 N 
ATOM     20  H3  UNL     1     -15.037 -18.644  20.644  1.00  0.00     0.160 HD
ENDBRANCH   4  14
BRANCH   8  21
HETATM   21  C10 UNL     1     -16.850 -18.188  16.769  1.00  0.00     0.064 A 
HETATM   22  C11 UNL     1     -16.784 -17.448  17.927  1.00  0.00     0.035 A 
HETATM   23  C12 UNL     1     -17.885 -16.585  17.919  1.00  0.00     0.027 A 
HETATM   24  C13 UNL     1     -18.545 -16.856  16.758  1.00  0.00     0.142 A 
HETATM   25  O1  UNL     1     -17.909 -17.809  16.097  1.00  0.00    -0.326 OA
ENDBRANCH   8  21
TORSDOF 2
ENDMDL
MODEL 4
REMARK VINA RESULT: -5.390444116      2.614      4.726
REMARK  2 active torsions:
REMARK  status: ('A' for Active; 'I' for Inactive)
REMARK    1  A    between atoms: C3_4  and  C4_5 
REMARK    2  A    between atoms: C9_15  and  C10_16 
ROOT
HETATM    1  N1  UNL     1     -15.207 -23.149  16.108  1.00  0.00    -0.197 NA
HETATM    2  C1  UNL     1     -15.814 -22.334  16.663  1.00  0.00     0.067 C 
HETATM    3  C2  UNL     1     -16.575 -21.270  17.367  1.00  0.00     0.142 C 
HETATM    4  C3  UNL     1     -16.857 -21.721  18.734  1.00  0.00     0.078 C 
HETATM    5  C7  UNL     1     -16.989 -20.682  19.780  1.00  0.00     0.060 C 
HETATM    6  C8  UNL     1     -16.218 -19.463  19.570  1.00  0.00     0.001 C 
HETATM    7  S1  UNL     1     -15.640 -18.771  20.665  1.00  0.00    -0.089 SA
HETATM    8  C9  UNL     1     -16.043 -18.947  18.203  1.00  0.00     0.121 C 
HETATM    9  C14 UNL     1     -15.852 -20.010  17.169  1.00  0.00     0.168 C 
HETATM   10  C15 UNL     1     -16.237 -19.432  15.873  1.00  0.00     0.087 C 
HETATM   11  N4  UNL     1     -16.542 -18.987  14.844  1.00  0.00    -0.195 NA
HETATM   12  C16 UNL     1     -14.404 -20.306  17.056  1.00  0.00     0.087 C 
HETATM   13  N5  UNL     1     -13.270 -20.522  16.976  1.00  0.00    -0.195 NA
ENDROOT
BRANCH   4  14
HETATM   14  C4  UNL     1     -18.110 -22.562  18.751  1.00  0.00     0.078 C 
HETATM   15  N2  UNL     1     -19.123 -22.429  17.970  1.00  0.00    -0.378 N 
HETATM   16  C5  UNL     1     -20.163 -23.389  18.241  1.00  0.00     0.140 C 
ATOM     17  H2  UNL     1     -19.183 -21.721  17.239  1.00  0.00     0.160 HD
HETATM   18  C6  UNL     1     -19.461 -24.443  19.078  1.00  0.00     0.140 C 
HETATM   19  N3  UNL     1     -18.380 -23.644  19.637  1.00  0.00    -0.378 N 
ATOM     20  H3  UNL     1     -17.897 -23.829  20.516  1.00  0.00     0.160 HD
ENDBRANCH   4  14
BRANCH   8  21
HETATM   21  C10 UNL     1     -17.192 -18.041  17.843  1.00  0.00     0.064 A 
HETATM   22  C11 UNL     1     -17.101 -16.721  17.466  1.00  0.00     0.035 A 
HETATM   23  C12 UNL     1     -18.407 -16.277  17.228  1.00  0.00     0.027 A 
HETATM   24  C13 UNL     1     -19.202 -17.355  17.475  1.00  0.00     0.142 A 
HETATM   25  O1  UNL     1     -18.456 -18.386  17.837  1.00  0.00    -0.326 OA
ENDBRANCH   8  21
TORSDOF 2
ENDMDL
MODEL 5
REMARK VINA RESULT: -5.293645584      2.452      5.464
REMARK  2 active torsions:
REMARK  status: ('A' for Active; 'I' for Inactive)
REMARK    1  A    between atoms: C3_4  and  C4_5 
REMARK    2  A    between atoms: C9_15  and  C10_16 
ROOT
HETATM    1  N1  UNL     1     -16.365 -22.854  15.219  1.00  0.00    -0.197 NA
HETATM    2  C1  UNL     1     -15.994 -21.896  15.754  1.00  0.00     0.067 C 
HETATM    3  C2  UNL     1     -15.535 -20.673  16.461  1.00  0.00     0.142 C 
HETATM    4  C3  UNL     1     -15.599 -19.541  15.531  1.00  0.00     0.078 C 
HETATM    5  C7  UNL     1     -15.833 -18.198  16.107  1.00  0.00     0.060 C 
HETATM    6  C8  UNL     1     -16.609 -18.160  17.340  1.00  0.00     0.001 C 
HETATM    7  S1  UNL     1     -17.512 -17.096  17.597  1.00  0.00    -0.089 SA
HETATM    8  C9  UNL     1     -16.448 -19.238  18.328  1.00  0.00     0.121 C 
HETATM    9  C14 UNL     1     -16.271 -20.595  17.726  1.00  0.00     0.168 C 
HETATM   10  C15 UNL     1     -15.597 -21.433  18.730  1.00  0.00     0.087 C 
HETATM   11  N4  UNL     1     -15.061 -22.102  19.512  1.00  0.00    -0.195 NA
HETATM   12  C16 UNL     1     -17.609 -21.206  17.536  1.00  0.00     0.087 C 
HETATM   13  N5  UNL     1     -18.659 -21.671  17.398  1.00  0.00    -0.195 NA
ENDROOT
BRANCH   4  14
HETATM   14  C4  UNL     1     -14.336 -19.480  14.705  1.00  0.00     0.078 C 
HETATM   15  N2  UNL     1     -13.174 -19.123  15.124  1.00  0.00    -0.378 N 
HETATM   16  C5  UNL     1     -12.172 -19.172  14.089  1.00  0.00     0.140 C 
ATOM     17  H2  UNL     1     -12.983 -18.836  16.084  1.00  0.00     0.160 HD
HETATM   18  C6  UNL     1     -12.816 -20.028  13.014  1.00  0.00     0.140 C 
HETATM   19  N3  UNL     1     -14.222 -19.809  13.324  1.00  0.00    -0.378 N 
ATOM     20  H3  UNL     1     -14.995 -19.879  12.663  1.00  0.00     0.160 HD
ENDBRANCH   4  14
BRANCH   8  21
HETATM   21  C10 UNL     1     -15.317 -18.911  19.269  1.00  0.00     0.064 A 
HETATM   22  C11 UNL     1     -15.434 -18.573  20.597  1.00  0.00     0.035 A 
HETATM   23  C12 UNL     1     -14.138 -18.354  21.075  1.00  0.00     0.027 A 
HETATM   24  C13 UNL     1     -13.321 -18.573  20.007  1.00  0.00     0.142 A 
HETATM   25  O1  UNL     1     -14.046 -18.902  18.951  1.00  0.00    -0.326 OA
ENDBRANCH   8  21
TORSDOF 2
ENDMDL
