MODEL 1
REMARK VINA RESULT: -8.332898181      0.000      0.000
REMARK  7 active torsions:
REMARK  status: ('A' for Active; 'I' for Inactive)
REMARK    1  A    between atoms: C2_2  and  C5_5 
REMARK    2  A    between atoms: C8_8  and  N1_9 
REMARK    3  A    between atoms: N1_9  and  C9_12 
REMARK    4  A    between atoms: C9_12  and  C10_13 
REMARK    5  A    between atoms: C10_13  and  C11_14 
REMARK    6  A    between atoms: C11_14  and  N2_15 
REMARK    7  A    between atoms: N2_15  and  C12_17 
ROOT
HETATM    1  C9  UNL     1       8.739  -7.795  12.907  1.00  0.00     0.234 C 
ENDROOT
BRANCH   1   2
HETATM    2  N1  UNL     1       9.148  -8.570  11.762  1.00  0.00    -0.071 N 
ATOM      3  H12 UNL     1       8.458  -8.514  11.013  1.00  0.00     0.277 HD
ATOM      4  H11 UNL     1       9.095  -9.570  11.955  1.00  0.00     0.277 HD
BRANCH   2   5
HETATM    5  C8  UNL     1      10.468  -8.195  11.291  1.00  0.00     0.185 C 
HETATM    6  C7  UNL     1      10.711  -6.781  11.743  1.00  0.00     0.033 C 
HETATM    7  C6  UNL     1      11.910  -6.291  10.921  1.00  0.00     0.007 C 
HETATM    8  C5  UNL     1      11.327  -6.032   9.546  1.00  0.00    -0.007 C 
HETATM    9  C23 UNL     1      10.696  -7.236   8.962  1.00  0.00     0.007 C 
HETATM   10  C22 UNL     1      10.618  -8.432   9.845  1.00  0.00     0.033 C 
BRANCH   8  11
HETATM   11  C2  UNL     1      12.342  -5.443   8.609  1.00  0.00    -0.048 C 
HETATM   12  C1  UNL     1      11.701  -4.340   7.806  1.00  0.00     0.015 C 
HETATM   13  C3  UNL     1      13.483  -4.808   9.388  1.00  0.00     0.015 C 
HETATM   14  C4  UNL     1      12.896  -6.458   7.640  1.00  0.00     0.015 C 
ENDBRANCH   8  11
ENDBRANCH   2   5
ENDBRANCH   1   2
BRANCH   1  15
HETATM   15  C10 UNL     1       8.800  -8.632  14.147  1.00  0.00     0.046 C 
BRANCH  15  16
HETATM   16  C11 UNL     1       9.976  -8.222  15.038  1.00  0.00     0.115 C 
BRANCH  16  17
HETATM   17  N2  UNL     1      10.711  -9.369  15.355  1.00  0.00    -0.416 N 
ATOM     18  H2  UNL     1      11.078  -9.506  16.296  1.00  0.00     0.153 HD
BRANCH  17  19
HETATM   19  C12 UNL     1      10.936 -10.335  14.351  1.00  0.00     0.084 C 
HETATM   20  C13 UNL     1      10.980 -11.760  14.798  1.00  0.00     0.009 C 
HETATM   21  C14 UNL     1      12.138 -12.070  15.707  1.00  0.00     0.011 C 
HETATM   22  C18 UNL     1      11.175 -12.612  13.557  1.00  0.00     0.011 C 
HETATM   23  C15 UNL     1      13.429 -11.715  15.044  1.00  0.00    -0.013 C 
HETATM   24  C16 UNL     1      13.620 -12.549  13.780  1.00  0.00     0.009 C 
HETATM   25  C21 UNL     1      13.404 -10.245  14.691  1.00  0.00     0.011 C 
HETATM   26  C17 UNL     1      12.463 -12.277  12.849  1.00  0.00    -0.013 C 
HETATM   27  C19 UNL     1      12.523 -10.811  12.464  1.00  0.00     0.011 C 
HETATM   28  C20 UNL     1      12.277 -10.015  13.708  1.00  0.00     0.009 C 
ENDBRANCH  17  19
ENDBRANCH  16  17
ENDBRANCH  15  16
ENDBRANCH   1  15
TORSDOF 7
ENDMDL
MODEL 2
REMARK VINA RESULT: -8.318963003      0.663      1.675
REMARK  7 active torsions:
REMARK  status: ('A' for Active; 'I' for Inactive)
REMARK    1  A    between atoms: C2_2  and  C5_5 
REMARK    2  A    between atoms: C8_8  and  N1_9 
REMARK    3  A    between atoms: N1_9  and  C9_12 
REMARK    4  A    between atoms: C9_12  and  C10_13 
REMARK    5  A    between atoms: C10_13  and  C11_14 
REMARK    6  A    between atoms: C11_14  and  N2_15 
REMARK    7  A    between atoms: N2_15  and  C12_17 
ROOT
HETATM    1  C9  UNL     1       8.925  -7.822  13.147  1.00  0.00     0.234 C 
ENDROOT
BRANCH   1   2
HETATM    2  N1  UNL     1       9.310  -8.561  11.970  1.00  0.00    -0.071 N 
ATOM      3  H12 UNL     1       8.595  -8.497  11.245  1.00  0.00     0.277 HD
ATOM      4  H11 UNL     1       9.280  -9.566  12.139  1.00  0.00     0.277 HD
BRANCH   2   5
HETATM    5  C8  UNL     1      10.608  -8.151  11.466  1.00  0.00     0.185 C 
HETATM    6  C7  UNL     1      10.794  -6.708  11.852  1.00  0.00     0.033 C 
HETATM    7  C6  UNL     1      11.963  -6.206  10.995  1.00  0.00     0.007 C 
HETATM    8  C5  UNL     1      11.354  -6.034   9.617  1.00  0.00    -0.007 C 
HETATM    9  C23 UNL     1      10.770  -7.289   9.095  1.00  0.00     0.007 C 
HETATM   10  C22 UNL     1      10.752  -8.446  10.031  1.00  0.00     0.033 C 
BRANCH   8  11
HETATM   11  C2  UNL     1      12.333  -5.445   8.642  1.00  0.00    -0.048 C 
HETATM   12  C1  UNL     1      11.650  -4.372   7.833  1.00  0.00     0.015 C 
HETATM   13  C3  UNL     1      13.481  -4.771   9.378  1.00  0.00     0.015 C 
HETATM   14  C4  UNL     1      12.883  -6.469   7.680  1.00  0.00     0.015 C 
ENDBRANCH   8  11
ENDBRANCH   2   5
ENDBRANCH   1   2
BRANCH   1  15
HETATM   15  C10 UNL     1       8.994  -8.702  14.357  1.00  0.00     0.046 C 
BRANCH  15  16
HETATM   16  C11 UNL     1      10.411  -8.739  14.937  1.00  0.00     0.115 C 
BRANCH  16  17
HETATM   17  N2  UNL     1      10.742 -10.071  15.209  1.00  0.00    -0.416 N 
ATOM     18  H2  UNL     1      10.095 -10.673  15.716  1.00  0.00     0.153 HD
BRANCH  17  19
HETATM   19  C12 UNL     1      11.988 -10.568  14.769  1.00  0.00     0.084 C 
HETATM   20  C13 UNL     1      12.193 -10.630  13.290  1.00  0.00     0.009 C 
HETATM   21  C14 UNL     1      11.278 -11.600  12.595  1.00  0.00     0.011 C 
HETATM   22  C18 UNL     1      13.605 -11.136  13.056  1.00  0.00     0.011 C 
HETATM   23  C15 UNL     1      11.431 -12.967  13.178  1.00  0.00    -0.013 C 
HETATM   24  C16 UNL     1      12.855 -13.474  12.970  1.00  0.00     0.009 C 
HETATM   25  C21 UNL     1      11.119 -12.902  14.655  1.00  0.00     0.011 C 
HETATM   26  C17 UNL     1      13.807 -12.512  13.640  1.00  0.00    -0.013 C 
HETATM   27  C19 UNL     1      13.506 -12.535  15.127  1.00  0.00     0.011 C 
HETATM   28  C20 UNL     1      12.127 -11.983  15.310  1.00  0.00     0.009 C 
ENDBRANCH  17  19
ENDBRANCH  16  17
ENDBRANCH  15  16
ENDBRANCH   1  15
TORSDOF 7
ENDMDL
MODEL 3
REMARK VINA RESULT: -8.221918589      1.432      2.631
REMARK  7 active torsions:
REMARK  status: ('A' for Active; 'I' for Inactive)
REMARK    1  A    between atoms: C2_2  and  C5_5 
REMARK    2  A    between atoms: C8_8  and  N1_9 
REMARK    3  A    between atoms: N1_9  and  C9_12 
REMARK    4  A    between atoms: C9_12  and  C10_13 
REMARK    5  A    between atoms: C10_13  and  C11_14 
REMARK    6  A    between atoms: C11_14  and  N2_15 
REMARK    7  A    between atoms: N2_15  and  C12_17 
ROOT
HETATM    1  C9  UNL     1       9.460  -8.155  15.218  1.00  0.00     0.234 C 
ENDROOT
BRANCH   1   2
HETATM    2  N1  UNL     1       8.945  -8.150  13.871  1.00  0.00    -0.071 N 
ATOM      3  H12 UNL     1       8.436  -7.288  13.673  1.00  0.00     0.277 HD
ATOM      4  H11 UNL     1       8.181  -8.817  13.765  1.00  0.00     0.277 HD
BRANCH   2   5
HETATM    5  C8  UNL     1       9.986  -8.383  12.886  1.00  0.00     0.185 C 
HETATM    6  C7  UNL     1      10.371  -7.040  12.326  1.00  0.00     0.033 C 
HETATM    7  C6  UNL     1      11.165  -7.344  11.049  1.00  0.00     0.007 C 
HETATM    8  C5  UNL     1      10.101  -7.752  10.049  1.00  0.00    -0.007 C 
HETATM    9  C23 UNL     1       9.306  -8.912  10.508  1.00  0.00     0.007 C 
HETATM   10  C22 UNL     1       9.578  -9.390  11.892  1.00  0.00     0.033 C 
BRANCH   8  11
HETATM   11  C2  UNL     1      10.681  -7.999   8.685  1.00  0.00    -0.048 C 
HETATM   12  C1  UNL     1      11.158  -9.426   8.595  1.00  0.00     0.015 C 
HETATM   13  C3  UNL     1       9.617  -7.826   7.613  1.00  0.00     0.015 C 
HETATM   14  C4  UNL     1      11.854  -7.100   8.382  1.00  0.00     0.015 C 
ENDBRANCH   8  11
ENDBRANCH   2   5
ENDBRANCH   1   2
BRANCH   1  15
HETATM   15  C10 UNL     1       9.047  -9.408  15.925  1.00  0.00     0.046 C 
BRANCH  15  16
HETATM   16  C11 UNL     1      10.248 -10.323  16.183  1.00  0.00     0.115 C 
BRANCH  16  17
HETATM   17  N2  UNL     1      10.480 -11.083  15.031  1.00  0.00    -0.416 N 
ATOM     18  H2  UNL     1       9.883 -10.976  14.211  1.00  0.00     0.153 HD
BRANCH  17  19
HETATM   19  C12 UNL     1      11.551 -12.001  15.023  1.00  0.00     0.084 C 
HETATM   20  C13 UNL     1      12.911 -11.437  15.278  1.00  0.00     0.009 C 
HETATM   21  C14 UNL     1      13.382 -10.494  14.204  1.00  0.00     0.011 C 
HETATM   22  C18 UNL     1      13.885 -12.602  15.277  1.00  0.00     0.011 C 
HETATM   23  C15 UNL     1      13.364 -11.172  12.873  1.00  0.00    -0.013 C 
HETATM   24  C16 UNL     1      14.321 -12.360  12.872  1.00  0.00     0.009 C 
HETATM   25  C21 UNL     1      11.957 -11.646  12.589  1.00  0.00     0.011 C 
HETATM   26  C17 UNL     1      13.890 -13.322  13.953  1.00  0.00    -0.013 C 
HETATM   27  C19 UNL     1      12.506 -13.827  13.588  1.00  0.00     0.011 C 
HETATM   28  C20 UNL     1      11.576 -12.655  13.650  1.00  0.00     0.009 C 
ENDBRANCH  17  19
ENDBRANCH  16  17
ENDBRANCH  15  16
ENDBRANCH   1  15
TORSDOF 7
ENDMDL
MODEL 4
REMARK VINA RESULT: -8.201592296      1.073      2.257
REMARK  7 active torsions:
REMARK  status: ('A' for Active; 'I' for Inactive)
REMARK    1  A    between atoms: C2_2  and  C5_5 
REMARK    2  A    between atoms: C8_8  and  N1_9 
REMARK    3  A    between atoms: N1_9  and  C9_12 
REMARK    4  A    between atoms: C9_12  and  C10_13 
REMARK    5  A    between atoms: C10_13  and  C11_14 
REMARK    6  A    between atoms: C11_14  and  N2_15 
REMARK    7  A    between atoms: N2_15  and  C12_17 
ROOT
HETATM    1  C9  UNL     1       9.043  -8.531  14.124  1.00  0.00     0.234 C 
ENDROOT
BRANCH   1   2
HETATM    2  N1  UNL     1       9.669  -9.095  12.955  1.00  0.00    -0.071 N 
ATOM      3  H12 UNL     1       9.380 -10.063  12.811  1.00  0.00     0.277 HD
ATOM      4  H11 UNL     1      10.666  -9.246  13.106  1.00  0.00     0.277 HD
BRANCH   2   5
HETATM    5  C8  UNL     1       9.434  -8.294  11.767  1.00  0.00     0.185 C 
HETATM    6  C7  UNL     1       9.958  -9.080  10.596  1.00  0.00     0.033 C 
HETATM    7  C6  UNL     1      10.051  -8.075   9.440  1.00  0.00     0.007 C 
HETATM    8  C5  UNL     1      11.278  -7.249   9.775  1.00  0.00    -0.007 C 
HETATM    9  C23 UNL     1      11.172  -6.586  11.093  1.00  0.00     0.007 C 
HETATM   10  C22 UNL     1       9.978  -6.934  11.912  1.00  0.00     0.033 C 
BRANCH   8  11
HETATM   11  C2  UNL     1      11.597  -6.258   8.693  1.00  0.00    -0.048 C 
HETATM   12  C1  UNL     1      10.396  -6.090   7.798  1.00  0.00     0.015 C 
HETATM   13  C3  UNL     1      11.888  -4.890   9.291  1.00  0.00     0.015 C 
HETATM   14  C4  UNL     1      12.758  -6.690   7.833  1.00  0.00     0.015 C 
ENDBRANCH   8  11
ENDBRANCH   2   5
ENDBRANCH   1   2
BRANCH   1  15
HETATM   15  C10 UNL     1      10.038  -8.410  15.237  1.00  0.00     0.046 C 
BRANCH  15  16
HETATM   16  C11 UNL     1      11.441  -8.812  14.773  1.00  0.00     0.115 C 
BRANCH  16  17
HETATM   17  N2  UNL     1      11.693 -10.118  15.209  1.00  0.00    -0.416 N 
ATOM     18  H2  UNL     1      11.094 -10.555  15.908  1.00  0.00     0.153 HD
BRANCH  17  19
HETATM   19  C12 UNL     1      12.789 -10.820  14.664  1.00  0.00     0.084 C 
HETATM   20  C13 UNL     1      12.820 -10.952  13.176  1.00  0.00     0.009 C 
HETATM   21  C14 UNL     1      11.693 -11.780  12.622  1.00  0.00     0.011 C 
HETATM   22  C18 UNL     1      14.101 -11.685  12.819  1.00  0.00     0.011 C 
HETATM   23  C15 UNL     1      11.691 -13.138  13.244  1.00  0.00    -0.013 C 
HETATM   24  C16 UNL     1      12.987 -13.873  12.911  1.00  0.00     0.009 C 
HETATM   25  C21 UNL     1      11.556 -12.986  14.741  1.00  0.00     0.011 C 
HETATM   26  C17 UNL     1      14.145 -13.060  13.437  1.00  0.00    -0.013 C 
HETATM   27  C19 UNL     1      14.009 -12.996  14.947  1.00  0.00     0.011 C 
HETATM   28  C20 UNL     1      12.761 -12.224  15.248  1.00  0.00     0.009 C 
ENDBRANCH  17  19
ENDBRANCH  16  17
ENDBRANCH  15  16
ENDBRANCH   1  15
TORSDOF 7
ENDMDL
MODEL 5
REMARK VINA RESULT: -8.165514448      2.153      3.568
REMARK  7 active torsions:
REMARK  status: ('A' for Active; 'I' for Inactive)
REMARK    1  A    between atoms: C2_2  and  C5_5 
REMARK    2  A    between atoms: C8_8  and  N1_9 
REMARK    3  A    between atoms: N1_9  and  C9_12 
REMARK    4  A    between atoms: C9_12  and  C10_13 
REMARK    5  A    between atoms: C10_13  and  C11_14 
REMARK    6  A    between atoms: C11_14  and  N2_15 
REMARK    7  A    between atoms: N2_15  and  C12_17 
ROOT
HETATM    1  C9  UNL     1       9.206  -9.211  16.549  1.00  0.00     0.234 C 
ENDROOT
BRANCH   1   2
HETATM    2  N1  UNL     1      10.264  -8.352  16.078  1.00  0.00    -0.071 N 
ATOM      3  H12 UNL     1      11.167  -8.824  16.117  1.00  0.00     0.277 HD
ATOM      4  H11 UNL     1      10.447  -7.596  16.737  1.00  0.00     0.277 HD
BRANCH   2   5
HETATM    5  C8  UNL     1       9.998  -7.834  14.748  1.00  0.00     0.185 C 
HETATM    6  C7  UNL     1       8.854  -8.635  14.185  1.00  0.00     0.033 C 
HETATM    7  C6  UNL     1       8.854  -8.340  12.679  1.00  0.00     0.007 C 
HETATM    8  C5  UNL     1      10.025  -9.146  12.151  1.00  0.00    -0.007 C 
HETATM    9  C23 UNL     1      11.303  -8.778  12.798  1.00  0.00     0.007 C 
HETATM   10  C22 UNL     1      11.217  -7.805  13.922  1.00  0.00     0.033 C 
BRANCH   8  11
HETATM   11  C2  UNL     1      10.131  -9.065  10.655  1.00  0.00    -0.048 C 
HETATM   12  C1  UNL     1      11.380  -9.777  10.203  1.00  0.00     0.015 C 
HETATM   13  C3  UNL     1       8.960  -9.778   9.997  1.00  0.00     0.015 C 
HETATM   14  C4  UNL     1      10.202  -7.644  10.154  1.00  0.00     0.015 C 
ENDBRANCH   8  11
ENDBRANCH   2   5
ENDBRANCH   1   2
BRANCH   1  15
HETATM   15  C10 UNL     1       9.766 -10.293  17.418  1.00  0.00     0.046 C 
BRANCH  15  16
HETATM   16  C11 UNL     1       9.707 -11.655  16.719  1.00  0.00     0.115 C 
BRANCH  16  17
HETATM   17  N2  UNL     1      11.012 -12.041  16.393  1.00  0.00    -0.416 N 
ATOM     18  H2  UNL     1      11.600 -12.510  17.081  1.00  0.00     0.153 HD
BRANCH  17  19
HETATM   19  C12 UNL     1      11.500 -11.771  15.097  1.00  0.00     0.084 C 
HETATM   20  C13 UNL     1      11.396 -12.881  14.103  1.00  0.00     0.009 C 
HETATM   21  C14 UNL     1      12.243 -14.076  14.445  1.00  0.00     0.011 C 
HETATM   22  C18 UNL     1      11.924 -12.350  12.783  1.00  0.00     0.011 C 
HETATM   23  C15 UNL     1      13.674 -13.674  14.595  1.00  0.00    -0.013 C 
HETATM   24  C16 UNL     1      14.206 -13.114  13.279  1.00  0.00     0.009 C 
HETATM   25  C21 UNL     1      13.771 -12.622  15.677  1.00  0.00     0.011 C 
HETATM   26  C17 UNL     1      13.365 -11.920  12.893  1.00  0.00    -0.013 C 
HETATM   27  C19 UNL     1      13.552 -10.865  13.968  1.00  0.00     0.011 C 
HETATM   28  C20 UNL     1      12.973 -11.415  15.235  1.00  0.00     0.009 C 
ENDBRANCH  17  19
ENDBRANCH  16  17
ENDBRANCH  15  16
ENDBRANCH   1  15
TORSDOF 7
ENDMDL
