MODEL 1
REMARK VINA RESULT: -6.948551809      0.000      0.000
REMARK  10 active torsions:
REMARK  status: ('A' for Active; 'I' for Inactive)
REMARK    1  A    between atoms: C2_2  and  C4_4 
REMARK    2  A    between atoms: N1_5  and  C5_6 
REMARK    3  A    between atoms: N1_5  and  S1_27 
REMARK    4  A    between atoms: C14_15  and  O1_16 
REMARK    5  A    between atoms: S1_27  and  C24_30 
REMARK    6  A    between atoms: C24_30  and  C25_31 
REMARK    7  A    between atoms: C25_31  and  C26_32 
REMARK    8  A    between atoms: C26_32  and  C27_33 
REMARK    9  A    between atoms: C27_33  and  C28_34 
REMARK       I    between atoms: C28_34  and  N2_36 
REMARK   10  A    between atoms: N2_36  and  C29_38 
ROOT
HETATM    1  C5  UNL     1      -6.890  17.689  -0.406  1.00  0.00     0.109 C 
HETATM    2  C6  UNL     1      -8.067  16.855   0.155  1.00  0.00     0.028 C 
HETATM    3  C7  UNL     1      -8.859  16.698  -1.141  1.00  0.00     0.008 C 
HETATM    4  C8  UNL     1      -7.768  16.302  -2.099  1.00  0.00     0.000 C 
HETATM    5  C9  UNL     1      -8.048  16.651  -3.509  1.00  0.00    -0.005 C 
HETATM    6  C10 UNL     1      -8.696  17.961  -3.768  1.00  0.00     0.006 C 
HETATM    7  C11 UNL     1      -8.248  18.622  -5.063  1.00  0.00     0.006 C 
HETATM    8  C12 UNL     1      -8.069  17.603  -6.169  1.00  0.00    -0.004 C 
HETATM    9  C13 UNL     1      -9.429  17.104  -6.550  1.00  0.00     0.037 C 
HETATM   10  C14 UNL     1      -9.432  16.022  -7.574  1.00  0.00     0.118 C 
HETATM   11  C15 UNL     1      -8.075  15.404  -7.797  1.00  0.00     0.032 C 
HETATM   12  C16 UNL     1      -7.449  15.195  -6.443  1.00  0.00     0.012 C 
HETATM   13  C17 UNL     1      -7.079  16.546  -5.835  1.00  0.00    -0.036 C 
HETATM   14  C18 UNL     1      -5.732  16.912  -6.476  1.00  0.00     0.016 C 
HETATM   15  C19 UNL     1      -6.804  16.401  -4.359  1.00  0.00    -0.002 C 
HETATM   16  C20 UNL     1      -5.618  17.166  -3.888  1.00  0.00     0.006 C 
HETATM   17  C21 UNL     1      -5.783  17.788  -2.543  1.00  0.00     0.012 C 
HETATM   18  C22 UNL     1      -6.455  16.873  -1.534  1.00  0.00    -0.018 C 
HETATM   19  C23 UNL     1      -5.571  15.701  -1.294  1.00  0.00     0.018 C 
ENDROOT
BRANCH   1  20
HETATM   20  N1  UNL     1      -6.164  18.151   0.647  1.00  0.00    -0.284 N 
HETATM   21  C4  UNL     1      -4.819  18.126   0.858  1.00  0.00     0.080 C 
BRANCH  21  22
HETATM   22  C2  UNL     1      -4.445  17.563   2.211  1.00  0.00     0.017 C 
HETATM   23  C1  UNL     1      -5.537  16.668   2.799  1.00  0.00     0.015 C 
HETATM   24  C3  UNL     1      -3.255  16.597   2.016  1.00  0.00     0.015 C 
ENDBRANCH  21  22
BRANCH  20  25
HETATM   25  S1  UNL     1      -6.753  19.775   1.001  1.00  0.00     0.232 S 
HETATM   26  O2  UNL     1      -5.587  20.637   1.428  1.00  0.00    -0.205 OA
HETATM   27  O3  UNL     1      -7.665  19.695   2.211  1.00  0.00    -0.205 OA
BRANCH  25  28
HETATM   28  C24 UNL     1      -7.597  20.516  -0.317  1.00  0.00     0.163 C 
BRANCH  28  29
HETATM   29  C25 UNL     1      -9.055  20.791  -0.114  1.00  0.00     0.017 C 
BRANCH  29  30
HETATM   30  C26 UNL     1      -9.907  20.750  -1.332  1.00  0.00     0.010 C 
BRANCH  30  31
HETATM   31  C27 UNL     1     -11.367  21.045  -1.080  1.00  0.00     0.103 C 
BRANCH  31  32
HETATM   32  C28 UNL     1     -12.238  19.900  -1.420  1.00  0.00     0.217 C 
HETATM   33  O4  UNL     1     -13.378  19.687  -0.912  1.00  0.00    -0.274 OA
HETATM   34  N2  UNL     1     -11.828  18.926  -2.383  1.00  0.00    -0.356 N 
ATOM     35  H2  UNL     1     -10.918  19.046  -2.827  1.00  0.00     0.162 HD
BRANCH  34  36
HETATM   36  C29 UNL     1     -12.624  17.784  -2.765  1.00  0.00     0.084 A 
HETATM   37  C30 UNL     1     -12.321  17.194  -4.149  1.00  0.00     0.027 A 
HETATM   38  C31 UNL     1     -12.001  16.441  -2.898  1.00  0.00     0.027 A 
ENDBRANCH  34  36
ENDBRANCH  31  32
ENDBRANCH  30  31
ENDBRANCH  29  30
ENDBRANCH  28  29
ENDBRANCH  25  28
ENDBRANCH  20  25
ENDBRANCH   1  20
BRANCH  10  39
HETATM   39  O1  UNL     1      -9.990  16.411  -8.791  1.00  0.00    -0.396 OA
ATOM     40  H1  UNL     1     -10.586  15.767  -9.156  1.00  0.00     0.210 HD
ENDBRANCH  10  39
TORSDOF 10
ENDMDL
MODEL 2
REMARK VINA RESULT: -6.887359261      2.875      6.904
REMARK  10 active torsions:
REMARK  status: ('A' for Active; 'I' for Inactive)
REMARK    1  A    between atoms: C2_2  and  C4_4 
REMARK    2  A    between atoms: N1_5  and  C5_6 
REMARK    3  A    between atoms: N1_5  and  S1_27 
REMARK    4  A    between atoms: C14_15  and  O1_16 
REMARK    5  A    between atoms: S1_27  and  C24_30 
REMARK    6  A    between atoms: C24_30  and  C25_31 
REMARK    7  A    between atoms: C25_31  and  C26_32 
REMARK    8  A    between atoms: C26_32  and  C27_33 
REMARK    9  A    between atoms: C27_33  and  C28_34 
REMARK       I    between atoms: C28_34  and  N2_36 
REMARK   10  A    between atoms: N2_36  and  C29_38 
ROOT
HETATM    1  C5  UNL     1      -7.645  18.048  -1.704  1.00  0.00     0.109 C 
HETATM    2  C6  UNL     1      -6.593  17.675  -2.776  1.00  0.00     0.028 C 
HETATM    3  C7  UNL     1      -7.553  17.211  -3.869  1.00  0.00     0.008 C 
HETATM    4  C8  UNL     1      -8.562  18.327  -3.859  1.00  0.00     0.000 C 
HETATM    5  C9  UNL     1      -9.904  17.931  -4.336  1.00  0.00    -0.005 C 
HETATM    6  C10 UNL     1     -10.405  16.596  -3.920  1.00  0.00     0.006 C 
HETATM    7  C11 UNL     1     -11.910  16.549  -3.696  1.00  0.00     0.006 C 
HETATM    8  C12 UNL     1     -12.648  17.378  -4.726  1.00  0.00    -0.004 C 
HETATM    9  C13 UNL     1     -12.526  16.676  -6.044  1.00  0.00     0.037 C 
HETATM   10  C14 UNL     1     -13.126  17.404  -7.196  1.00  0.00     0.118 C 
HETATM   11  C15 UNL     1     -13.451  18.845  -6.891  1.00  0.00     0.032 C 
HETATM   12  C16 UNL     1     -12.283  19.416  -6.130  1.00  0.00     0.012 C 
HETATM   13  C17 UNL     1     -12.236  18.806  -4.731  1.00  0.00    -0.036 C 
HETATM   14  C18 UNL     1     -13.254  19.615  -3.912  1.00  0.00     0.016 C 
HETATM   15  C19 UNL     1     -10.896  19.065  -4.089  1.00  0.00    -0.002 C 
HETATM   16  C20 UNL     1     -10.979  19.460  -2.657  1.00  0.00     0.006 C 
HETATM   17  C21 UNL     1      -9.898  18.892  -1.800  1.00  0.00     0.012 C 
HETATM   18  C22 UNL     1      -8.527  18.941  -2.447  1.00  0.00    -0.018 C 
HETATM   19  C23 UNL     1      -8.140  20.366  -2.633  1.00  0.00     0.018 C 
ENDROOT
BRANCH   1  20
HETATM   20  N1  UNL     1      -6.989  18.272  -0.533  1.00  0.00    -0.284 N 
HETATM   21  C4  UNL     1      -7.330  19.064   0.520  1.00  0.00     0.080 C 
BRANCH  21  22
HETATM   22  C2  UNL     1      -6.212  19.991   0.945  1.00  0.00     0.017 C 
HETATM   23  C1  UNL     1      -6.629  21.462   0.932  1.00  0.00     0.015 C 
HETATM   24  C3  UNL     1      -5.902  19.717   2.433  1.00  0.00     0.015 C 
ENDBRANCH  21  22
BRANCH  20  25
HETATM   25  S1  UNL     1      -6.507  16.694   0.090  1.00  0.00     0.232 S 
HETATM   26  O2  UNL     1      -7.398  15.634  -0.516  1.00  0.00    -0.205 OA
HETATM   27  O3  UNL     1      -6.796  16.665   1.580  1.00  0.00    -0.205 OA
BRANCH  25  28
HETATM   28  C24 UNL     1      -4.842  16.310  -0.187  1.00  0.00     0.163 C 
BRANCH  28  29
HETATM   29  C25 UNL     1      -3.851  17.412   0.026  1.00  0.00     0.017 C 
BRANCH  29  30
HETATM   30  C26 UNL     1      -2.822  17.177   1.074  1.00  0.00     0.010 C 
BRANCH  30  31
HETATM   31  C27 UNL     1      -1.692  16.272   0.643  1.00  0.00     0.103 C 
BRANCH  31  32
HETATM   32  C28 UNL     1      -1.226  15.396   1.738  1.00  0.00     0.217 C 
HETATM   33  O4  UNL     1      -0.028  15.022   1.902  1.00  0.00    -0.274 OA
HETATM   34  N2  UNL     1      -2.139  14.900   2.721  1.00  0.00    -0.356 N 
ATOM     35  H2  UNL     1      -3.119  15.168   2.642  1.00  0.00     0.162 HD
BRANCH  34  36
HETATM   36  C29 UNL     1      -1.757  14.041   3.818  1.00  0.00     0.084 A 
HETATM   37  C30 UNL     1      -2.910  13.517   4.685  1.00  0.00     0.027 A 
HETATM   38  C31 UNL     1      -2.119  12.599   3.808  1.00  0.00     0.027 A 
ENDBRANCH  34  36
ENDBRANCH  31  32
ENDBRANCH  30  31
ENDBRANCH  29  30
ENDBRANCH  28  29
ENDBRANCH  25  28
ENDBRANCH  20  25
ENDBRANCH   1  20
BRANCH  10  39
HETATM   39  O1  UNL     1     -14.238  16.764  -7.739  1.00  0.00    -0.396 OA
ATOM     40  H1  UNL     1     -14.331  16.895  -8.675  1.00  0.00     0.210 HD
ENDBRANCH  10  39
TORSDOF 10
ENDMDL
MODEL 3
REMARK VINA RESULT: -6.712275318      2.258      3.435
REMARK  10 active torsions:
REMARK  status: ('A' for Active; 'I' for Inactive)
REMARK    1  A    between atoms: C2_2  and  C4_4 
REMARK    2  A    between atoms: N1_5  and  C5_6 
REMARK    3  A    between atoms: N1_5  and  S1_27 
REMARK    4  A    between atoms: C14_15  and  O1_16 
REMARK    5  A    between atoms: S1_27  and  C24_30 
REMARK    6  A    between atoms: C24_30  and  C25_31 
REMARK    7  A    between atoms: C25_31  and  C26_32 
REMARK    8  A    between atoms: C26_32  and  C27_33 
REMARK    9  A    between atoms: C27_33  and  C28_34 
REMARK       I    between atoms: C28_34  and  N2_36 
REMARK   10  A    between atoms: N2_36  and  C29_38 
ROOT
HETATM    1  C5  UNL     1      -6.694  16.472  -0.931  1.00  0.00     0.109 C 
HETATM    2  C6  UNL     1      -6.461  14.992  -1.321  1.00  0.00     0.028 C 
HETATM    3  C7  UNL     1      -7.747  14.772  -2.115  1.00  0.00     0.008 C 
HETATM    4  C8  UNL     1      -7.767  16.004  -2.979  1.00  0.00     0.000 C 
HETATM    5  C9  UNL     1      -9.120  16.415  -3.413  1.00  0.00    -0.005 C 
HETATM    6  C10 UNL     1     -10.215  16.301  -2.417  1.00  0.00     0.006 C 
HETATM    7  C11 UNL     1     -11.273  17.388  -2.543  1.00  0.00     0.006 C 
HETATM    8  C12 UNL     1     -11.562  17.712  -3.994  1.00  0.00    -0.004 C 
HETATM    9  C13 UNL     1     -12.277  16.537  -4.587  1.00  0.00     0.037 C 
HETATM   10  C14 UNL     1     -12.563  16.653  -6.044  1.00  0.00     0.118 C 
HETATM   11  C15 UNL     1     -11.802  17.766  -6.718  1.00  0.00     0.032 C 
HETATM   12  C16 UNL     1     -10.387  17.719  -6.202  1.00  0.00     0.012 C 
HETATM   13  C17 UNL     1     -10.359  18.163  -4.742  1.00  0.00    -0.036 C 
HETATM   14  C18 UNL     1     -10.360  19.699  -4.796  1.00  0.00     0.016 C 
HETATM   15  C19 UNL     1      -9.051  17.777  -4.099  1.00  0.00    -0.002 C 
HETATM   16  C20 UNL     1      -8.471  18.835  -3.228  1.00  0.00     0.006 C 
HETATM   17  C21 UNL     1      -7.816  18.320  -1.990  1.00  0.00     0.012 C 
HETATM   18  C22 UNL     1      -6.968  17.084  -2.226  1.00  0.00    -0.018 C 
HETATM   19  C23 UNL     1      -5.835  17.448  -3.119  1.00  0.00     0.018 C 
ENDROOT
BRANCH   1  20
HETATM   20  N1  UNL     1      -5.760  16.812  -0.003  1.00  0.00    -0.284 N 
HETATM   21  C4  UNL     1      -4.606  17.522  -0.146  1.00  0.00     0.080 C 
BRANCH  21  22
HETATM   22  C2  UNL     1      -3.406  16.821   0.452  1.00  0.00     0.017 C 
HETATM   23  C1  UNL     1      -2.107  17.145  -0.286  1.00  0.00     0.015 C 
HETATM   24  C3  UNL     1      -3.170  17.396   1.866  1.00  0.00     0.015 C 
ENDBRANCH  21  22
BRANCH  20  25
HETATM   25  S1  UNL     1      -6.633  17.445   1.392  1.00  0.00     0.232 S 
HETATM   26  O2  UNL     1      -6.200  16.688   2.627  1.00  0.00    -0.205 OA
HETATM   27  O3  UNL     1      -8.106  17.124   1.214  1.00  0.00    -0.205 OA
BRANCH  25  28
HETATM   28  C24 UNL     1      -6.433  19.148   1.631  1.00  0.00     0.163 C 
BRANCH  28  29
HETATM   29  C25 UNL     1      -7.651  19.920   2.035  1.00  0.00     0.017 C 
BRANCH  29  30
HETATM   30  C26 UNL     1      -7.857  21.226   1.354  1.00  0.00     0.010 C 
BRANCH  30  31
HETATM   31  C27 UNL     1      -7.486  21.229  -0.111  1.00  0.00     0.103 C 
BRANCH  31  32
HETATM   32  C28 UNL     1      -8.632  21.573  -0.979  1.00  0.00     0.217 C 
HETATM   33  O4  UNL     1      -8.566  22.328  -1.992  1.00  0.00    -0.274 OA
HETATM   34  N2  UNL     1      -9.936  21.050  -0.716  1.00  0.00    -0.356 N 
ATOM     35  H2  UNL     1     -10.051  20.434   0.088  1.00  0.00     0.162 HD
BRANCH  34  36
HETATM   36  C29 UNL     1     -11.100  21.342  -1.518  1.00  0.00     0.084 A 
HETATM   37  C30 UNL     1     -12.310  20.424  -1.294  1.00  0.00     0.027 A 
HETATM   38  C31 UNL     1     -12.341  21.862  -0.887  1.00  0.00     0.027 A 
ENDBRANCH  34  36
ENDBRANCH  31  32
ENDBRANCH  30  31
ENDBRANCH  29  30
ENDBRANCH  28  29
ENDBRANCH  25  28
ENDBRANCH  20  25
ENDBRANCH   1  20
BRANCH  10  39
HETATM   39  O1  UNL     1     -13.922  16.752  -6.337  1.00  0.00    -0.396 OA
ATOM     40  H1  UNL     1     -14.258  16.013  -6.831  1.00  0.00     0.210 HD
ENDBRANCH  10  39
TORSDOF 10
ENDMDL
MODEL 4
REMARK VINA RESULT: -6.641373111      2.238      5.980
REMARK  10 active torsions:
REMARK  status: ('A' for Active; 'I' for Inactive)
REMARK    1  A    between atoms: C2_2  and  C4_4 
REMARK    2  A    between atoms: N1_5  and  C5_6 
REMARK    3  A    between atoms: N1_5  and  S1_27 
REMARK    4  A    between atoms: C14_15  and  O1_16 
REMARK    5  A    between atoms: S1_27  and  C24_30 
REMARK    6  A    between atoms: C24_30  and  C25_31 
REMARK    7  A    between atoms: C25_31  and  C26_32 
REMARK    8  A    between atoms: C26_32  and  C27_33 
REMARK    9  A    between atoms: C27_33  and  C28_34 
REMARK       I    between atoms: C28_34  and  N2_36 
REMARK   10  A    between atoms: N2_36  and  C29_38 
ROOT
HETATM    1  C5  UNL     1     -11.544  19.805  -3.188  1.00  0.00     0.109 C 
HETATM    2  C6  UNL     1     -11.830  20.592  -4.489  1.00  0.00     0.028 C 
HETATM    3  C7  UNL     1     -10.556  20.228  -5.247  1.00  0.00     0.008 C 
HETATM    4  C8  UNL     1     -10.496  18.743  -5.014  1.00  0.00     0.000 C 
HETATM    5  C9  UNL     1      -9.131  18.177  -5.078  1.00  0.00    -0.005 C 
HETATM    6  C10 UNL     1      -8.037  18.976  -4.471  1.00  0.00     0.006 C 
HETATM    7  C11 UNL     1      -6.941  18.131  -3.836  1.00  0.00     0.006 C 
HETATM    8  C12 UNL     1      -6.647  16.896  -4.662  1.00  0.00    -0.004 C 
HETATM    9  C13 UNL     1      -5.976  17.345  -5.924  1.00  0.00     0.037 C 
HETATM   10  C14 UNL     1      -5.692  16.256  -6.900  1.00  0.00     0.118 C 
HETATM   11  C15 UNL     1      -6.416  14.970  -6.591  1.00  0.00     0.032 C 
HETATM   12  C16 UNL     1      -7.830  15.331  -6.214  1.00  0.00     0.012 C 
HETATM   13  C17 UNL     1      -7.836  16.025  -4.854  1.00  0.00    -0.036 C 
HETATM   14  C18 UNL     1      -7.781  14.883  -3.827  1.00  0.00     0.016 C 
HETATM   15  C19 UNL     1      -9.154  16.720  -4.624  1.00  0.00    -0.002 C 
HETATM   16  C20 UNL     1      -9.693  16.551  -3.247  1.00  0.00     0.006 C 
HETATM   17  C21 UNL     1     -10.361  17.766  -2.697  1.00  0.00     0.012 C 
HETATM   18  C22 UNL     1     -11.253  18.471  -3.701  1.00  0.00    -0.018 C 
HETATM   19  C23 UNL     1     -12.376  17.564  -4.060  1.00  0.00     0.018 C 
ENDROOT
BRANCH   1  20
HETATM   20  N1  UNL     1     -12.462  20.184  -2.258  1.00  0.00    -0.284 N 
HETATM   21  C4  UNL     1     -13.318  19.426  -1.519  1.00  0.00     0.080 C 
BRANCH  21  22
HETATM   22  C2  UNL     1     -14.747  19.920  -1.584  1.00  0.00     0.017 C 
HETATM   23  C1  UNL     1     -15.393  19.674  -2.949  1.00  0.00     0.015 C 
HETATM   24  C3  UNL     1     -15.597  19.058  -0.625  1.00  0.00     0.015 C 
ENDBRANCH  21  22
BRANCH  20  25
HETATM   25  S1  UNL     1     -11.658  21.326  -1.182  1.00  0.00     0.232 S 
HETATM   26  O2  UNL     1     -12.342  21.296   0.166  1.00  0.00    -0.205 OA
HETATM   27  O3  UNL     1     -11.884  22.726  -1.722  1.00  0.00    -0.205 OA
BRANCH  25  28
HETATM   28  C24 UNL     1      -9.960  21.039  -0.998  1.00  0.00     0.163 C 
BRANCH  28  29
HETATM   29  C25 UNL     1      -9.451  20.875   0.401  1.00  0.00     0.017 C 
BRANCH  29  30
HETATM   30  C26 UNL     1      -7.975  20.927   0.574  1.00  0.00     0.010 C 
BRANCH  30  31
HETATM   31  C27 UNL     1      -7.479  20.333   1.871  1.00  0.00     0.103 C 
BRANCH  31  32
HETATM   32  C28 UNL     1      -6.802  19.035   1.670  1.00  0.00     0.217 C 
HETATM   33  O4  UNL     1      -5.658  18.742   2.125  1.00  0.00    -0.274 OA
HETATM   34  N2  UNL     1      -7.426  17.989   0.921  1.00  0.00    -0.356 N 
ATOM     35  H2  UNL     1      -8.350  18.166   0.530  1.00  0.00     0.162 HD
BRANCH  34  36
HETATM   36  C29 UNL     1      -6.826  16.697   0.684  1.00  0.00     0.084 A 
HETATM   37  C30 UNL     1      -7.448  15.872  -0.451  1.00  0.00     0.027 A 
HETATM   38  C31 UNL     1      -6.068  16.435  -0.568  1.00  0.00     0.027 A 
ENDBRANCH  34  36
ENDBRANCH  31  32
ENDBRANCH  30  31
ENDBRANCH  29  30
ENDBRANCH  28  29
ENDBRANCH  25  28
ENDBRANCH  20  25
ENDBRANCH   1  20
BRANCH  10  39
HETATM   39  O1  UNL     1      -4.331  16.012  -7.078  1.00  0.00    -0.396 OA
ATOM     40  H1  UNL     1      -3.933  16.561  -7.743  1.00  0.00     0.210 HD
ENDBRANCH  10  39
TORSDOF 10
ENDMDL
MODEL 5
REMARK VINA RESULT: -6.561784391      2.040      2.588
REMARK  10 active torsions:
REMARK  status: ('A' for Active; 'I' for Inactive)
REMARK    1  A    between atoms: C2_2  and  C4_4 
REMARK    2  A    between atoms: N1_5  and  C5_6 
REMARK    3  A    between atoms: N1_5  and  S1_27 
REMARK    4  A    between atoms: C14_15  and  O1_16 
REMARK    5  A    between atoms: S1_27  and  C24_30 
REMARK    6  A    between atoms: C24_30  and  C25_31 
REMARK    7  A    between atoms: C25_31  and  C26_32 
REMARK    8  A    between atoms: C26_32  and  C27_33 
REMARK    9  A    between atoms: C27_33  and  C28_34 
REMARK       I    between atoms: C28_34  and  N2_36 
REMARK   10  A    between atoms: N2_36  and  C29_38 
ROOT
HETATM    1  C5  UNL     1      -7.866  17.746  -1.998  1.00  0.00     0.109 C 
HETATM    2  C6  UNL     1      -8.293  16.442  -1.282  1.00  0.00     0.028 C 
HETATM    3  C7  UNL     1      -8.471  15.564  -2.518  1.00  0.00     0.008 C 
HETATM    4  C8  UNL     1      -7.210  15.877  -3.278  1.00  0.00     0.000 C 
HETATM    5  C9  UNL     1      -7.325  15.688  -4.740  1.00  0.00    -0.005 C 
HETATM    6  C10 UNL     1      -8.595  16.115  -5.382  1.00  0.00     0.006 C 
HETATM    7  C11 UNL     1      -8.415  16.668  -6.788  1.00  0.00     0.006 C 
HETATM    8  C12 UNL     1      -7.370  15.889  -7.559  1.00  0.00    -0.004 C 
HETATM    9  C13 UNL     1      -7.938  14.533  -7.848  1.00  0.00     0.037 C 
HETATM   10  C14 UNL     1      -7.001  13.598  -8.530  1.00  0.00     0.118 C 
HETATM   11  C15 UNL     1      -5.567  14.065  -8.511  1.00  0.00     0.032 C 
HETATM   12  C16 UNL     1      -5.283  14.581  -7.125  1.00  0.00     0.012 C 
HETATM   13  C17 UNL     1      -6.038  15.888  -6.899  1.00  0.00    -0.036 C 
HETATM   14  C18 UNL     1      -5.163  16.968  -7.556  1.00  0.00     0.016 C 
HETATM   15  C19 UNL     1      -6.075  16.228  -5.431  1.00  0.00    -0.002 C 
HETATM   16  C20 UNL     1      -5.827  17.666  -5.137  1.00  0.00     0.006 C 
HETATM   17  C21 UNL     1      -6.655  18.217  -4.026  1.00  0.00     0.012 C 
HETATM   18  C22 UNL     1      -6.765  17.282  -2.835  1.00  0.00    -0.018 C 
HETATM   19  C23 UNL     1      -5.413  17.111  -2.239  1.00  0.00     0.018 C 
ENDROOT
BRANCH   1  20
HETATM   20  N1  UNL     1      -7.881  18.751  -1.082  1.00  0.00    -0.284 N 
HETATM   21  C4  UNL     1      -6.849  19.348  -0.425  1.00  0.00     0.080 C 
BRANCH  21  22
HETATM   22  C2  UNL     1      -7.062  19.412   1.072  1.00  0.00     0.017 C 
HETATM   23  C1  UNL     1      -7.022  18.032   1.731  1.00  0.00     0.015 C 
HETATM   24  C3  UNL     1      -5.856  20.145   1.697  1.00  0.00     0.015 C 
ENDBRANCH  21  22
BRANCH  20  25
HETATM   25  S1  UNL     1      -8.934  20.011  -1.725  1.00  0.00     0.232 S 
HETATM   26  O2  UNL     1      -9.812  19.415  -2.802  1.00  0.00    -0.205 OA
HETATM   27  O3  UNL     1      -8.068  21.039  -2.429  1.00  0.00    -0.205 OA
BRANCH  25  28
HETATM   28  C24 UNL     1      -9.906  20.792  -0.524  1.00  0.00     0.163 C 
BRANCH  28  29
HETATM   29  C25 UNL     1     -11.081  21.581  -1.015  1.00  0.00     0.017 C 
BRANCH  29  30
HETATM   30  C26 UNL     1     -12.381  21.309  -0.347  1.00  0.00     0.010 C 
BRANCH  30  31
HETATM   31  C27 UNL     1     -13.503  20.949  -1.293  1.00  0.00     0.103 C 
BRANCH  31  32
HETATM   32  C28 UNL     1     -13.602  19.491  -1.516  1.00  0.00     0.217 C 
HETATM   33  O4  UNL     1     -14.286  18.699  -0.804  1.00  0.00    -0.274 OA
HETATM   34  N2  UNL     1     -12.904  18.864  -2.595  1.00  0.00    -0.356 N 
ATOM     35  H2  UNL     1     -12.337  19.453  -3.204  1.00  0.00     0.162 HD
BRANCH  34  36
HETATM   36  C29 UNL     1     -12.954  17.448  -2.874  1.00  0.00     0.084 A 
HETATM   37  C30 UNL     1     -11.886  16.923  -3.843  1.00  0.00     0.027 A 
HETATM   38  C31 UNL     1     -11.872  16.547  -2.396  1.00  0.00     0.027 A 
ENDBRANCH  34  36
ENDBRANCH  31  32
ENDBRANCH  30  31
ENDBRANCH  29  30
ENDBRANCH  28  29
ENDBRANCH  25  28
ENDBRANCH  20  25
ENDBRANCH   1  20
BRANCH  10  39
HETATM   39  O1  UNL     1      -7.387  13.277  -9.831  1.00  0.00    -0.396 OA
ATOM     40  H1  UNL     1      -6.679  13.340 -10.461  1.00  0.00     0.210 HD
ENDBRANCH  10  39
TORSDOF 10
ENDMDL
