MODEL 1
REMARK VINA RESULT: -5.016727654      0.000      0.000
REMARK  3 active torsions:
REMARK  status: ('A' for Active; 'I' for Inactive)
REMARK    1  A    between atoms: O1_2  and  C2_3 
REMARK    2  A    between atoms: C2_3  and  O2_4 
REMARK    3  A    between atoms: C2_3  and  C3_6 
ROOT
HETATM    1  C3  UNL     1      33.503  -6.912  12.955  1.00  0.00     0.087 A 
HETATM    2  S1  UNL     1      32.089  -6.018  12.619  1.00  0.00    -0.045 SA
HETATM    3  S2  UNL     1      32.050  -6.506  10.593  1.00  0.00    -0.007 SA
HETATM    4  C4  UNL     1      33.452  -7.460  10.665  1.00  0.00     0.259 A 
HETATM    5  O3  UNL     1      33.877  -8.031   9.579  1.00  0.00    -0.276 OA
HETATM    6  C5  UNL     1      34.040  -7.557  11.886  1.00  0.00     0.192 A 
HETATM    7  F1  UNL     1      35.213  -8.340  12.009  1.00  0.00    -0.200 F 
ENDROOT
BRANCH   1   8
HETATM    8  C2  UNL     1      34.110  -6.975  14.359  1.00  0.00     0.301 C 
BRANCH   8   9
HETATM    9  O1  UNL     1      35.283  -6.228  14.357  1.00  0.00    -0.361 OA
HETATM   10  C1  UNL     1      35.581  -5.820  15.631  1.00  0.00     0.205 C 
ENDBRANCH   8   9
BRANCH   8  11
HETATM   11  O2  UNL     1      33.196  -6.504  15.289  1.00  0.00    -0.366 OA
ATOM     12  H2  UNL     1      32.796  -5.687  15.013  1.00  0.00     0.213 HD
ENDBRANCH   8  11
ENDBRANCH   1   8
TORSDOF 3
ENDMDL
MODEL 2
REMARK VINA RESULT: -4.948927106      9.855     10.910
REMARK  3 active torsions:
REMARK  status: ('A' for Active; 'I' for Inactive)
REMARK    1  A    between atoms: O1_2  and  C2_3 
REMARK    2  A    between atoms: C2_3  and  O2_4 
REMARK    3  A    between atoms: C2_3  and  C3_6 
ROOT
HETATM    1  C3  UNL     1      25.447  -1.939  14.917  1.00  0.00     0.087 A 
HETATM    2  S1  UNL     1      27.128  -1.720  14.726  1.00  0.00    -0.045 SA
HETATM    3  S2  UNL     1      27.652  -3.026  16.263  1.00  0.00    -0.007 SA
HETATM    4  C4  UNL     1      26.046  -3.413  16.653  1.00  0.00     0.259 A 
HETATM    5  O3  UNL     1      25.822  -4.253  17.619  1.00  0.00    -0.276 OA
HETATM    6  C5  UNL     1      25.090  -2.802  15.905  1.00  0.00     0.192 A 
HETATM    7  F1  UNL     1      23.732  -3.086  16.183  1.00  0.00    -0.200 F 
ENDROOT
BRANCH   1   8
HETATM    8  C2  UNL     1      24.427  -1.213  14.036  1.00  0.00     0.301 C 
BRANCH   8   9
HETATM    9  O1  UNL     1      23.726  -2.169  13.309  1.00  0.00    -0.361 OA
HETATM   10  C1  UNL     1      24.342  -2.386  12.103  1.00  0.00     0.205 C 
ENDBRANCH   8   9
BRANCH   8  11
HETATM   11  O2  UNL     1      23.587  -0.443  14.825  1.00  0.00    -0.366 OA
ATOM     12  H2  UNL     1      23.497   0.443  14.492  1.00  0.00     0.213 HD
ENDBRANCH   8  11
ENDBRANCH   1   8
TORSDOF 3
ENDMDL
MODEL 3
REMARK VINA RESULT: -4.931714168      6.470      7.566
REMARK  3 active torsions:
REMARK  status: ('A' for Active; 'I' for Inactive)
REMARK    1  A    between atoms: O1_2  and  C2_3 
REMARK    2  A    between atoms: C2_3  and  O2_4 
REMARK    3  A    between atoms: C2_3  and  C3_6 
ROOT
HETATM    1  C3  UNL     1      28.953  -3.365  16.145  1.00  0.00     0.087 A 
HETATM    2  S1  UNL     1      29.166  -3.258  14.455  1.00  0.00    -0.045 SA
HETATM    3  S2  UNL     1      30.960  -4.319  14.437  1.00  0.00    -0.007 SA
HETATM    4  C4  UNL     1      30.980  -4.563  16.116  1.00  0.00     0.259 A 
HETATM    5  O3  UNL     1      31.969  -5.222  16.641  1.00  0.00    -0.276 OA
HETATM    6  C5  UNL     1      29.932  -4.038  16.804  1.00  0.00     0.192 A 
HETATM    7  F1  UNL     1      29.894  -4.210  18.208  1.00  0.00    -0.200 F 
ENDROOT
BRANCH   1   8
HETATM    8  C2  UNL     1      27.744  -2.747  16.853  1.00  0.00     0.301 C 
BRANCH   8   9
HETATM    9  O1  UNL     1      26.954  -3.781  17.341  1.00  0.00    -0.361 OA
HETATM   10  C1  UNL     1      25.770  -3.833  16.650  1.00  0.00     0.205 C 
ENDBRANCH   8   9
BRANCH   8  11
HETATM   11  O2  UNL     1      28.173  -1.900  17.863  1.00  0.00    -0.366 OA
ATOM     12  H2  UNL     1      27.507  -1.771  18.528  1.00  0.00     0.213 HD
ENDBRANCH   8  11
ENDBRANCH   1   8
TORSDOF 3
ENDMDL
MODEL 4
REMARK VINA RESULT: -4.830279680      5.997      7.047
REMARK  3 active torsions:
REMARK  status: ('A' for Active; 'I' for Inactive)
REMARK    1  A    between atoms: O1_2  and  C2_3 
REMARK    2  A    between atoms: C2_3  and  O2_4 
REMARK    3  A    between atoms: C2_3  and  C3_6 
ROOT
HETATM    1  C3  UNL     1      29.468  -3.720  16.446  1.00  0.00     0.087 A 
HETATM    2  S1  UNL     1      29.335  -3.316  14.794  1.00  0.00    -0.045 SA
HETATM    3  S2  UNL     1      31.056  -4.344  14.222  1.00  0.00    -0.007 SA
HETATM    4  C4  UNL     1      31.411  -4.880  15.794  1.00  0.00     0.259 A 
HETATM    5  O3  UNL     1      32.466  -5.614  15.980  1.00  0.00    -0.276 OA
HETATM    6  C5  UNL     1      30.542  -4.491  16.763  1.00  0.00     0.192 A 
HETATM    7  F1  UNL     1      30.785  -4.908  18.093  1.00  0.00    -0.200 F 
ENDROOT
BRANCH   1   8
HETATM    8  C2  UNL     1      28.449  -3.244  17.485  1.00  0.00     0.301 C 
BRANCH   8   9
HETATM    9  O1  UNL     1      27.198  -3.727  17.115  1.00  0.00    -0.361 OA
HETATM   10  C1  UNL     1      26.392  -2.690  16.723  1.00  0.00     0.205 C 
ENDBRANCH   8   9
BRANCH   8  11
HETATM   11  O2  UNL     1      28.822  -3.681  18.746  1.00  0.00    -0.366 OA
ATOM     12  H2  UNL     1      29.532  -4.312  18.709  1.00  0.00     0.213 HD
ENDBRANCH   8  11
ENDBRANCH   1   8
TORSDOF 3
ENDMDL
MODEL 5
REMARK VINA RESULT: -4.797157260      6.356      7.173
REMARK  3 active torsions:
REMARK  status: ('A' for Active; 'I' for Inactive)
REMARK    1  A    between atoms: O1_2  and  C2_3 
REMARK    2  A    between atoms: C2_3  and  O2_4 
REMARK    3  A    between atoms: C2_3  and  C3_6 
ROOT
HETATM    1  C3  UNL     1      29.591  -3.746  16.681  1.00  0.00     0.087 A 
HETATM    2  S1  UNL     1      30.747  -4.804  17.355  1.00  0.00    -0.045 SA
HETATM    3  S2  UNL     1      31.786  -5.089  15.570  1.00  0.00    -0.007 SA
HETATM    4  C4  UNL     1      30.769  -4.072  14.668  1.00  0.00     0.259 A 
HETATM    5  O3  UNL     1      31.015  -3.903  13.404  1.00  0.00    -0.276 OA
HETATM    6  C5  UNL     1      29.749  -3.494  15.355  1.00  0.00     0.192 A 
HETATM    7  F1  UNL     1      28.868  -2.635  14.657  1.00  0.00    -0.200 F 
ENDROOT
BRANCH   1   8
HETATM    8  C2  UNL     1      28.466  -3.132  17.519  1.00  0.00     0.301 C 
BRANCH   8   9
HETATM    9  O1  UNL     1      27.266  -3.713  17.123  1.00  0.00    -0.361 OA
HETATM   10  C1  UNL     1      26.389  -2.744  16.709  1.00  0.00     0.205 C 
ENDBRANCH   8   9
BRANCH   8  11
HETATM   11  O2  UNL     1      28.719  -3.332  18.867  1.00  0.00    -0.366 OA
ATOM     12  H2  UNL     1      28.755  -2.514  19.348  1.00  0.00     0.213 HD
ENDBRANCH   8  11
ENDBRANCH   1   8
TORSDOF 3
ENDMDL
