MODEL 1
REMARK VINA RESULT: -8.136114715      0.000      0.000
REMARK  11 active torsions:
REMARK  status: ('A' for Active; 'I' for Inactive)
REMARK    1  A    between atoms: C4_4  and  O1_5 
REMARK    2  A    between atoms: C9_11  and  O2_12 
REMARK    3  A    between atoms: O2_12  and  C10_13 
REMARK    4  A    between atoms: C13_17  and  O4_18 
REMARK    5  A    between atoms: O4_18  and  C14_19 
REMARK    6  A    between atoms: C17_23  and  O6_24 
REMARK    7  A    between atoms: C18_26  and  O7_27 
REMARK    8  A    between atoms: C19_29  and  O8_30 
REMARK    9  A    between atoms: C20_32  and  O9_33 
REMARK   10  A    between atoms: C21_35  and  O10_36 
REMARK   11  A    between atoms: C22_38  and  O11_39 
ROOT
HETATM    1  C10 UNL     1     -11.844  -8.031   9.049  1.00  0.00     0.292 C 
HETATM    2  O3  UNL     1     -13.030  -8.550   8.563  1.00  0.00    -0.351 OA
HETATM    3  C11 UNL     1     -13.772  -9.310   9.408  1.00  0.00     0.152 C 
HETATM    4  C12 UNL     1     -14.393 -10.434   8.588  1.00  0.00     0.042 C 
HETATM    5  C13 UNL     1     -13.097  -9.819  10.637  1.00  0.00     0.184 C 
HETATM    6  C20 UNL     1     -12.434  -8.664  11.398  1.00  0.00     0.183 C 
HETATM    7  C21 UNL     1     -12.093  -7.534  10.458  1.00  0.00     0.204 C 
ENDROOT
BRANCH   1   8
HETATM    8  O2  UNL     1     -11.551  -6.909   8.286  1.00  0.00    -0.348 OA
BRANCH   8   9
HETATM    9  C9  UNL     1     -10.441  -7.109   7.424  1.00  0.00     0.180 C 
HETATM   10  C8  UNL     1      -9.238  -6.885   8.270  1.00  0.00     0.041 C 
HETATM   11  C6  UNL     1      -7.912  -6.827   7.651  1.00  0.00    -0.013 C 
HETATM   12  C5  UNL     1      -7.395  -5.523   7.139  1.00  0.00     0.040 C 
HETATM   13  C7  UNL     1      -7.807  -7.864   6.557  1.00  0.00     0.010 C 
HETATM   14  C4  UNL     1      -7.907  -4.322   7.844  1.00  0.00     0.142 C 
HETATM   15  C3  UNL     1      -7.693  -3.073   7.086  1.00  0.00     0.011 C 
HETATM   16  C2  UNL     1      -8.052  -2.767   5.865  1.00  0.00    -0.063 C 
HETATM   17  C1  UNL     1      -7.630  -1.355   5.461  1.00  0.00     0.048 C 
HETATM   18  C27 UNL     1      -8.741  -3.527   4.848  1.00  0.00     0.011 C 
HETATM   19  C25 UNL     1      -9.959  -4.011   4.786  1.00  0.00    -0.055 C 
HETATM   20  C23 UNL     1     -11.073  -3.959   5.730  1.00  0.00     0.149 C 
HETATM   21  C26 UNL     1     -10.280  -4.767   3.497  1.00  0.00     0.046 C 
HETATM   22  O12 UNL     1     -11.238  -5.014   6.591  1.00  0.00    -0.350 OA
HETATM   23  C24 UNL     1     -11.159  -2.697   6.562  1.00  0.00     0.044 C 
HETATM   24  C22 UNL     1     -10.656  -6.203   6.269  1.00  0.00     0.286 C 
BRANCH  14  25
HETATM   25  O1  UNL     1      -7.218  -4.299   9.093  1.00  0.00    -0.392 OA
ATOM     26  H1  UNL     1      -7.473  -3.548   9.617  1.00  0.00     0.210 HD
ENDBRANCH  14  25
BRANCH  24  27
HETATM   27  O11 UNL     1     -11.479  -6.915   5.356  1.00  0.00    -0.369 OA
ATOM     28  H11 UNL     1     -10.945  -7.072   4.586  1.00  0.00     0.212 HD
ENDBRANCH  24  27
ENDBRANCH   8   9
ENDBRANCH   1   8
BRANCH   7  29
HETATM   29  O10 UNL     1     -13.200  -6.682  10.434  1.00  0.00    -0.388 OA
ATOM     30  H10 UNL     1     -12.948  -5.877   9.997  1.00  0.00     0.210 HD
ENDBRANCH   7  29
BRANCH   6  31
HETATM   31  O9  UNL     1     -13.364  -8.214  12.331  1.00  0.00    -0.390 OA
ATOM     32  H9  UNL     1     -12.873  -7.957  13.102  1.00  0.00     0.210 HD
ENDBRANCH   6  31
BRANCH   5  33
HETATM   33  O4  UNL     1     -13.929 -10.438  11.528  1.00  0.00    -0.348 OA
BRANCH  33  34
HETATM   34  C14 UNL     1     -13.597 -11.696  11.934  1.00  0.00     0.292 C 
HETATM   35  O5  UNL     1     -12.606 -12.282  11.130  1.00  0.00    -0.351 OA
HETATM   36  C15 UNL     1     -12.294 -13.545  11.639  1.00  0.00     0.152 C 
HETATM   37  C16 UNL     1     -11.551 -14.346  10.595  1.00  0.00     0.042 C 
HETATM   38  C17 UNL     1     -11.399 -13.352  12.843  1.00  0.00     0.178 C 
HETATM   39  C18 UNL     1     -11.591 -11.964  13.356  1.00  0.00     0.183 C 
HETATM   40  C19 UNL     1     -13.069 -11.624  13.349  1.00  0.00     0.204 C 
BRANCH  38  41
HETATM   41  O6  UNL     1     -10.067 -13.489  12.392  1.00  0.00    -0.390 OA
ATOM     42  H6  UNL     1      -9.547 -13.753  13.141  1.00  0.00     0.210 HD
ENDBRANCH  38  41
BRANCH  39  43
HETATM   43  O7  UNL     1     -11.001 -11.726  14.575  1.00  0.00    -0.390 OA
ATOM     44  H7  UNL     1     -11.607 -11.454  15.254  1.00  0.00     0.210 HD
ENDBRANCH  39  43
BRANCH  40  45
HETATM   45  O8  UNL     1     -13.788 -12.400  14.236  1.00  0.00    -0.388 OA
ATOM     46  H8  UNL     1     -13.302 -12.614  15.023  1.00  0.00     0.210 HD
ENDBRANCH  40  45
ENDBRANCH  33  34
ENDBRANCH   5  33
TORSDOF 11
ENDMDL
MODEL 2
REMARK VINA RESULT: -8.031964710      5.143     10.148
REMARK  11 active torsions:
REMARK  status: ('A' for Active; 'I' for Inactive)
REMARK    1  A    between atoms: C4_4  and  O1_5 
REMARK    2  A    between atoms: C9_11  and  O2_12 
REMARK    3  A    between atoms: O2_12  and  C10_13 
REMARK    4  A    between atoms: C13_17  and  O4_18 
REMARK    5  A    between atoms: O4_18  and  C14_19 
REMARK    6  A    between atoms: C17_23  and  O6_24 
REMARK    7  A    between atoms: C18_26  and  O7_27 
REMARK    8  A    between atoms: C19_29  and  O8_30 
REMARK    9  A    between atoms: C20_32  and  O9_33 
REMARK   10  A    between atoms: C21_35  and  O10_36 
REMARK   11  A    between atoms: C22_38  and  O11_39 
ROOT
HETATM    1  C10 UNL     1     -11.682  -2.280   8.203  1.00  0.00     0.292 C 
HETATM    2  O3  UNL     1     -11.848  -1.680   9.438  1.00  0.00    -0.351 OA
HETATM    3  C11 UNL     1     -12.877  -0.805   9.574  1.00  0.00     0.152 C 
HETATM    4  C12 UNL     1     -12.403   0.323  10.481  1.00  0.00     0.042 C 
HETATM    5  C13 UNL     1     -13.506  -0.293   8.322  1.00  0.00     0.184 C 
HETATM    6  C20 UNL     1     -13.911  -1.459   7.413  1.00  0.00     0.183 C 
HETATM    7  C21 UNL     1     -13.050  -2.669   7.684  1.00  0.00     0.204 C 
ENDROOT
BRANCH   1   8
HETATM    8  O2  UNL     1     -10.995  -3.467   8.420  1.00  0.00    -0.348 OA
BRANCH   8   9
HETATM    9  C9  UNL     1      -9.699  -3.461   7.841  1.00  0.00     0.180 C 
HETATM   10  C8  UNL     1      -9.833  -2.690   6.577  1.00  0.00     0.041 C 
HETATM   11  C6  UNL     1      -8.719  -2.647   5.627  1.00  0.00    -0.013 C 
HETATM   12  C5  UNL     1      -8.598  -3.709   4.586  1.00  0.00     0.040 C 
HETATM   13  C7  UNL     1      -7.410  -2.532   6.373  1.00  0.00     0.010 C 
HETATM   14  C4  UNL     1      -9.879  -4.318   4.154  1.00  0.00     0.142 C 
HETATM   15  C3  UNL     1      -9.699  -5.596   3.438  1.00  0.00     0.011 C 
HETATM   16  C2  UNL     1      -9.069  -6.680   3.813  1.00  0.00    -0.063 C 
HETATM   17  C1  UNL     1      -9.122  -7.788   2.761  1.00  0.00     0.048 C 
HETATM   18  C27 UNL     1      -8.330  -6.994   5.013  1.00  0.00     0.011 C 
HETATM   19  C25 UNL     1      -8.697  -7.109   6.267  1.00  0.00    -0.055 C 
HETATM   20  C23 UNL     1      -9.997  -6.961   6.916  1.00  0.00     0.149 C 
HETATM   21  C26 UNL     1      -7.565  -7.463   7.233  1.00  0.00     0.046 C 
HETATM   22  O12 UNL     1     -10.310  -5.741   7.460  1.00  0.00    -0.350 OA
HETATM   23  C24 UNL     1     -11.189  -7.388   6.084  1.00  0.00     0.044 C 
HETATM   24  C22 UNL     1      -9.291  -4.884   7.746  1.00  0.00     0.286 C 
BRANCH  14  25
HETATM   25  O1  UNL     1     -10.499  -3.337   3.323  1.00  0.00    -0.392 OA
ATOM     26  H1  UNL     1     -10.302  -3.484   2.405  1.00  0.00     0.210 HD
ENDBRANCH  14  25
BRANCH  24  27
HETATM   27  O11 UNL     1      -8.717  -5.216   9.003  1.00  0.00    -0.369 OA
ATOM     28  H11 UNL     1      -9.399  -5.658   9.496  1.00  0.00     0.212 HD
ENDBRANCH  24  27
ENDBRANCH   8   9
ENDBRANCH   1   8
BRANCH   7  29
HETATM   29  O10 UNL     1     -13.700  -3.412   8.673  1.00  0.00    -0.388 OA
ATOM     30  H10 UNL     1     -14.587  -3.083   8.759  1.00  0.00     0.210 HD
ENDBRANCH   7  29
BRANCH   6  31
HETATM   31  O9  UNL     1     -15.234  -1.765   7.721  1.00  0.00    -0.390 OA
ATOM     32  H9  UNL     1     -15.774  -1.299   7.093  1.00  0.00     0.210 HD
ENDBRANCH   6  31
BRANCH   5  33
HETATM   33  O4  UNL     1     -14.635   0.453   8.517  1.00  0.00    -0.348 OA
BRANCH  33  34
HETATM   34  C14 UNL     1     -14.637   1.733   8.048  1.00  0.00     0.292 C 
HETATM   35  O5  UNL     1     -15.607   1.946   7.054  1.00  0.00    -0.351 OA
HETATM   36  C15 UNL     1     -15.571   3.286   6.663  1.00  0.00     0.152 C 
HETATM   37  C16 UNL     1     -16.296   3.453   5.347  1.00  0.00     0.042 C 
HETATM   38  C17 UNL     1     -16.280   4.099   7.725  1.00  0.00     0.178 C 
HETATM   39  C18 UNL     1     -16.291   3.311   8.992  1.00  0.00     0.183 C 
HETATM   40  C19 UNL     1     -14.933   2.669   9.198  1.00  0.00     0.204 C 
BRANCH  38  41
HETATM   41  O6  UNL     1     -17.611   4.274   7.286  1.00  0.00    -0.390 OA
ATOM     42  H6  UNL     1     -17.569   4.610   6.399  1.00  0.00     0.210 HD
ENDBRANCH  38  41
BRANCH  39  43
HETATM   43  O7  UNL     1     -16.712   4.020  10.092  1.00  0.00    -0.390 OA
ATOM     44  H7  UNL     1     -17.332   3.554  10.641  1.00  0.00     0.210 HD
ENDBRANCH  39  43
BRANCH  40  45
HETATM   45  O8  UNL     1     -13.938   3.603   9.406  1.00  0.00    -0.388 OA
ATOM     46  H8  UNL     1     -13.699   3.697  10.321  1.00  0.00     0.210 HD
ENDBRANCH  40  45
ENDBRANCH  33  34
ENDBRANCH   5  33
TORSDOF 11
ENDMDL
MODEL 3
REMARK VINA RESULT: -7.920357024      4.987      8.145
REMARK  11 active torsions:
REMARK  status: ('A' for Active; 'I' for Inactive)
REMARK    1  A    between atoms: C4_4  and  O1_5 
REMARK    2  A    between atoms: C9_11  and  O2_12 
REMARK    3  A    between atoms: O2_12  and  C10_13 
REMARK    4  A    between atoms: C13_17  and  O4_18 
REMARK    5  A    between atoms: O4_18  and  C14_19 
REMARK    6  A    between atoms: C17_23  and  O6_24 
REMARK    7  A    between atoms: C18_26  and  O7_27 
REMARK    8  A    between atoms: C19_29  and  O8_30 
REMARK    9  A    between atoms: C20_32  and  O9_33 
REMARK   10  A    between atoms: C21_35  and  O10_36 
REMARK   11  A    between atoms: C22_38  and  O11_39 
ROOT
HETATM    1  C10 UNL     1      -7.200  -7.439   6.739  1.00  0.00     0.292 C 
HETATM    2  O3  UNL     1      -7.026  -8.164   5.574  1.00  0.00    -0.351 OA
HETATM    3  C11 UNL     1      -6.069  -9.128   5.576  1.00  0.00     0.152 C 
HETATM    4  C12 UNL     1      -5.418  -9.130   4.199  1.00  0.00     0.042 C 
HETATM    5  C13 UNL     1      -5.061  -9.085   6.674  1.00  0.00     0.184 C 
HETATM    6  C20 UNL     1      -5.760  -9.022   8.037  1.00  0.00     0.183 C 
HETATM    7  C21 UNL     1      -7.130  -8.402   7.905  1.00  0.00     0.204 C 
ENDROOT
BRANCH   1   8
HETATM    8  O2  UNL     1      -8.498  -6.946   6.718  1.00  0.00    -0.348 OA
BRANCH   8   9
HETATM    9  C9  UNL     1      -8.555  -5.574   6.360  1.00  0.00     0.180 C 
HETATM   10  C8  UNL     1      -7.348  -4.955   6.970  1.00  0.00     0.041 C 
HETATM   11  C6  UNL     1      -7.189  -3.499   6.958  1.00  0.00    -0.013 C 
HETATM   12  C5  UNL     1      -7.769  -2.686   8.066  1.00  0.00     0.040 C 
HETATM   13  C7  UNL     1      -7.661  -2.940   5.635  1.00  0.00     0.010 C 
HETATM   14  C4  UNL     1      -7.867  -3.380   9.374  1.00  0.00     0.142 C 
HETATM   15  C3  UNL     1      -8.778  -2.706  10.319  1.00  0.00     0.011 C 
HETATM   16  C2  UNL     1     -10.032  -2.365  10.170  1.00  0.00    -0.063 C 
HETATM   17  C1  UNL     1     -10.610  -1.678  11.407  1.00  0.00     0.048 C 
HETATM   18  C27 UNL     1     -10.938  -2.502   9.052  1.00  0.00     0.011 C 
HETATM   19  C25 UNL     1     -11.441  -3.555   8.454  1.00  0.00    -0.055 C 
HETATM   20  C23 UNL     1     -11.272  -4.985   8.698  1.00  0.00     0.149 C 
HETATM   21  C26 UNL     1     -12.378  -3.237   7.288  1.00  0.00     0.046 C 
HETATM   22  O12 UNL     1     -10.319  -5.654   7.973  1.00  0.00    -0.350 OA
HETATM   23  C24 UNL     1     -11.073  -5.375  10.148  1.00  0.00     0.044 C 
HETATM   24  C22 UNL     1      -9.885  -5.093   6.810  1.00  0.00     0.286 C 
BRANCH  14  25
HETATM   25  O1  UNL     1      -6.532  -3.425   9.876  1.00  0.00    -0.392 OA
ATOM     26  H1  UNL     1      -6.156  -4.293   9.787  1.00  0.00     0.210 HD
ENDBRANCH  14  25
BRANCH  24  27
HETATM   27  O11 UNL     1     -10.791  -5.394   5.758  1.00  0.00    -0.369 OA
ATOM     28  H11 UNL     1     -11.657  -5.399   6.150  1.00  0.00     0.212 HD
ENDBRANCH  24  27
ENDBRANCH   8   9
ENDBRANCH   1   8
BRANCH   7  29
HETATM   29  O10 UNL     1      -8.024  -9.449   7.665  1.00  0.00    -0.388 OA
ATOM     30  H10 UNL     1      -7.788 -10.177   8.226  1.00  0.00     0.210 HD
ENDBRANCH   7  29
BRANCH   6  31
HETATM   31  O9  UNL     1      -5.896 -10.336   8.478  1.00  0.00    -0.390 OA
ATOM     32  H9  UNL     1      -6.193 -10.291   9.379  1.00  0.00     0.210 HD
ENDBRANCH   6  31
BRANCH   5  33
HETATM   33  O4  UNL     1      -4.225 -10.166   6.721  1.00  0.00    -0.348 OA
BRANCH  33  34
HETATM   34  C14 UNL     1      -2.884  -9.927   6.766  1.00  0.00     0.292 C 
HETATM   35  O5  UNL     1      -2.212 -10.772   7.665  1.00  0.00    -0.351 OA
HETATM   36  C15 UNL     1      -0.845 -10.492   7.618  1.00  0.00     0.152 C 
HETATM   37  C16 UNL     1      -0.161 -11.080   8.831  1.00  0.00     0.042 C 
HETATM   38  C17 UNL     1      -0.281 -11.140   6.371  1.00  0.00     0.178 C 
HETATM   39  C18 UNL     1      -1.402 -11.373   5.414  1.00  0.00     0.183 C 
HETATM   40  C19 UNL     1      -2.305 -10.155   5.388  1.00  0.00     0.204 C 
BRANCH  38  41
HETATM   41  O6  UNL     1       0.250 -12.389   6.762  1.00  0.00    -0.390 OA
ATOM     42  H6  UNL     1       1.144 -12.233   7.045  1.00  0.00     0.210 HD
ENDBRANCH  38  41
BRANCH  39  43
HETATM   43  O7  UNL     1      -0.998 -11.757   4.157  1.00  0.00    -0.390 OA
ATOM     44  H7  UNL     1      -1.712 -11.914   3.550  1.00  0.00     0.210 HD
ENDBRANCH  39  43
BRANCH  40  45
HETATM   45  O8  UNL     1      -1.668  -9.042   4.877  1.00  0.00    -0.388 OA
ATOM     46  H8  UNL     1      -1.136  -9.234   4.114  1.00  0.00     0.210 HD
ENDBRANCH  40  45
ENDBRANCH  33  34
ENDBRANCH   5  33
TORSDOF 11
ENDMDL
MODEL 4
REMARK VINA RESULT: -7.765829690      4.715      7.410
REMARK  11 active torsions:
REMARK  status: ('A' for Active; 'I' for Inactive)
REMARK    1  A    between atoms: C4_4  and  O1_5 
REMARK    2  A    between atoms: C9_11  and  O2_12 
REMARK    3  A    between atoms: O2_12  and  C10_13 
REMARK    4  A    between atoms: C13_17  and  O4_18 
REMARK    5  A    between atoms: O4_18  and  C14_19 
REMARK    6  A    between atoms: C17_23  and  O6_24 
REMARK    7  A    between atoms: C18_26  and  O7_27 
REMARK    8  A    between atoms: C19_29  and  O8_30 
REMARK    9  A    between atoms: C20_32  and  O9_33 
REMARK   10  A    between atoms: C21_35  and  O10_36 
REMARK   11  A    between atoms: C22_38  and  O11_39 
ROOT
HETATM    1  C10 UNL     1      -7.656  -6.949   6.317  1.00  0.00     0.292 C 
HETATM    2  O3  UNL     1      -7.184  -7.865   5.395  1.00  0.00    -0.351 OA
HETATM    3  C11 UNL     1      -6.289  -8.787   5.833  1.00  0.00     0.152 C 
HETATM    4  C12 UNL     1      -5.283  -9.017   4.713  1.00  0.00     0.042 C 
HETATM    5  C13 UNL     1      -5.623  -8.522   7.141  1.00  0.00     0.184 C 
HETATM    6  C20 UNL     1      -6.670  -8.235   8.224  1.00  0.00     0.183 C 
HETATM    7  C21 UNL     1      -7.934  -7.686   7.610  1.00  0.00     0.204 C 
ENDROOT
BRANCH   1   8
HETATM    8  O2  UNL     1      -8.886  -6.502   5.850  1.00  0.00    -0.348 OA
BRANCH   8   9
HETATM    9  C9  UNL     1      -8.937  -5.091   5.710  1.00  0.00     0.180 C 
HETATM   10  C8  UNL     1      -7.665  -4.589   6.296  1.00  0.00     0.041 C 
HETATM   11  C6  UNL     1      -7.470  -3.151   6.489  1.00  0.00    -0.013 C 
HETATM   12  C5  UNL     1      -7.928  -2.509   7.756  1.00  0.00     0.040 C 
HETATM   13  C7  UNL     1      -8.039  -2.390   5.314  1.00  0.00     0.010 C 
HETATM   14  C4  UNL     1      -7.931  -3.393   8.947  1.00  0.00     0.142 C 
HETATM   15  C3  UNL     1      -8.737  -2.859  10.061  1.00  0.00     0.011 C 
HETATM   16  C2  UNL     1      -9.990  -2.483  10.079  1.00  0.00    -0.063 C 
HETATM   17  C1  UNL     1     -10.439  -1.986  11.452  1.00  0.00     0.048 C 
HETATM   18  C27 UNL     1     -10.993  -2.436   9.040  1.00  0.00     0.011 C 
HETATM   19  C25 UNL     1     -11.575  -3.378   8.337  1.00  0.00    -0.055 C 
HETATM   20  C23 UNL     1     -11.423  -4.831   8.346  1.00  0.00     0.149 C 
HETATM   21  C26 UNL     1     -12.601  -2.874   7.322  1.00  0.00     0.046 C 
HETATM   22  O12 UNL     1     -10.555  -5.394   7.445  1.00  0.00    -0.350 OA
HETATM   23  C24 UNL     1     -11.109  -5.441   9.696  1.00  0.00     0.044 C 
HETATM   24  C22 UNL     1     -10.209  -4.667   6.346  1.00  0.00     0.286 C 
BRANCH  14  25
HETATM   25  O1  UNL     1      -6.559  -3.532   9.313  1.00  0.00    -0.392 OA
ATOM     26  H1  UNL     1      -6.250  -4.420   9.177  1.00  0.00     0.210 HD
ENDBRANCH  14  25
BRANCH  24  27
HETATM   27  O11 UNL     1     -11.211  -4.792   5.347  1.00  0.00    -0.369 OA
ATOM     28  H11 UNL     1     -12.002  -5.062   5.799  1.00  0.00     0.212 HD
ENDBRANCH  24  27
ENDBRANCH   8   9
ENDBRANCH   1   8
BRANCH   7  29
HETATM   29  O10 UNL     1      -8.752  -8.783   7.323  1.00  0.00    -0.388 OA
ATOM     30  H10 UNL     1      -8.219  -9.568   7.355  1.00  0.00     0.210 HD
ENDBRANCH   7  29
BRANCH   6  31
HETATM   31  O9  UNL     1      -6.954  -9.453   8.837  1.00  0.00    -0.390 OA
ATOM     32  H9  UNL     1      -7.121  -9.264   9.753  1.00  0.00     0.210 HD
ENDBRANCH   6  31
BRANCH   5  33
HETATM   33  O4  UNL     1      -4.859  -9.554   7.609  1.00  0.00    -0.348 OA
BRANCH  33  34
HETATM   34  C14 UNL     1      -3.957  -9.277   8.593  1.00  0.00     0.292 C 
HETATM   35  O5  UNL     1      -3.187 -10.396   8.955  1.00  0.00    -0.351 OA
HETATM   36  C15 UNL     1      -2.264 -10.017   9.932  1.00  0.00     0.152 C 
HETATM   37  C16 UNL     1      -1.713 -11.246  10.617  1.00  0.00     0.042 C 
HETATM   38  C17 UNL     1      -1.132  -9.287   9.241  1.00  0.00     0.178 C 
HETATM   39  C18 UNL     1      -1.627  -8.786   7.926  1.00  0.00     0.183 C 
HETATM   40  C19 UNL     1      -3.016  -8.203   8.099  1.00  0.00     0.204 C 
BRANCH  38  41
HETATM   41  O6  UNL     1      -0.111 -10.236   9.012  1.00  0.00    -0.390 OA
ATOM     42  H6  UNL     1      -0.244 -10.942   9.633  1.00  0.00     0.210 HD
ENDBRANCH  38  41
BRANCH  39  43
HETATM   43  O7  UNL     1      -0.766  -7.921   7.292  1.00  0.00    -0.390 OA
ATOM     44  H7  UNL     1      -1.196  -7.285   6.732  1.00  0.00     0.210 HD
ENDBRANCH  39  43
BRANCH  40  45
HETATM   45  O8  UNL     1      -3.014  -7.075   8.895  1.00  0.00    -0.388 OA
ATOM     46  H8  UNL     1      -2.649  -6.313   8.462  1.00  0.00     0.210 HD
ENDBRANCH  40  45
ENDBRANCH  33  34
ENDBRANCH   5  33
TORSDOF 11
ENDMDL
MODEL 5
REMARK VINA RESULT: -7.725591873      4.516      7.484
REMARK  11 active torsions:
REMARK  status: ('A' for Active; 'I' for Inactive)
REMARK    1  A    between atoms: C4_4  and  O1_5 
REMARK    2  A    between atoms: C9_11  and  O2_12 
REMARK    3  A    between atoms: O2_12  and  C10_13 
REMARK    4  A    between atoms: C13_17  and  O4_18 
REMARK    5  A    between atoms: O4_18  and  C14_19 
REMARK    6  A    between atoms: C17_23  and  O6_24 
REMARK    7  A    between atoms: C18_26  and  O7_27 
REMARK    8  A    between atoms: C19_29  and  O8_30 
REMARK    9  A    between atoms: C20_32  and  O9_33 
REMARK   10  A    between atoms: C21_35  and  O10_36 
REMARK   11  A    between atoms: C22_38  and  O11_39 
ROOT
HETATM    1  C10 UNL     1      -7.486  -7.665   7.014  1.00  0.00     0.292 C 
HETATM    2  O3  UNL     1      -7.139  -8.426   5.912  1.00  0.00    -0.351 OA
HETATM    3  C11 UNL     1      -6.231  -9.418   6.101  1.00  0.00     0.152 C 
HETATM    4  C12 UNL     1      -5.352  -9.477   4.858  1.00  0.00     0.042 C 
HETATM    5  C13 UNL     1      -5.427  -9.377   7.356  1.00  0.00     0.184 C 
HETATM    6  C20 UNL     1      -6.348  -9.256   8.575  1.00  0.00     0.183 C 
HETATM    7  C21 UNL     1      -7.652  -8.599   8.194  1.00  0.00     0.204 C 
ENDROOT
BRANCH   1   8
HETATM    8  O2  UNL     1      -8.743  -7.134   6.757  1.00  0.00    -0.348 OA
BRANCH   8   9
HETATM    9  C9  UNL     1      -8.689  -5.771   6.364  1.00  0.00     0.180 C 
HETATM   10  C8  UNL     1      -7.456  -5.226   6.991  1.00  0.00     0.041 C 
HETATM   11  C6  UNL     1      -7.189  -3.787   6.946  1.00  0.00    -0.013 C 
HETATM   12  C5  UNL     1      -7.734  -2.904   8.019  1.00  0.00     0.040 C 
HETATM   13  C7  UNL     1      -7.585  -3.231   5.598  1.00  0.00     0.010 C 
HETATM   14  C4  UNL     1      -7.916  -3.554   9.340  1.00  0.00     0.142 C 
HETATM   15  C3  UNL     1      -8.797  -2.790  10.244  1.00  0.00     0.011 C 
HETATM   16  C2  UNL     1     -10.019  -2.362  10.052  1.00  0.00    -0.063 C 
HETATM   17  C1  UNL     1     -10.575  -1.602  11.256  1.00  0.00     0.048 C 
HETATM   18  C27 UNL     1     -10.904  -2.463   8.915  1.00  0.00     0.011 C 
HETATM   19  C25 UNL     1     -11.470  -3.491   8.329  1.00  0.00    -0.055 C 
HETATM   20  C23 UNL     1     -11.413  -4.923   8.614  1.00  0.00     0.149 C 
HETATM   21  C26 UNL     1     -12.351  -3.136   7.131  1.00  0.00     0.046 C 
HETATM   22  O12 UNL     1     -10.494  -5.679   7.931  1.00  0.00    -0.350 OA
HETATM   23  C24 UNL     1     -11.279  -5.287  10.077  1.00  0.00     0.044 C 
HETATM   24  C22 UNL     1      -9.991  -5.182   6.766  1.00  0.00     0.286 C 
BRANCH  14  25
HETATM   25  O1  UNL     1      -6.601  -3.683   9.878  1.00  0.00    -0.392 OA
ATOM     26  H1  UNL     1      -5.954  -3.803   9.192  1.00  0.00     0.210 HD
ENDBRANCH  14  25
BRANCH  24  27
HETATM   27  O11 UNL     1     -10.890  -5.444   5.699  1.00  0.00    -0.369 OA
ATOM     28  H11 UNL     1     -11.595  -5.963   6.069  1.00  0.00     0.212 HD
ENDBRANCH  24  27
ENDBRANCH   8   9
ENDBRANCH   1   8
BRANCH   7  29
HETATM   29  O10 UNL     1      -8.527  -9.624   7.824  1.00  0.00    -0.388 OA
ATOM     30  H10 UNL     1      -8.529 -10.277   8.513  1.00  0.00     0.210 HD
ENDBRANCH   7  29
BRANCH   6  31
HETATM   31  O9  UNL     1      -6.604 -10.553   9.013  1.00  0.00    -0.390 OA
ATOM     32  H9  UNL     1      -5.770 -10.919   9.283  1.00  0.00     0.210 HD
ENDBRANCH   6  31
BRANCH   5  33
HETATM   33  O4  UNL     1      -4.650 -10.482   7.570  1.00  0.00    -0.348 OA
BRANCH  33  34
HETATM   34  C14 UNL     1      -3.388 -10.284   8.046  1.00  0.00     0.292 C 
HETATM   35  O5  UNL     1      -2.454 -10.040   7.026  1.00  0.00    -0.351 OA
HETATM   36  C15 UNL     1      -1.203  -9.806   7.599  1.00  0.00     0.152 C 
HETATM   37  C16 UNL     1      -0.125  -9.941   6.548  1.00  0.00     0.042 C 
HETATM   38  C17 UNL     1      -1.196  -8.390   8.134  1.00  0.00     0.178 C 
HETATM   39  C18 UNL     1      -2.609  -7.954   8.333  1.00  0.00     0.183 C 
HETATM   40  C19 UNL     1      -3.400  -9.083   8.965  1.00  0.00     0.204 C 
BRANCH  38  41
HETATM   41  O6  UNL     1      -0.605  -7.578   7.140  1.00  0.00    -0.390 OA
ATOM     42  H6  UNL     1      -0.251  -6.815   7.580  1.00  0.00     0.210 HD
ENDBRANCH  38  41
BRANCH  39  43
HETATM   43  O7  UNL     1      -2.742  -6.769   9.017  1.00  0.00    -0.390 OA
ATOM     44  H7  UNL     1      -3.587  -6.349   8.907  1.00  0.00     0.210 HD
ENDBRANCH  39  43
BRANCH  40  45
HETATM   45  O8  UNL     1      -2.967  -9.374  10.243  1.00  0.00    -0.388 OA
ATOM     46  H8  UNL     1      -2.024  -9.467  10.305  1.00  0.00     0.210 HD
ENDBRANCH  40  45
ENDBRANCH  33  34
ENDBRANCH   5  33
TORSDOF 11
ENDMDL
