MODEL 1
REMARK VINA RESULT: -7.267240562      0.000      0.000
REMARK  2 active torsions:
REMARK  status: ('A' for Active; 'I' for Inactive)
REMARK    1  A    between atoms: N1_1  and  C1_4 
REMARK    2  A    between atoms: C2_7  and  C3_8 
ROOT
HETATM    1  C1  UNL     1     -21.313  49.968 -61.212  1.00  0.00     0.170 C 
HETATM    2  N2  UNL     1     -20.592  50.158 -60.091  1.00  0.00    -0.320 N 
ATOM      3  H2  UNL     1     -19.877  49.460 -59.890  1.00  0.00     0.169 HD
HETATM    4  C2  UNL     1     -20.707  51.158 -59.211  1.00  0.00     0.175 C 
HETATM    5  N4  UNL     1     -21.223  52.375 -59.478  1.00  0.00    -0.312 N 
ATOM      6  H4  UNL     1     -21.140  53.036 -58.706  1.00  0.00     0.170 HD
HETATM    7  C4  UNL     1     -21.826  52.884 -60.566  1.00  0.00     0.197 C 
HETATM    8  N5  UNL     1     -22.090  54.280 -60.576  1.00  0.00    -0.063 NA
HETATM    9  N6  UNL     1     -22.201  52.171 -61.646  1.00  0.00    -0.294 N 
ATOM     10  H6  UNL     1     -22.753  52.698 -62.322  1.00  0.00     0.172 HD
HETATM   11  C5  UNL     1     -21.977  50.886 -61.999  1.00  0.00     0.291 C 
HETATM   12  O2  UNL     1     -22.403  50.502 -63.118  1.00  0.00    -0.264 OA
ENDROOT
BRANCH   1  13
HETATM   13  N1  UNL     1     -21.390  48.726 -61.605  1.00  0.00    -0.381 N 
ATOM     14  H12 UNL     1     -21.793  48.074 -60.932  1.00  0.00     0.157 HD
ATOM     15  H11 UNL     1     -21.034  48.554 -62.545  1.00  0.00     0.157 HD
ENDBRANCH   1  13
BRANCH   4  16
HETATM   16  C3  UNL     1     -20.241  50.934 -57.845  1.00  0.00     0.298 C 
HETATM   17  N3  UNL     1     -18.853  50.786 -57.576  1.00  0.00    -0.054 NA
HETATM   18  O1  UNL     1     -21.096  50.879 -56.925  1.00  0.00    -0.268 OA
ENDBRANCH   4  16
TORSDOF 2
ENDMDL
MODEL 2
REMARK VINA RESULT: -7.228890395      1.225      1.225
REMARK  2 active torsions:
REMARK  status: ('A' for Active; 'I' for Inactive)
REMARK    1  A    between atoms: N1_1  and  C1_4 
REMARK    2  A    between atoms: C2_7  and  C3_8 
ROOT
HETATM    1  C1  UNL     1     -20.887  49.684 -61.231  1.00  0.00     0.170 C 
HETATM    2  N2  UNL     1     -19.881  49.756 -60.340  1.00  0.00    -0.320 N 
ATOM      3  H2  UNL     1     -19.160  49.038 -60.412  1.00  0.00     0.169 HD
HETATM    4  C2  UNL     1     -19.717  50.663 -59.371  1.00  0.00     0.175 C 
HETATM    5  N4  UNL     1     -20.247  51.903 -59.367  1.00  0.00    -0.312 N 
ATOM      6  H4  UNL     1     -19.933  52.483 -58.589  1.00  0.00     0.170 HD
HETATM    7  C4  UNL     1     -21.108  52.522 -60.193  1.00  0.00     0.197 C 
HETATM    8  N5  UNL     1     -21.319  53.913 -59.996  1.00  0.00    -0.063 NA
HETATM    9  N6  UNL     1     -21.788  51.924 -61.190  1.00  0.00    -0.294 N 
ATOM     10  H6  UNL     1     -22.487  52.519 -61.633  1.00  0.00     0.172 HD
HETATM   11  C5  UNL     1     -21.712  50.680 -61.712  1.00  0.00     0.291 C 
HETATM   12  O2  UNL     1     -22.441  50.413 -62.701  1.00  0.00    -0.264 OA
ENDROOT
BRANCH   1  13
HETATM   13  N1  UNL     1     -21.109  48.488 -61.705  1.00  0.00    -0.381 N 
ATOM     14  H12 UNL     1     -20.691  47.720 -61.180  1.00  0.00     0.157 HD
ATOM     15  H11 UNL     1     -21.679  48.465 -62.550  1.00  0.00     0.157 HD
ENDBRANCH   1  13
BRANCH   4  16
HETATM   16  C3  UNL     1     -18.901  50.300 -58.215  1.00  0.00     0.298 C 
HETATM   17  N3  UNL     1     -18.609  48.936 -57.943  1.00  0.00    -0.054 NA
HETATM   18  O1  UNL     1     -18.470  51.223 -57.478  1.00  0.00    -0.268 OA
ENDBRANCH   4  16
TORSDOF 2
ENDMDL
MODEL 3
REMARK VINA RESULT: -7.164860699      2.195      4.190
REMARK  2 active torsions:
REMARK  status: ('A' for Active; 'I' for Inactive)
REMARK    1  A    between atoms: N1_1  and  C1_4 
REMARK    2  A    between atoms: C2_7  and  C3_8 
ROOT
HETATM    1  C1  UNL     1     -20.330  51.138 -58.600  1.00  0.00     0.170 C 
HETATM    2  N2  UNL     1     -21.402  51.272 -59.403  1.00  0.00    -0.320 N 
ATOM      3  H2  UNL     1     -22.315  51.184 -58.957  1.00  0.00     0.169 HD
HETATM    4  C2  UNL     1     -21.407  51.508 -60.719  1.00  0.00     0.175 C 
HETATM    5  N4  UNL     1     -20.407  52.092 -61.409  1.00  0.00    -0.312 N 
ATOM      6  H4  UNL     1     -20.632  52.273 -62.387  1.00  0.00     0.170 HD
HETATM    7  C4  UNL     1     -19.169  52.481 -61.056  1.00  0.00     0.197 C 
HETATM    8  N5  UNL     1     -18.428  53.241 -62.000  1.00  0.00    -0.063 NA
HETATM    9  N6  UNL     1     -18.580  52.205 -59.877  1.00  0.00    -0.294 N 
ATOM     10  H6  UNL     1     -17.597  52.473 -59.830  1.00  0.00     0.172 HD
HETATM   11  C5  UNL     1     -19.052  51.639 -58.745  1.00  0.00     0.291 C 
HETATM   12  O2  UNL     1     -18.276  51.562 -57.759  1.00  0.00    -0.264 OA
ENDROOT
BRANCH   1  13
HETATM   13  N1  UNL     1     -20.539  50.425 -57.527  1.00  0.00    -0.381 N 
ATOM     14  H12 UNL     1     -21.405  49.887 -57.517  1.00  0.00     0.157 HD
ATOM     15  H11 UNL     1     -19.806  50.493 -56.821  1.00  0.00     0.157 HD
ENDBRANCH   1  13
BRANCH   4  16
HETATM   16  C3  UNL     1     -22.583  51.109 -61.489  1.00  0.00     0.298 C 
HETATM   17  N3  UNL     1     -22.456  50.751 -62.858  1.00  0.00    -0.054 NA
HETATM   18  O1  UNL     1     -23.697  51.092 -60.907  1.00  0.00    -0.268 OA
ENDBRANCH   4  16
TORSDOF 2
ENDMDL
MODEL 4
REMARK VINA RESULT: -7.130323386      2.116      3.586
REMARK  2 active torsions:
REMARK  status: ('A' for Active; 'I' for Inactive)
REMARK    1  A    between atoms: N1_1  and  C1_4 
REMARK    2  A    between atoms: C2_7  and  C3_8 
ROOT
HETATM    1  C1  UNL     1     -19.437  51.624 -59.533  1.00  0.00     0.170 C 
HETATM    2  N2  UNL     1     -19.953  52.867 -59.487  1.00  0.00    -0.320 N 
ATOM      3  H2  UNL     1     -19.293  53.623 -59.304  1.00  0.00     0.169 HD
HETATM    4  C2  UNL     1     -21.231  53.223 -59.653  1.00  0.00     0.175 C 
HETATM    5  N4  UNL     1     -22.157  52.510 -60.326  1.00  0.00    -0.312 N 
ATOM      6  H4  UNL     1     -23.052  52.988 -60.426  1.00  0.00     0.170 HD
HETATM    7  C4  UNL     1     -22.126  51.290 -60.890  1.00  0.00     0.197 C 
HETATM    8  N5  UNL     1     -23.237  50.912 -61.691  1.00  0.00    -0.063 NA
HETATM    9  N6  UNL     1     -21.125  50.401 -60.752  1.00  0.00    -0.294 N 
ATOM     10  H6  UNL     1     -21.326  49.483 -61.147  1.00  0.00     0.172 HD
HETATM   11  C5  UNL     1     -19.902  50.501 -60.187  1.00  0.00     0.291 C 
HETATM   12  O2  UNL     1     -19.136  49.506 -60.262  1.00  0.00    -0.264 OA
ENDROOT
BRANCH   1  13
HETATM   13  N1  UNL     1     -18.334  51.467 -58.855  1.00  0.00    -0.381 N 
ATOM     14  H12 UNL     1     -17.762  52.304 -58.741  1.00  0.00     0.157 HD
ATOM     15  H11 UNL     1     -18.173  50.518 -58.517  1.00  0.00     0.157 HD
ENDBRANCH   1  13
BRANCH   4  16
HETATM   16  C3  UNL     1     -21.679  54.484 -59.067  1.00  0.00     0.298 C 
HETATM   17  N3  UNL     1     -22.134  55.541 -59.900  1.00  0.00    -0.054 NA
HETATM   18  O1  UNL     1     -21.650  54.601 -57.815  1.00  0.00    -0.268 OA
ENDBRANCH   4  16
TORSDOF 2
ENDMDL
MODEL 5
REMARK VINA RESULT: -6.958807001      1.762      3.148
REMARK  2 active torsions:
REMARK  status: ('A' for Active; 'I' for Inactive)
REMARK    1  A    between atoms: N1_1  and  C1_4 
REMARK    2  A    between atoms: C2_7  and  C3_8 
ROOT
HETATM    1  C1  UNL     1     -20.891  52.588 -59.443  1.00  0.00     0.170 C 
HETATM    2  N2  UNL     1     -20.736  51.581 -58.564  1.00  0.00    -0.320 N 
ATOM      3  H2  UNL     1     -21.133  51.727 -57.635  1.00  0.00     0.169 HD
HETATM    4  C2  UNL     1     -20.122  50.411 -58.767  1.00  0.00     0.175 C 
HETATM    5  N4  UNL     1     -19.940  49.826 -59.968  1.00  0.00    -0.312 N 
ATOM      6  H4  UNL     1     -19.535  48.892 -59.915  1.00  0.00     0.170 HD
HETATM    7  C4  UNL     1     -20.190  50.238 -61.223  1.00  0.00     0.197 C 
HETATM    8  N5  UNL     1     -20.044  49.284 -62.267  1.00  0.00    -0.063 NA
HETATM    9  N6  UNL     1     -20.566  51.485 -61.567  1.00  0.00    -0.294 N 
ATOM     10  H6  UNL     1     -20.592  51.650 -62.572  1.00  0.00     0.172 HD
HETATM   11  C5  UNL     1     -20.916  52.556 -60.823  1.00  0.00     0.291 C 
HETATM   12  O2  UNL     1     -21.290  53.594 -61.427  1.00  0.00    -0.264 OA
ENDROOT
BRANCH   1  13
HETATM   13  N1  UNL     1     -21.039  53.766 -58.902  1.00  0.00    -0.381 N 
ATOM     14  H12 UNL     1     -20.793  53.832 -57.914  1.00  0.00     0.157 HD
ATOM     15  H11 UNL     1     -21.385  54.485 -59.536  1.00  0.00     0.157 HD
ENDBRANCH   1  13
BRANCH   4  16
HETATM   16  C3  UNL     1     -19.600  49.693 -57.607  1.00  0.00     0.298 C 
HETATM   17  N3  UNL     1     -18.405  48.931 -57.713  1.00  0.00    -0.054 NA
HETATM   18  O1  UNL     1     -20.235  49.769 -56.525  1.00  0.00    -0.268 OA
ENDBRANCH   4  16
TORSDOF 2
ENDMDL
