MODEL 1
REMARK VINA RESULT: -7.519126964      0.000      0.000
REMARK  8 active torsions:
REMARK  status: ('A' for Active; 'I' for Inactive)
REMARK    1  A    between atoms: C2_2  and  N2_4 
REMARK       I    between atoms: N2_4  and  C3_5 
REMARK    2  A    between atoms: C3_5  and  C4_7 
REMARK    3  A    between atoms: C7_10  and  N3_11 
REMARK    4  A    between atoms: C15_20  and  C16_21 
REMARK    5  A    between atoms: C15_20  and  C22_27 
REMARK    6  A    between atoms: N4_33  and  C28_34 
REMARK    7  A    between atoms: C31_37  and  S1_38 
REMARK    8  A    between atoms: S1_38  and  N5_39 
ROOT
HETATM    1  C4  UNL     1     -17.548  37.420  -2.151  1.00  0.00     0.124 A 
HETATM    2  C5  UNL     1     -18.733  37.627  -2.815  1.00  0.00     0.041 A 
HETATM    3  C6  UNL     1     -18.426  37.662  -4.122  1.00  0.00     0.052 A 
HETATM    4  C7  UNL     1     -17.006  37.474  -4.284  1.00  0.00     0.119 A 
HETATM    5  N4  UNL     1     -16.546  37.336  -3.055  1.00  0.00    -0.291 N 
ENDROOT
BRANCH   4   6
HETATM    6  N3  UNL     1     -16.419  37.492  -5.589  1.00  0.00    -0.276 N 
HETATM    7  C8  UNL     1     -15.611  38.626  -6.080  1.00  0.00     0.261 C 
HETATM    8  O2  UNL     1     -14.770  39.280  -5.452  1.00  0.00    -0.267 OA
HETATM    9  C9  UNL     1     -16.052  38.786  -7.496  1.00  0.00     0.042 A 
HETATM   10  C10 UNL     1     -15.941  39.894  -8.344  1.00  0.00     0.018 A 
HETATM   11  C14 UNL     1     -16.976  37.795  -7.723  1.00  0.00    -0.004 A 
HETATM   12  C11 UNL     1     -16.826  39.939  -9.413  1.00  0.00     0.001 A 
HETATM   13  C12 UNL     1     -17.778  38.975  -9.665  1.00  0.00     0.001 A 
HETATM   14  C13 UNL     1     -17.837  37.882  -8.783  1.00  0.00     0.011 A 
HETATM   15  C15 UNL     1     -16.501  36.698  -6.765  1.00  0.00     0.125 C 
BRANCH  15  16
HETATM   16  C16 UNL     1     -17.179  35.460  -6.839  1.00  0.00    -0.020 A 
HETATM   17  C17 UNL     1     -17.869  35.104  -7.992  1.00  0.00     0.010 A 
HETATM   18  C18 UNL     1     -18.543  33.896  -8.104  1.00  0.00     0.001 A 
HETATM   19  C19 UNL     1     -18.566  32.981  -7.076  1.00  0.00     0.000 A 
HETATM   20  C20 UNL     1     -17.888  33.317  -5.927  1.00  0.00     0.001 A 
HETATM   21  C21 UNL     1     -17.207  34.539  -5.820  1.00  0.00     0.010 A 
ENDBRANCH  15  16
BRANCH  15  22
HETATM   22  C22 UNL     1     -15.092  36.445  -7.329  1.00  0.00    -0.020 A 
HETATM   23  C23 UNL     1     -14.885  36.403  -8.696  1.00  0.00     0.010 A 
HETATM   24  C24 UNL     1     -13.649  36.159  -9.265  1.00  0.00     0.001 A 
HETATM   25  C25 UNL     1     -12.579  35.951  -8.460  1.00  0.00     0.000 A 
HETATM   26  C26 UNL     1     -12.757  35.986  -7.095  1.00  0.00     0.001 A 
HETATM   27  C27 UNL     1     -14.020  36.235  -6.509  1.00  0.00     0.010 A 
ENDBRANCH  15  22
ENDBRANCH   4   6
BRANCH   5  28
HETATM   28  C28 UNL     1     -15.206  37.153  -2.584  1.00  0.00     0.041 A 
HETATM   29  C29 UNL     1     -14.398  38.250  -2.514  1.00  0.00     0.031 A 
HETATM   30  C30 UNL     1     -13.124  38.138  -2.024  1.00  0.00     0.027 A 
HETATM   31  C31 UNL     1     -12.682  36.894  -1.609  1.00  0.00     0.079 A 
HETATM   32  C32 UNL     1     -13.478  35.773  -1.671  1.00  0.00     0.027 A 
HETATM   33  C33 UNL     1     -14.771  35.936  -2.176  1.00  0.00     0.031 A 
BRANCH  31  34
HETATM   34  S1  UNL     1     -11.046  36.837  -0.962  1.00  0.00     0.256 S 
HETATM   35  O3  UNL     1     -10.131  36.229  -1.993  1.00  0.00    -0.201 OA
HETATM   36  O4  UNL     1     -11.088  35.998   0.273  1.00  0.00    -0.201 OA
BRANCH  34  37
HETATM   37  N5  UNL     1     -10.559  38.448  -0.584  1.00  0.00    -0.324 N 
ATOM     38  H52 UNL     1     -11.191  39.239  -0.465  1.00  0.00     0.169 HD
ATOM     39  H51 UNL     1      -9.542  38.463  -0.502  1.00  0.00     0.169 HD
ENDBRANCH  34  37
ENDBRANCH  31  34
ENDBRANCH   5  28
BRANCH   1  40
HETATM   40  C3  UNL     1     -17.490  37.349  -0.667  1.00  0.00     0.344 C 
HETATM   41  N2  UNL     1     -17.627  36.223   0.033  1.00  0.00    -0.355 NA
HETATM   42  O1  UNL     1     -17.296  38.469  -0.077  1.00  0.00    -0.249 OA
BRANCH  41  43
HETATM   43  C2  UNL     1     -17.745  35.230   0.654  1.00  0.00     0.166 C 
HETATM   44  C1  UNL     1     -16.603  34.329   1.072  1.00  0.00     0.102 C 
HETATM   45  N1  UNL     1     -19.034  34.719   1.126  1.00  0.00    -0.072 NA
ENDBRANCH  41  43
ENDBRANCH   1  40
TORSDOF 8
ENDMDL
MODEL 2
REMARK VINA RESULT: -7.461290524      3.141      7.908
REMARK  8 active torsions:
REMARK  status: ('A' for Active; 'I' for Inactive)
REMARK    1  A    between atoms: C2_2  and  N2_4 
REMARK       I    between atoms: N2_4  and  C3_5 
REMARK    2  A    between atoms: C3_5  and  C4_7 
REMARK    3  A    between atoms: C7_10  and  N3_11 
REMARK    4  A    between atoms: C15_20  and  C16_21 
REMARK    5  A    between atoms: C15_20  and  C22_27 
REMARK    6  A    between atoms: N4_33  and  C28_34 
REMARK    7  A    between atoms: C31_37  and  S1_38 
REMARK    8  A    between atoms: S1_38  and  N5_39 
ROOT
HETATM    1  C4  UNL     1     -12.996  37.121  -1.877  1.00  0.00     0.124 A 
HETATM    2  C5  UNL     1     -12.637  36.388  -0.772  1.00  0.00     0.041 A 
HETATM    3  C6  UNL     1     -13.773  35.853  -0.295  1.00  0.00     0.052 A 
HETATM    4  C7  UNL     1     -14.879  36.263  -1.123  1.00  0.00     0.119 A 
HETATM    5  N4  UNL     1     -14.334  37.024  -2.053  1.00  0.00    -0.291 N 
ENDROOT
BRANCH   4   6
HETATM    6  N3  UNL     1     -16.209  35.840  -0.812  1.00  0.00    -0.276 N 
HETATM    7  C8  UNL     1     -16.542  34.438  -0.491  1.00  0.00     0.261 C 
HETATM    8  O2  UNL     1     -15.892  33.650   0.207  1.00  0.00    -0.267 OA
HETATM    9  C9  UNL     1     -17.833  34.210  -1.204  1.00  0.00     0.042 A 
HETATM   10  C10 UNL     1     -18.436  33.007  -1.590  1.00  0.00     0.018 A 
HETATM   11  C14 UNL     1     -18.154  35.403  -1.804  1.00  0.00    -0.004 A 
HETATM   12  C11 UNL     1     -19.362  33.090  -2.622  1.00  0.00     0.001 A 
HETATM   13  C12 UNL     1     -19.698  34.264  -3.262  1.00  0.00     0.001 A 
HETATM   14  C13 UNL     1     -19.065  35.440  -2.825  1.00  0.00     0.011 A 
HETATM   15  C15 UNL     1     -17.508  36.416  -0.854  1.00  0.00     0.125 C 
BRANCH  15  16
HETATM   16  C16 UNL     1     -17.761  37.781  -1.122  1.00  0.00    -0.020 A 
HETATM   17  C17 UNL     1     -17.221  38.768  -0.305  1.00  0.00     0.010 A 
HETATM   18  C18 UNL     1     -17.443  40.118  -0.538  1.00  0.00     0.001 A 
HETATM   19  C19 UNL     1     -18.213  40.555  -1.591  1.00  0.00     0.000 A 
HETATM   20  C20 UNL     1     -18.754  39.591  -2.410  1.00  0.00     0.001 A 
HETATM   21  C21 UNL     1     -18.525  38.228  -2.171  1.00  0.00     0.010 A 
ENDBRANCH  15  16
BRANCH  15  22
HETATM   22  C22 UNL     1     -18.272  36.088   0.441  1.00  0.00    -0.020 A 
HETATM   23  C23 UNL     1     -19.636  35.861   0.408  1.00  0.00     0.010 A 
HETATM   24  C24 UNL     1     -20.383  35.583   1.537  1.00  0.00     0.001 A 
HETATM   25  C25 UNL     1     -19.765  35.526   2.742  1.00  0.00     0.000 A 
HETATM   26  C26 UNL     1     -18.407  35.751   2.805  1.00  0.00     0.001 A 
HETATM   27  C27 UNL     1     -17.640  36.035   1.650  1.00  0.00     0.010 A 
ENDBRANCH  15  22
ENDBRANCH   4   6
BRANCH   5  28
HETATM   28  C28 UNL     1     -14.940  37.740  -3.135  1.00  0.00     0.041 A 
HETATM   29  C29 UNL     1     -15.559  37.016  -4.112  1.00  0.00     0.031 A 
HETATM   30  C30 UNL     1     -16.197  37.653  -5.143  1.00  0.00     0.027 A 
HETATM   31  C31 UNL     1     -16.195  39.036  -5.168  1.00  0.00     0.079 A 
HETATM   32  C32 UNL     1     -15.577  39.788  -4.194  1.00  0.00     0.027 A 
HETATM   33  C33 UNL     1     -14.941  39.095  -3.161  1.00  0.00     0.031 A 
BRANCH  31  34
HETATM   34  S1  UNL     1     -17.063  39.782  -6.506  1.00  0.00     0.256 S 
HETATM   35  O3  UNL     1     -18.453  40.143  -6.049  1.00  0.00    -0.201 OA
HETATM   36  O4  UNL     1     -17.109  38.784  -7.615  1.00  0.00    -0.201 OA
BRANCH  34  37
HETATM   37  N5  UNL     1     -16.194  41.190  -6.993  1.00  0.00    -0.324 N 
ATOM     38  H52 UNL     1     -15.519  41.228  -7.757  1.00  0.00     0.169 HD
ATOM     39  H51 UNL     1     -16.475  41.963  -6.389  1.00  0.00     0.169 HD
ENDBRANCH  34  37
ENDBRANCH  31  34
ENDBRANCH   5  28
BRANCH   1  40
HETATM   40  C3  UNL     1     -11.994  37.889  -2.662  1.00  0.00     0.344 C 
HETATM   41  N2  UNL     1     -11.691  37.636  -3.935  1.00  0.00    -0.355 NA
HETATM   42  O1  UNL     1     -11.415  38.837  -2.025  1.00  0.00    -0.249 OA
BRANCH  41  43
HETATM   43  C2  UNL     1     -11.423  37.418  -5.061  1.00  0.00     0.166 C 
HETATM   44  C1  UNL     1     -12.432  37.127  -6.151  1.00  0.00     0.102 C 
HETATM   45  N1  UNL     1     -10.052  37.404  -5.578  1.00  0.00    -0.072 NA
ENDBRANCH  41  43
ENDBRANCH   1  40
TORSDOF 8
ENDMDL
MODEL 3
REMARK VINA RESULT: -7.432067985      3.162      7.620
REMARK  8 active torsions:
REMARK  status: ('A' for Active; 'I' for Inactive)
REMARK    1  A    between atoms: C2_2  and  N2_4 
REMARK       I    between atoms: N2_4  and  C3_5 
REMARK    2  A    between atoms: C3_5  and  C4_7 
REMARK    3  A    between atoms: C7_10  and  N3_11 
REMARK    4  A    between atoms: C15_20  and  C16_21 
REMARK    5  A    between atoms: C15_20  and  C22_27 
REMARK    6  A    between atoms: N4_33  and  C28_34 
REMARK    7  A    between atoms: C31_37  and  S1_38 
REMARK    8  A    between atoms: S1_38  and  N5_39 
ROOT
HETATM    1  C4  UNL     1     -15.876  36.187  -5.958  1.00  0.00     0.124 A 
HETATM    2  C5  UNL     1     -16.364  34.955  -5.598  1.00  0.00     0.041 A 
HETATM    3  C6  UNL     1     -16.727  35.059  -4.309  1.00  0.00     0.052 A 
HETATM    4  C7  UNL     1     -16.457  36.396  -3.844  1.00  0.00     0.119 A 
HETATM    5  N4  UNL     1     -15.945  37.016  -4.891  1.00  0.00    -0.291 N 
ENDROOT
BRANCH   4   6
HETATM    6  N3  UNL     1     -16.736  36.760  -2.489  1.00  0.00    -0.276 N 
HETATM    7  C8  UNL     1     -18.095  37.102  -2.024  1.00  0.00     0.261 C 
HETATM    8  O2  UNL     1     -19.158  36.546  -2.326  1.00  0.00    -0.267 OA
HETATM    9  C9  UNL     1     -17.874  38.265  -1.115  1.00  0.00     0.042 A 
HETATM   10  C10 UNL     1     -18.778  39.244  -0.686  1.00  0.00     0.018 A 
HETATM   11  C14 UNL     1     -16.517  38.475  -1.086  1.00  0.00    -0.004 A 
HETATM   12  C11 UNL     1     -18.223  40.439  -0.246  1.00  0.00     0.001 A 
HETATM   13  C12 UNL     1     -16.869  40.695  -0.217  1.00  0.00     0.001 A 
HETATM   14  C13 UNL     1     -16.011  39.670  -0.654  1.00  0.00     0.011 A 
HETATM   15  C15 UNL     1     -15.976  37.062  -1.327  1.00  0.00     0.125 C 
BRANCH  15  16
HETATM   16  C16 UNL     1     -14.575  36.899  -1.233  1.00  0.00    -0.020 A 
HETATM   17  C17 UNL     1     -14.034  35.675  -0.853  1.00  0.00     0.010 A 
HETATM   18  C18 UNL     1     -12.665  35.474  -0.753  1.00  0.00     0.001 A 
HETATM   19  C19 UNL     1     -11.764  36.479  -1.024  1.00  0.00     0.000 A 
HETATM   20  C20 UNL     1     -12.282  37.696  -1.402  1.00  0.00     0.001 A 
HETATM   21  C21 UNL     1     -13.667  37.892  -1.503  1.00  0.00     0.010 A 
ENDBRANCH  15  16
BRANCH  15  22
HETATM   22  C22 UNL     1     -16.571  36.339  -0.106  1.00  0.00    -0.020 A 
HETATM   23  C23 UNL     1     -16.595  36.961   1.130  1.00  0.00     0.010 A 
HETATM   24  C24 UNL     1     -17.095  36.358   2.269  1.00  0.00     0.001 A 
HETATM   25  C25 UNL     1     -17.591  35.100   2.188  1.00  0.00     0.000 A 
HETATM   26  C26 UNL     1     -17.579  34.456   0.970  1.00  0.00     0.001 A 
HETATM   27  C27 UNL     1     -17.067  35.070  -0.198  1.00  0.00     0.010 A 
ENDBRANCH  15  22
ENDBRANCH   4   6
BRANCH   5  28
HETATM   28  C28 UNL     1     -15.457  38.355  -5.026  1.00  0.00     0.041 A 
HETATM   29  C29 UNL     1     -16.353  39.332  -5.348  1.00  0.00     0.031 A 
HETATM   30  C30 UNL     1     -15.947  40.637  -5.441  1.00  0.00     0.027 A 
HETATM   31  C31 UNL     1     -14.617  40.934  -5.204  1.00  0.00     0.079 A 
HETATM   32  C32 UNL     1     -13.694  39.966  -4.878  1.00  0.00     0.027 A 
HETATM   33  C33 UNL     1     -14.154  38.649  -4.793  1.00  0.00     0.031 A 
BRANCH  31  34
HETATM   34  S1  UNL     1     -14.178  42.636  -5.310  1.00  0.00     0.256 S 
HETATM   35  O3  UNL     1     -13.867  42.975  -6.745  1.00  0.00    -0.201 OA
HETATM   36  O4  UNL     1     -12.980  42.839  -4.442  1.00  0.00    -0.201 OA
BRANCH  34  37
HETATM   37  N5  UNL     1     -15.509  43.572  -4.735  1.00  0.00    -0.324 N 
ATOM     38  H52 UNL     1     -16.078  43.343  -3.919  1.00  0.00     0.169 HD
ATOM     39  H51 UNL     1     -15.619  44.379  -5.349  1.00  0.00     0.169 HD
ENDBRANCH  34  37
ENDBRANCH  31  34
ENDBRANCH   5  28
BRANCH   1  40
HETATM   40  C3  UNL     1     -15.348  36.448  -7.323  1.00  0.00     0.344 C 
HETATM   41  N2  UNL     1     -14.053  36.434  -7.638  1.00  0.00    -0.355 NA
HETATM   42  O1  UNL     1     -16.237  36.698  -8.210  1.00  0.00    -0.249 OA
BRANCH  41  43
HETATM   43  C2  UNL     1     -12.910  36.420  -7.920  1.00  0.00     0.166 C 
HETATM   44  C1  UNL     1     -12.367  36.225  -9.319  1.00  0.00     0.102 C 
HETATM   45  N1  UNL     1     -11.833  36.599  -6.944  1.00  0.00    -0.072 NA
ENDBRANCH  41  43
ENDBRANCH   1  40
TORSDOF 8
ENDMDL
MODEL 4
REMARK VINA RESULT: -7.318361085      2.177      5.272
REMARK  8 active torsions:
REMARK  status: ('A' for Active; 'I' for Inactive)
REMARK    1  A    between atoms: C2_2  and  N2_4 
REMARK       I    between atoms: N2_4  and  C3_5 
REMARK    2  A    between atoms: C3_5  and  C4_7 
REMARK    3  A    between atoms: C7_10  and  N3_11 
REMARK    4  A    between atoms: C15_20  and  C16_21 
REMARK    5  A    between atoms: C15_20  and  C22_27 
REMARK    6  A    between atoms: N4_33  and  C28_34 
REMARK    7  A    between atoms: C31_37  and  S1_38 
REMARK    8  A    between atoms: S1_38  and  N5_39 
ROOT
HETATM    1  C4  UNL     1     -13.037  38.117  -2.993  1.00  0.00     0.124 A 
HETATM    2  C5  UNL     1     -12.575  38.764  -4.113  1.00  0.00     0.041 A 
HETATM    3  C6  UNL     1     -13.534  38.627  -5.044  1.00  0.00     0.052 A 
HETATM    4  C7  UNL     1     -14.630  37.870  -4.493  1.00  0.00     0.119 A 
HETATM    5  N4  UNL     1     -14.257  37.598  -3.257  1.00  0.00    -0.291 N 
ENDROOT
BRANCH   4   6
HETATM    6  N3  UNL     1     -15.774  37.567  -5.296  1.00  0.00    -0.276 N 
HETATM    7  C8  UNL     1     -17.154  37.677  -4.784  1.00  0.00     0.261 C 
HETATM    8  O2  UNL     1     -17.622  38.565  -4.061  1.00  0.00    -0.267 OA
HETATM    9  C9  UNL     1     -17.835  36.472  -5.343  1.00  0.00     0.042 A 
HETATM   10  C10 UNL     1     -19.004  35.832  -4.917  1.00  0.00     0.018 A 
HETATM   11  C14 UNL     1     -16.896  35.824  -6.108  1.00  0.00    -0.004 A 
HETATM   12  C11 UNL     1     -19.150  34.505  -5.299  1.00  0.00     0.001 A 
HETATM   13  C12 UNL     1     -18.224  33.814  -6.051  1.00  0.00     0.001 A 
HETATM   14  C13 UNL     1     -17.073  34.512  -6.455  1.00  0.00     0.011 A 
HETATM   15  C15 UNL     1     -16.012  36.985  -6.571  1.00  0.00     0.125 C 
BRANCH  15  16
HETATM   16  C16 UNL     1     -14.993  36.671  -7.501  1.00  0.00    -0.020 A 
HETATM   17  C17 UNL     1     -13.733  36.285  -7.058  1.00  0.00     0.010 A 
HETATM   18  C18 UNL     1     -12.710  35.965  -7.939  1.00  0.00     0.001 A 
HETATM   19  C19 UNL     1     -12.886  36.015  -9.303  1.00  0.00     0.000 A 
HETATM   20  C20 UNL     1     -14.128  36.394  -9.758  1.00  0.00     0.001 A 
HETATM   21  C21 UNL     1     -15.159  36.714  -8.862  1.00  0.00     0.010 A 
ENDBRANCH  15  16
BRANCH  15  22
HETATM   22  C22 UNL     1     -17.051  37.817  -7.344  1.00  0.00    -0.020 A 
HETATM   23  C23 UNL     1     -18.049  37.189  -8.067  1.00  0.00     0.010 A 
HETATM   24  C24 UNL     1     -18.998  37.877  -8.799  1.00  0.00     0.001 A 
HETATM   25  C25 UNL     1     -18.965  39.231  -8.818  1.00  0.00     0.000 A 
HETATM   26  C26 UNL     1     -17.980  39.883  -8.109  1.00  0.00     0.001 A 
HETATM   27  C27 UNL     1     -17.007  39.181  -7.358  1.00  0.00     0.010 A 
ENDBRANCH  15  22
ENDBRANCH   4   6
BRANCH   5  28
HETATM   28  C28 UNL     1     -14.922  36.846  -2.235  1.00  0.00     0.041 A 
HETATM   29  C29 UNL     1     -15.688  37.529  -1.335  1.00  0.00     0.031 A 
HETATM   30  C30 UNL     1     -16.384  36.853  -0.368  1.00  0.00     0.027 A 
HETATM   31  C31 UNL     1     -16.289  35.474  -0.328  1.00  0.00     0.079 A 
HETATM   32  C32 UNL     1     -15.523  34.763  -1.224  1.00  0.00     0.027 A 
HETATM   33  C33 UNL     1     -14.832  35.494  -2.194  1.00  0.00     0.031 A 
BRANCH  31  34
HETATM   34  S1  UNL     1     -17.238  34.675   0.922  1.00  0.00     0.256 S 
HETATM   35  O3  UNL     1     -16.518  33.427   1.363  1.00  0.00    -0.201 OA
HETATM   36  O4  UNL     1     -18.565  34.341   0.323  1.00  0.00    -0.201 OA
BRANCH  34  37
HETATM   37  N5  UNL     1     -17.427  35.772   2.239  1.00  0.00    -0.324 N 
ATOM     38  H52 UNL     1     -18.313  36.003   2.688  1.00  0.00     0.169 HD
ATOM     39  H51 UNL     1     -16.506  36.140   2.482  1.00  0.00     0.169 HD
ENDBRANCH  34  37
ENDBRANCH  31  34
ENDBRANCH   5  28
BRANCH   1  40
HETATM   40  C3  UNL     1     -12.224  38.033  -1.751  1.00  0.00     0.344 C 
HETATM   41  N2  UNL     1     -11.206  37.189  -1.581  1.00  0.00    -0.355 NA
HETATM   42  O1  UNL     1     -12.567  38.843  -0.821  1.00  0.00    -0.249 OA
BRANCH  41  43
HETATM   43  C2  UNL     1     -10.305  36.446  -1.427  1.00  0.00     0.166 C 
HETATM   44  C1  UNL     1     -10.261  35.342  -0.393  1.00  0.00     0.102 C 
HETATM   45  N1  UNL     1      -9.082  36.480  -2.232  1.00  0.00    -0.072 NA
ENDBRANCH  41  43
ENDBRANCH   1  40
TORSDOF 8
ENDMDL
MODEL 5
REMARK VINA RESULT: -7.295498106      1.027      1.596
REMARK  8 active torsions:
REMARK  status: ('A' for Active; 'I' for Inactive)
REMARK    1  A    between atoms: C2_2  and  N2_4 
REMARK       I    between atoms: N2_4  and  C3_5 
REMARK    2  A    between atoms: C3_5  and  C4_7 
REMARK    3  A    between atoms: C7_10  and  N3_11 
REMARK    4  A    between atoms: C15_20  and  C16_21 
REMARK    5  A    between atoms: C15_20  and  C22_27 
REMARK    6  A    between atoms: N4_33  and  C28_34 
REMARK    7  A    between atoms: C31_37  and  S1_38 
REMARK    8  A    between atoms: S1_38  and  N5_39 
ROOT
HETATM    1  C4  UNL     1     -17.597  37.290  -2.203  1.00  0.00     0.124 A 
HETATM    2  C5  UNL     1     -18.781  37.477  -2.874  1.00  0.00     0.041 A 
HETATM    3  C6  UNL     1     -18.465  37.538  -4.178  1.00  0.00     0.052 A 
HETATM    4  C7  UNL     1     -17.040  37.387  -4.331  1.00  0.00     0.119 A 
HETATM    5  N4  UNL     1     -16.586  37.243  -3.100  1.00  0.00    -0.291 N 
ENDROOT
BRANCH   4   6
HETATM    6  N3  UNL     1     -16.444  37.437  -5.631  1.00  0.00    -0.276 N 
HETATM    7  C8  UNL     1     -15.628  38.580  -6.086  1.00  0.00     0.261 C 
HETATM    8  O2  UNL     1     -14.789  39.214  -5.435  1.00  0.00    -0.267 OA
HETATM    9  C9  UNL     1     -16.058  38.779  -7.501  1.00  0.00     0.042 A 
HETATM   10  C10 UNL     1     -15.937  39.909  -8.318  1.00  0.00     0.018 A 
HETATM   11  C14 UNL     1     -16.984  37.797  -7.760  1.00  0.00    -0.004 A 
HETATM   12  C11 UNL     1     -16.814  39.985  -9.392  1.00  0.00     0.001 A 
HETATM   13  C12 UNL     1     -17.768  39.031  -9.676  1.00  0.00     0.001 A 
HETATM   14  C13 UNL     1     -17.837  37.916  -8.823  1.00  0.00     0.011 A 
HETATM   15  C15 UNL     1     -16.520  36.674  -6.828  1.00  0.00     0.125 C 
BRANCH  15  16
HETATM   16  C16 UNL     1     -17.202  35.440  -6.939  1.00  0.00    -0.020 A 
HETATM   17  C17 UNL     1     -17.188  34.533  -5.886  1.00  0.00     0.010 A 
HETATM   18  C18 UNL     1     -17.848  33.315  -5.955  1.00  0.00     0.001 A 
HETATM   19  C19 UNL     1     -18.554  32.935  -7.074  1.00  0.00     0.000 A 
HETATM   20  C20 UNL     1     -18.579  33.822  -8.125  1.00  0.00     0.001 A 
HETATM   21  C21 UNL     1     -17.911  35.054  -8.049  1.00  0.00     0.010 A 
ENDBRANCH  15  16
BRANCH  15  22
HETATM   22  C22 UNL     1     -15.108  36.431  -7.389  1.00  0.00    -0.020 A 
HETATM   23  C23 UNL     1     -14.895  36.400  -8.755  1.00  0.00     0.010 A 
HETATM   24  C24 UNL     1     -13.656  36.166  -9.321  1.00  0.00     0.001 A 
HETATM   25  C25 UNL     1     -12.589  35.955  -8.514  1.00  0.00     0.000 A 
HETATM   26  C26 UNL     1     -12.772  35.978  -7.149  1.00  0.00     0.001 A 
HETATM   27  C27 UNL     1     -14.039  36.218  -6.566  1.00  0.00     0.010 A 
ENDBRANCH  15  22
ENDBRANCH   4   6
BRANCH   5  28
HETATM   28  C28 UNL     1     -15.246  37.086  -2.621  1.00  0.00     0.041 A 
HETATM   29  C29 UNL     1     -14.495  38.211  -2.443  1.00  0.00     0.031 A 
HETATM   30  C30 UNL     1     -13.224  38.120  -1.940  1.00  0.00     0.027 A 
HETATM   31  C31 UNL     1     -12.727  36.869  -1.624  1.00  0.00     0.079 A 
HETATM   32  C32 UNL     1     -13.465  35.720  -1.795  1.00  0.00     0.027 A 
HETATM   33  C33 UNL     1     -14.757  35.861  -2.309  1.00  0.00     0.031 A 
BRANCH  31  34
HETATM   34  S1  UNL     1     -11.100  36.836  -0.952  1.00  0.00     0.256 S 
HETATM   35  O3  UNL     1     -10.169  36.198  -1.951  1.00  0.00    -0.201 OA
HETATM   36  O4  UNL     1     -11.157  36.037   0.308  1.00  0.00    -0.201 OA
BRANCH  34  37
HETATM   37  N5  UNL     1     -10.622  38.460  -0.619  1.00  0.00    -0.324 N 
ATOM     38  H52 UNL     1      -9.676  38.755  -0.377  1.00  0.00     0.169 HD
ATOM     39  H51 UNL     1     -11.444  39.058  -0.707  1.00  0.00     0.169 HD
ENDBRANCH  34  37
ENDBRANCH  31  34
ENDBRANCH   5  28
BRANCH   1  40
HETATM   40  C3  UNL     1     -17.548  37.201  -0.720  1.00  0.00     0.344 C 
HETATM   41  N2  UNL     1     -17.243  38.223   0.079  1.00  0.00    -0.355 NA
HETATM   42  O1  UNL     1     -17.822  36.048  -0.236  1.00  0.00    -0.249 OA
BRANCH  41  43
HETATM   43  C2  UNL     1     -16.977  39.125   0.789  1.00  0.00     0.166 C 
HETATM   44  C1  UNL     1     -16.262  40.386   0.354  1.00  0.00     0.102 C 
HETATM   45  N1  UNL     1     -17.309  39.157   2.215  1.00  0.00    -0.072 NA
ENDBRANCH  41  43
ENDBRANCH   1  40
TORSDOF 8
ENDMDL
