MODEL 1
REMARK VINA RESULT: -6.398965161      0.000      0.000
REMARK  9 active torsions:
REMARK  status: ('A' for Active; 'I' for Inactive)
REMARK    1  A    between atoms: N1_1  and  S1_4 
REMARK    2  A    between atoms: S1_4  and  O3_7 
REMARK    3  A    between atoms: O3_7  and  C1_8 
REMARK    4  A    between atoms: C1_8  and  C2_9 
REMARK    5  A    between atoms: C2_9  and  C3_10 
REMARK    6  A    between atoms: C3_10  and  O4_11 
REMARK    7  A    between atoms: O4_11  and  C4_12 
REMARK       I    between atoms: C4_12  and  N2_14 
REMARK    8  A    between atoms: N2_14  and  S2_16 
REMARK    9  A    between atoms: C5_23  and  C6_24 
ROOT
HETATM    1  C2  UNL     1      -8.187  12.708 -17.181  1.00  0.00     0.229 C 
HETATM    2  N3  UNL     1      -9.109  12.957 -16.063  1.00  0.00    -0.050 N 
ATOM      3  H31 UNL     1      -9.616  13.838 -16.155  1.00  0.00     0.279 HD
ATOM      4  H32 UNL     1      -8.625  13.170 -15.190  1.00  0.00     0.279 HD
HETATM    5  C5  UNL     1      -9.975  11.827 -15.954  1.00  0.00     0.204 C 
HETATM    6  C7  UNL     1      -9.823  10.994 -17.207  1.00  0.00     0.115 C 
HETATM    7  C8  UNL     1      -8.418  11.302 -17.577  1.00  0.00     0.169 C 
HETATM    8  O9  UNL     1      -7.650  10.531 -18.096  1.00  0.00    -0.295 OA
ENDROOT
BRANCH   1   9
HETATM    9  C1  UNL     1      -6.808  12.956 -16.661  1.00  0.00     0.241 C 
BRANCH   9  10
HETATM   10  O3  UNL     1      -6.151  14.000 -17.272  1.00  0.00    -0.257 OA
BRANCH  10  11
HETATM   11  S1  UNL     1      -5.982  15.335 -16.295  1.00  0.00     0.355 S 
HETATM   12  O1  UNL     1      -7.275  15.570 -15.567  1.00  0.00    -0.176 OA
HETATM   13  O2  UNL     1      -5.717  16.594 -17.103  1.00  0.00    -0.176 OA
BRANCH  11  14
HETATM   14  N1  UNL     1      -4.726  15.193 -15.141  1.00  0.00    -0.306 N 
ATOM     15  H12 UNL     1      -4.745  15.597 -14.204  1.00  0.00     0.171 HD
ATOM     16  H11 UNL     1      -3.970  14.644 -15.550  1.00  0.00     0.171 HD
ENDBRANCH  11  14
ENDBRANCH  10  11
ENDBRANCH   9  10
ENDBRANCH   1   9
BRANCH   1  17
HETATM   17  C3  UNL     1      -8.615  13.668 -18.261  1.00  0.00     0.230 C 
BRANCH  17  18
HETATM   18  O4  UNL     1      -9.769  14.402 -17.880  1.00  0.00    -0.300 OA
BRANCH  18  19
HETATM   19  C4  UNL     1      -9.694  15.789 -17.868  1.00  0.00     0.376 C 
HETATM   20  O5  UNL     1      -8.819  16.338 -18.590  1.00  0.00    -0.237 OA
HETATM   21  N2  UNL     1     -10.586  16.565 -17.056  1.00  0.00    -0.211 N 
ATOM     22  H2  UNL     1     -11.281  16.083 -16.485  1.00  0.00     0.186 HD
BRANCH  21  23
HETATM   23  S2  UNL     1     -10.520  18.273 -17.014  1.00  0.00     0.213 S 
HETATM   24  O6  UNL     1     -11.679  18.848 -16.211  1.00  0.00    -0.578 OA
HETATM   25  O7  UNL     1      -9.269  18.779 -16.356  1.00  0.00    -0.578 OA
HETATM   26  O8  UNL     1     -10.701  18.860 -18.574  1.00  0.00    -0.578 OA
ENDBRANCH  21  23
ENDBRANCH  18  19
ENDBRANCH  17  18
ENDBRANCH   1  17
BRANCH   5  27
HETATM   27  C6  UNL     1     -11.406  12.375 -15.881  1.00  0.00     0.119 C 
HETATM   28  S3  UNL     1     -12.597  11.013 -16.050  1.00  0.00    -0.096 SA
ENDBRANCH   5  27
TORSDOF 9
ENDMDL
MODEL 2
REMARK VINA RESULT: -6.281183273      4.222      7.165
REMARK  9 active torsions:
REMARK  status: ('A' for Active; 'I' for Inactive)
REMARK    1  A    between atoms: N1_1  and  S1_4 
REMARK    2  A    between atoms: S1_4  and  O3_7 
REMARK    3  A    between atoms: O3_7  and  C1_8 
REMARK    4  A    between atoms: C1_8  and  C2_9 
REMARK    5  A    between atoms: C2_9  and  C3_10 
REMARK    6  A    between atoms: C3_10  and  O4_11 
REMARK    7  A    between atoms: O4_11  and  C4_12 
REMARK       I    between atoms: C4_12  and  N2_14 
REMARK    8  A    between atoms: N2_14  and  S2_16 
REMARK    9  A    between atoms: C5_23  and  C6_24 
ROOT
HETATM    1  C2  UNL     1      -8.963  18.188 -14.294  1.00  0.00     0.229 C 
HETATM    2  N3  UNL     1      -7.755  19.027 -14.291  1.00  0.00    -0.050 N 
ATOM      3  H31 UNL     1      -7.134  18.830 -15.076  1.00  0.00     0.279 HD
ATOM      4  H32 UNL     1      -7.107  18.785 -13.542  1.00  0.00     0.279 HD
HETATM    5  C5  UNL     1      -8.175  20.390 -14.244  1.00  0.00     0.204 C 
HETATM    6  C7  UNL     1      -9.656  20.439 -14.544  1.00  0.00     0.115 C 
HETATM    7  C8  UNL     1     -10.087  19.112 -14.034  1.00  0.00     0.169 C 
HETATM    8  O9  UNL     1     -11.150  18.876 -13.517  1.00  0.00    -0.295 OA
ENDROOT
BRANCH   1   9
HETATM    9  C1  UNL     1      -8.777  17.167 -13.218  1.00  0.00     0.241 C 
BRANCH   9  10
HETATM   10  O3  UNL     1      -7.486  17.063 -12.751  1.00  0.00    -0.257 OA
BRANCH  10  11
HETATM   11  S1  UNL     1      -7.308  17.591 -11.184  1.00  0.00     0.355 S 
HETATM   12  O1  UNL     1      -8.528  17.203 -10.399  1.00  0.00    -0.176 OA
HETATM   13  O2  UNL     1      -7.221  19.107 -11.108  1.00  0.00    -0.176 OA
BRANCH  11  14
HETATM   14  N1  UNL     1      -5.928  16.959 -10.394  1.00  0.00    -0.306 N 
ATOM     15  H12 UNL     1      -5.948  16.397  -9.543  1.00  0.00     0.171 HD
ATOM     16  H11 UNL     1      -5.098  17.240 -10.916  1.00  0.00     0.171 HD
ENDBRANCH  11  14
ENDBRANCH  10  11
ENDBRANCH   9  10
ENDBRANCH   1   9
BRANCH   1  17
HETATM   17  C3  UNL     1      -9.030  17.606 -15.683  1.00  0.00     0.230 C 
BRANCH  17  18
HETATM   18  O4  UNL     1      -7.763  17.630 -16.322  1.00  0.00    -0.300 OA
BRANCH  18  19
HETATM   19  C4  UNL     1      -7.219  16.427 -16.753  1.00  0.00     0.376 C 
HETATM   20  O5  UNL     1      -7.617  15.960 -17.854  1.00  0.00    -0.237 OA
HETATM   21  N2  UNL     1      -6.235  15.742 -15.964  1.00  0.00    -0.211 N 
ATOM     22  H2  UNL     1      -5.939  16.153 -15.079  1.00  0.00     0.186 HD
BRANCH  21  23
HETATM   23  S2  UNL     1      -5.546  14.259 -16.462  1.00  0.00     0.213 S 
HETATM   24  O6  UNL     1      -6.574  13.136 -16.426  1.00  0.00    -0.578 OA
HETATM   25  O7  UNL     1      -5.040  14.312 -17.875  1.00  0.00    -0.578 OA
HETATM   26  O8  UNL     1      -4.348  13.826 -15.373  1.00  0.00    -0.578 OA
ENDBRANCH  21  23
ENDBRANCH  18  19
ENDBRANCH  17  18
ENDBRANCH   1  17
BRANCH   5  27
HETATM   27  C6  UNL     1      -7.410  21.125 -15.352  1.00  0.00     0.119 C 
HETATM   28  S3  UNL     1      -7.753  22.908 -15.260  1.00  0.00    -0.096 SA
ENDBRANCH   5  27
TORSDOF 9
ENDMDL
MODEL 3
REMARK VINA RESULT: -6.271291543      0.905      1.362
REMARK  9 active torsions:
REMARK  status: ('A' for Active; 'I' for Inactive)
REMARK    1  A    between atoms: N1_1  and  S1_4 
REMARK    2  A    between atoms: S1_4  and  O3_7 
REMARK    3  A    between atoms: O3_7  and  C1_8 
REMARK    4  A    between atoms: C1_8  and  C2_9 
REMARK    5  A    between atoms: C2_9  and  C3_10 
REMARK    6  A    between atoms: C3_10  and  O4_11 
REMARK    7  A    between atoms: O4_11  and  C4_12 
REMARK       I    between atoms: C4_12  and  N2_14 
REMARK    8  A    between atoms: N2_14  and  S2_16 
REMARK    9  A    between atoms: C5_23  and  C6_24 
ROOT
HETATM    1  C2  UNL     1      -8.165  12.584 -17.263  1.00  0.00     0.229 C 
HETATM    2  N3  UNL     1      -9.118  12.873 -16.182  1.00  0.00    -0.050 N 
ATOM      3  H31 UNL     1      -9.591  13.770 -16.299  1.00  0.00     0.279 HD
ATOM      4  H32 UNL     1      -8.660  13.078 -15.294  1.00  0.00     0.279 HD
HETATM    5  C5  UNL     1     -10.025  11.774 -16.098  1.00  0.00     0.204 C 
HETATM    6  C7  UNL     1      -9.856  10.926 -17.338  1.00  0.00     0.115 C 
HETATM    7  C8  UNL     1      -8.428  11.184 -17.658  1.00  0.00     0.169 C 
HETATM    8  O9  UNL     1      -7.668  10.383 -18.142  1.00  0.00    -0.295 OA
ENDROOT
BRANCH   1   9
HETATM    9  C1  UNL     1      -6.798  12.790 -16.695  1.00  0.00     0.241 C 
BRANCH   9  10
HETATM   10  O3  UNL     1      -6.169  13.935 -17.130  1.00  0.00    -0.257 OA
BRANCH  10  11
HETATM   11  S1  UNL     1      -6.093  15.126 -15.972  1.00  0.00     0.355 S 
HETATM   12  O1  UNL     1      -4.865  14.910 -15.134  1.00  0.00    -0.176 OA
HETATM   13  O2  UNL     1      -7.273  15.059 -15.017  1.00  0.00    -0.176 OA
BRANCH  11  14
HETATM   14  N1  UNL     1      -6.043  16.712 -16.613  1.00  0.00    -0.306 N 
ATOM     15  H12 UNL     1      -5.821  17.551 -16.078  1.00  0.00     0.171 HD
ATOM     16  H11 UNL     1      -6.270  16.668 -17.606  1.00  0.00     0.171 HD
ENDBRANCH  11  14
ENDBRANCH  10  11
ENDBRANCH   9  10
ENDBRANCH   1   9
BRANCH   1  17
HETATM   17  C3  UNL     1      -8.520  13.549 -18.365  1.00  0.00     0.230 C 
BRANCH  17  18
HETATM   18  O4  UNL     1      -9.677  14.306 -18.044  1.00  0.00    -0.300 OA
BRANCH  18  19
HETATM   19  C4  UNL     1      -9.520  15.651 -17.736  1.00  0.00     0.376 C 
HETATM   20  O5  UNL     1      -8.603  16.287 -18.322  1.00  0.00    -0.237 OA
HETATM   21  N2  UNL     1     -10.377  16.290 -16.779  1.00  0.00    -0.211 N 
ATOM     22  H2  UNL     1     -11.108  15.742 -16.327  1.00  0.00     0.186 HD
BRANCH  21  23
HETATM   23  S2  UNL     1     -10.211  17.943 -16.374  1.00  0.00     0.213 S 
HETATM   24  O6  UNL     1     -10.537  18.836 -17.563  1.00  0.00    -0.578 OA
HETATM   25  O7  UNL     1     -11.148  18.357 -15.276  1.00  0.00    -0.578 OA
HETATM   26  O8  UNL     1      -8.608  18.248 -15.992  1.00  0.00    -0.578 OA
ENDBRANCH  21  23
ENDBRANCH  18  19
ENDBRANCH  17  18
ENDBRANCH   1  17
BRANCH   5  27
HETATM   27  C6  UNL     1     -11.439  12.370 -16.081  1.00  0.00     0.119 C 
HETATM   28  S3  UNL     1     -12.667  11.039 -15.936  1.00  0.00    -0.096 SA
ENDBRANCH   5  27
TORSDOF 9
ENDMDL
MODEL 4
REMARK VINA RESULT: -6.271135988      3.810      6.707
REMARK  9 active torsions:
REMARK  status: ('A' for Active; 'I' for Inactive)
REMARK    1  A    between atoms: N1_1  and  S1_4 
REMARK    2  A    between atoms: S1_4  and  O3_7 
REMARK    3  A    between atoms: O3_7  and  C1_8 
REMARK    4  A    between atoms: C1_8  and  C2_9 
REMARK    5  A    between atoms: C2_9  and  C3_10 
REMARK    6  A    between atoms: C3_10  and  O4_11 
REMARK    7  A    between atoms: O4_11  and  C4_12 
REMARK       I    between atoms: C4_12  and  N2_14 
REMARK    8  A    between atoms: N2_14  and  S2_16 
REMARK    9  A    between atoms: C5_23  and  C6_24 
ROOT
HETATM    1  C2  UNL     1      -9.084  18.255 -14.260  1.00  0.00     0.229 C 
HETATM    2  N3  UNL     1      -7.822  18.997 -14.402  1.00  0.00    -0.050 N 
ATOM      3  H31 UNL     1      -7.332  18.783 -15.270  1.00  0.00     0.279 HD
ATOM      4  H32 UNL     1      -7.100  18.677 -13.756  1.00  0.00     0.279 HD
HETATM    5  C5  UNL     1      -8.117  20.386 -14.259  1.00  0.00     0.204 C 
HETATM    6  C7  UNL     1      -9.616  20.562 -14.349  1.00  0.00     0.115 C 
HETATM    7  C8  UNL     1     -10.082  19.254 -13.821  1.00  0.00     0.169 C 
HETATM    8  O9  UNL     1     -11.081  19.083 -13.168  1.00  0.00    -0.295 OA
ENDROOT
BRANCH   1   9
HETATM    9  C1  UNL     1      -8.838  17.183 -13.248  1.00  0.00     0.241 C 
BRANCH   9  10
HETATM   10  O3  UNL     1      -7.512  16.989 -12.937  1.00  0.00    -0.257 OA
BRANCH  10  11
HETATM   11  S1  UNL     1      -7.033  15.400 -13.049  1.00  0.00     0.355 S 
HETATM   12  O1  UNL     1      -8.214  14.564 -13.451  1.00  0.00    -0.176 OA
HETATM   13  O2  UNL     1      -6.568  14.857 -11.708  1.00  0.00    -0.176 OA
BRANCH  11  14
HETATM   14  N1  UNL     1      -5.770  15.136 -14.173  1.00  0.00    -0.306 N 
ATOM     15  H12 UNL     1      -5.871  14.641 -15.059  1.00  0.00     0.171 HD
ATOM     16  H11 UNL     1      -4.916  15.553 -13.806  1.00  0.00     0.171 HD
ENDBRANCH  11  14
ENDBRANCH  10  11
ENDBRANCH   9  10
ENDBRANCH   1   9
BRANCH   1  17
HETATM   17  C3  UNL     1      -9.388  17.734 -15.641  1.00  0.00     0.230 C 
BRANCH  17  18
HETATM   18  O4  UNL     1      -8.206  17.576 -16.411  1.00  0.00    -0.300 OA
BRANCH  18  19
HETATM   19  C4  UNL     1      -7.871  16.301 -16.849  1.00  0.00     0.376 C 
HETATM   20  O5  UNL     1      -6.899  16.186 -17.643  1.00  0.00    -0.237 OA
HETATM   21  N2  UNL     1      -8.613  15.154 -16.407  1.00  0.00    -0.211 N 
ATOM     22  H2  UNL     1      -9.392  15.288 -15.763  1.00  0.00     0.186 HD
BRANCH  21  23
HETATM   23  S2  UNL     1      -8.229  13.571 -16.926  1.00  0.00     0.213 S 
HETATM   24  O6  UNL     1      -6.810  13.191 -16.528  1.00  0.00    -0.578 OA
HETATM   25  O7  UNL     1      -9.124  12.536 -16.306  1.00  0.00    -0.578 OA
HETATM   26  O8  UNL     1      -8.270  13.526 -18.600  1.00  0.00    -0.578 OA
ENDBRANCH  21  23
ENDBRANCH  18  19
ENDBRANCH  17  18
ENDBRANCH   1  17
BRANCH   5  27
HETATM   27  C6  UNL     1      -7.452  21.101 -15.442  1.00  0.00     0.119 C 
HETATM   28  S3  UNL     1      -7.676  22.897 -15.283  1.00  0.00    -0.096 SA
ENDBRANCH   5  27
TORSDOF 9
ENDMDL
MODEL 5
REMARK VINA RESULT: -6.251344674      2.946      5.219
REMARK  9 active torsions:
REMARK  status: ('A' for Active; 'I' for Inactive)
REMARK    1  A    between atoms: N1_1  and  S1_4 
REMARK    2  A    between atoms: S1_4  and  O3_7 
REMARK    3  A    between atoms: O3_7  and  C1_8 
REMARK    4  A    between atoms: C1_8  and  C2_9 
REMARK    5  A    between atoms: C2_9  and  C3_10 
REMARK    6  A    between atoms: C3_10  and  O4_11 
REMARK    7  A    between atoms: O4_11  and  C4_12 
REMARK       I    between atoms: C4_12  and  N2_14 
REMARK    8  A    between atoms: N2_14  and  S2_16 
REMARK    9  A    between atoms: C5_23  and  C6_24 
ROOT
HETATM    1  C2  UNL     1      -8.950  15.237 -16.748  1.00  0.00     0.229 C 
HETATM    2  N3  UNL     1      -7.797  15.832 -17.439  1.00  0.00    -0.050 N 
ATOM      3  H31 UNL     1      -7.153  16.302 -16.804  1.00  0.00     0.279 HD
ATOM      4  H32 UNL     1      -8.048  16.644 -18.003  1.00  0.00     0.279 HD
HETATM    5  C5  UNL     1      -7.170  14.801 -18.202  1.00  0.00     0.204 C 
HETATM    6  C7  UNL     1      -7.727  13.471 -17.746  1.00  0.00     0.115 C 
HETATM    7  C8  UNL     1      -9.087  13.875 -17.307  1.00  0.00     0.169 C 
HETATM    8  O9  UNL     1     -10.080  13.198 -17.405  1.00  0.00    -0.295 OA
ENDROOT
BRANCH   1   9
HETATM    9  C1  UNL     1     -10.124  16.115 -17.041  1.00  0.00     0.241 C 
BRANCH   9  10
HETATM   10  O3  UNL     1      -9.793  17.377 -17.481  1.00  0.00    -0.257 OA
BRANCH  10  11
HETATM   11  S1  UNL     1     -10.520  18.592 -16.609  1.00  0.00     0.355 S 
HETATM   12  O1  UNL     1      -9.453  19.450 -15.991  1.00  0.00    -0.176 OA
HETATM   13  O2  UNL     1     -11.341  18.042 -15.455  1.00  0.00    -0.176 OA
BRANCH  11  14
HETATM   14  N1  UNL     1     -11.551  19.591 -17.541  1.00  0.00    -0.306 N 
ATOM     15  H12 UNL     1     -11.284  20.061 -18.405  1.00  0.00     0.171 HD
ATOM     16  H11 UNL     1     -12.463  19.631 -17.085  1.00  0.00     0.171 HD
ENDBRANCH  11  14
ENDBRANCH  10  11
ENDBRANCH   9  10
ENDBRANCH   1   9
BRANCH   1  17
HETATM   17  C3  UNL     1      -8.559  15.205 -15.293  1.00  0.00     0.230 C 
BRANCH  17  18
HETATM   18  O4  UNL     1      -7.701  16.285 -14.958  1.00  0.00    -0.300 OA
BRANCH  18  19
HETATM   19  C4  UNL     1      -8.037  17.080 -13.870  1.00  0.00     0.376 C 
HETATM   20  O5  UNL     1      -8.620  16.531 -12.897  1.00  0.00    -0.237 OA
HETATM   21  N2  UNL     1      -7.727  18.481 -13.860  1.00  0.00    -0.211 N 
ATOM     22  H2  UNL     1      -7.254  18.888 -14.667  1.00  0.00     0.186 HD
BRANCH  21  23
HETATM   23  S2  UNL     1      -8.127  19.490 -12.539  1.00  0.00     0.213 S 
HETATM   24  O6  UNL     1      -7.795  20.945 -12.838  1.00  0.00    -0.578 OA
HETATM   25  O7  UNL     1      -9.595  19.457 -12.221  1.00  0.00    -0.578 OA
HETATM   26  O8  UNL     1      -7.182  19.059 -11.224  1.00  0.00    -0.578 OA
ENDBRANCH  21  23
ENDBRANCH  18  19
ENDBRANCH  17  18
ENDBRANCH   1  17
BRANCH   5  27
HETATM   27  C6  UNL     1      -5.672  14.861 -17.876  1.00  0.00     0.119 C 
HETATM   28  S3  UNL     1      -5.330  13.898 -16.373  1.00  0.00    -0.096 SA
ENDBRANCH   5  27
TORSDOF 9
ENDMDL
