MODEL 1
REMARK VINA RESULT: -6.451348190      0.000      0.000
REMARK  5 active torsions:
REMARK  status: ('A' for Active; 'I' for Inactive)
REMARK    1  A    between atoms: N1_2  and  C2_3 
REMARK    2  A    between atoms: N1_2  and  S2_24 
REMARK    3  A    between atoms: C2_3  and  C3_4 
REMARK    4  A    between atoms: C2_3  and  C10_13 
REMARK    5  A    between atoms: N5_20  and  C11_21 
ROOT
HETATM    1  C2  UNL     1      23.572  65.341  20.831  1.00  0.00     0.170 C 
ENDROOT
BRANCH   1   2
HETATM    2  N1  UNL     1      22.407  65.958  21.405  1.00  0.00    -0.200 NA
HETATM    3  C1  UNL     1      21.431  65.038  21.900  1.00  0.00     0.130 C 
BRANCH   2   4
HETATM    4  S2  UNL     1      21.607  66.993  20.269  1.00  0.00     0.208 S 
HETATM    5  C14 UNL     1      22.100  66.637  18.618  1.00  0.00     0.180 C 
HETATM    6  O2  UNL     1      20.120  66.849  20.471  1.00  0.00    -0.212 OA
HETATM    7  O3  UNL     1      22.044  68.403  20.585  1.00  0.00    -0.212 OA
ENDBRANCH   2   4
ENDBRANCH   1   2
BRANCH   1   8
HETATM    8  C3  UNL     1      23.690  63.900  21.137  1.00  0.00     0.045 C 
HETATM    9  C4  UNL     1      24.368  63.010  20.455  1.00  0.00     0.104 C 
HETATM   10  O1  UNL     1      25.107  63.271  19.306  1.00  0.00    -0.334 OA
HETATM   11  S1  UNL     1      24.389  61.306  20.990  1.00  0.00    -0.105 SA
HETATM   12  C5  UNL     1      25.841  62.219  18.672  1.00  0.00     0.062 C 
HETATM   13  C6  UNL     1      27.024  61.788  19.500  1.00  0.00     0.046 C 
HETATM   14  C7  UNL     1      26.375  62.791  17.378  1.00  0.00     0.046 C 
HETATM   15  C8  UNL     1      24.907  61.093  18.348  1.00  0.00     0.048 C 
HETATM   16  C9  UNL     1      24.532  60.260  19.537  1.00  0.00     0.084 C 
ENDBRANCH   1   8
BRANCH   1  17
HETATM   17  C10 UNL     1      24.739  66.154  21.228  1.00  0.00     0.138 A 
HETATM   18  N2  UNL     1      25.020  66.547  22.486  1.00  0.00    -0.270 N 
HETATM   19  N3  UNL     1      26.121  67.261  22.482  1.00  0.00    -0.227 N 
ATOM     20  H2  UNL     1      24.465  66.324  23.312  1.00  0.00     0.190 HD
HETATM   21  N4  UNL     1      26.582  67.353  21.254  1.00  0.00    -0.224 N 
ATOM     22  H3  UNL     1      26.553  67.680  23.305  1.00  0.00     0.210 HD
HETATM   23  N5  UNL     1      25.734  66.674  20.480  1.00  0.00    -0.257 N 
ATOM     24  H4  UNL     1      27.422  67.847  20.953  1.00  0.00     0.210 HD
BRANCH  23  25
HETATM   25  C11 UNL     1      25.862  66.518  19.047  1.00  0.00     0.111 A 
HETATM   26  C12 UNL     1      27.213  66.159  18.494  1.00  0.00     0.029 A 
HETATM   27  C13 UNL     1      26.608  67.517  18.242  1.00  0.00     0.029 A 
ENDBRANCH  23  25
ENDBRANCH   1  17
TORSDOF 5
ENDMDL
MODEL 2
REMARK VINA RESULT: -5.822549781      3.169      6.186
REMARK  5 active torsions:
REMARK  status: ('A' for Active; 'I' for Inactive)
REMARK    1  A    between atoms: N1_2  and  C2_3 
REMARK    2  A    between atoms: N1_2  and  S2_24 
REMARK    3  A    between atoms: C2_3  and  C3_4 
REMARK    4  A    between atoms: C2_3  and  C10_13 
REMARK    5  A    between atoms: N5_20  and  C11_21 
ROOT
HETATM    1  C2  UNL     1      27.157  66.564  18.377  1.00  0.00     0.170 C 
ENDROOT
BRANCH   1   2
HETATM    2  N1  UNL     1      28.502  67.066  18.464  1.00  0.00    -0.200 NA
HETATM    3  C1  UNL     1      28.595  68.477  18.669  1.00  0.00     0.130 C 
BRANCH   2   4
HETATM    4  S2  UNL     1      29.415  66.692  17.040  1.00  0.00     0.208 S 
HETATM    5  C14 UNL     1      31.094  67.188  17.204  1.00  0.00     0.180 C 
HETATM    6  O2  UNL     1      29.273  65.215  16.768  1.00  0.00    -0.212 OA
HETATM    7  O3  UNL     1      28.807  67.491  15.913  1.00  0.00    -0.212 OA
ENDBRANCH   2   4
ENDBRANCH   1   2
BRANCH   1   8
HETATM    8  C3  UNL     1      26.129  67.626  18.341  1.00  0.00     0.045 C 
HETATM    9  C4  UNL     1      24.952  67.593  18.915  1.00  0.00     0.104 C 
HETATM   10  O1  UNL     1      24.456  66.536  19.671  1.00  0.00    -0.334 OA
HETATM   11  S1  UNL     1      23.845  68.986  18.754  1.00  0.00    -0.105 SA
HETATM   12  C5  UNL     1      23.166  66.637  20.283  1.00  0.00     0.062 C 
HETATM   13  C6  UNL     1      23.165  67.630  21.418  1.00  0.00     0.046 C 
HETATM   14  C7  UNL     1      22.865  65.276  20.869  1.00  0.00     0.046 C 
HETATM   15  C8  UNL     1      22.144  66.943  19.231  1.00  0.00     0.048 C 
HETATM   16  C9  UNL     1      22.157  68.371  18.776  1.00  0.00     0.084 C 
ENDBRANCH   1   8
BRANCH   1  17
HETATM   17  C10 UNL     1      26.986  65.577  19.462  1.00  0.00     0.138 A 
HETATM   18  N2  UNL     1      27.259  65.800  20.764  1.00  0.00    -0.270 N 
HETATM   19  N3  UNL     1      27.004  64.712  21.452  1.00  0.00    -0.227 N 
ATOM     20  H2  UNL     1      27.609  66.675  21.153  1.00  0.00     0.190 HD
HETATM   21  N4  UNL     1      26.567  63.771  20.645  1.00  0.00    -0.224 N 
ATOM     22  H3  UNL     1      27.127  64.613  22.460  1.00  0.00     0.210 HD
HETATM   23  N5  UNL     1      26.555  64.300  19.420  1.00  0.00    -0.257 N 
ATOM     24  H4  UNL     1      26.292  62.824  20.904  1.00  0.00     0.210 HD
BRANCH  23  25
HETATM   25  C11 UNL     1      26.142  63.605  18.221  1.00  0.00     0.111 A 
HETATM   26  C12 UNL     1      24.708  63.163  18.119  1.00  0.00     0.029 A 
HETATM   27  C13 UNL     1      25.821  62.156  18.259  1.00  0.00     0.029 A 
ENDBRANCH  23  25
ENDBRANCH   1  17
TORSDOF 5
ENDMDL
MODEL 3
REMARK VINA RESULT: -5.798114713      1.736      2.319
REMARK  5 active torsions:
REMARK  status: ('A' for Active; 'I' for Inactive)
REMARK    1  A    between atoms: N1_2  and  C2_3 
REMARK    2  A    between atoms: N1_2  and  S2_24 
REMARK    3  A    between atoms: C2_3  and  C3_4 
REMARK    4  A    between atoms: C2_3  and  C10_13 
REMARK    5  A    between atoms: N5_20  and  C11_21 
ROOT
HETATM    1  C2  UNL     1      25.617  65.374  20.240  1.00  0.00     0.170 C 
ENDROOT
BRANCH   1   2
HETATM    2  N1  UNL     1      24.354  66.057  20.323  1.00  0.00    -0.200 NA
HETATM    3  C1  UNL     1      23.410  65.450  21.209  1.00  0.00     0.130 C 
BRANCH   2   4
HETATM    4  S2  UNL     1      23.594  66.183  18.771  1.00  0.00     0.208 S 
HETATM    5  C14 UNL     1      24.090  67.646  17.930  1.00  0.00     0.180 C 
HETATM    6  O2  UNL     1      23.914  64.932  17.991  1.00  0.00    -0.212 OA
HETATM    7  O3  UNL     1      22.109  66.277  19.022  1.00  0.00    -0.212 OA
ENDBRANCH   2   4
ENDBRANCH   1   2
BRANCH   1   8
HETATM    8  C3  UNL     1      25.741  64.242  21.182  1.00  0.00     0.045 C 
HETATM    9  C4  UNL     1      25.752  62.968  20.875  1.00  0.00     0.104 C 
HETATM   10  O1  UNL     1      25.647  62.451  19.588  1.00  0.00    -0.334 OA
HETATM   11  S1  UNL     1      25.913  61.743  22.165  1.00  0.00    -0.105 SA
HETATM   12  C5  UNL     1      25.714  61.038  19.376  1.00  0.00     0.062 C 
HETATM   13  C6  UNL     1      27.101  60.502  19.626  1.00  0.00     0.046 C 
HETATM   14  C7  UNL     1      25.394  60.809  17.915  1.00  0.00     0.046 C 
HETATM   15  C8  UNL     1      24.664  60.365  20.207  1.00  0.00     0.048 C 
HETATM   16  C9  UNL     1      25.015  60.271  21.661  1.00  0.00     0.084 C 
ENDBRANCH   1   8
BRANCH   1  17
HETATM   17  C10 UNL     1      26.676  66.395  20.360  1.00  0.00     0.138 A 
HETATM   18  N2  UNL     1      26.858  67.205  21.423  1.00  0.00    -0.270 N 
HETATM   19  N3  UNL     1      27.880  67.996  21.196  1.00  0.00    -0.227 N 
ATOM     20  H2  UNL     1      26.291  67.203  22.270  1.00  0.00     0.190 HD
HETATM   21  N4  UNL     1      28.386  67.735  20.010  1.00  0.00    -0.224 N 
ATOM     22  H3  UNL     1      28.229  68.705  21.840  1.00  0.00     0.210 HD
HETATM   23  N5  UNL     1      27.647  66.751  19.494  1.00  0.00    -0.257 N 
ATOM     24  H4  UNL     1      29.184  68.194  19.572  1.00  0.00     0.210 HD
BRANCH  23  25
HETATM   25  C11 UNL     1      27.856  66.153  18.193  1.00  0.00     0.111 A 
HETATM   26  C12 UNL     1      28.288  64.714  18.138  1.00  0.00     0.029 A 
HETATM   27  C13 UNL     1      29.224  65.821  17.724  1.00  0.00     0.029 A 
ENDBRANCH  23  25
ENDBRANCH   1  17
TORSDOF 5
ENDMDL
MODEL 4
REMARK VINA RESULT: -5.783506574      2.788      5.900
REMARK  5 active torsions:
REMARK  status: ('A' for Active; 'I' for Inactive)
REMARK    1  A    between atoms: N1_2  and  C2_3 
REMARK    2  A    between atoms: N1_2  and  S2_24 
REMARK    3  A    between atoms: C2_3  and  C3_4 
REMARK    4  A    between atoms: C2_3  and  C10_13 
REMARK    5  A    between atoms: N5_20  and  C11_21 
ROOT
HETATM    1  C2  UNL     1      26.066  65.757  19.030  1.00  0.00     0.170 C 
ENDROOT
BRANCH   1   2
HETATM    2  N1  UNL     1      26.186  64.331  19.177  1.00  0.00    -0.200 NA
HETATM    3  C1  UNL     1      27.154  63.726  18.317  1.00  0.00     0.130 C 
BRANCH   2   4
HETATM    4  S2  UNL     1      24.675  63.532  18.892  1.00  0.00     0.208 S 
HETATM    5  C14 UNL     1      24.916  61.876  18.351  1.00  0.00     0.180 C 
HETATM    6  O2  UNL     1      23.858  63.612  20.157  1.00  0.00    -0.212 OA
HETATM    7  O3  UNL     1      23.989  64.285  17.778  1.00  0.00    -0.212 OA
ENDBRANCH   2   4
ENDBRANCH   1   2
BRANCH   1   8
HETATM    8  C3  UNL     1      27.230  66.384  18.370  1.00  0.00     0.045 C 
HETATM    9  C4  UNL     1      27.313  67.619  17.941  1.00  0.00     0.104 C 
HETATM   10  O1  UNL     1      26.303  68.571  18.033  1.00  0.00    -0.334 OA
HETATM   11  S1  UNL     1      28.816  68.193  17.165  1.00  0.00    -0.105 SA
HETATM   12  C5  UNL     1      26.529  69.904  17.564  1.00  0.00     0.062 C 
HETATM   13  C6  UNL     1      27.499  70.648  18.445  1.00  0.00     0.046 C 
HETATM   14  C7  UNL     1      25.198  70.617  17.647  1.00  0.00     0.046 C 
HETATM   15  C8  UNL     1      26.956  69.854  16.128  1.00  0.00     0.048 C 
HETATM   16  C9  UNL     1      28.381  69.431  15.938  1.00  0.00     0.084 C 
ENDBRANCH   1   8
BRANCH   1  17
HETATM   17  C10 UNL     1      25.739  66.309  20.360  1.00  0.00     0.138 A 
HETATM   18  N2  UNL     1      26.541  66.253  21.442  1.00  0.00    -0.270 N 
HETATM   19  N3  UNL     1      25.941  66.829  22.457  1.00  0.00    -0.227 N 
ATOM     20  H2  UNL     1      27.469  65.830  21.469  1.00  0.00     0.190 HD
HETATM   21  N4  UNL     1      24.761  67.269  22.080  1.00  0.00    -0.224 N 
ATOM     22  H3  UNL     1      26.331  66.922  23.395  1.00  0.00     0.210 HD
HETATM   23  N5  UNL     1      24.634  66.950  20.790  1.00  0.00    -0.257 N 
ATOM     24  H4  UNL     1      24.077  67.757  22.659  1.00  0.00     0.210 HD
BRANCH  23  25
HETATM   25  C11 UNL     1      23.477  67.247  19.973  1.00  0.00     0.111 A 
HETATM   26  C12 UNL     1      22.666  68.467  20.315  1.00  0.00     0.029 A 
HETATM   27  C13 UNL     1      22.106  67.081  20.514  1.00  0.00     0.029 A 
ENDBRANCH  23  25
ENDBRANCH   1  17
TORSDOF 5
ENDMDL
MODEL 5
REMARK VINA RESULT: -5.706202141      2.778      5.648
REMARK  5 active torsions:
REMARK  status: ('A' for Active; 'I' for Inactive)
REMARK    1  A    between atoms: N1_2  and  C2_3 
REMARK    2  A    between atoms: N1_2  and  S2_24 
REMARK    3  A    between atoms: C2_3  and  C3_4 
REMARK    4  A    between atoms: C2_3  and  C10_13 
REMARK    5  A    between atoms: N5_20  and  C11_21 
ROOT
HETATM    1  C2  UNL     1      25.601  63.848  18.738  1.00  0.00     0.170 C 
ENDROOT
BRANCH   1   2
HETATM    2  N1  UNL     1      25.563  62.419  18.576  1.00  0.00    -0.200 NA
HETATM    3  C1  UNL     1      24.269  61.890  18.279  1.00  0.00     0.130 C 
BRANCH   2   4
HETATM    4  S2  UNL     1      26.140  61.602  19.990  1.00  0.00     0.208 S 
HETATM    5  C14 UNL     1      25.004  60.373  20.532  1.00  0.00     0.180 C 
HETATM    6  O2  UNL     1      27.502  61.032  19.678  1.00  0.00    -0.212 OA
HETATM    7  O3  UNL     1      26.246  62.642  21.079  1.00  0.00    -0.212 OA
ENDBRANCH   2   4
ENDBRANCH   1   2
BRANCH   1   8
HETATM    8  C3  UNL     1      24.421  64.538  18.176  1.00  0.00     0.045 C 
HETATM    9  C4  UNL     1      23.735  65.499  18.745  1.00  0.00     0.104 C 
HETATM   10  O1  UNL     1      24.002  66.045  19.996  1.00  0.00    -0.334 OA
HETATM   11  S1  UNL     1      22.331  66.211  17.899  1.00  0.00    -0.105 SA
HETATM   12  C5  UNL     1      23.202  67.123  20.493  1.00  0.00     0.062 C 
HETATM   13  C6  UNL     1      23.452  68.399  19.730  1.00  0.00     0.046 C 
HETATM   14  C7  UNL     1      23.637  67.354  21.922  1.00  0.00     0.046 C 
HETATM   15  C8  UNL     1      21.762  66.708  20.491  1.00  0.00     0.048 C 
HETATM   16  C9  UNL     1      21.131  66.726  19.132  1.00  0.00     0.084 C 
ENDBRANCH   1   8
BRANCH   1  17
HETATM   17  C10 UNL     1      26.898  64.315  18.210  1.00  0.00     0.138 A 
HETATM   18  N2  UNL     1      27.559  63.762  17.173  1.00  0.00    -0.270 N 
HETATM   19  N3  UNL     1      28.680  64.415  16.976  1.00  0.00    -0.227 N 
ATOM     20  H2  UNL     1      27.239  62.962  16.628  1.00  0.00     0.190 HD
HETATM   21  N4  UNL     1      28.783  65.390  17.852  1.00  0.00    -0.224 N 
ATOM     22  H3  UNL     1      29.366  64.200  16.252  1.00  0.00     0.210 HD
HETATM   23  N5  UNL     1      27.689  65.330  18.613  1.00  0.00    -0.257 N 
ATOM     24  H4  UNL     1      29.549  66.059  17.934  1.00  0.00     0.210 HD
BRANCH  23  25
HETATM   25  C11 UNL     1      27.394  66.224  19.712  1.00  0.00     0.111 A 
HETATM   26  C12 UNL     1      27.050  67.652  19.388  1.00  0.00     0.029 A 
HETATM   27  C13 UNL     1      28.341  67.304  20.084  1.00  0.00     0.029 A 
ENDBRANCH  23  25
ENDBRANCH   1  17
TORSDOF 5
ENDMDL
