MODEL 1
REMARK VINA RESULT: -7.118488799      0.000      0.000
REMARK  10 active torsions:
REMARK  status: ('A' for Active; 'I' for Inactive)
REMARK    1  A    between atoms: C2_2  and  O1_3 
REMARK    2  A    between atoms: O1_3  and  C3_4 
REMARK    3  A    between atoms: C3_4  and  C4_6 
REMARK    4  A    between atoms: C6_8  and  C7_9 
REMARK    5  A    between atoms: C7_9  and  O4_11 
REMARK    6  A    between atoms: O4_11  and  C8_12 
REMARK    7  A    between atoms: C12_16  and  O5_17 
REMARK    8  A    between atoms: C17_25  and  O8_26 
REMARK    9  A    between atoms: C17_25  and  C18_28 
REMARK   10  A    between atoms: C18_28  and  O10_30 
ROOT
HETATM    1  C4  UNL     1      16.157 -20.142  30.250  1.00  0.00     0.131 C 
HETATM    2  C5  UNL     1      14.923 -20.680  29.606  1.00  0.00     0.038 C 
HETATM    3  C6  UNL     1      14.774 -22.118  30.120  1.00  0.00     0.150 C 
HETATM    4  C12 UNL     1      14.340 -21.942  31.550  1.00  0.00     0.190 C 
HETATM    5  O6  UNL     1      13.973 -23.159  32.163  1.00  0.00    -0.282 OA
HETATM    6  C13 UNL     1      13.907 -23.148  33.563  1.00  0.00     0.261 C 
HETATM    7  O7  UNL     1      13.632 -24.224  34.145  1.00  0.00    -0.265 OA
HETATM    8  C14 UNL     1      14.139 -21.952  34.373  1.00  0.00     0.112 C 
HETATM    9  C15 UNL     1      14.710 -20.793  33.634  1.00  0.00     0.023 C 
HETATM   10  C16 UNL     1      15.407 -21.305  32.362  1.00  0.00     0.095 C 
HETATM   11  C17 UNL     1      16.185 -20.232  31.733  1.00  0.00     0.166 C 
ENDROOT
BRANCH   3  12
HETATM   12  C7  UNL     1      13.852 -22.909  29.318  1.00  0.00     0.269 C 
HETATM   13  O3  UNL     1      12.688 -22.505  29.019  1.00  0.00    -0.265 OA
BRANCH  12  14
HETATM   14  O4  UNL     1      14.203 -24.169  28.832  1.00  0.00    -0.311 OA
BRANCH  14  15
HETATM   15  C8  UNL     1      14.482 -24.354  27.451  1.00  0.00     0.060 C 
HETATM   16  C9  UNL     1      15.543 -25.457  27.389  1.00  0.00     0.045 C 
HETATM   17  C10 UNL     1      15.028 -23.123  26.808  1.00  0.00     0.045 C 
HETATM   18  C11 UNL     1      13.293 -24.845  26.689  1.00  0.00     0.045 C 
ENDBRANCH  14  15
ENDBRANCH  12  14
ENDBRANCH   3  12
BRANCH   4  19
HETATM   19  O5  UNL     1      13.199 -21.125  31.533  1.00  0.00    -0.364 OA
ATOM     20  H5  UNL     1      12.514 -21.599  31.992  1.00  0.00     0.213 HD
ENDBRANCH   4  19
BRANCH   1  21
HETATM   21  C3  UNL     1      16.285 -18.705  29.836  1.00  0.00     0.266 C 
HETATM   22  O2  UNL     1      15.360 -18.087  29.250  1.00  0.00    -0.265 OA
BRANCH  21  23
HETATM   23  O1  UNL     1      17.448 -17.983  30.087  1.00  0.00    -0.321 OA
BRANCH  23  24
HETATM   24  C2  UNL     1      18.658 -18.175  29.415  1.00  0.00     0.174 C 
HETATM   25  C1  UNL     1      18.481 -17.656  27.993  1.00  0.00     0.034 C 
ENDBRANCH  23  24
ENDBRANCH  21  23
ENDBRANCH   1  21
BRANCH  11  26
HETATM   26  O8  UNL     1      15.758 -18.996  32.270  1.00  0.00    -0.378 OA
ATOM     27  H8  UNL     1      14.978 -19.144  32.792  1.00  0.00     0.211 HD
ENDBRANCH  11  26
BRANCH  11  28
HETATM   28  C18 UNL     1      17.615 -20.367  32.145  1.00  0.00     0.294 C 
HETATM   29  O9  UNL     1      18.122 -19.811  33.122  1.00  0.00    -0.262 OA
BRANCH  28  30
HETATM   30  O10 UNL     1      18.409 -21.185  31.352  1.00  0.00    -0.324 OA
HETATM   31  C19 UNL     1      19.131 -22.283  31.820  1.00  0.00     0.213 C 
ENDBRANCH  28  30
ENDBRANCH  11  28
TORSDOF 10
ENDMDL
MODEL 2
REMARK VINA RESULT: -6.903245755      1.973      3.267
REMARK  10 active torsions:
REMARK  status: ('A' for Active; 'I' for Inactive)
REMARK    1  A    between atoms: C2_2  and  O1_3 
REMARK    2  A    between atoms: O1_3  and  C3_4 
REMARK    3  A    between atoms: C3_4  and  C4_6 
REMARK    4  A    between atoms: C6_8  and  C7_9 
REMARK    5  A    between atoms: C7_9  and  O4_11 
REMARK    6  A    between atoms: O4_11  and  C8_12 
REMARK    7  A    between atoms: C12_16  and  O5_17 
REMARK    8  A    between atoms: C17_25  and  O8_26 
REMARK    9  A    between atoms: C17_25  and  C18_28 
REMARK   10  A    between atoms: C18_28  and  O10_30 
ROOT
HETATM    1  C4  UNL     1      16.315 -20.714  30.975  1.00  0.00     0.131 C 
HETATM    2  C5  UNL     1      16.148 -20.829  29.497  1.00  0.00     0.038 C 
HETATM    3  C6  UNL     1      14.993 -21.816  29.281  1.00  0.00     0.150 C 
HETATM    4  C12 UNL     1      13.774 -21.030  29.682  1.00  0.00     0.190 C 
HETATM    5  O6  UNL     1      12.568 -21.704  29.388  1.00  0.00    -0.282 OA
HETATM    6  C13 UNL     1      11.423 -21.228  30.039  1.00  0.00     0.261 C 
HETATM    7  O7  UNL     1      10.343 -21.833  29.841  1.00  0.00    -0.265 OA
HETATM    8  C14 UNL     1      11.423 -20.068  30.931  1.00  0.00     0.112 C 
HETATM    9  C15 UNL     1      12.773 -19.571  31.315  1.00  0.00     0.023 C 
HETATM   10  C16 UNL     1      13.794 -20.706  31.130  1.00  0.00     0.095 C 
HETATM   11  C17 UNL     1      15.086 -20.338  31.721  1.00  0.00     0.166 C 
ENDROOT
BRANCH   3  12
HETATM   12  C7  UNL     1      14.940 -22.331  27.920  1.00  0.00     0.269 C 
HETATM   13  O3  UNL     1      15.332 -23.497  27.616  1.00  0.00    -0.265 OA
BRANCH  12  14
HETATM   14  O4  UNL     1      14.449 -21.559  26.866  1.00  0.00    -0.311 OA
BRANCH  14  15
HETATM   15  C8  UNL     1      15.317 -21.120  25.831  1.00  0.00     0.060 C 
HETATM   16  C9  UNL     1      14.448 -20.277  24.893  1.00  0.00     0.045 C 
HETATM   17  C10 UNL     1      15.904 -22.253  25.058  1.00  0.00     0.045 C 
HETATM   18  C11 UNL     1      16.405 -20.229  26.339  1.00  0.00     0.045 C 
ENDBRANCH  14  15
ENDBRANCH  12  14
ENDBRANCH   3  12
BRANCH   4  19
HETATM   19  O5  UNL     1      13.782 -19.848  28.926  1.00  0.00    -0.364 OA
ATOM     20  H5  UNL     1      13.533 -19.143  29.512  1.00  0.00     0.213 HD
ENDBRANCH   4  19
BRANCH   1  21
HETATM   21  C3  UNL     1      17.382 -19.687  31.223  1.00  0.00     0.266 C 
HETATM   22  O2  UNL     1      18.217 -19.794  32.157  1.00  0.00    -0.265 OA
BRANCH  21  23
HETATM   23  O1  UNL     1      17.496 -18.557  30.418  1.00  0.00    -0.321 OA
BRANCH  23  24
HETATM   24  C2  UNL     1      18.694 -18.094  29.869  1.00  0.00     0.174 C 
HETATM   25  C1  UNL     1      18.428 -17.754  28.408  1.00  0.00     0.034 C 
ENDBRANCH  23  24
ENDBRANCH  21  23
ENDBRANCH   1  21
BRANCH  11  26
HETATM   26  O8  UNL     1      15.097 -18.940  31.938  1.00  0.00    -0.378 OA
ATOM     27  H8  UNL     1      14.412 -18.723  32.558  1.00  0.00     0.211 HD
ENDBRANCH  11  26
BRANCH  11  28
HETATM   28  C18 UNL     1      15.186 -20.948  33.082  1.00  0.00     0.294 C 
HETATM   29  O9  UNL     1      14.831 -20.399  34.127  1.00  0.00    -0.262 OA
BRANCH  28  30
HETATM   30  O10 UNL     1      15.721 -22.228  33.144  1.00  0.00    -0.324 OA
HETATM   31  C19 UNL     1      14.995 -23.375  33.463  1.00  0.00     0.213 C 
ENDBRANCH  28  30
ENDBRANCH  11  28
TORSDOF 10
ENDMDL
MODEL 3
REMARK VINA RESULT: -6.856995762      1.719      1.968
REMARK  10 active torsions:
REMARK  status: ('A' for Active; 'I' for Inactive)
REMARK    1  A    between atoms: C2_2  and  O1_3 
REMARK    2  A    between atoms: O1_3  and  C3_4 
REMARK    3  A    between atoms: C3_4  and  C4_6 
REMARK    4  A    between atoms: C6_8  and  C7_9 
REMARK    5  A    between atoms: C7_9  and  O4_11 
REMARK    6  A    between atoms: O4_11  and  C8_12 
REMARK    7  A    between atoms: C12_16  and  O5_17 
REMARK    8  A    between atoms: C17_25  and  O8_26 
REMARK    9  A    between atoms: C17_25  and  C18_28 
REMARK   10  A    between atoms: C18_28  and  O10_30 
ROOT
HETATM    1  C4  UNL     1      16.072 -20.984  30.820  1.00  0.00     0.131 C 
HETATM    2  C5  UNL     1      15.115 -21.999  30.291  1.00  0.00     0.038 C 
HETATM    3  C6  UNL     1      15.806 -23.358  30.463  1.00  0.00     0.150 C 
HETATM    4  C12 UNL     1      15.747 -23.603  31.947  1.00  0.00     0.190 C 
HETATM    5  O6  UNL     1      16.178 -24.899  32.305  1.00  0.00    -0.282 OA
HETATM    6  C13 UNL     1      16.496 -25.090  33.656  1.00  0.00     0.261 C 
HETATM    7  O7  UNL     1      16.930 -26.215  34.001  1.00  0.00    -0.265 OA
HETATM    8  C14 UNL     1      16.348 -24.052  34.676  1.00  0.00     0.112 C 
HETATM    9  C15 UNL     1      16.081 -22.685  34.148  1.00  0.00     0.023 C 
HETATM   10  C16 UNL     1      16.563 -22.610  32.690  1.00  0.00     0.095 C 
HETATM   11  C17 UNL     1      16.541 -21.223  32.211  1.00  0.00     0.166 C 
ENDROOT
BRANCH   3  12
HETATM   12  C7  UNL     1      15.187 -24.409  29.668  1.00  0.00     0.269 C 
HETATM   13  O3  UNL     1      14.180 -25.065  30.071  1.00  0.00    -0.265 OA
BRANCH  12  14
HETATM   14  O4  UNL     1      15.674 -24.753  28.408  1.00  0.00    -0.311 OA
BRANCH  14  15
HETATM   15  C8  UNL     1      14.977 -24.359  27.235  1.00  0.00     0.060 C 
HETATM   16  C9  UNL     1      15.561 -25.208  26.101  1.00  0.00     0.045 C 
HETATM   17  C10 UNL     1      15.174 -22.917  26.909  1.00  0.00     0.045 C 
HETATM   18  C11 UNL     1      13.516 -24.672  27.308  1.00  0.00     0.045 C 
ENDBRANCH  14  15
ENDBRANCH  12  14
ENDBRANCH   3  12
BRANCH   4  19
HETATM   19  O5  UNL     1      14.399 -23.495  32.325  1.00  0.00    -0.364 OA
ATOM     20  H5  UNL     1      14.061 -24.380  32.397  1.00  0.00     0.213 HD
ENDBRANCH   4  19
BRANCH   1  21
HETATM   21  C3  UNL     1      15.391 -19.649  30.747  1.00  0.00     0.266 C 
HETATM   22  O2  UNL     1      14.165 -19.503  30.987  1.00  0.00    -0.265 OA
BRANCH  21  23
HETATM   23  O1  UNL     1      16.096 -18.498  30.407  1.00  0.00    -0.321 OA
BRANCH  23  24
HETATM   24  C2  UNL     1      17.178 -18.465  29.525  1.00  0.00     0.174 C 
HETATM   25  C1  UNL     1      16.628 -18.663  28.117  1.00  0.00     0.034 C 
ENDBRANCH  23  24
ENDBRANCH  21  23
ENDBRANCH   1  21
BRANCH  11  26
HETATM   26  O8  UNL     1      15.745 -20.458  33.095  1.00  0.00    -0.378 OA
ATOM     27  H8  UNL     1      16.236 -19.689  33.358  1.00  0.00     0.211 HD
ENDBRANCH  11  26
BRANCH  11  28
HETATM   28  C18 UNL     1      17.916 -20.651  32.323  1.00  0.00     0.294 C 
HETATM   29  O9  UNL     1      18.248 -19.767  33.117  1.00  0.00    -0.262 OA
BRANCH  28  30
HETATM   30  O10 UNL     1      18.871 -21.171  31.460  1.00  0.00    -0.324 OA
HETATM   31  C19 UNL     1      19.766 -22.189  31.789  1.00  0.00     0.213 C 
ENDBRANCH  28  30
ENDBRANCH  11  28
TORSDOF 10
ENDMDL
MODEL 4
REMARK VINA RESULT: -6.762865120      2.087      4.116
REMARK  10 active torsions:
REMARK  status: ('A' for Active; 'I' for Inactive)
REMARK    1  A    between atoms: C2_2  and  O1_3 
REMARK    2  A    between atoms: O1_3  and  C3_4 
REMARK    3  A    between atoms: C3_4  and  C4_6 
REMARK    4  A    between atoms: C6_8  and  C7_9 
REMARK    5  A    between atoms: C7_9  and  O4_11 
REMARK    6  A    between atoms: O4_11  and  C8_12 
REMARK    7  A    between atoms: C12_16  and  O5_17 
REMARK    8  A    between atoms: C17_25  and  O8_26 
REMARK    9  A    between atoms: C17_25  and  C18_28 
REMARK   10  A    between atoms: C18_28  and  O10_30 
ROOT
HETATM    1  C4  UNL     1      17.087 -21.288  31.612  1.00  0.00     0.131 C 
HETATM    2  C5  UNL     1      17.013 -20.107  30.703  1.00  0.00     0.038 C 
HETATM    3  C6  UNL     1      15.952 -20.452  29.651  1.00  0.00     0.150 C 
HETATM    4  C12 UNL     1      14.654 -20.358  30.409  1.00  0.00     0.190 C 
HETATM    5  O6  UNL     1      13.523 -20.468  29.571  1.00  0.00    -0.282 OA
HETATM    6  C13 UNL     1      12.309 -20.750  30.211  1.00  0.00     0.261 C 
HETATM    7  O7  UNL     1      11.292 -20.905  29.495  1.00  0.00    -0.265 OA
HETATM    8  C14 UNL     1      12.170 -20.872  31.663  1.00  0.00     0.112 C 
HETATM    9  C15 UNL     1      13.454 -20.935  32.414  1.00  0.00     0.023 C 
HETATM   10  C16 UNL     1      14.568 -21.399  31.462  1.00  0.00     0.095 C 
HETATM   11  C17 UNL     1      15.792 -21.705  32.211  1.00  0.00     0.166 C 
ENDROOT
BRANCH   3  12
HETATM   12  C7  UNL     1      16.015 -19.587  28.482  1.00  0.00     0.269 C 
HETATM   13  O3  UNL     1      15.652 -18.373  28.512  1.00  0.00    -0.265 OA
BRANCH  12  14
HETATM   14  O4  UNL     1      16.484 -20.052  27.254  1.00  0.00    -0.311 OA
BRANCH  14  15
HETATM   15  C8  UNL     1      15.589 -20.631  26.315  1.00  0.00     0.060 C 
HETATM   16  C9  UNL     1      15.223 -22.005  26.885  1.00  0.00     0.045 C 
HETATM   17  C10 UNL     1      16.210 -20.816  24.971  1.00  0.00     0.045 C 
HETATM   18  C11 UNL     1      14.316 -19.857  26.188  1.00  0.00     0.045 C 
ENDBRANCH  14  15
ENDBRANCH  12  14
ENDBRANCH   3  12
BRANCH   4  19
HETATM   19  O5  UNL     1      14.615 -19.081  30.992  1.00  0.00    -0.364 OA
ATOM     20  H5  UNL     1      15.443 -18.660  30.791  1.00  0.00     0.213 HD
ENDBRANCH   4  19
BRANCH   1  21
HETATM   21  C3  UNL     1      18.056 -20.948  32.707  1.00  0.00     0.266 C 
HETATM   22  O2  UNL     1      18.226 -19.771  33.115  1.00  0.00    -0.265 OA
BRANCH  21  23
HETATM   23  O1  UNL     1      18.818 -21.934  33.327  1.00  0.00    -0.321 OA
BRANCH  23  24
HETATM   24  C2  UNL     1      19.345 -23.052  32.676  1.00  0.00     0.174 C 
HETATM   25  C1  UNL     1      20.860 -22.999  32.827  1.00  0.00     0.034 C 
ENDBRANCH  23  24
ENDBRANCH  21  23
ENDBRANCH   1  21
BRANCH  11  26
HETATM   26  O8  UNL     1      15.684 -21.131  33.499  1.00  0.00    -0.378 OA
ATOM     27  H8  UNL     1      14.769 -20.940  33.671  1.00  0.00     0.211 HD
ENDBRANCH  11  26
BRANCH  11  28
HETATM   28  C18 UNL     1      15.861 -23.180  32.442  1.00  0.00     0.294 C 
HETATM   29  O9  UNL     1      16.070 -24.021  31.565  1.00  0.00    -0.262 OA
BRANCH  28  30
HETATM   30  O10 UNL     1      15.674 -23.606  33.750  1.00  0.00    -0.324 OA
HETATM   31  C19 UNL     1      16.374 -24.653  34.350  1.00  0.00     0.213 C 
ENDBRANCH  28  30
ENDBRANCH  11  28
TORSDOF 10
ENDMDL
MODEL 5
REMARK VINA RESULT: -6.759723916      1.764      2.813
REMARK  10 active torsions:
REMARK  status: ('A' for Active; 'I' for Inactive)
REMARK    1  A    between atoms: C2_2  and  O1_3 
REMARK    2  A    between atoms: O1_3  and  C3_4 
REMARK    3  A    between atoms: C3_4  and  C4_6 
REMARK    4  A    between atoms: C6_8  and  C7_9 
REMARK    5  A    between atoms: C7_9  and  O4_11 
REMARK    6  A    between atoms: O4_11  and  C8_12 
REMARK    7  A    between atoms: C12_16  and  O5_17 
REMARK    8  A    between atoms: C17_25  and  O8_26 
REMARK    9  A    between atoms: C17_25  and  C18_28 
REMARK   10  A    between atoms: C18_28  and  O10_30 
ROOT
HETATM    1  C4  UNL     1      16.341 -20.690  30.778  1.00  0.00     0.131 C 
HETATM    2  C5  UNL     1      16.125 -20.825  29.308  1.00  0.00     0.038 C 
HETATM    3  C6  UNL     1      14.973 -21.825  29.143  1.00  0.00     0.150 C 
HETATM    4  C12 UNL     1      13.760 -21.045  29.576  1.00  0.00     0.190 C 
HETATM    5  O6  UNL     1      12.552 -21.733  29.331  1.00  0.00    -0.282 OA
HETATM    6  C13 UNL     1      11.425 -21.259  30.014  1.00  0.00     0.261 C 
HETATM    7  O7  UNL     1      10.344 -21.876  29.860  1.00  0.00    -0.265 OA
HETATM    8  C14 UNL     1      11.444 -20.087  30.891  1.00  0.00     0.112 C 
HETATM    9  C15 UNL     1      12.802 -19.574  31.224  1.00  0.00     0.023 C 
HETATM   10  C16 UNL     1      13.826 -20.702  31.018  1.00  0.00     0.095 C 
HETATM   11  C17 UNL     1      15.134 -20.316  31.561  1.00  0.00     0.166 C 
ENDROOT
BRANCH   3  12
HETATM   12  C7  UNL     1      14.878 -22.357  27.791  1.00  0.00     0.269 C 
HETATM   13  O3  UNL     1      15.325 -21.736  26.781  1.00  0.00    -0.265 OA
BRANCH  12  14
HETATM   14  O4  UNL     1      14.285 -23.593  27.533  1.00  0.00    -0.311 OA
BRANCH  14  15
HETATM   15  C8  UNL     1      15.067 -24.778  27.523  1.00  0.00     0.060 C 
HETATM   16  C9  UNL     1      14.116 -25.905  27.936  1.00  0.00     0.045 C 
HETATM   17  C10 UNL     1      16.200 -24.724  28.493  1.00  0.00     0.045 C 
HETATM   18  C11 UNL     1      15.578 -25.113  26.158  1.00  0.00     0.045 C 
ENDBRANCH  14  15
ENDBRANCH  12  14
ENDBRANCH   3  12
BRANCH   4  19
HETATM   19  O5  UNL     1      13.732 -19.872  28.805  1.00  0.00    -0.364 OA
ATOM     20  H5  UNL     1      12.884 -19.842  28.379  1.00  0.00     0.213 HD
ENDBRANCH   4  19
BRANCH   1  21
HETATM   21  C3  UNL     1      17.406 -19.651  30.978  1.00  0.00     0.266 C 
HETATM   22  O2  UNL     1      18.332 -19.787  31.817  1.00  0.00    -0.265 OA
BRANCH  21  23
HETATM   23  O1  UNL     1      17.415 -18.476  30.231  1.00  0.00    -0.321 OA
BRANCH  23  24
HETATM   24  C2  UNL     1      18.539 -17.963  29.579  1.00  0.00     0.174 C 
HETATM   25  C1  UNL     1      18.187 -17.822  28.103  1.00  0.00     0.034 C 
ENDBRANCH  23  24
ENDBRANCH  21  23
ENDBRANCH   1  21
BRANCH  11  26
HETATM   26  O8  UNL     1      15.139 -18.915  31.760  1.00  0.00    -0.378 OA
ATOM     27  H8  UNL     1      15.991 -18.576  31.510  1.00  0.00     0.211 HD
ENDBRANCH  11  26
BRANCH  11  28
HETATM   28  C18 UNL     1      15.285 -20.908  32.925  1.00  0.00     0.294 C 
HETATM   29  O9  UNL     1      14.941 -20.357  33.973  1.00  0.00    -0.262 OA
BRANCH  28  30
HETATM   30  O10 UNL     1      15.858 -22.171  32.987  1.00  0.00    -0.324 OA
HETATM   31  C19 UNL     1      15.287 -23.269  33.629  1.00  0.00     0.213 C 
ENDBRANCH  28  30
ENDBRANCH  11  28
TORSDOF 10
ENDMDL
