MODEL 1
REMARK VINA RESULT: -7.811377404      0.000      0.000
REMARK  4 active torsions:
REMARK  status: ('A' for Active; 'I' for Inactive)
REMARK    1  A    between atoms: C3_3  and  C4_4 
REMARK    2  A    between atoms: C4_4  and  C5_5 
REMARK    3  A    between atoms: C9_9  and  N1_10 
REMARK    4  A    between atoms: C11_12  and  C12_13 
ROOT
HETATM    1  C5  UNL     1      12.276   9.728   3.350  1.00  0.00    -0.009 C 
HETATM    2  C6  UNL     1      12.782   9.366   1.974  1.00  0.00     0.005 C 
HETATM    3  C7  UNL     1      11.991  10.230   1.021  1.00  0.00     0.002 C 
HETATM    4  C8  UNL     1      10.567   9.827   1.057  1.00  0.00     0.027 C 
HETATM    5  C9  UNL     1       9.939   9.699   2.390  1.00  0.00     0.108 C 
HETATM    6  C14 UNL     1      10.828   9.512   3.555  1.00  0.00     0.032 C 
ENDROOT
BRANCH   5   7
HETATM    7  N1  UNL     1       9.014  10.818   2.600  1.00  0.00    -0.296 N 
HETATM    8  C10 UNL     1       9.044  12.049   2.061  1.00  0.00     0.130 A 
HETATM    9  C11 UNL     1       7.988  12.792   2.526  1.00  0.00     0.085 A 
HETATM   10  C13 UNL     1       7.303  11.940   3.386  1.00  0.00     0.132 A 
HETATM   11  S1  UNL     1       5.952  12.385   4.191  1.00  0.00    -0.058 SA
HETATM   12  N3  UNL     1       7.963  10.767   3.392  1.00  0.00    -0.287 N 
ATOM     13  H3  UNL     1       7.687   9.950   3.936  1.00  0.00     0.188 HD
BRANCH   9  14
HETATM   14  C12 UNL     1       7.667  14.168   2.183  1.00  0.00     0.269 C 
HETATM   15  N2  UNL     1       8.132  15.217   3.017  1.00  0.00    -0.057 NA
HETATM   16  O1  UNL     1       6.985  14.442   1.167  1.00  0.00    -0.271 OA
ENDBRANCH   9  14
ENDBRANCH   5   7
BRANCH   1  17
HETATM   17  C4  UNL     1      13.109   9.045   4.414  1.00  0.00     0.031 C 
BRANCH  17  18
HETATM   18  C3  UNL     1      13.828  10.007   5.287  1.00  0.00    -0.031 C 
HETATM   19  C2  UNL     1      15.098  10.342   5.101  1.00  0.00    -0.035 C 
HETATM   20  C1  UNL     1      15.873   9.739   3.965  1.00  0.00     0.036 C 
ENDBRANCH  17  18
ENDBRANCH   1  17
TORSDOF 4
ENDMDL
MODEL 2
REMARK VINA RESULT: -7.707826280      1.564      2.004
REMARK  4 active torsions:
REMARK  status: ('A' for Active; 'I' for Inactive)
REMARK    1  A    between atoms: C3_3  and  C4_4 
REMARK    2  A    between atoms: C4_4  and  C5_5 
REMARK    3  A    between atoms: C9_9  and  N1_10 
REMARK    4  A    between atoms: C11_12  and  C12_13 
ROOT
HETATM    1  C5  UNL     1      12.257   9.699   3.354  1.00  0.00    -0.009 C 
HETATM    2  C6  UNL     1      12.756   9.401   1.959  1.00  0.00     0.005 C 
HETATM    3  C7  UNL     1      11.910  10.255   1.046  1.00  0.00     0.002 C 
HETATM    4  C8  UNL     1      10.507   9.785   1.092  1.00  0.00     0.027 C 
HETATM    5  C9  UNL     1       9.908   9.589   2.430  1.00  0.00     0.108 C 
HETATM    6  C14 UNL     1      10.824   9.409   3.575  1.00  0.00     0.032 C 
ENDROOT
BRANCH   5   7
HETATM    7  N1  UNL     1       8.936  10.656   2.688  1.00  0.00    -0.296 N 
HETATM    8  C10 UNL     1       7.859  10.639   3.491  1.00  0.00     0.130 A 
HETATM    9  C11 UNL     1       7.216  11.850   3.444  1.00  0.00     0.085 A 
HETATM   10  C13 UNL     1       7.967  12.618   2.560  1.00  0.00     0.132 A 
HETATM   11  S1  UNL     1       7.587  14.161   2.177  1.00  0.00    -0.058 SA
HETATM   12  N3  UNL     1       8.988  11.851   2.137  1.00  0.00    -0.287 N 
ATOM     13  H3  UNL     1       9.706  12.154   1.478  1.00  0.00     0.188 HD
BRANCH   9  14
HETATM   14  C12 UNL     1       6.015  12.234   4.168  1.00  0.00     0.269 C 
HETATM   15  N2  UNL     1       4.784  11.602   3.853  1.00  0.00    -0.057 NA
HETATM   16  O1  UNL     1       6.047  13.113   5.061  1.00  0.00    -0.271 OA
ENDBRANCH   9  14
ENDBRANCH   5   7
BRANCH   1  17
HETATM   17  C4  UNL     1      13.139   9.025   4.384  1.00  0.00     0.031 C 
BRANCH  17  18
HETATM   18  C3  UNL     1      13.836   9.994   5.267  1.00  0.00    -0.031 C 
HETATM   19  C2  UNL     1      15.101  10.354   5.088  1.00  0.00    -0.035 C 
HETATM   20  C1  UNL     1      15.892   9.773   3.951  1.00  0.00     0.036 C 
ENDBRANCH  17  18
ENDBRANCH   1  17
TORSDOF 4
ENDMDL
MODEL 3
REMARK VINA RESULT: -7.650620068      1.940      2.016
REMARK  4 active torsions:
REMARK  status: ('A' for Active; 'I' for Inactive)
REMARK    1  A    between atoms: C3_3  and  C4_4 
REMARK    2  A    between atoms: C4_4  and  C5_5 
REMARK    3  A    between atoms: C9_9  and  N1_10 
REMARK    4  A    between atoms: C11_12  and  C12_13 
ROOT
HETATM    1  C5  UNL     1      12.204   9.728   3.448  1.00  0.00    -0.009 C 
HETATM    2  C6  UNL     1      12.974   9.816   2.151  1.00  0.00     0.005 C 
HETATM    3  C7  UNL     1      12.048  10.519   1.188  1.00  0.00     0.002 C 
HETATM    4  C8  UNL     1      10.876   9.658   0.915  1.00  0.00     0.027 C 
HETATM    5  C9  UNL     1      10.176   9.083   2.084  1.00  0.00     0.108 C 
HETATM    6  C14 UNL     1      10.921   8.999   3.358  1.00  0.00     0.032 C 
ENDROOT
BRANCH   5   7
HETATM    7  N1  UNL     1       8.890   9.763   2.263  1.00  0.00    -0.296 N 
HETATM    8  C10 UNL     1       8.450  10.471   3.318  1.00  0.00     0.130 A 
HETATM    9  C11 UNL     1       7.183  10.940   3.075  1.00  0.00     0.085 A 
HETATM   10  C13 UNL     1       6.869  10.477   1.801  1.00  0.00     0.132 A 
HETATM   11  S1  UNL     1       5.442  10.787   1.068  1.00  0.00    -0.058 SA
HETATM   12  N3  UNL     1       7.931   9.777   1.361  1.00  0.00    -0.287 N 
ATOM     13  H3  UNL     1       7.985   9.318   0.451  1.00  0.00     0.188 HD
BRANCH   9  14
HETATM   14  C12 UNL     1       6.362  11.745   3.964  1.00  0.00     0.269 C 
HETATM   15  N2  UNL     1       6.644  13.129   4.106  1.00  0.00    -0.057 NA
HETATM   16  O1  UNL     1       5.411  11.239   4.607  1.00  0.00    -0.271 OA
ENDBRANCH   9  14
ENDBRANCH   5   7
BRANCH   1  17
HETATM   17  C4  UNL     1      13.089   9.186   4.551  1.00  0.00     0.031 C 
BRANCH  17  18
HETATM   18  C3  UNL     1      13.801  10.256   5.294  1.00  0.00    -0.031 C 
HETATM   19  C2  UNL     1      15.101  10.486   5.161  1.00  0.00    -0.035 C 
HETATM   20  C1  UNL     1      15.919   9.643   4.225  1.00  0.00     0.036 C 
ENDBRANCH  17  18
ENDBRANCH   1  17
TORSDOF 4
ENDMDL
MODEL 4
REMARK VINA RESULT: -7.393433974      1.806      2.160
REMARK  4 active torsions:
REMARK  status: ('A' for Active; 'I' for Inactive)
REMARK    1  A    between atoms: C3_3  and  C4_4 
REMARK    2  A    between atoms: C4_4  and  C5_5 
REMARK    3  A    between atoms: C9_9  and  N1_10 
REMARK    4  A    between atoms: C11_12  and  C12_13 
ROOT
HETATM    1  C5  UNL     1      12.204   9.734   3.423  1.00  0.00    -0.009 C 
HETATM    2  C6  UNL     1      12.967   9.747   2.120  1.00  0.00     0.005 C 
HETATM    3  C7  UNL     1      12.074  10.474   1.145  1.00  0.00     0.002 C 
HETATM    4  C8  UNL     1      10.854   9.671   0.901  1.00  0.00     0.027 C 
HETATM    5  C9  UNL     1      10.133   9.167   2.090  1.00  0.00     0.108 C 
HETATM    6  C14 UNL     1      10.882   9.076   3.361  1.00  0.00     0.032 C 
ENDROOT
BRANCH   5   7
HETATM    7  N1  UNL     1       8.887   9.921   2.258  1.00  0.00    -0.296 N 
HETATM    8  C10 UNL     1       7.706   9.746   1.641  1.00  0.00     0.130 A 
HETATM    9  C11 UNL     1       6.798  10.671   2.091  1.00  0.00     0.085 A 
HETATM   10  C13 UNL     1       7.494  11.428   3.028  1.00  0.00     0.132 A 
HETATM   11  S1  UNL     1       6.818  12.670   3.848  1.00  0.00    -0.058 SA
HETATM   12  N3  UNL     1       8.744  10.934   3.088  1.00  0.00    -0.287 N 
ATOM     13  H3  UNL     1       9.481  11.294   3.694  1.00  0.00     0.188 HD
BRANCH   9  14
HETATM   14  C12 UNL     1       5.412  10.814   1.673  1.00  0.00     0.269 C 
HETATM   15  N2  UNL     1       5.125  11.384   0.406  1.00  0.00    -0.057 NA
HETATM   16  O1  UNL     1       4.469  10.446   2.413  1.00  0.00    -0.271 OA
ENDBRANCH   9  14
ENDBRANCH   5   7
BRANCH   1  17
HETATM   17  C4  UNL     1      13.066   9.174   4.534  1.00  0.00     0.031 C 
BRANCH  17  18
HETATM   18  C3  UNL     1      13.783  10.229   5.293  1.00  0.00    -0.031 C 
HETATM   19  C2  UNL     1      15.085  10.455   5.164  1.00  0.00    -0.035 C 
HETATM   20  C1  UNL     1      15.898   9.623   4.216  1.00  0.00     0.036 C 
ENDBRANCH  17  18
ENDBRANCH   1  17
TORSDOF 4
ENDMDL
MODEL 5
REMARK VINA RESULT: -7.364486117      1.047      1.212
REMARK  4 active torsions:
REMARK  status: ('A' for Active; 'I' for Inactive)
REMARK    1  A    between atoms: C3_3  and  C4_4 
REMARK    2  A    between atoms: C4_4  and  C5_5 
REMARK    3  A    between atoms: C9_9  and  N1_10 
REMARK    4  A    between atoms: C11_12  and  C12_13 
ROOT
HETATM    1  C5  UNL     1      11.803   9.785   2.893  1.00  0.00    -0.009 C 
HETATM    2  C6  UNL     1      12.028   9.336   1.468  1.00  0.00     0.005 C 
HETATM    3  C7  UNL     1      11.187  10.263   0.624  1.00  0.00     0.002 C 
HETATM    4  C8  UNL     1       9.754  10.025   0.910  1.00  0.00     0.027 C 
HETATM    5  C9  UNL     1       9.349  10.001   2.332  1.00  0.00     0.108 C 
HETATM    6  C14 UNL     1      10.396   9.740   3.342  1.00  0.00     0.032 C 
ENDROOT
BRANCH   5   7
HETATM    7  N1  UNL     1       8.599  11.222   2.645  1.00  0.00    -0.296 N 
HETATM    8  C10 UNL     1       8.774  12.464   2.164  1.00  0.00     0.130 A 
HETATM    9  C11 UNL     1       7.855  13.318   2.720  1.00  0.00     0.085 A 
HETATM   10  C13 UNL     1       7.100  12.522   3.575  1.00  0.00     0.132 A 
HETATM   11  S1  UNL     1       5.864  13.104   4.472  1.00  0.00    -0.058 SA
HETATM   12  N3  UNL     1       7.591  11.272   3.490  1.00  0.00    -0.287 N 
ATOM     13  H3  UNL     1       7.229  10.472   4.009  1.00  0.00     0.188 HD
BRANCH   9  14
HETATM   14  C12 UNL     1       7.712  14.742   2.460  1.00  0.00     0.269 C 
HETATM   15  N2  UNL     1       7.020  15.169   1.298  1.00  0.00    -0.057 NA
HETATM   16  O1  UNL     1       8.191  15.596   3.243  1.00  0.00    -0.271 OA
ENDBRANCH   9  14
ENDBRANCH   5   7
BRANCH   1  17
HETATM   17  C4  UNL     1      12.725   9.037   3.833  1.00  0.00     0.031 C 
BRANCH  17  18
HETATM   18  C3  UNL     1      14.113   8.936   3.317  1.00  0.00    -0.031 C 
HETATM   19  C2  UNL     1      15.140   9.561   3.880  1.00  0.00    -0.035 C 
HETATM   20  C1  UNL     1      14.922  10.417   5.094  1.00  0.00     0.036 C 
ENDBRANCH  17  18
ENDBRANCH   1  17
TORSDOF 4
ENDMDL
