MODEL 1
REMARK VINA RESULT: -8.166243547      0.000      0.000
REMARK  7 active torsions:
REMARK  status: ('A' for Active; 'I' for Inactive)
REMARK    1  A    between atoms: C2_2  and  C3_3 
REMARK    2  A    between atoms: C4_4  and  C5_5 
REMARK    3  A    between atoms: C14_14  and  O1_15 
REMARK    4  A    between atoms: O1_15  and  C15_16 
REMARK    5  A    between atoms: C15_16  and  O2_17 
REMARK    6  A    between atoms: C15_16  and  N1_19 
REMARK    7  A    between atoms: N1_19  and  N2_20 
ROOT
HETATM    1  C3  UNL     1       7.210  10.779  -0.051  1.00  0.00     0.020 C 
HETATM    2  C4  UNL     1       7.297  12.226   0.474  1.00  0.00    -0.003 C 
HETATM    3  C7  UNL     1       8.477  12.290   1.394  1.00  0.00     0.039 C 
HETATM    4  C8  UNL     1       9.385  11.235   0.737  1.00  0.00    -0.078 C 
HETATM    5  C9  UNL     1      10.661  11.052   1.386  1.00  0.00    -0.016 C 
HETATM    6  C10 UNL     1      10.915  10.253   2.562  1.00  0.00     0.038 C 
HETATM    7  C11 UNL     1       9.709   9.514   3.146  1.00  0.00     0.015 C 
HETATM    8  C12 UNL     1       9.447   8.500   2.032  1.00  0.00    -0.011 C 
HETATM    9  C13 UNL     1      10.759   8.375   1.268  1.00  0.00     0.038 C 
HETATM   10  C14 UNL     1      11.724   8.997   2.286  1.00  0.00     0.141 C 
HETATM   11  C16 UNL     1       8.287   9.031   1.291  1.00  0.00     0.014 C 
HETATM   12  C17 UNL     1       8.490  10.132   0.331  1.00  0.00     0.022 C 
ENDROOT
BRANCH  10  13
HETATM   13  O1  UNL     1      13.037   9.000   2.011  1.00  0.00    -0.298 OA
BRANCH  13  14
HETATM   14  C15 UNL     1      13.992   9.005   3.130  1.00  0.00     0.360 C 
BRANCH  14  15
HETATM   15  O2  UNL     1      13.385   8.398   4.124  1.00  0.00    -0.314 OA
ATOM     16  H2  UNL     1      14.072   8.115   4.716  1.00  0.00     0.222 HD
ENDBRANCH  14  15
BRANCH  14  17
HETATM   17  N1  UNL     1      15.187   9.493   3.191  1.00  0.00    -0.280 NA
BRANCH  17  18
HETATM   18  N2  UNL     1      16.460  10.013   3.256  1.00  0.00    -0.276 N 
ATOM     19  H22 UNL     1      15.516   9.633   3.205  1.00  0.00     0.191 HD
ATOM     20  H21 UNL     1      17.404  10.398   3.304  1.00  0.00     0.191 HD
ENDBRANCH  17  18
ENDBRANCH  14  17
ENDBRANCH  13  14
ENDBRANCH  10  13
BRANCH   2  21
HETATM   21  C5  UNL     1       7.386  13.176  -0.679  1.00  0.00     0.001 C 
HETATM   22  C6  UNL     1       6.629  14.448  -0.326  1.00  0.00     0.005 C 
ENDBRANCH   2  21
BRANCH   1  23
HETATM   23  C2  UNL     1       5.903  10.304   0.305  1.00  0.00    -0.031 C 
HETATM   24  C1  UNL     1       4.890  10.520   1.027  1.00  0.00     0.007 C 
ENDBRANCH   1  23
TORSDOF 7
ENDMDL
MODEL 2
REMARK VINA RESULT: -7.994776865      1.433      2.716
REMARK  7 active torsions:
REMARK  status: ('A' for Active; 'I' for Inactive)
REMARK    1  A    between atoms: C2_2  and  C3_3 
REMARK    2  A    between atoms: C4_4  and  C5_5 
REMARK    3  A    between atoms: C14_14  and  O1_15 
REMARK    4  A    between atoms: O1_15  and  C15_16 
REMARK    5  A    between atoms: C15_16  and  O2_17 
REMARK    6  A    between atoms: C15_16  and  N1_19 
REMARK    7  A    between atoms: N1_19  and  N2_20 
ROOT
HETATM    1  C3  UNL     1       8.348  11.966   1.801  1.00  0.00     0.020 C 
HETATM    2  C4  UNL     1       7.287  10.914   2.181  1.00  0.00    -0.003 C 
HETATM    3  C7  UNL     1       8.020   9.652   2.521  1.00  0.00     0.039 C 
HETATM    4  C8  UNL     1       9.324  10.246   3.084  1.00  0.00    -0.078 C 
HETATM    5  C9  UNL     1      10.281   9.266   3.541  1.00  0.00    -0.016 C 
HETATM    6  C10 UNL     1      11.206   8.526   2.714  1.00  0.00     0.038 C 
HETATM    7  C11 UNL     1      11.173   8.844   1.218  1.00  0.00     0.015 C 
HETATM    8  C12 UNL     1      11.717  10.273   1.232  1.00  0.00    -0.011 C 
HETATM    9  C13 UNL     1      12.489  10.410   2.537  1.00  0.00     0.038 C 
HETATM   10  C14 UNL     1      12.657   8.930   2.907  1.00  0.00     0.141 C 
HETATM   11  C16 UNL     1      10.534  11.137   1.058  1.00  0.00     0.014 C 
HETATM   12  C17 UNL     1       9.653  11.392   2.213  1.00  0.00     0.022 C 
ENDROOT
BRANCH  10  13
HETATM   13  O1  UNL     1      13.383   8.615   3.992  1.00  0.00    -0.298 OA
BRANCH  13  14
HETATM   14  C15 UNL     1      14.413   9.561   4.449  1.00  0.00     0.360 C 
BRANCH  14  15
HETATM   15  O2  UNL     1      13.952  10.087   5.560  1.00  0.00    -0.314 OA
ATOM     16  H2  UNL     1      14.421  10.905   5.676  1.00  0.00     0.222 HD
ENDBRANCH  14  15
BRANCH  14  17
HETATM   17  N1  UNL     1      15.550   9.862   3.913  1.00  0.00    -0.280 NA
BRANCH  17  18
HETATM   18  N2  UNL     1      16.761  10.183   3.342  1.00  0.00    -0.276 N 
ATOM     19  H22 UNL     1      15.867   9.944   3.770  1.00  0.00     0.191 HD
ATOM     20  H21 UNL     1      17.659  10.420   2.919  1.00  0.00     0.191 HD
ENDBRANCH  17  18
ENDBRANCH  14  17
ENDBRANCH  13  14
ENDBRANCH  10  13
BRANCH   2  21
HETATM   21  C5  UNL     1       6.440  11.433   3.301  1.00  0.00     0.001 C 
HETATM   22  C6  UNL     1       4.980  11.144   2.987  1.00  0.00     0.005 C 
ENDBRANCH   2  21
BRANCH   1  23
HETATM   23  C2  UNL     1       8.017  12.404   0.475  1.00  0.00    -0.031 C 
HETATM   24  C1  UNL     1       7.305  12.166  -0.541  1.00  0.00     0.007 C 
ENDBRANCH   1  23
TORSDOF 7
ENDMDL
MODEL 3
REMARK VINA RESULT: -7.847692151      1.499      2.505
REMARK  7 active torsions:
REMARK  status: ('A' for Active; 'I' for Inactive)
REMARK    1  A    between atoms: C2_2  and  C3_3 
REMARK    2  A    between atoms: C4_4  and  C5_5 
REMARK    3  A    between atoms: C14_14  and  O1_15 
REMARK    4  A    between atoms: O1_15  and  C15_16 
REMARK    5  A    between atoms: C15_16  and  O2_17 
REMARK    6  A    between atoms: C15_16  and  N1_19 
REMARK    7  A    between atoms: N1_19  and  N2_20 
ROOT
HETATM    1  C3  UNL     1       7.787  12.498   1.344  1.00  0.00     0.020 C 
HETATM    2  C4  UNL     1       6.767  11.829   2.287  1.00  0.00    -0.003 C 
HETATM    3  C7  UNL     1       7.419  10.597   2.837  1.00  0.00     0.039 C 
HETATM    4  C8  UNL     1       8.888  11.056   2.849  1.00  0.00    -0.078 C 
HETATM    5  C9  UNL     1       9.819  10.077   3.360  1.00  0.00    -0.016 C 
HETATM    6  C10 UNL     1      10.377   8.965   2.626  1.00  0.00     0.038 C 
HETATM    7  C11 UNL     1       9.952   8.845   1.161  1.00  0.00     0.015 C 
HETATM    8  C12 UNL     1      10.636  10.082   0.578  1.00  0.00    -0.011 C 
HETATM    9  C13 UNL     1      11.760  10.429   1.545  1.00  0.00     0.038 C 
HETATM   10  C14 UNL     1      11.859   9.112   2.327  1.00  0.00     0.141 C 
HETATM   11  C16 UNL     1       9.559  11.077   0.417  1.00  0.00     0.014 C 
HETATM   12  C17 UNL     1       9.081  11.818   1.599  1.00  0.00     0.022 C 
ENDROOT
BRANCH  10  13
HETATM   13  O1  UNL     1      12.825   8.982   3.250  1.00  0.00    -0.298 OA
BRANCH  13  14
HETATM   14  C15 UNL     1      14.205   8.748   2.797  1.00  0.00     0.360 C 
BRANCH  14  15
HETATM   15  O2  UNL     1      14.145   7.736   1.963  1.00  0.00    -0.314 OA
ATOM     16  H2  UNL     1      14.979   7.288   2.036  1.00  0.00     0.222 HD
ENDBRANCH  14  15
BRANCH  14  17
HETATM   17  N1  UNL     1      15.293   9.367   3.120  1.00  0.00    -0.280 NA
BRANCH  17  18
HETATM   18  N2  UNL     1      16.452  10.027   3.463  1.00  0.00    -0.276 N 
ATOM     19  H22 UNL     1      15.591   9.544   3.209  1.00  0.00     0.191 HD
ATOM     20  H21 UNL     1      17.310  10.515   3.718  1.00  0.00     0.191 HD
ENDBRANCH  17  18
ENDBRANCH  14  17
ENDBRANCH  13  14
ENDBRANCH  10  13
BRANCH   2  21
HETATM   21  C5  UNL     1       6.343  12.801   3.343  1.00  0.00     0.001 C 
HETATM   22  C6  UNL     1       5.536  12.059   4.398  1.00  0.00     0.005 C 
ENDBRANCH   2  21
BRANCH   1  23
HETATM   23  C2  UNL     1       7.141  12.597   0.066  1.00  0.00    -0.031 C 
HETATM   24  C1  UNL     1       7.016  13.304  -0.973  1.00  0.00     0.007 C 
ENDBRANCH   1  23
TORSDOF 7
ENDMDL
MODEL 4
REMARK VINA RESULT: -7.724614304      1.962      3.127
REMARK  7 active torsions:
REMARK  status: ('A' for Active; 'I' for Inactive)
REMARK    1  A    between atoms: C2_2  and  C3_3 
REMARK    2  A    between atoms: C4_4  and  C5_5 
REMARK    3  A    between atoms: C14_14  and  O1_15 
REMARK    4  A    between atoms: O1_15  and  C15_16 
REMARK    5  A    between atoms: C15_16  and  O2_17 
REMARK    6  A    between atoms: C15_16  and  N1_19 
REMARK    7  A    between atoms: N1_19  and  N2_20 
ROOT
HETATM    1  C3  UNL     1       7.334  13.500   2.186  1.00  0.00     0.020 C 
HETATM    2  C4  UNL     1       6.261  12.869   3.097  1.00  0.00    -0.003 C 
HETATM    3  C7  UNL     1       6.651  11.438   3.308  1.00  0.00     0.039 C 
HETATM    4  C8  UNL     1       8.183  11.565   3.230  1.00  0.00    -0.078 C 
HETATM    5  C9  UNL     1       8.899  10.325   3.419  1.00  0.00    -0.016 C 
HETATM    6  C10 UNL     1       9.129   9.311   2.417  1.00  0.00     0.038 C 
HETATM    7  C11 UNL     1       8.577   9.607   1.021  1.00  0.00     0.015 C 
HETATM    8  C12 UNL     1       9.481  10.771   0.614  1.00  0.00    -0.011 C 
HETATM    9  C13 UNL     1      10.725  10.653   1.484  1.00  0.00     0.038 C 
HETATM   10  C14 UNL     1      10.577   9.206   1.972  1.00  0.00     0.141 C 
HETATM   11  C16 UNL     1       8.654  11.980   0.786  1.00  0.00     0.014 C 
HETATM   12  C17 UNL     1       8.451  12.526   2.141  1.00  0.00     0.022 C 
ENDROOT
BRANCH  10  13
HETATM   13  O1  UNL     1      11.554   8.677   2.725  1.00  0.00    -0.298 OA
BRANCH  13  14
HETATM   14  C15 UNL     1      12.904   8.564   2.151  1.00  0.00     0.360 C 
BRANCH  14  15
HETATM   15  O2  UNL     1      12.817   7.661   1.201  1.00  0.00    -0.314 OA
ATOM     16  H2  UNL     1      12.336   6.933   1.577  1.00  0.00     0.222 HD
ENDBRANCH  14  15
BRANCH  14  17
HETATM   17  N1  UNL     1      13.990   9.186   2.472  1.00  0.00    -0.280 NA
BRANCH  17  18
HETATM   18  N2  UNL     1      15.147   9.849   2.815  1.00  0.00    -0.276 N 
ATOM     19  H22 UNL     1      14.293   9.354   2.557  1.00  0.00     0.191 HD
ATOM     20  H21 UNL     1      16.004  10.340   3.068  1.00  0.00     0.191 HD
ENDBRANCH  17  18
ENDBRANCH  14  17
ENDBRANCH  13  14
ENDBRANCH  10  13
BRANCH   2  21
HETATM   21  C5  UNL     1       6.154  13.653   4.368  1.00  0.00     0.001 C 
HETATM   22  C6  UNL     1       5.113  12.996   5.262  1.00  0.00     0.005 C 
ENDBRANCH   2  21
BRANCH   1  23
HETATM   23  C2  UNL     1       6.633  14.011   1.042  1.00  0.00    -0.031 C 
HETATM   24  C1  UNL     1       6.562  14.966   0.219  1.00  0.00     0.007 C 
ENDBRANCH   1  23
TORSDOF 7
ENDMDL
MODEL 5
REMARK VINA RESULT: -7.711985800      1.100      1.238
REMARK  7 active torsions:
REMARK  status: ('A' for Active; 'I' for Inactive)
REMARK    1  A    between atoms: C2_2  and  C3_3 
REMARK    2  A    between atoms: C4_4  and  C5_5 
REMARK    3  A    between atoms: C14_14  and  O1_15 
REMARK    4  A    between atoms: O1_15  and  C15_16 
REMARK    5  A    between atoms: C15_16  and  O2_17 
REMARK    6  A    between atoms: C15_16  and  N1_19 
REMARK    7  A    between atoms: N1_19  and  N2_20 
ROOT
HETATM    1  C3  UNL     1       6.834  11.085  -0.324  1.00  0.00     0.020 C 
HETATM    2  C4  UNL     1       6.958  12.504   0.267  1.00  0.00    -0.003 C 
HETATM    3  C7  UNL     1       8.081  12.470   1.259  1.00  0.00     0.039 C 
HETATM    4  C8  UNL     1       8.974  11.396   0.612  1.00  0.00    -0.078 C 
HETATM    5  C9  UNL     1      10.198  11.122   1.328  1.00  0.00    -0.016 C 
HETATM    6  C10 UNL     1      10.338  10.264   2.481  1.00  0.00     0.038 C 
HETATM    7  C11 UNL     1       9.064   9.565   2.959  1.00  0.00     0.015 C 
HETATM    8  C12 UNL     1       8.822   8.612   1.788  1.00  0.00    -0.011 C 
HETATM    9  C13 UNL     1      10.171   8.451   1.100  1.00  0.00     0.038 C 
HETATM   10  C14 UNL     1      11.100   8.980   2.200  1.00  0.00     0.141 C 
HETATM   11  C16 UNL     1       7.738   9.232   1.003  1.00  0.00     0.014 C 
HETATM   12  C17 UNL     1       8.053  10.359   0.106  1.00  0.00     0.022 C 
ENDROOT
BRANCH  10  13
HETATM   13  O1  UNL     1      12.427   8.926   2.004  1.00  0.00    -0.298 OA
BRANCH  13  14
HETATM   14  C15 UNL     1      13.297   9.773   2.836  1.00  0.00     0.360 C 
BRANCH  14  15
HETATM   15  O2  UNL     1      13.824  10.658   2.021  1.00  0.00    -0.314 OA
ATOM     16  H2  UNL     1      13.093  11.130   1.641  1.00  0.00     0.222 HD
ENDBRANCH  14  15
BRANCH  14  17
HETATM   17  N1  UNL     1      13.541   9.708   4.103  1.00  0.00    -0.280 NA
BRANCH  17  18
HETATM   18  N2  UNL     1      13.801   9.639   5.454  1.00  0.00    -0.276 N 
ATOM     19  H22 UNL     1      13.614   9.687   4.453  1.00  0.00     0.191 HD
ATOM     20  H21 UNL     1      13.993   9.588   6.454  1.00  0.00     0.191 HD
ENDBRANCH  17  18
ENDBRANCH  14  17
ENDBRANCH  13  14
ENDBRANCH  10  13
BRANCH   2  21
HETATM   21  C5  UNL     1       7.165  13.494  -0.836  1.00  0.00     0.001 C 
HETATM   22  C6  UNL     1       6.796  14.879  -0.327  1.00  0.00     0.005 C 
ENDBRANCH   2  21
BRANCH   1  23
HETATM   23  C2  UNL     1       5.485  10.665  -0.068  1.00  0.00    -0.031 C 
HETATM   24  C1  UNL     1       4.444  10.897   0.608  1.00  0.00     0.007 C 
ENDBRANCH   1  23
TORSDOF 7
ENDMDL
