MODEL 1
REMARK VINA RESULT: -7.105697569      0.000      0.000
REMARK  6 active torsions:
REMARK  status: ('A' for Active; 'I' for Inactive)
REMARK    1  A    between atoms: C3_3  and  C4_4 
REMARK    2  A    between atoms: C5_5  and  O1_6 
REMARK    3  A    between atoms: O1_6  and  C6_7 
REMARK    4  A    between atoms: C9_10  and  N1_11 
REMARK    5  A    between atoms: N4_22  and  N5_24 
REMARK    6  A    between atoms: N5_24  and  C14_26 
ROOT
HETATM    1  C4  UNL     1      -1.759   4.679   3.748  1.00  0.00     0.060 A 
HETATM    2  C5  UNL     1      -0.830   5.474   4.443  1.00  0.00     0.163 A 
HETATM    3  N2  UNL     1      -1.270   6.531   5.146  1.00  0.00    -0.332 N 
ATOM      4  H2  UNL     1      -0.593   7.104   5.649  1.00  0.00     0.168 HD
HETATM    5  C12 UNL     1      -2.568   6.860   5.209  1.00  0.00     0.184 A 
HETATM    6  N3  UNL     1      -3.470   6.123   4.560  1.00  0.00    -0.337 N 
ATOM      7  H3  UNL     1      -4.456   6.379   4.613  1.00  0.00     0.168 HD
HETATM    8  C13 UNL     1      -3.104   5.039   3.829  1.00  0.00     0.135 A 
HETATM    9  N4  UNL     1      -4.023   4.353   3.261  1.00  0.00    -0.289 N 
ATOM     10  H4  UNL     1      -3.779   3.518   2.730  1.00  0.00     0.188 HD
ENDROOT
BRANCH   2  11
HETATM   11  O1  UNL     1       0.547   5.220   4.434  1.00  0.00    -0.293 OA
BRANCH  11  12
HETATM   12  C6  UNL     1       1.272   4.775   5.504  1.00  0.00     0.078 A 
HETATM   13  C7  UNL     1       2.419   5.365   5.912  1.00  0.00     0.040 A 
HETATM   14  C8  UNL     1       3.098   4.847   7.018  1.00  0.00     0.039 A 
HETATM   15  C9  UNL     1       2.599   3.750   7.681  1.00  0.00     0.103 A 
HETATM   16  C10 UNL     1       1.434   3.167   7.247  1.00  0.00     0.039 A 
HETATM   17  C11 UNL     1       0.754   3.655   6.170  1.00  0.00     0.040 A 
BRANCH  15  18
HETATM   18  N1  UNL     1       3.255   3.183   8.815  1.00  0.00    -0.116 N 
HETATM   19  O2  UNL     1       2.858   3.394   9.973  1.00  0.00    -0.532 OA
HETATM   20  O3  UNL     1       4.350   2.390   8.586  1.00  0.00    -0.532 OA
ENDBRANCH  15  18
ENDBRANCH  11  12
ENDBRANCH   2  11
BRANCH   1  21
HETATM   21  C3  UNL     1      -1.253   3.528   3.082  1.00  0.00     0.015 C 
HETATM   22  C2  UNL     1      -0.529   3.193   2.082  1.00  0.00    -0.030 C 
HETATM   23  C1  UNL     1       0.218   3.863   1.025  1.00  0.00     0.036 C 
ENDBRANCH   1  21
BRANCH   9  24
HETATM   24  N5  UNL     1      -5.343   4.739   3.363  1.00  0.00    -0.331 N 
ATOM     25  H5  UNL     1      -5.631   5.691   3.137  1.00  0.00     0.180 HD
BRANCH  24  26
HETATM   26  C14 UNL     1      -6.315   3.747   3.801  1.00  0.00     0.091 C 
HETATM   27  C15 UNL     1      -5.886   2.397   3.313  1.00  0.00     0.033 C 
HETATM   28  C16 UNL     1      -6.342   3.783   5.335  1.00  0.00     0.033 C 
ENDBRANCH  24  26
ENDBRANCH   9  24
TORSDOF 6
ENDMDL
MODEL 2
REMARK VINA RESULT: -7.062048618      0.229      1.196
REMARK  6 active torsions:
REMARK  status: ('A' for Active; 'I' for Inactive)
REMARK    1  A    between atoms: C3_3  and  C4_4 
REMARK    2  A    between atoms: C5_5  and  O1_6 
REMARK    3  A    between atoms: O1_6  and  C6_7 
REMARK    4  A    between atoms: C9_10  and  N1_11 
REMARK    5  A    between atoms: N4_22  and  N5_24 
REMARK    6  A    between atoms: N5_24  and  C14_26 
ROOT
HETATM    1  C4  UNL     1      -1.948   4.584   3.746  1.00  0.00     0.060 A 
HETATM    2  C5  UNL     1      -1.044   5.335   4.517  1.00  0.00     0.163 A 
HETATM    3  N2  UNL     1      -1.507   6.351   5.265  1.00  0.00    -0.332 N 
ATOM      4  H2  UNL     1      -0.847   6.892   5.824  1.00  0.00     0.168 HD
HETATM    5  C12 UNL     1      -2.806   6.678   5.303  1.00  0.00     0.184 A 
HETATM    6  N3  UNL     1      -3.686   5.982   4.581  1.00  0.00    -0.337 N 
ATOM      7  H3  UNL     1      -4.673   6.237   4.616  1.00  0.00     0.168 HD
HETATM    8  C13 UNL     1      -3.296   4.942   3.802  1.00  0.00     0.135 A 
HETATM    9  N4  UNL     1      -4.195   4.293   3.164  1.00  0.00    -0.289 N 
ATOM     10  H4  UNL     1      -3.933   3.489   2.594  1.00  0.00     0.188 HD
ENDROOT
BRANCH   2  11
HETATM   11  O1  UNL     1       0.333   5.079   4.541  1.00  0.00    -0.293 OA
BRANCH  11  12
HETATM   12  C6  UNL     1       1.016   4.547   5.599  1.00  0.00     0.078 A 
HETATM   13  C7  UNL     1       0.604   3.441   6.260  1.00  0.00     0.040 A 
HETATM   14  C8  UNL     1       1.364   2.961   7.330  1.00  0.00     0.039 A 
HETATM   15  C9  UNL     1       2.518   3.612   7.701  1.00  0.00     0.103 A 
HETATM   16  C10 UNL     1       2.915   4.733   7.016  1.00  0.00     0.039 A 
HETATM   17  C11 UNL     1       2.190   5.219   5.968  1.00  0.00     0.040 A 
BRANCH  15  18
HETATM   18  N1  UNL     1       3.329   3.163   8.787  1.00  0.00    -0.116 N 
HETATM   19  O2  UNL     1       4.396   2.556   8.599  1.00  0.00    -0.532 OA
HETATM   20  O3  UNL     1       2.890   3.424  10.059  1.00  0.00    -0.532 OA
ENDBRANCH  15  18
ENDBRANCH  11  12
ENDBRANCH   2  11
BRANCH   1  21
HETATM   21  C3  UNL     1      -1.421   3.472   3.032  1.00  0.00     0.015 C 
HETATM   22  C2  UNL     1      -0.622   3.192   2.073  1.00  0.00    -0.030 C 
HETATM   23  C1  UNL     1       0.235   3.917   1.143  1.00  0.00     0.036 C 
ENDBRANCH   1  21
BRANCH   9  24
HETATM   24  N5  UNL     1      -5.518   4.675   3.242  1.00  0.00    -0.331 N 
ATOM     25  H5  UNL     1      -5.804   5.624   3.003  1.00  0.00     0.180 HD
BRANCH  24  26
HETATM   26  C14 UNL     1      -6.492   3.685   3.677  1.00  0.00     0.091 C 
HETATM   27  C15 UNL     1      -6.023   2.324   3.259  1.00  0.00     0.033 C 
HETATM   28  C16 UNL     1      -6.585   3.778   5.206  1.00  0.00     0.033 C 
ENDBRANCH  24  26
ENDBRANCH   9  24
TORSDOF 6
ENDMDL
MODEL 3
REMARK VINA RESULT: -6.982675140      0.559      1.269
REMARK  6 active torsions:
REMARK  status: ('A' for Active; 'I' for Inactive)
REMARK    1  A    between atoms: C3_3  and  C4_4 
REMARK    2  A    between atoms: C5_5  and  O1_6 
REMARK    3  A    between atoms: O1_6  and  C6_7 
REMARK    4  A    between atoms: C9_10  and  N1_11 
REMARK    5  A    between atoms: N4_22  and  N5_24 
REMARK    6  A    between atoms: N5_24  and  C14_26 
ROOT
HETATM    1  C4  UNL     1      -1.731   4.856   3.681  1.00  0.00     0.060 A 
HETATM    2  C5  UNL     1      -0.776   5.590   4.407  1.00  0.00     0.163 A 
HETATM    3  N2  UNL     1      -1.162   6.698   5.062  1.00  0.00    -0.332 N 
ATOM      4  H2  UNL     1      -0.466   7.226   5.588  1.00  0.00     0.168 HD
HETATM    5  C12 UNL     1      -2.429   7.134   5.048  1.00  0.00     0.184 A 
HETATM    6  N3  UNL     1      -3.355   6.457   4.368  1.00  0.00    -0.337 N 
ATOM      7  H3  UNL     1      -4.317   6.795   4.362  1.00  0.00     0.168 HD
HETATM    8  C13 UNL     1      -3.044   5.327   3.682  1.00  0.00     0.135 A 
HETATM    9  N4  UNL     1      -3.986   4.705   3.080  1.00  0.00    -0.289 N 
ATOM     10  H4  UNL     1      -3.786   3.839   2.582  1.00  0.00     0.188 HD
ENDROOT
BRANCH   2  11
HETATM   11  O1  UNL     1       0.574   5.223   4.478  1.00  0.00    -0.293 OA
BRANCH  11  12
HETATM   12  C6  UNL     1       1.182   4.669   5.569  1.00  0.00     0.078 A 
HETATM   13  C7  UNL     1       0.684   3.594   6.222  1.00  0.00     0.040 A 
HETATM   14  C8  UNL     1       1.372   3.088   7.329  1.00  0.00     0.039 A 
HETATM   15  C9  UNL     1       2.542   3.681   7.743  1.00  0.00     0.103 A 
HETATM   16  C10 UNL     1       3.027   4.772   7.064  1.00  0.00     0.039 A 
HETATM   17  C11 UNL     1       2.374   5.283   5.982  1.00  0.00     0.040 A 
BRANCH  15  18
HETATM   18  N1  UNL     1       3.281   3.203   8.866  1.00  0.00    -0.116 N 
HETATM   19  O2  UNL     1       2.897   3.395  10.032  1.00  0.00    -0.532 OA
HETATM   20  O3  UNL     1       4.441   2.516   8.619  1.00  0.00    -0.532 OA
ENDBRANCH  15  18
ENDBRANCH  11  12
ENDBRANCH   2  11
BRANCH   1  21
HETATM   21  C3  UNL     1      -1.290   3.650   3.069  1.00  0.00     0.015 C 
HETATM   22  C2  UNL     1      -0.569   3.231   2.098  1.00  0.00    -0.030 C 
HETATM   23  C1  UNL     1       0.241   3.811   1.034  1.00  0.00     0.036 C 
ENDBRANCH   1  21
BRANCH   9  24
HETATM   24  N5  UNL     1      -5.273   5.201   3.103  1.00  0.00    -0.331 N 
ATOM     25  H5  UNL     1      -5.448   6.205   3.145  1.00  0.00     0.180 HD
BRANCH  24  26
HETATM   26  C14 UNL     1      -6.375   4.249   3.063  1.00  0.00     0.091 C 
HETATM   27  C15 UNL     1      -7.117   4.417   1.772  1.00  0.00     0.033 C 
HETATM   28  C16 UNL     1      -5.765   2.844   3.157  1.00  0.00     0.033 C 
ENDBRANCH  24  26
ENDBRANCH   9  24
TORSDOF 6
ENDMDL
MODEL 4
REMARK VINA RESULT: -6.687931665      2.385      3.530
REMARK  6 active torsions:
REMARK  status: ('A' for Active; 'I' for Inactive)
REMARK    1  A    between atoms: C3_3  and  C4_4 
REMARK    2  A    between atoms: C5_5  and  O1_6 
REMARK    3  A    between atoms: O1_6  and  C6_7 
REMARK    4  A    between atoms: C9_10  and  N1_11 
REMARK    5  A    between atoms: N4_22  and  N5_24 
REMARK    6  A    between atoms: N5_24  and  C14_26 
ROOT
HETATM    1  C4  UNL     1      -1.145   4.833   3.015  1.00  0.00     0.060 A 
HETATM    2  C5  UNL     1      -1.072   4.699   4.413  1.00  0.00     0.163 A 
HETATM    3  N2  UNL     1      -1.474   5.718   5.191  1.00  0.00    -0.332 N 
ATOM      4  H2  UNL     1      -1.421   5.614   6.204  1.00  0.00     0.168 HD
HETATM    5  C12 UNL     1      -1.943   6.866   4.683  1.00  0.00     0.184 A 
HETATM    6  N3  UNL     1      -2.022   7.020   3.360  1.00  0.00    -0.337 N 
ATOM      7  H3  UNL     1      -2.381   7.897   2.981  1.00  0.00     0.168 HD
HETATM    8  C13 UNL     1      -1.637   6.036   2.508  1.00  0.00     0.135 A 
HETATM    9  N4  UNL     1      -1.774   6.235   1.252  1.00  0.00    -0.289 N 
ATOM     10  H4  UNL     1      -1.520   5.502   0.591  1.00  0.00     0.188 HD
ENDROOT
BRANCH   2  11
HETATM   11  O1  UNL     1      -0.591   3.543   5.042  1.00  0.00    -0.293 OA
BRANCH  11  12
HETATM   12  C6  UNL     1       0.411   3.512   5.971  1.00  0.00     0.078 A 
HETATM   13  C7  UNL     1       1.426   4.406   5.989  1.00  0.00     0.040 A 
HETATM   14  C8  UNL     1       2.410   4.304   6.976  1.00  0.00     0.039 A 
HETATM   15  C9  UNL     1       2.340   3.303   7.917  1.00  0.00     0.103 A 
HETATM   16  C10 UNL     1       1.301   2.407   7.878  1.00  0.00     0.039 A 
HETATM   17  C11 UNL     1       0.329   2.487   6.925  1.00  0.00     0.040 A 
BRANCH  15  18
HETATM   18  N1  UNL     1       3.319   3.156   8.945  1.00  0.00    -0.116 N 
HETATM   19  O2  UNL     1       4.460   2.725   8.705  1.00  0.00    -0.532 OA
HETATM   20  O3  UNL     1       2.962   3.509  10.220  1.00  0.00    -0.532 OA
ENDBRANCH  15  18
ENDBRANCH  11  12
ENDBRANCH   2  11
BRANCH   1  21
HETATM   21  C3  UNL     1      -0.781   3.700   2.237  1.00  0.00     0.015 C 
HETATM   22  C2  UNL     1       0.013   3.351   1.296  1.00  0.00    -0.030 C 
HETATM   23  C1  UNL     1       1.040   3.974   0.471  1.00  0.00     0.036 C 
ENDBRANCH   1  21
BRANCH   9  24
HETATM   24  N5  UNL     1      -2.264   7.438   0.787  1.00  0.00    -0.331 N 
ATOM     25  H5  UNL     1      -3.199   7.757   1.041  1.00  0.00     0.180 HD
BRANCH  24  26
HETATM   26  C14 UNL     1      -1.408   8.238  -0.078  1.00  0.00     0.091 C 
HETATM   27  C15 UNL     1      -0.738   9.296   0.746  1.00  0.00     0.033 C 
HETATM   28  C16 UNL     1      -0.367   7.291  -0.690  1.00  0.00     0.033 C 
ENDBRANCH  24  26
ENDBRANCH   9  24
TORSDOF 6
ENDMDL
MODEL 5
REMARK VINA RESULT: -6.684432639      2.837      4.659
REMARK  6 active torsions:
REMARK  status: ('A' for Active; 'I' for Inactive)
REMARK    1  A    between atoms: C3_3  and  C4_4 
REMARK    2  A    between atoms: C5_5  and  O1_6 
REMARK    3  A    between atoms: O1_6  and  C6_7 
REMARK    4  A    between atoms: C9_10  and  N1_11 
REMARK    5  A    between atoms: N4_22  and  N5_24 
REMARK    6  A    between atoms: N5_24  and  C14_26 
ROOT
HETATM    1  C4  UNL     1      -0.890   5.539   3.327  1.00  0.00     0.060 A 
HETATM    2  C5  UNL     1      -0.539   4.228   3.695  1.00  0.00     0.163 A 
HETATM    3  N2  UNL     1      -0.048   3.396   2.762  1.00  0.00    -0.332 N 
ATOM      4  H2  UNL     1       0.207   2.446   3.035  1.00  0.00     0.168 HD
HETATM    5  C12 UNL     1       0.121   3.768   1.486  1.00  0.00     0.184 A 
HETATM    6  N3  UNL     1      -0.203   5.006   1.110  1.00  0.00    -0.337 N 
ATOM      7  H3  UNL     1      -0.072   5.283   0.137  1.00  0.00     0.168 HD
HETATM    8  C13 UNL     1      -0.704   5.906   1.994  1.00  0.00     0.135 A 
HETATM    9  N4  UNL     1      -0.960   7.088   1.575  1.00  0.00    -0.289 N 
ATOM     10  H4  UNL     1      -1.311   7.792   2.225  1.00  0.00     0.188 HD
ENDROOT
BRANCH   2  11
HETATM   11  O1  UNL     1      -0.684   3.739   5.000  1.00  0.00    -0.293 OA
BRANCH  11  12
HETATM   12  C6  UNL     1       0.323   3.640   5.919  1.00  0.00     0.078 A 
HETATM   13  C7  UNL     1       1.388   4.474   5.937  1.00  0.00     0.040 A 
HETATM   14  C8  UNL     1       2.372   4.304   6.915  1.00  0.00     0.039 A 
HETATM   15  C9  UNL     1       2.253   3.298   7.845  1.00  0.00     0.103 A 
HETATM   16  C10 UNL     1       1.163   2.463   7.806  1.00  0.00     0.039 A 
HETATM   17  C11 UNL     1       0.190   2.610   6.862  1.00  0.00     0.040 A 
BRANCH  15  18
HETATM   18  N1  UNL     1       3.230   3.083   8.862  1.00  0.00    -0.116 N 
HETATM   19  O2  UNL     1       4.340   2.585   8.609  1.00  0.00    -0.532 OA
HETATM   20  O3  UNL     1       2.906   3.447  10.144  1.00  0.00    -0.532 OA
ENDBRANCH  15  18
ENDBRANCH  11  12
ENDBRANCH   2  11
BRANCH   1  21
HETATM   21  C3  UNL     1      -1.333   6.406   4.365  1.00  0.00     0.015 C 
HETATM   22  C2  UNL     1      -0.909   7.335   5.136  1.00  0.00    -0.030 C 
HETATM   23  C1  UNL     1       0.339   8.052   5.368  1.00  0.00     0.036 C 
ENDBRANCH   1  21
BRANCH   9  24
HETATM   24  N5  UNL     1      -0.765   7.415   0.250  1.00  0.00    -0.331 N 
ATOM     25  H5  UNL     1      -1.282   6.939  -0.489  1.00  0.00     0.180 HD
BRANCH  24  26
HETATM   26  C14 UNL     1       0.200   8.459  -0.063  1.00  0.00     0.091 C 
HETATM   27  C15 UNL     1       0.403   9.314   1.151  1.00  0.00     0.033 C 
HETATM   28  C16 UNL     1       1.510   7.765  -0.459  1.00  0.00     0.033 C 
ENDBRANCH  24  26
ENDBRANCH   9  24
TORSDOF 6
ENDMDL
