MODEL 1
REMARK VINA RESULT: -6.131627140      0.000      0.000
REMARK  4 active torsions:
REMARK  status: ('A' for Active; 'I' for Inactive)
REMARK    1  A    between atoms: C2_2  and  C3_3 
REMARK    2  A    between atoms: C3_3  and  O1_4 
REMARK    3  A    between atoms: C3_3  and  C4_6 
REMARK    4  A    between atoms: C4_6  and  C5_7 
ROOT
HETATM    1  C5  UNL     1       0.081   2.932   6.697  1.00  0.00     0.010 C 
HETATM    2  C6  UNL     1       0.874   3.925   5.907  1.00  0.00     0.041 C 
HETATM    3  C7  UNL     1       0.173   4.134   4.607  1.00  0.00     0.154 A 
HETATM    4  O2  UNL     1       0.479   5.058   3.659  1.00  0.00    -0.373 OA
HETATM    5  C8  UNL     1      -0.412   5.457   4.570  1.00  0.00     0.179 A 
HETATM    6  C9  UNL     1      -1.885   5.378   4.570  1.00  0.00     0.148 C 
HETATM    7  C10 UNL     1      -2.517   4.515   3.551  1.00  0.00     0.042 C 
HETATM    8  O3  UNL     1      -2.267   5.109   5.886  1.00  0.00    -0.382 OA
HETATM    9  C11 UNL     1      -2.256   3.789   6.246  1.00  0.00     0.187 C 
HETATM   10  C12 UNL     1      -1.199   3.412   7.254  1.00  0.00     0.121 C 
HETATM   11  C13 UNL     1      -1.752   2.338   8.091  1.00  0.00     0.066 C 
HETATM   12  N1  UNL     1      -2.215   1.486   8.759  1.00  0.00    -0.197 NA
ENDROOT
BRANCH   1  13
HETATM   13  C4  UNL     1       0.888   2.288   7.789  1.00  0.00     0.042 C 
BRANCH  13  14
HETATM   14  C3  UNL     1       2.366   2.280   7.575  1.00  0.00     0.140 C 
BRANCH  14  15
HETATM   15  C2  UNL     1       2.977   3.115   8.659  1.00  0.00    -0.006 C 
HETATM   16  C1  UNL     1       4.274   3.312   8.654  1.00  0.00     0.009 C 
ENDBRANCH  14  15
BRANCH  14  17
HETATM   17  O1  UNL     1       2.940   1.007   7.736  1.00  0.00    -0.392 OA
ATOM     18  H1  UNL     1       3.741   1.036   7.225  1.00  0.00     0.210 HD
ENDBRANCH  14  17
ENDBRANCH  13  14
ENDBRANCH   1  13
TORSDOF 4
ENDMDL
MODEL 2
REMARK VINA RESULT: -5.396419202      1.499      1.585
REMARK  4 active torsions:
REMARK  status: ('A' for Active; 'I' for Inactive)
REMARK    1  A    between atoms: C2_2  and  C3_3 
REMARK    2  A    between atoms: C3_3  and  O1_4 
REMARK    3  A    between atoms: C3_3  and  C4_6 
REMARK    4  A    between atoms: C4_6  and  C5_7 
ROOT
HETATM    1  C5  UNL     1       0.328   3.262   6.417  1.00  0.00     0.010 C 
HETATM    2  C6  UNL     1       0.369   4.557   5.668  1.00  0.00     0.041 C 
HETATM    3  C7  UNL     1      -0.867   4.641   4.838  1.00  0.00     0.154 A 
HETATM    4  O2  UNL     1      -1.291   5.712   4.119  1.00  0.00    -0.373 OA
HETATM    5  C8  UNL     1      -1.750   5.656   5.371  1.00  0.00     0.179 A 
HETATM    6  C9  UNL     1      -2.979   5.047   5.916  1.00  0.00     0.148 C 
HETATM    7  C10 UNL     1      -3.731   4.133   5.033  1.00  0.00     0.042 C 
HETATM    8  O3  UNL     1      -2.637   4.512   7.161  1.00  0.00    -0.382 OA
HETATM    9  C11 UNL     1      -2.098   3.255   7.135  1.00  0.00     0.187 C 
HETATM   10  C12 UNL     1      -0.643   3.178   7.526  1.00  0.00     0.121 C 
HETATM   11  C13 UNL     1      -0.436   1.890   8.203  1.00  0.00     0.066 C 
HETATM   12  N1  UNL     1      -0.292   0.860   8.754  1.00  0.00    -0.197 NA
ENDROOT
BRANCH   1  13
HETATM   13  C4  UNL     1       1.683   2.838   6.910  1.00  0.00     0.042 C 
BRANCH  13  14
HETATM   14  C3  UNL     1       2.470   3.895   7.612  1.00  0.00     0.140 C 
BRANCH  14  15
HETATM   15  C2  UNL     1       3.196   3.231   8.743  1.00  0.00    -0.006 C 
HETATM   16  C1  UNL     1       4.503   3.136   8.689  1.00  0.00     0.009 C 
ENDBRANCH  14  15
BRANCH  14  17
HETATM   17  O1  UNL     1       3.484   4.451   6.813  1.00  0.00    -0.392 OA
ATOM     18  H1  UNL     1       3.665   5.298   7.205  1.00  0.00     0.210 HD
ENDBRANCH  14  17
ENDBRANCH  13  14
ENDBRANCH   1  13
TORSDOF 4
ENDMDL
MODEL 3
REMARK VINA RESULT: -5.372783974      2.118      4.603
REMARK  4 active torsions:
REMARK  status: ('A' for Active; 'I' for Inactive)
REMARK    1  A    between atoms: C2_2  and  C3_3 
REMARK    2  A    between atoms: C3_3  and  O1_4 
REMARK    3  A    between atoms: C3_3  and  C4_6 
REMARK    4  A    between atoms: C4_6  and  C5_7 
ROOT
HETATM    1  C5  UNL     1      -2.117   3.507   7.315  1.00  0.00     0.010 C 
HETATM    2  C6  UNL     1      -2.560   4.272   6.107  1.00  0.00     0.041 C 
HETATM    3  C7  UNL     1      -1.534   5.317   5.829  1.00  0.00     0.154 A 
HETATM    4  O2  UNL     1      -1.479   6.132   4.743  1.00  0.00    -0.373 OA
HETATM    5  C8  UNL     1      -0.807   4.984   4.623  1.00  0.00     0.179 A 
HETATM    6  C9  UNL     1       0.598   4.658   4.933  1.00  0.00     0.148 C 
HETATM    7  C10 UNL     1       1.362   5.639   5.731  1.00  0.00     0.042 C 
HETATM    8  O3  UNL     1       0.600   3.358   5.443  1.00  0.00    -0.382 OA
HETATM    9  C11 UNL     1       0.343   3.249   6.782  1.00  0.00     0.187 C 
HETATM   10  C12 UNL     1      -0.972   2.595   7.128  1.00  0.00     0.121 C 
HETATM   11  C13 UNL     1      -0.781   1.856   8.383  1.00  0.00     0.066 C 
HETATM   12  N1  UNL     1      -0.606   1.259   9.383  1.00  0.00    -0.197 NA
ENDROOT
BRANCH   1  13
HETATM   13  C4  UNL     1      -3.245   2.762   7.972  1.00  0.00     0.042 C 
BRANCH  13  14
HETATM   14  C3  UNL     1      -4.360   3.612   8.487  1.00  0.00     0.140 C 
BRANCH  14  15
HETATM   15  C2  UNL     1      -5.160   2.769   9.434  1.00  0.00    -0.006 C 
HETATM   16  C1  UNL     1      -4.633   1.660   9.896  1.00  0.00     0.009 C 
ENDBRANCH  14  15
BRANCH  14  17
HETATM   17  O1  UNL     1      -3.914   4.697   9.264  1.00  0.00    -0.392 OA
ATOM     18  H1  UNL     1      -4.234   4.515  10.140  1.00  0.00     0.210 HD
ENDBRANCH  14  17
ENDBRANCH  13  14
ENDBRANCH   1  13
TORSDOF 4
ENDMDL
MODEL 4
REMARK VINA RESULT: -5.274659858      2.323      3.574
REMARK  4 active torsions:
REMARK  status: ('A' for Active; 'I' for Inactive)
REMARK    1  A    between atoms: C2_2  and  C3_3 
REMARK    2  A    between atoms: C3_3  and  O1_4 
REMARK    3  A    between atoms: C3_3  and  C4_6 
REMARK    4  A    between atoms: C4_6  and  C5_7 
ROOT
HETATM    1  C5  UNL     1       0.539   4.209   6.295  1.00  0.00     0.010 C 
HETATM    2  C6  UNL     1      -0.761   3.988   5.589  1.00  0.00     0.041 C 
HETATM    3  C7  UNL     1      -1.578   5.227   5.740  1.00  0.00     0.154 A 
HETATM    4  O2  UNL     1      -2.761   5.498   5.132  1.00  0.00    -0.373 OA
HETATM    5  C8  UNL     1      -1.679   5.908   4.467  1.00  0.00     0.179 A 
HETATM    6  C9  UNL     1      -0.960   7.196   4.506  1.00  0.00     0.148 C 
HETATM    7  C10 UNL     1      -1.291   8.125   5.606  1.00  0.00     0.042 C 
HETATM    8  O3  UNL     1       0.398   6.896   4.380  1.00  0.00    -0.382 OA
HETATM    9  C11 UNL     1       1.041   6.572   5.543  1.00  0.00     0.187 C 
HETATM   10  C12 UNL     1       1.487   5.134   5.645  1.00  0.00     0.121 C 
HETATM   11  C13 UNL     1       2.735   5.114   6.422  1.00  0.00     0.066 C 
HETATM   12  N1  UNL     1       3.739   5.118   7.036  1.00  0.00    -0.197 NA
ENDROOT
BRANCH   1  13
HETATM   13  C4  UNL     1       1.244   2.923   6.623  1.00  0.00     0.042 C 
BRANCH  13  14
HETATM   14  C3  UNL     1       1.374   2.616   8.078  1.00  0.00     0.140 C 
BRANCH  14  15
HETATM   15  C2  UNL     1       0.612   1.352   8.336  1.00  0.00    -0.006 C 
HETATM   16  C1  UNL     1      -0.679   1.423   8.558  1.00  0.00     0.009 C 
ENDBRANCH  14  15
BRANCH  14  17
HETATM   17  O1  UNL     1       2.694   2.324   8.465  1.00  0.00    -0.392 OA
ATOM     18  H1  UNL     1       3.025   3.137   8.830  1.00  0.00     0.210 HD
ENDBRANCH  14  17
ENDBRANCH  13  14
ENDBRANCH   1  13
TORSDOF 4
ENDMDL
MODEL 5
REMARK VINA RESULT: -5.077514675      2.143      4.513
REMARK  4 active torsions:
REMARK  status: ('A' for Active; 'I' for Inactive)
REMARK    1  A    between atoms: C2_2  and  C3_3 
REMARK    2  A    between atoms: C3_3  and  O1_4 
REMARK    3  A    between atoms: C3_3  and  C4_6 
REMARK    4  A    between atoms: C4_6  and  C5_7 
ROOT
HETATM    1  C5  UNL     1      -1.624   3.649   7.018  1.00  0.00     0.010 C 
HETATM    2  C6  UNL     1      -2.539   4.243   5.994  1.00  0.00     0.041 C 
HETATM    3  C7  UNL     1      -1.971   5.560   5.585  1.00  0.00     0.154 A 
HETATM    4  O2  UNL     1      -2.413   6.357   4.578  1.00  0.00    -0.373 OA
HETATM    5  C8  UNL     1      -1.468   5.480   4.230  1.00  0.00     0.179 A 
HETATM    6  C9  UNL     1       0.001   5.611   4.209  1.00  0.00     0.148 C 
HETATM    7  C10 UNL     1       0.588   6.777   4.901  1.00  0.00     0.042 C 
HETATM    8  O3  UNL     1       0.515   4.373   4.607  1.00  0.00    -0.382 OA
HETATM    9  C11 UNL     1       0.611   4.181   5.958  1.00  0.00     0.187 C 
HETATM   10  C12 UNL     1      -0.328   3.145   6.523  1.00  0.00     0.121 C 
HETATM   11  C13 UNL     1       0.358   2.495   7.649  1.00  0.00     0.066 C 
HETATM   12  N1  UNL     1       0.927   1.978   8.541  1.00  0.00    -0.197 NA
ENDROOT
BRANCH   1  13
HETATM   13  C4  UNL     1      -2.291   2.583   7.840  1.00  0.00     0.042 C 
BRANCH  13  14
HETATM   14  C3  UNL     1      -3.711   2.856   8.212  1.00  0.00     0.140 C 
BRANCH  14  15
HETATM   15  C2  UNL     1      -4.232   1.634   8.906  1.00  0.00    -0.006 C 
HETATM   16  C1  UNL     1      -5.376   1.123   8.517  1.00  0.00     0.009 C 
ENDBRANCH  14  15
BRANCH  14  17
HETATM   17  O1  UNL     1      -3.846   3.889   9.157  1.00  0.00    -0.392 OA
ATOM     18  H1  UNL     1      -3.676   3.474   9.995  1.00  0.00     0.210 HD
ENDBRANCH  14  17
ENDBRANCH  13  14
ENDBRANCH   1  13
TORSDOF 4
ENDMDL
