MODEL 1
REMARK VINA RESULT: -9.748096140      0.000      0.000
REMARK  13 active torsions:
REMARK  status: ('A' for Active; 'I' for Inactive)
REMARK    1  A    between atoms: O1_2  and  N1_3 
REMARK    2  A    between atoms: C2_6  and  C3_7 
REMARK    3  A    between atoms: C3_7  and  C4_9 
REMARK    4  A    between atoms: C4_9  and  C5_10 
REMARK    5  A    between atoms: C5_10  and  C6_11 
REMARK    6  A    between atoms: C5_10  and  C10_27 
REMARK    7  A    between atoms: N4_15  and  N5_17 
REMARK    8  A    between atoms: C9_24  and  O3_25 
REMARK    9  A    between atoms: C10_27  and  O4_28 
REMARK   10  A    between atoms: C10_27  and  N9_30 
REMARK   11  A    between atoms: N9_30  and  C11_32 
REMARK   12  A    between atoms: C14_35  and  O5_36 
REMARK   13  A    between atoms: C19_42  and  N10_43 
REMARK       I    between atoms: N10_43  and  C20_45 
REMARK       I    between atoms: C20_45  and  N11_46 
REMARK       I    between atoms: C20_45  and  N12_50 
REMARK       I    between atoms: N12_50  and  C21_52 
ROOT
HETATM    1  C5  UNL     1     -34.286  25.650  -2.118  1.00  0.00     0.096 C 
ENDROOT
BRANCH   1   2
HETATM    2  C4  UNL     1     -35.684  25.370  -1.742  1.00  0.00     0.100 C 
BRANCH   2   3
HETATM    3  C3  UNL     1     -36.733  26.023  -2.506  1.00  0.00     0.178 C 
HETATM    4  O2  UNL     1     -36.722  27.232  -2.827  1.00  0.00    -0.291 OA
BRANCH   3   5
HETATM    5  C2  UNL     1     -37.923  25.276  -2.968  1.00  0.00     0.096 A 
HETATM    6  N2  UNL     1     -39.006  25.962  -3.393  1.00  0.00    -0.269 N 
HETATM    7  N1  UNL     1     -40.069  25.336  -3.823  1.00  0.00    -0.144 N 
ATOM      8  H2  UNL     1     -38.993  26.982  -3.378  1.00  0.00     0.190 HD
HETATM    9  C19 UNL     1     -40.199  23.989  -3.887  1.00  0.00     0.150 A 
HETATM   10  C18 UNL     1     -39.120  23.263  -3.461  1.00  0.00     0.055 A 
HETATM   11  C17 UNL     1     -37.993  23.914  -3.005  1.00  0.00     0.038 A 
BRANCH   7  12
HETATM   12  O1  UNL     1     -41.124  26.132  -4.237  1.00  0.00    -0.262 OA
HETATM   13  C1  UNL     1     -40.857  27.442  -4.669  1.00  0.00     0.240 C 
ENDBRANCH   7  12
BRANCH   9  14
HETATM   14  N10 UNL     1     -41.294  23.546  -4.338  1.00  0.00    -0.330 N 
HETATM   15  C20 UNL     1     -42.355  22.914  -3.618  1.00  0.00     0.390 C 
HETATM   16  N11 UNL     1     -41.866  21.728  -2.931  1.00  0.00    -0.041 N 
HETATM   17  N12 UNL     1     -43.390  22.556  -4.579  1.00  0.00    -0.321 N 
ATOM     18 3H11 UNL     1     -41.403  21.083  -3.570  1.00  0.00     0.279 HD
ATOM     19 2H11 UNL     1     -41.072  21.941  -2.328  1.00  0.00     0.279 HD
ATOM     20 1H11 UNL     1     -42.624  21.277  -2.418  1.00  0.00     0.279 HD
HETATM   21  C21 UNL     1     -44.034  23.517  -5.394  1.00  0.00     0.184 C 
ATOM     22  H12 UNL     1     -43.661  21.577  -4.666  1.00  0.00     0.166 HD
HETATM   23  N13 UNL     1     -44.600  24.529  -4.849  1.00  0.00    -0.374 N 
HETATM   24  N14 UNL     1     -44.047  23.354  -6.795  1.00  0.00    -0.064 NA
ATOM     25 2H13 UNL     1     -44.589  24.647  -3.836  1.00  0.00     0.158 HD
ATOM     26 1H13 UNL     1     -45.064  25.222  -5.437  1.00  0.00     0.158 HD
ATOM     27  H10 UNL     1     -41.438  23.654  -5.342  1.00  0.00     0.165 HD
ENDBRANCH   9  14
ENDBRANCH   3   5
ENDBRANCH   2   3
ENDBRANCH   1   2
BRANCH   1  28
HETATM   28  C6  UNL     1     -33.490  25.780  -0.832  1.00  0.00     0.086 A 
HETATM   29  N3  UNL     1     -33.497  24.902   0.148  1.00  0.00    -0.189 N 
HETATM   30  C7  UNL     1     -32.668  25.364   1.108  1.00  0.00     0.699 A 
ATOM     31  H3  UNL     1     -34.031  24.033   0.177  1.00  0.00     0.184 HD
HETATM   32  N4  UNL     1     -32.443  24.728   2.222  1.00  0.00    -0.130 N 
HETATM   33  N8  UNL     1     -32.136  26.535   0.737  1.00  0.00    -0.167 N 
ATOM     34  H4  UNL     1     -32.920  23.839   2.371  1.00  0.00     0.205 HD
HETATM   35  C9  UNL     1     -32.654  26.805  -0.497  1.00  0.00     0.179 A 
ATOM     36  H8  UNL     1     -31.478  27.107   1.266  1.00  0.00     0.186 HD
BRANCH  32  37
HETATM   37  N5  UNL     1     -31.601  25.181   3.214  1.00  0.00    -0.262 N 
HETATM   38  C8  UNL     1     -30.476  24.601   3.427  1.00  0.00     0.216 C 
HETATM   39  N6  UNL     1     -29.668  25.138   4.474  1.00  0.00    -0.065 NA
HETATM   40  N7  UNL     1     -30.086  23.495   2.652  1.00  0.00    -0.065 NA
ATOM     41  H5  UNL     1     -31.872  25.984   3.783  1.00  0.00     0.190 HD
ENDBRANCH  32  37
BRANCH  35  42
HETATM   42  O3  UNL     1     -32.335  27.946  -1.214  1.00  0.00    -0.344 OA
ATOM     43  H3  UNL     1     -31.901  28.739  -0.921  1.00  0.00     0.219 HD
ENDBRANCH  35  42
ENDBRANCH   1  28
BRANCH   1  44
HETATM   44  C10 UNL     1     -33.635  24.513  -2.888  1.00  0.00     0.228 C 
BRANCH  44  45
HETATM   45  O4  UNL     1     -33.485  23.404  -2.119  1.00  0.00    -0.376 OA
ATOM     46  H4  UNL     1     -32.973  22.736  -2.559  1.00  0.00     0.212 HD
ENDBRANCH  44  45
BRANCH  44  47
HETATM   47  N9  UNL     1     -32.339  24.891  -3.391  1.00  0.00    -0.363 N 
ATOM     48  H9  UNL     1     -31.629  25.256  -2.756  1.00  0.00     0.162 HD
BRANCH  47  49
HETATM   49  C11 UNL     1     -32.060  24.753  -4.764  1.00  0.00     0.030 A 
HETATM   50  C12 UNL     1     -33.055  24.356  -5.621  1.00  0.00     0.032 A 
HETATM   51  C13 UNL     1     -32.818  24.207  -6.992  1.00  0.00     0.039 A 
HETATM   52  C14 UNL     1     -31.582  24.453  -7.520  1.00  0.00     0.065 A 
HETATM   53  C15 UNL     1     -30.586  24.852  -6.649  1.00  0.00     0.039 A 
HETATM   54  C16 UNL     1     -30.815  25.001  -5.298  1.00  0.00     0.032 A 
BRANCH  52  55
HETATM   55  O5  UNL     1     -31.400  24.290  -8.882  1.00  0.00    -0.361 OA
ATOM     56  H5  UNL     1     -31.663  24.994  -9.463  1.00  0.00     0.217 HD
ENDBRANCH  52  55
ENDBRANCH  47  49
ENDBRANCH  44  47
ENDBRANCH   1  44
TORSDOF 13
ENDMDL
MODEL 2
REMARK VINA RESULT: -9.407188241      1.487      2.097
REMARK  13 active torsions:
REMARK  status: ('A' for Active; 'I' for Inactive)
REMARK    1  A    between atoms: O1_2  and  N1_3 
REMARK    2  A    between atoms: C2_6  and  C3_7 
REMARK    3  A    between atoms: C3_7  and  C4_9 
REMARK    4  A    between atoms: C4_9  and  C5_10 
REMARK    5  A    between atoms: C5_10  and  C6_11 
REMARK    6  A    between atoms: C5_10  and  C10_27 
REMARK    7  A    between atoms: N4_15  and  N5_17 
REMARK    8  A    between atoms: C9_24  and  O3_25 
REMARK    9  A    between atoms: C10_27  and  O4_28 
REMARK   10  A    between atoms: C10_27  and  N9_30 
REMARK   11  A    between atoms: N9_30  and  C11_32 
REMARK   12  A    between atoms: C14_35  and  O5_36 
REMARK   13  A    between atoms: C19_42  and  N10_43 
REMARK       I    between atoms: N10_43  and  C20_45 
REMARK       I    between atoms: C20_45  and  N11_46 
REMARK       I    between atoms: C20_45  and  N12_50 
REMARK       I    between atoms: N12_50  and  C21_52 
ROOT
HETATM    1  C5  UNL     1     -33.288  25.429  -2.302  1.00  0.00     0.096 C 
ENDROOT
BRANCH   1   2
HETATM    2  C4  UNL     1     -34.705  25.027  -2.268  1.00  0.00     0.100 C 
BRANCH   2   3
HETATM    3  C3  UNL     1     -35.704  26.048  -2.534  1.00  0.00     0.178 C 
HETATM    4  O2  UNL     1     -35.452  27.268  -2.647  1.00  0.00    -0.291 OA
BRANCH   3   5
HETATM    5  C2  UNL     1     -37.132  25.699  -2.693  1.00  0.00     0.096 A 
HETATM    6  N2  UNL     1     -37.481  24.401  -2.825  1.00  0.00    -0.269 N 
HETATM    7  N1  UNL     1     -38.734  24.052  -2.952  1.00  0.00    -0.144 N 
ATOM      8  H2  UNL     1     -36.756  23.683  -2.826  1.00  0.00     0.190 HD
HETATM    9  C19 UNL     1     -39.777  24.916  -2.966  1.00  0.00     0.150 A 
HETATM   10  C18 UNL     1     -39.459  26.241  -2.837  1.00  0.00     0.055 A 
HETATM   11  C17 UNL     1     -38.140  26.619  -2.703  1.00  0.00     0.038 A 
BRANCH   7  12
HETATM   12  O1  UNL     1     -38.984  22.697  -3.081  1.00  0.00    -0.262 OA
HETATM   13  C1  UNL     1     -38.725  22.073  -4.313  1.00  0.00     0.240 C 
ENDBRANCH   7  12
BRANCH   9  14
HETATM   14  N10 UNL     1     -40.930  24.411  -3.089  1.00  0.00    -0.330 N 
HETATM   15  C20 UNL     1     -41.632  24.094  -4.292  1.00  0.00     0.390 C 
HETATM   16  N11 UNL     1     -41.788  25.281  -5.118  1.00  0.00    -0.041 N 
HETATM   17  N12 UNL     1     -42.935  23.559  -3.918  1.00  0.00    -0.321 N 
ATOM     18 3H11 UNL     1     -42.234  26.043  -4.607  1.00  0.00     0.279 HD
ATOM     19 2H11 UNL     1     -40.892  25.730  -5.308  1.00  0.00     0.279 HD
ATOM     20 1H11 UNL     1     -42.290  25.054  -5.977  1.00  0.00     0.279 HD
HETATM   21  C21 UNL     1     -43.077  22.409  -3.105  1.00  0.00     0.184 C 
ATOM     22  H12 UNL     1     -43.774  24.031  -4.253  1.00  0.00     0.166 HD
HETATM   23  N13 UNL     1     -42.498  21.318  -3.448  1.00  0.00    -0.374 N 
HETATM   24  N14 UNL     1     -43.853  22.471  -1.929  1.00  0.00    -0.064 NA
ATOM     25 2H13 UNL     1     -41.937  21.274  -4.298  1.00  0.00     0.158 HD
ATOM     26 1H13 UNL     1     -42.601  20.489  -2.863  1.00  0.00     0.158 HD
ATOM     27  H10 UNL     1     -41.420  24.205  -2.219  1.00  0.00     0.165 HD
ENDBRANCH   9  14
ENDBRANCH   3   5
ENDBRANCH   2   3
ENDBRANCH   1   2
BRANCH   1  28
HETATM   28  C6  UNL     1     -32.879  25.763  -0.878  1.00  0.00     0.086 A 
HETATM   29  N3  UNL     1     -33.288  25.116   0.193  1.00  0.00    -0.189 N 
HETATM   30  C7  UNL     1     -32.708  25.702   1.262  1.00  0.00     0.699 A 
ATOM     31  H3  UNL     1     -33.925  24.320   0.211  1.00  0.00     0.184 HD
HETATM   32  N4  UNL     1     -32.901  25.301   2.486  1.00  0.00    -0.130 N 
HETATM   33  N8  UNL     1     -31.933  26.720   0.869  1.00  0.00    -0.167 N 
ATOM     34  H4  UNL     1     -33.521  24.505   2.637  1.00  0.00     0.205 HD
HETATM   35  C9  UNL     1     -32.037  26.764  -0.491  1.00  0.00     0.179 A 
ATOM     36  H8  UNL     1     -31.378  27.336   1.464  1.00  0.00     0.186 HD
BRANCH  32  37
HETATM   37  N5  UNL     1     -32.319  25.883   3.591  1.00  0.00    -0.262 N 
HETATM   38  C8  UNL     1     -31.308  25.334   4.159  1.00  0.00     0.216 C 
HETATM   39  N6  UNL     1     -30.771  26.008   5.297  1.00  0.00    -0.065 NA
HETATM   40  N7  UNL     1     -30.779  24.129   3.664  1.00  0.00    -0.065 NA
ATOM     41  H5  UNL     1     -32.694  26.758   3.959  1.00  0.00     0.190 HD
ENDBRANCH  32  37
BRANCH  35  42
HETATM   42  O3  UNL     1     -31.369  27.697  -1.267  1.00  0.00    -0.344 OA
ATOM     43  H3  UNL     1     -31.522  28.632  -1.348  1.00  0.00     0.219 HD
ENDBRANCH  35  42
ENDBRANCH   1  28
BRANCH   1  44
HETATM   44  C10 UNL     1     -32.359  24.308  -2.740  1.00  0.00     0.228 C 
BRANCH  44  45
HETATM   45  O4  UNL     1     -31.886  23.602  -1.682  1.00  0.00    -0.376 OA
ATOM     46  H4  UNL     1     -32.527  23.540  -0.984  1.00  0.00     0.212 HD
ENDBRANCH  44  45
BRANCH  44  47
HETATM   47  N9  UNL     1     -31.233  24.817  -3.481  1.00  0.00    -0.363 N 
ATOM     48  H9  UNL     1     -30.443  25.237  -2.990  1.00  0.00     0.162 HD
BRANCH  47  49
HETATM   49  C11 UNL     1     -31.230  24.730  -4.886  1.00  0.00     0.030 A 
HETATM   50  C12 UNL     1     -32.356  24.296  -5.541  1.00  0.00     0.032 A 
HETATM   51  C13 UNL     1     -32.392  24.195  -6.935  1.00  0.00     0.039 A 
HETATM   52  C14 UNL     1     -31.304  24.527  -7.691  1.00  0.00     0.065 A 
HETATM   53  C15 UNL     1     -30.175  24.964  -7.024  1.00  0.00     0.039 A 
HETATM   54  C16 UNL     1     -30.134  25.065  -5.649  1.00  0.00     0.032 A 
BRANCH  52  55
HETATM   55  O5  UNL     1     -31.392  24.409  -9.067  1.00  0.00    -0.361 OA
ATOM     56  H5  UNL     1     -30.594  24.462  -9.580  1.00  0.00     0.217 HD
ENDBRANCH  52  55
ENDBRANCH  47  49
ENDBRANCH  44  47
ENDBRANCH   1  44
TORSDOF 13
ENDMDL
MODEL 3
REMARK VINA RESULT: -9.224249230      3.467      6.751
REMARK  13 active torsions:
REMARK  status: ('A' for Active; 'I' for Inactive)
REMARK    1  A    between atoms: O1_2  and  N1_3 
REMARK    2  A    between atoms: C2_6  and  C3_7 
REMARK    3  A    between atoms: C3_7  and  C4_9 
REMARK    4  A    between atoms: C4_9  and  C5_10 
REMARK    5  A    between atoms: C5_10  and  C6_11 
REMARK    6  A    between atoms: C5_10  and  C10_27 
REMARK    7  A    between atoms: N4_15  and  N5_17 
REMARK    8  A    between atoms: C9_24  and  O3_25 
REMARK    9  A    between atoms: C10_27  and  O4_28 
REMARK   10  A    between atoms: C10_27  and  N9_30 
REMARK   11  A    between atoms: N9_30  and  C11_32 
REMARK   12  A    between atoms: C14_35  and  O5_36 
REMARK   13  A    between atoms: C19_42  and  N10_43 
REMARK       I    between atoms: N10_43  and  C20_45 
REMARK       I    between atoms: C20_45  and  N11_46 
REMARK       I    between atoms: C20_45  and  N12_50 
REMARK       I    between atoms: N12_50  and  C21_52 
ROOT
HETATM    1  C5  UNL     1     -39.466  26.097  -3.169  1.00  0.00     0.096 C 
ENDROOT
BRANCH   1   2
HETATM    2  C4  UNL     1     -40.191  24.946  -2.600  1.00  0.00     0.100 C 
BRANCH   2   3
HETATM    3  C3  UNL     1     -40.440  23.808  -3.469  1.00  0.00     0.178 C 
HETATM    4  O2  UNL     1     -39.558  23.010  -3.855  1.00  0.00    -0.291 OA
BRANCH   3   5
HETATM    5  C2  UNL     1     -41.799  23.510  -3.969  1.00  0.00     0.096 A 
HETATM    6  N2  UNL     1     -42.120  23.845  -5.238  1.00  0.00    -0.269 N 
HETATM    7  N1  UNL     1     -43.306  23.583  -5.721  1.00  0.00    -0.144 N 
ATOM      8  H2  UNL     1     -41.428  24.308  -5.827  1.00  0.00     0.190 HD
HETATM    9  C19 UNL     1     -44.302  22.975  -5.033  1.00  0.00     0.150 A 
HETATM   10  C18 UNL     1     -44.011  22.625  -3.742  1.00  0.00     0.055 A 
HETATM   11  C17 UNL     1     -42.763  22.896  -3.223  1.00  0.00     0.038 A 
BRANCH   7  12
HETATM   12  O1  UNL     1     -43.533  23.967  -7.031  1.00  0.00    -0.262 OA
HETATM   13  C1  UNL     1     -43.624  25.337  -7.331  1.00  0.00     0.240 C 
ENDBRANCH   7  12
BRANCH   9  14
HETATM   14  N10 UNL     1     -45.388  22.789  -5.654  1.00  0.00    -0.330 N 
HETATM   15  C20 UNL     1     -45.959  21.551  -6.082  1.00  0.00     0.390 C 
HETATM   16  N11 UNL     1     -45.041  20.845  -6.962  1.00  0.00    -0.041 N 
HETATM   17  N12 UNL     1     -47.202  21.855  -6.780  1.00  0.00    -0.321 N 
ATOM     18 3H11 UNL     1     -44.752  21.423  -7.751  1.00  0.00     0.279 HD
ATOM     19 2H11 UNL     1     -44.128  20.712  -6.528  1.00  0.00     0.279 HD
ATOM     20 1H11 UNL     1     -45.450  19.962  -7.269  1.00  0.00     0.279 HD
HETATM   21  C21 UNL     1     -48.270  22.547  -6.160  1.00  0.00     0.184 C 
ATOM     22  H12 UNL     1     -47.306  21.557  -7.749  1.00  0.00     0.166 HD
HETATM   23  N13 UNL     1     -48.754  22.105  -5.060  1.00  0.00    -0.374 N 
HETATM   24  N14 UNL     1     -48.791  23.714  -6.758  1.00  0.00    -0.064 NA
ATOM     25 2H13 UNL     1     -48.377  21.262  -4.628  1.00  0.00     0.158 HD
ATOM     26 1H13 UNL     1     -49.524  22.604  -4.613  1.00  0.00     0.158 HD
ATOM     27  H10 UNL     1     -45.923  23.628  -5.876  1.00  0.00     0.165 HD
ENDBRANCH   9  14
ENDBRANCH   3   5
ENDBRANCH   2   3
ENDBRANCH   1   2
BRANCH   1  28
HETATM   28  C6  UNL     1     -38.023  25.993  -2.709  1.00  0.00     0.086 A 
HETATM   29  N3  UNL     1     -37.462  24.901  -2.232  1.00  0.00    -0.189 N 
HETATM   30  C7  UNL     1     -36.180  25.202  -1.940  1.00  0.00     0.699 A 
ATOM     31  H3  UNL     1     -37.915  23.996  -2.106  1.00  0.00     0.184 HD
HETATM   32  N4  UNL     1     -35.338  24.338  -1.448  1.00  0.00    -0.130 N 
HETATM   33  N8  UNL     1     -35.926  26.484  -2.231  1.00  0.00    -0.167 N 
ATOM     34  H4  UNL     1     -35.672  23.389  -1.277  1.00  0.00     0.205 HD
HETATM   35  C9  UNL     1     -37.094  26.992  -2.721  1.00  0.00     0.179 A 
ATOM     36  H8  UNL     1     -35.042  26.979  -2.112  1.00  0.00     0.186 HD
BRANCH  32  37
HETATM   37  N5  UNL     1     -34.025  24.624  -1.144  1.00  0.00    -0.262 N 
HETATM   38  C8  UNL     1     -33.089  24.340  -1.974  1.00  0.00     0.216 C 
HETATM   39  N6  UNL     1     -31.759  24.672  -1.575  1.00  0.00    -0.065 NA
HETATM   40  N7  UNL     1     -33.388  23.734  -3.206  1.00  0.00    -0.065 NA
ATOM     41  H5  UNL     1     -33.796  25.065  -0.253  1.00  0.00     0.190 HD
ENDBRANCH  32  37
BRANCH  35  42
HETATM   42  O3  UNL     1     -37.228  28.307  -3.135  1.00  0.00    -0.344 OA
ATOM     43  H3  UNL     1     -36.880  29.100  -2.743  1.00  0.00     0.219 HD
ENDBRANCH  35  42
ENDBRANCH   1  28
BRANCH   1  44
HETATM   44  C10 UNL     1     -39.413  26.078  -4.688  1.00  0.00     0.228 C 
BRANCH  44  45
HETATM   45  O4  UNL     1     -38.262  25.522  -5.145  1.00  0.00    -0.376 OA
ATOM     46  H4  UNL     1     -38.374  25.137  -6.007  1.00  0.00     0.212 HD
ENDBRANCH  44  45
BRANCH  44  47
HETATM   47  N9  UNL     1     -39.518  27.407  -5.235  1.00  0.00    -0.363 N 
ATOM     48  H9  UNL     1     -38.761  27.790  -5.801  1.00  0.00     0.162 HD
BRANCH  47  49
HETATM   49  C11 UNL     1     -40.673  28.171  -4.982  1.00  0.00     0.030 A 
HETATM   50  C12 UNL     1     -41.905  27.566  -5.002  1.00  0.00     0.032 A 
HETATM   51  C13 UNL     1     -43.075  28.292  -4.757  1.00  0.00     0.039 A 
HETATM   52  C14 UNL     1     -43.027  29.630  -4.489  1.00  0.00     0.065 A 
HETATM   53  C15 UNL     1     -41.783  30.231  -4.470  1.00  0.00     0.039 A 
HETATM   54  C16 UNL     1     -40.626  29.521  -4.711  1.00  0.00     0.032 A 
BRANCH  52  55
HETATM   55  O5  UNL     1     -44.214  30.302  -4.254  1.00  0.00    -0.361 OA
ATOM     56  H5  UNL     1     -45.033  29.861  -4.449  1.00  0.00     0.217 HD
ENDBRANCH  52  55
ENDBRANCH  47  49
ENDBRANCH  44  47
ENDBRANCH   1  44
TORSDOF 13
ENDMDL
MODEL 4
REMARK VINA RESULT: -9.210824735      1.063      1.583
REMARK  13 active torsions:
REMARK  status: ('A' for Active; 'I' for Inactive)
REMARK    1  A    between atoms: O1_2  and  N1_3 
REMARK    2  A    between atoms: C2_6  and  C3_7 
REMARK    3  A    between atoms: C3_7  and  C4_9 
REMARK    4  A    between atoms: C4_9  and  C5_10 
REMARK    5  A    between atoms: C5_10  and  C6_11 
REMARK    6  A    between atoms: C5_10  and  C10_27 
REMARK    7  A    between atoms: N4_15  and  N5_17 
REMARK    8  A    between atoms: C9_24  and  O3_25 
REMARK    9  A    between atoms: C10_27  and  O4_28 
REMARK   10  A    between atoms: C10_27  and  N9_30 
REMARK   11  A    between atoms: N9_30  and  C11_32 
REMARK   12  A    between atoms: C14_35  and  O5_36 
REMARK   13  A    between atoms: C19_42  and  N10_43 
REMARK       I    between atoms: N10_43  and  C20_45 
REMARK       I    between atoms: C20_45  and  N11_46 
REMARK       I    between atoms: C20_45  and  N12_50 
REMARK       I    between atoms: N12_50  and  C21_52 
ROOT
HETATM    1  C5  UNL     1     -34.407  26.745  -2.281  1.00  0.00     0.096 C 
ENDROOT
BRANCH   1   2
HETATM    2  C4  UNL     1     -35.551  25.821  -2.381  1.00  0.00     0.100 C 
BRANCH   2   3
HETATM    3  C3  UNL     1     -36.871  26.396  -2.579  1.00  0.00     0.178 C 
HETATM    4  O2  UNL     1     -37.148  27.602  -2.392  1.00  0.00    -0.291 OA
BRANCH   3   5
HETATM    5  C2  UNL     1     -38.009  25.566  -3.027  1.00  0.00     0.096 A 
HETATM    6  N2  UNL     1     -39.130  26.173  -3.472  1.00  0.00    -0.269 N 
HETATM    7  N1  UNL     1     -40.151  25.473  -3.891  1.00  0.00    -0.144 N 
ATOM      8  H2  UNL     1     -39.181  27.192  -3.481  1.00  0.00     0.190 HD
HETATM    9  C19 UNL     1     -40.196  24.119  -3.923  1.00  0.00     0.150 A 
HETATM   10  C18 UNL     1     -39.076  23.472  -3.476  1.00  0.00     0.055 A 
HETATM   11  C17 UNL     1     -37.995  24.201  -3.032  1.00  0.00     0.038 A 
BRANCH   7  12
HETATM   12  O1  UNL     1     -41.251  26.191  -4.327  1.00  0.00    -0.262 OA
HETATM   13  C1  UNL     1     -41.084  27.542  -4.677  1.00  0.00     0.240 C 
ENDBRANCH   7  12
BRANCH   9  14
HETATM   14  N10 UNL     1     -41.260  23.598  -4.367  1.00  0.00    -0.330 N 
HETATM   15  C20 UNL     1     -42.276  22.906  -3.639  1.00  0.00     0.390 C 
HETATM   16  N11 UNL     1     -41.710  21.765  -2.937  1.00  0.00    -0.041 N 
HETATM   17  N12 UNL     1     -43.285  22.468  -4.594  1.00  0.00    -0.321 N 
ATOM     18 3H11 UNL     1     -41.205  21.143  -3.568  1.00  0.00     0.279 HD
ATOM     19 2H11 UNL     1     -40.931  22.037  -2.337  1.00  0.00     0.279 HD
ATOM     20 1H11 UNL     1     -42.436  21.271  -2.417  1.00  0.00     0.279 HD
HETATM   21  C21 UNL     1     -43.991  23.374  -5.421  1.00  0.00     0.184 C 
ATOM     22  H12 UNL     1     -43.491  21.472  -4.668  1.00  0.00     0.166 HD
HETATM   23  N13 UNL     1     -44.623  24.353  -4.889  1.00  0.00    -0.374 N 
HETATM   24  N14 UNL     1     -43.994  23.192  -6.820  1.00  0.00    -0.064 NA
ATOM     25 2H13 UNL     1     -44.621  24.485  -3.877  1.00  0.00     0.158 HD
ATOM     26 1H13 UNL     1     -45.132  25.007  -5.485  1.00  0.00     0.158 HD
ATOM     27  H10 UNL     1     -41.410  23.683  -5.372  1.00  0.00     0.165 HD
ENDBRANCH   9  14
ENDBRANCH   3   5
ENDBRANCH   2   3
ENDBRANCH   1   2
BRANCH   1  28
HETATM   28  C6  UNL     1     -33.453  26.172  -1.249  1.00  0.00     0.086 A 
HETATM   29  N3  UNL     1     -32.849  26.873  -0.312  1.00  0.00    -0.189 N 
HETATM   30  C7  UNL     1     -32.093  26.017   0.406  1.00  0.00     0.699 A 
ATOM     31  H3  UNL     1     -32.937  27.878  -0.158  1.00  0.00     0.184 HD
HETATM   32  N4  UNL     1     -31.362  26.388   1.419  1.00  0.00    -0.130 N 
HETATM   33  N8  UNL     1     -32.216  24.774  -0.075  1.00  0.00    -0.167 N 
ATOM     34  H4  UNL     1     -31.366  27.375   1.676  1.00  0.00     0.205 HD
HETATM   35  C9  UNL     1     -33.080  24.866  -1.127  1.00  0.00     0.179 A 
ATOM     36  H8  UNL     1     -31.758  23.931   0.274  1.00  0.00     0.186 HD
BRANCH  32  37
HETATM   37  N5  UNL     1     -30.583  25.531   2.165  1.00  0.00    -0.262 N 
HETATM   38  C8  UNL     1     -30.964  25.156   3.332  1.00  0.00     0.216 C 
HETATM   39  N6  UNL     1     -30.094  24.268   4.033  1.00  0.00    -0.065 NA
HETATM   40  N7  UNL     1     -32.181  25.614   3.867  1.00  0.00    -0.065 NA
ATOM     41  H5  UNL     1     -29.698  25.191   1.788  1.00  0.00     0.190 HD
ENDBRANCH  32  37
BRANCH  35  42
HETATM   42  O3  UNL     1     -33.459  23.772  -1.888  1.00  0.00    -0.344 OA
ATOM     43  H3  UNL     1     -32.982  22.969  -2.066  1.00  0.00     0.219 HD
ENDBRANCH  35  42
ENDBRANCH   1  28
BRANCH   1  44
HETATM   44  C10 UNL     1     -33.605  26.845  -3.568  1.00  0.00     0.228 C 
BRANCH  44  45
HETATM   45  O4  UNL     1     -33.965  27.927  -4.305  1.00  0.00    -0.376 OA
ATOM     46  H4  UNL     1     -34.717  27.745  -4.855  1.00  0.00     0.212 HD
ENDBRANCH  44  45
BRANCH  44  47
HETATM   47  N9  UNL     1     -33.771  25.670  -4.384  1.00  0.00    -0.363 N 
ATOM     48  H9  UNL     1     -34.655  25.161  -4.378  1.00  0.00     0.162 HD
BRANCH  47  49
HETATM   49  C11 UNL     1     -32.704  25.229  -5.191  1.00  0.00     0.030 A 
HETATM   50  C12 UNL     1     -32.963  24.449  -6.290  1.00  0.00     0.032 A 
HETATM   51  C13 UNL     1     -31.931  23.990  -7.116  1.00  0.00     0.039 A 
HETATM   52  C14 UNL     1     -30.629  24.305  -6.850  1.00  0.00     0.065 A 
HETATM   53  C15 UNL     1     -30.377  25.091  -5.741  1.00  0.00     0.039 A 
HETATM   54  C16 UNL     1     -31.391  25.546  -4.925  1.00  0.00     0.032 A 
BRANCH  52  55
HETATM   55  O5  UNL     1     -29.645  23.826  -7.698  1.00  0.00    -0.361 OA
ATOM     56  H5  UNL     1     -28.735  23.963  -7.462  1.00  0.00     0.217 HD
ENDBRANCH  52  55
ENDBRANCH  47  49
ENDBRANCH  44  47
ENDBRANCH   1  44
TORSDOF 13
ENDMDL
MODEL 5
REMARK VINA RESULT: -9.143927276      1.008      1.448
REMARK  13 active torsions:
REMARK  status: ('A' for Active; 'I' for Inactive)
REMARK    1  A    between atoms: O1_2  and  N1_3 
REMARK    2  A    between atoms: C2_6  and  C3_7 
REMARK    3  A    between atoms: C3_7  and  C4_9 
REMARK    4  A    between atoms: C4_9  and  C5_10 
REMARK    5  A    between atoms: C5_10  and  C6_11 
REMARK    6  A    between atoms: C5_10  and  C10_27 
REMARK    7  A    between atoms: N4_15  and  N5_17 
REMARK    8  A    between atoms: C9_24  and  O3_25 
REMARK    9  A    between atoms: C10_27  and  O4_28 
REMARK   10  A    between atoms: C10_27  and  N9_30 
REMARK   11  A    between atoms: N9_30  and  C11_32 
REMARK   12  A    between atoms: C14_35  and  O5_36 
REMARK   13  A    between atoms: C19_42  and  N10_43 
REMARK       I    between atoms: N10_43  and  C20_45 
REMARK       I    between atoms: C20_45  and  N11_46 
REMARK       I    between atoms: C20_45  and  N12_50 
REMARK       I    between atoms: N12_50  and  C21_52 
ROOT
HETATM    1  C5  UNL     1     -34.334  25.619  -2.272  1.00  0.00     0.096 C 
ENDROOT
BRANCH   1   2
HETATM    2  C4  UNL     1     -35.733  25.292  -1.943  1.00  0.00     0.100 C 
BRANCH   2   3
HETATM    3  C3  UNL     1     -36.767  26.202  -2.406  1.00  0.00     0.178 C 
HETATM    4  O2  UNL     1     -36.657  27.448  -2.412  1.00  0.00    -0.291 OA
BRANCH   3   5
HETATM    5  C2  UNL     1     -38.060  25.697  -2.915  1.00  0.00     0.096 A 
HETATM    6  N2  UNL     1     -38.204  24.374  -3.145  1.00  0.00    -0.269 N 
HETATM    7  N1  UNL     1     -39.336  23.888  -3.580  1.00  0.00    -0.144 N 
ATOM      8  H2  UNL     1     -37.418  23.745  -2.977  1.00  0.00     0.190 HD
HETATM    9  C19 UNL     1     -40.443  24.625  -3.840  1.00  0.00     0.150 A 
HETATM   10  C18 UNL     1     -40.330  25.971  -3.620  1.00  0.00     0.055 A 
HETATM   11  C17 UNL     1     -39.140  26.493  -3.161  1.00  0.00     0.038 A 
BRANCH   7  12
HETATM   12  O1  UNL     1     -39.379  22.519  -3.783  1.00  0.00    -0.262 OA
HETATM   13  C1  UNL     1     -38.379  21.918  -4.565  1.00  0.00     0.240 C 
ENDBRANCH   7  12
BRANCH   9  14
HETATM   14  N10 UNL     1     -41.460  23.995  -4.248  1.00  0.00    -0.330 N 
HETATM   15  C20 UNL     1     -42.553  23.489  -3.479  1.00  0.00     0.390 C 
HETATM   16  N11 UNL     1     -42.075  22.565  -2.463  1.00  0.00    -0.041 N 
HETATM   17  N12 UNL     1     -43.465  22.814  -4.394  1.00  0.00    -0.321 N 
ATOM     18 3H11 UNL     1     -41.515  21.814  -2.867  1.00  0.00     0.279 HD
ATOM     19 2H11 UNL     1     -41.359  22.988  -1.873  1.00  0.00     0.279 HD
ATOM     20 1H11 UNL     1     -42.856  22.203  -1.915  1.00  0.00     0.279 HD
HETATM   21  C21 UNL     1     -44.072  23.478  -5.486  1.00  0.00     0.184 C 
ATOM     22  H12 UNL     1     -43.672  21.828  -4.241  1.00  0.00     0.166 HD
HETATM   23  N13 UNL     1     -44.744  24.549  -5.280  1.00  0.00    -0.374 N 
HETATM   24  N14 UNL     1     -43.934  22.957  -6.790  1.00  0.00    -0.064 NA
ATOM     25 2H13 UNL     1     -44.844  24.926  -4.337  1.00  0.00     0.158 HD
ATOM     26 1H13 UNL     1     -45.183  25.027  -6.067  1.00  0.00     0.158 HD
ATOM     27  H10 UNL     1     -41.507  23.827  -5.253  1.00  0.00     0.165 HD
ENDBRANCH   9  14
ENDBRANCH   3   5
ENDBRANCH   2   3
ENDBRANCH   1   2
BRANCH   1  28
HETATM   28  C6  UNL     1     -33.614  25.887  -0.963  1.00  0.00     0.086 A 
HETATM   29  N3  UNL     1     -33.818  25.225   0.157  1.00  0.00    -0.189 N 
HETATM   30  C7  UNL     1     -32.993  25.747   1.089  1.00  0.00     0.699 A 
ATOM     31  H3  UNL     1     -34.477  24.459   0.294  1.00  0.00     0.184 HD
HETATM   32  N4  UNL     1     -32.940  25.315   2.317  1.00  0.00    -0.130 N 
HETATM   33  N8  UNL     1     -32.267  26.741   0.562  1.00  0.00    -0.167 N 
ATOM     34  H4  UNL     1     -33.555  24.545   2.580  1.00  0.00     0.205 HD
HETATM   35  C9  UNL     1     -32.657  26.834  -0.743  1.00  0.00     0.179 A 
ATOM     36  H8  UNL     1     -31.567  27.310   1.037  1.00  0.00     0.186 HD
BRANCH  32  37
HETATM   37  N5  UNL     1     -32.106  25.834   3.283  1.00  0.00    -0.262 N 
HETATM   38  C8  UNL     1     -31.122  25.143   3.731  1.00  0.00     0.216 C 
HETATM   39  N6  UNL     1     -30.310  25.760   4.730  1.00  0.00    -0.065 NA
HETATM   40  N7  UNL     1     -30.878  23.848   3.242  1.00  0.00    -0.065 NA
ATOM     41  H5  UNL     1     -32.272  26.773   3.645  1.00  0.00     0.190 HD
ENDBRANCH  32  37
BRANCH  35  42
HETATM   42  O3  UNL     1     -32.123  27.761  -1.624  1.00  0.00    -0.344 OA
ATOM     43  H3  UNL     1     -32.502  28.568  -1.950  1.00  0.00     0.219 HD
ENDBRANCH  35  42
ENDBRANCH   1  28
BRANCH   1  44
HETATM   44  C10 UNL     1     -33.587  24.465  -2.920  1.00  0.00     0.228 C 
BRANCH  44  45
HETATM   45  O4  UNL     1     -33.374  23.448  -2.047  1.00  0.00    -0.376 OA
ATOM     46  H4  UNL     1     -32.591  23.587  -1.527  1.00  0.00     0.212 HD
ENDBRANCH  44  45
BRANCH  44  47
HETATM   47  N9  UNL     1     -32.310  24.888  -3.437  1.00  0.00    -0.363 N 
ATOM     48  H9  UNL     1     -31.607  25.280  -2.810  1.00  0.00     0.162 HD
BRANCH  47  49
HETATM   49  C11 UNL     1     -32.041  24.758  -4.813  1.00  0.00     0.030 A 
HETATM   50  C12 UNL     1     -33.027  24.311  -5.657  1.00  0.00     0.032 A 
HETATM   51  C13 UNL     1     -32.799  24.167  -7.030  1.00  0.00     0.039 A 
HETATM   52  C14 UNL     1     -31.582  24.469  -7.573  1.00  0.00     0.065 A 
HETATM   53  C15 UNL     1     -30.596  24.918  -6.716  1.00  0.00     0.039 A 
HETATM   54  C16 UNL     1     -30.816  25.062  -5.363  1.00  0.00     0.032 A 
BRANCH  52  55
HETATM   55  O5  UNL     1     -31.408  24.309  -8.937  1.00  0.00    -0.361 OA
ATOM     56  H5  UNL     1     -31.358  23.429  -9.289  1.00  0.00     0.217 HD
ENDBRANCH  52  55
ENDBRANCH  47  49
ENDBRANCH  44  47
ENDBRANCH   1  44
TORSDOF 13
ENDMDL
