MODEL 1
REMARK VINA RESULT: -7.708632950      0.000      0.000
REMARK  9 active torsions:
REMARK  status: ('A' for Active; 'I' for Inactive)
REMARK    1  A    between atoms: N1_1  and  C1_4 
REMARK    2  A    between atoms: C2_7  and  N3_8 
REMARK    3  A    between atoms: C4_10  and  C5_11 
REMARK    4  A    between atoms: C5_11  and  C6_13 
REMARK    5  A    between atoms: C6_13  and  N4_14 
REMARK    6  A    between atoms: C9_24  and  C10_25 
REMARK    7  A    between atoms: C10_25  and  O4_26 
REMARK    8  A    between atoms: C10_25  and  C11_28 
REMARK    9  A    between atoms: C13_32  and  C14_33 
ROOT
HETATM    1  C1  UNL     1     -25.398   1.764  15.289  1.00  0.00     0.115 A 
HETATM    2  N2  UNL     1     -24.729   2.443  14.348  1.00  0.00    -0.327 N 
ATOM      3  H2  UNL     1     -24.038   1.953  13.780  1.00  0.00     0.169 HD
HETATM    4  C2  UNL     1     -24.952   3.798  14.124  1.00  0.00     0.130 A 
HETATM    5  C9  UNL     1     -25.857   4.471  14.854  1.00  0.00     0.048 A 
HETATM    6  C12 UNL     1     -26.562   3.718  15.863  1.00  0.00     0.038 A 
HETATM    7  C13 UNL     1     -26.335   2.385  16.076  1.00  0.00     0.092 A 
ENDROOT
BRANCH   4   8
HETATM    8  N3  UNL     1     -24.075   4.400  13.186  1.00  0.00    -0.258 N 
HETATM    9  C3  UNL     1     -24.375   4.574  11.904  1.00  0.00     0.124 A 
HETATM   10  C4  UNL     1     -23.429   5.087  11.023  1.00  0.00     0.096 A 
HETATM   11  C7  UNL     1     -22.178   5.413  11.483  1.00  0.00     0.264 A 
HETATM   12  O2  UNL     1     -21.275   5.884  10.729  1.00  0.00    -0.267 OA
HETATM   13  N5  UNL     1     -21.890   5.225  12.807  1.00  0.00    -0.274 N 
HETATM   14  C8  UNL     1     -22.823   4.732  13.619  1.00  0.00     0.335 A 
ATOM     15  H5  UNL     1     -20.966   5.461  13.171  1.00  0.00     0.173 HD
HETATM   16  O3  UNL     1     -22.542   4.562  14.842  1.00  0.00    -0.246 OA
BRANCH  10  17
HETATM   17  C5  UNL     1     -23.776   5.271   9.627  1.00  0.00     0.191 C 
HETATM   18  O1  UNL     1     -23.590   4.268   8.849  1.00  0.00    -0.290 OA
BRANCH  17  19
HETATM   19  C6  UNL     1     -24.323   6.541   9.075  1.00  0.00     0.313 C 
BRANCH  19  20
HETATM   20  N4  UNL     1     -25.743   6.647   9.395  1.00  0.00    -0.072 N 
ATOM     21  H43 UNL     1     -26.334   6.357   8.616  1.00  0.00     0.274 HD
ATOM     22  H42 UNL     1     -26.037   5.944  10.073  1.00  0.00     0.274 HD
ATOM     23  H41 UNL     1     -25.956   7.594   9.708  1.00  0.00     0.274 HD
ENDBRANCH  19  20
ENDBRANCH  17  19
ENDBRANCH  10  17
ENDBRANCH   4   8
BRANCH   5  24
HETATM   24  C10 UNL     1     -26.311   5.812  14.642  1.00  0.00     0.145 C 
BRANCH  24  25
HETATM   25  O4  UNL     1     -27.446   5.790  13.889  1.00  0.00    -0.355 OA
ATOM     26  H4  UNL     1     -27.265   6.168  13.037  1.00  0.00     0.218 HD
ENDBRANCH  24  25
BRANCH  24  27
HETATM   27  C11 UNL     1     -25.917   7.128  14.977  1.00  0.00     0.288 C 
HETATM   28  N6  UNL     1     -26.976   8.151  14.929  1.00  0.00    -0.055 NA
HETATM   29  O5  UNL     1     -24.846   7.594  15.309  1.00  0.00    -0.269 OA
ENDBRANCH  24  27
ENDBRANCH   5  24
BRANCH   1  30
HETATM   30  N1  UNL     1     -25.152   0.508  15.450  1.00  0.00    -0.385 N 
ATOM     31  H12 UNL     1     -24.507   0.031  14.821  1.00  0.00     0.157 HD
ATOM     32  H11 UNL     1     -25.610   0.007  16.212  1.00  0.00     0.157 HD
ENDBRANCH   1  30
BRANCH   7  33
HETATM   33  C14 UNL     1     -27.110   1.673  17.150  1.00  0.00     0.421 C 
HETATM   34  F1  UNL     1     -26.477   0.577  17.643  1.00  0.00    -0.166 F 
HETATM   35  F2  UNL     1     -28.351   1.327  16.670  1.00  0.00    -0.166 F 
HETATM   36  F3  UNL     1     -27.281   2.546  18.222  1.00  0.00    -0.166 F 
ENDBRANCH   7  33
TORSDOF 9
ENDMDL
MODEL 2
REMARK VINA RESULT: -7.683812579      1.003      1.409
REMARK  9 active torsions:
REMARK  status: ('A' for Active; 'I' for Inactive)
REMARK    1  A    between atoms: N1_1  and  C1_4 
REMARK    2  A    between atoms: C2_7  and  N3_8 
REMARK    3  A    between atoms: C4_10  and  C5_11 
REMARK    4  A    between atoms: C5_11  and  C6_13 
REMARK    5  A    between atoms: C6_13  and  N4_14 
REMARK    6  A    between atoms: C9_24  and  C10_25 
REMARK    7  A    between atoms: C10_25  and  O4_26 
REMARK    8  A    between atoms: C10_25  and  C11_28 
REMARK    9  A    between atoms: C13_32  and  C14_33 
ROOT
HETATM    1  C1  UNL     1     -25.422   2.206  15.026  1.00  0.00     0.115 A 
HETATM    2  N2  UNL     1     -24.678   2.750  14.055  1.00  0.00    -0.327 N 
ATOM      3  H2  UNL     1     -24.001   2.168  13.562  1.00  0.00     0.169 HD
HETATM    4  C2  UNL     1     -24.805   4.089  13.699  1.00  0.00     0.130 A 
HETATM    5  C9  UNL     1     -25.690   4.882  14.327  1.00  0.00     0.048 A 
HETATM    6  C12 UNL     1     -26.476   4.272  15.371  1.00  0.00     0.038 A 
HETATM    7  C13 UNL     1     -26.343   2.954  15.714  1.00  0.00     0.092 A 
ENDROOT
BRANCH   4   8
HETATM    8  N3  UNL     1     -23.859   4.546  12.746  1.00  0.00    -0.258 N 
HETATM    9  C3  UNL     1     -24.134   4.713  11.458  1.00  0.00     0.124 A 
HETATM   10  C4  UNL     1     -23.131   5.074  10.564  1.00  0.00     0.096 A 
HETATM   11  C7  UNL     1     -21.850   5.257  11.020  1.00  0.00     0.264 A 
HETATM   12  O2  UNL     1     -20.895   5.587  10.254  1.00  0.00    -0.267 OA
HETATM   13  N5  UNL     1     -21.588   5.080  12.351  1.00  0.00    -0.274 N 
HETATM   14  C8  UNL     1     -22.576   4.735  13.173  1.00  0.00     0.335 A 
ATOM     15  H5  UNL     1     -20.643   5.211  12.711  1.00  0.00     0.173 HD
HETATM   16  O3  UNL     1     -22.319   4.571  14.403  1.00  0.00    -0.246 OA
BRANCH  10  17
HETATM   17  C5  UNL     1     -23.451   5.253   9.161  1.00  0.00     0.191 C 
HETATM   18  O1  UNL     1     -23.342   4.220   8.408  1.00  0.00    -0.290 OA
BRANCH  17  19
HETATM   19  C6  UNL     1     -23.889   6.550   8.575  1.00  0.00     0.313 C 
BRANCH  19  20
HETATM   20  N4  UNL     1     -25.327   6.717   8.765  1.00  0.00    -0.072 N 
ATOM     21  H43 UNL     1     -25.768   5.867   9.114  1.00  0.00     0.274 HD
ATOM     22  H42 UNL     1     -25.541   7.329   9.554  1.00  0.00     0.274 HD
ATOM     23  H41 UNL     1     -25.753   7.044   7.899  1.00  0.00     0.274 HD
ENDBRANCH  19  20
ENDBRANCH  17  19
ENDBRANCH  10  17
ENDBRANCH   4   8
BRANCH   5  24
HETATM   24  C10 UNL     1     -26.049   6.223  13.975  1.00  0.00     0.145 C 
BRANCH  24  25
HETATM   25  O4  UNL     1     -25.278   7.096  14.679  1.00  0.00    -0.355 OA
ATOM     26  H4  UNL     1     -25.776   7.433  15.414  1.00  0.00     0.218 HD
ENDBRANCH  24  25
BRANCH  24  27
HETATM   27  C11 UNL     1     -26.967   6.884  13.125  1.00  0.00     0.288 C 
HETATM   28  N6  UNL     1     -26.489   7.181  11.765  1.00  0.00    -0.055 NA
HETATM   29  O5  UNL     1     -28.106   7.264  13.304  1.00  0.00    -0.269 OA
ENDBRANCH  24  27
ENDBRANCH   5  24
BRANCH   1  30
HETATM   30  N1  UNL     1     -25.263   0.957  15.312  1.00  0.00    -0.385 N 
ATOM     31  H12 UNL     1     -24.347   0.614  15.600  1.00  0.00     0.157 HD
ATOM     32  H11 UNL     1     -26.063   0.328  15.245  1.00  0.00     0.157 HD
ENDBRANCH   1  30
BRANCH   7  33
HETATM   33  C14 UNL     1     -27.199   2.395  16.818  1.00  0.00     0.421 C 
HETATM   34  F1  UNL     1     -27.934   1.316  16.442  1.00  0.00    -0.166 F 
HETATM   35  F2  UNL     1     -28.022   3.381  17.306  1.00  0.00    -0.166 F 
HETATM   36  F3  UNL     1     -26.366   1.967  17.848  1.00  0.00    -0.166 F 
ENDBRANCH   7  33
TORSDOF 9
ENDMDL
MODEL 3
REMARK VINA RESULT: -7.340274222      1.358      2.360
REMARK  9 active torsions:
REMARK  status: ('A' for Active; 'I' for Inactive)
REMARK    1  A    between atoms: N1_1  and  C1_4 
REMARK    2  A    between atoms: C2_7  and  N3_8 
REMARK    3  A    between atoms: C4_10  and  C5_11 
REMARK    4  A    between atoms: C5_11  and  C6_13 
REMARK    5  A    between atoms: C6_13  and  N4_14 
REMARK    6  A    between atoms: C9_24  and  C10_25 
REMARK    7  A    between atoms: C10_25  and  O4_26 
REMARK    8  A    between atoms: C10_25  and  C11_28 
REMARK    9  A    between atoms: C13_32  and  C14_33 
ROOT
HETATM    1  C1  UNL     1     -25.411   1.732  15.218  1.00  0.00     0.115 A 
HETATM    2  N2  UNL     1     -24.822   2.413  14.227  1.00  0.00    -0.327 N 
ATOM      3  H2  UNL     1     -24.174   1.926  13.607  1.00  0.00     0.169 HD
HETATM    4  C2  UNL     1     -25.069   3.766  14.020  1.00  0.00     0.130 A 
HETATM    5  C9  UNL     1     -25.918   4.435  14.818  1.00  0.00     0.048 A 
HETATM    6  C12 UNL     1     -26.537   3.680  15.880  1.00  0.00     0.038 A 
HETATM    7  C13 UNL     1     -26.286   2.349  16.076  1.00  0.00     0.092 A 
ENDROOT
BRANCH   4   8
HETATM    8  N3  UNL     1     -24.272   4.372  13.015  1.00  0.00    -0.258 N 
HETATM    9  C3  UNL     1     -23.285   5.223  13.272  1.00  0.00     0.124 A 
HETATM   10  C4  UNL     1     -22.608   5.849  12.231  1.00  0.00     0.096 A 
HETATM   11  C7  UNL     1     -22.964   5.586  10.932  1.00  0.00     0.264 A 
HETATM   12  O2  UNL     1     -22.384   6.126   9.943  1.00  0.00    -0.267 OA
HETATM   13  N5  UNL     1     -23.984   4.707  10.690  1.00  0.00    -0.274 N 
HETATM   14  C8  UNL     1     -24.607   4.127  11.714  1.00  0.00     0.335 A 
ATOM     15  H5  UNL     1     -24.265   4.497   9.733  1.00  0.00     0.173 HD
HETATM   16  O3  UNL     1     -25.550   3.317  11.476  1.00  0.00    -0.246 OA
BRANCH  10  17
HETATM   17  C5  UNL     1     -21.532   6.775  12.531  1.00  0.00     0.191 C 
HETATM   18  O1  UNL     1     -20.336   6.315  12.452  1.00  0.00    -0.290 OA
BRANCH  17  19
HETATM   19  C6  UNL     1     -21.751   8.196  12.915  1.00  0.00     0.313 C 
BRANCH  19  20
HETATM   20  N4  UNL     1     -22.056   8.280  14.340  1.00  0.00    -0.072 N 
ATOM     21  H43 UNL     1     -22.883   7.738  14.588  1.00  0.00     0.274 HD
ATOM     22  H42 UNL     1     -21.374   7.778  14.909  1.00  0.00     0.274 HD
ATOM     23  H41 UNL     1     -22.141   9.258  14.617  1.00  0.00     0.274 HD
ENDBRANCH  19  20
ENDBRANCH  17  19
ENDBRANCH  10  17
ENDBRANCH   4   8
BRANCH   5  24
HETATM   24  C10 UNL     1     -26.395   5.773  14.640  1.00  0.00     0.145 C 
BRANCH  24  25
HETATM   25  O4  UNL     1     -27.541   5.749  13.905  1.00  0.00    -0.355 OA
ATOM     26  H4  UNL     1     -28.289   5.830  14.486  1.00  0.00     0.218 HD
ENDBRANCH  24  25
BRANCH  24  27
HETATM   27  C11 UNL     1     -26.015   7.089  14.996  1.00  0.00     0.288 C 
HETATM   28  N6  UNL     1     -27.074   8.110  14.918  1.00  0.00    -0.055 NA
HETATM   29  O5  UNL     1     -24.956   7.554  15.365  1.00  0.00    -0.269 OA
ENDBRANCH  24  27
ENDBRANCH   5  24
BRANCH   1  30
HETATM   30  N1  UNL     1     -25.145   0.478  15.361  1.00  0.00    -0.385 N 
ATOM     31  H12 UNL     1     -25.553  -0.204  14.723  1.00  0.00     0.157 HD
ATOM     32  H11 UNL     1     -24.526   0.185  16.117  1.00  0.00     0.157 HD
ENDBRANCH   1  30
BRANCH   7  33
HETATM   33  C14 UNL     1     -26.971   1.635  17.209  1.00  0.00     0.421 C 
HETATM   34  F1  UNL     1     -26.218   0.650  17.764  1.00  0.00    -0.166 F 
HETATM   35  F2  UNL     1     -28.171   1.125  16.774  1.00  0.00    -0.166 F 
HETATM   36  F3  UNL     1     -27.225   2.557  18.221  1.00  0.00    -0.166 F 
ENDBRANCH   7  33
TORSDOF 9
ENDMDL
MODEL 4
REMARK VINA RESULT: -7.283863774      1.282      2.466
REMARK  9 active torsions:
REMARK  status: ('A' for Active; 'I' for Inactive)
REMARK    1  A    between atoms: N1_1  and  C1_4 
REMARK    2  A    between atoms: C2_7  and  N3_8 
REMARK    3  A    between atoms: C4_10  and  C5_11 
REMARK    4  A    between atoms: C5_11  and  C6_13 
REMARK    5  A    between atoms: C6_13  and  N4_14 
REMARK    6  A    between atoms: C9_24  and  C10_25 
REMARK    7  A    between atoms: C10_25  and  O4_26 
REMARK    8  A    between atoms: C10_25  and  C11_28 
REMARK    9  A    between atoms: C13_32  and  C14_33 
ROOT
HETATM    1  C1  UNL     1     -25.363   1.608  15.164  1.00  0.00     0.115 A 
HETATM    2  N2  UNL     1     -24.796   2.231  14.123  1.00  0.00    -0.327 N 
ATOM      3  H2  UNL     1     -24.204   1.697  13.487  1.00  0.00     0.169 HD
HETATM    4  C2  UNL     1     -24.995   3.587  13.884  1.00  0.00     0.130 A 
HETATM    5  C9  UNL     1     -25.772   4.318  14.701  1.00  0.00     0.048 A 
HETATM    6  C12 UNL     1     -26.368   3.624  15.816  1.00  0.00     0.038 A 
HETATM    7  C13 UNL     1     -26.166   2.290  16.043  1.00  0.00     0.092 A 
ENDROOT
BRANCH   4   8
HETATM    8  N3  UNL     1     -24.225   4.125  12.821  1.00  0.00    -0.258 N 
HETATM    9  C3  UNL     1     -23.109   4.823  13.001  1.00  0.00     0.124 A 
HETATM   10  C4  UNL     1     -22.457   5.399  11.915  1.00  0.00     0.096 A 
HETATM   11  C7  UNL     1     -22.974   5.247  10.653  1.00  0.00     0.264 A 
HETATM   12  O2  UNL     1     -22.425   5.748   9.627  1.00  0.00    -0.267 OA
HETATM   13  N5  UNL     1     -24.124   4.525  10.491  1.00  0.00    -0.274 N 
HETATM   14  C8  UNL     1     -24.717   3.988  11.555  1.00  0.00     0.335 A 
ATOM     15  H5  UNL     1     -24.525   4.398   9.562  1.00  0.00     0.173 HD
HETATM   16  O3  UNL     1     -25.783   3.324  11.391  1.00  0.00    -0.246 OA
BRANCH  10  17
HETATM   17  C5  UNL     1     -21.239   6.157  12.131  1.00  0.00     0.191 C 
HETATM   18  O1  UNL     1     -21.322   7.174  12.908  1.00  0.00    -0.290 OA
BRANCH  17  19
HETATM   19  C6  UNL     1     -19.933   5.811  11.504  1.00  0.00     0.313 C 
BRANCH  19  20
HETATM   20  N4  UNL     1     -19.662   4.389  11.683  1.00  0.00    -0.072 N 
ATOM     21  H43 UNL     1     -19.074   4.014  10.938  1.00  0.00     0.274 HD
ATOM     22  H42 UNL     1     -19.034   4.213  12.468  1.00  0.00     0.274 HD
ATOM     23  H41 UNL     1     -20.540   3.879  11.772  1.00  0.00     0.274 HD
ENDBRANCH  19  20
ENDBRANCH  17  19
ENDBRANCH  10  17
ENDBRANCH   4   8
BRANCH   5  24
HETATM   24  C10 UNL     1     -26.199   5.670  14.503  1.00  0.00     0.145 C 
BRANCH  24  25
HETATM   25  O4  UNL     1     -27.425   5.674  13.911  1.00  0.00    -0.355 OA
ATOM     26  H4  UNL     1     -28.003   6.258  14.387  1.00  0.00     0.218 HD
ENDBRANCH  24  25
BRANCH  24  27
HETATM   27  C11 UNL     1     -25.713   6.978  14.735  1.00  0.00     0.288 C 
HETATM   28  N6  UNL     1     -26.700   8.065  14.615  1.00  0.00    -0.055 NA
HETATM   29  O5  UNL     1     -24.609   7.393  15.024  1.00  0.00    -0.269 OA
ENDBRANCH  24  27
ENDBRANCH   5  24
BRANCH   1  30
HETATM   30  N1  UNL     1     -25.146   0.348  15.335  1.00  0.00    -0.385 N 
ATOM     31  H12 UNL     1     -24.366  -0.103  14.857  1.00  0.00     0.157 HD
ATOM     32  H11 UNL     1     -25.762  -0.182  15.951  1.00  0.00     0.157 HD
ENDBRANCH   1  30
BRANCH   7  33
HETATM   33  C14 UNL     1     -26.822   1.642  17.232  1.00  0.00     0.421 C 
HETATM   34  F1  UNL     1     -26.012   0.775  17.894  1.00  0.00    -0.166 F 
HETATM   35  F2  UNL     1     -27.972   1.005  16.832  1.00  0.00    -0.166 F 
HETATM   36  F3  UNL     1     -27.164   2.638  18.143  1.00  0.00    -0.166 F 
ENDBRANCH   7  33
TORSDOF 9
ENDMDL
MODEL 5
REMARK VINA RESULT: -7.163279622      3.879      6.777
REMARK  9 active torsions:
REMARK  status: ('A' for Active; 'I' for Inactive)
REMARK    1  A    between atoms: N1_1  and  C1_4 
REMARK    2  A    between atoms: C2_7  and  N3_8 
REMARK    3  A    between atoms: C4_10  and  C5_11 
REMARK    4  A    between atoms: C5_11  and  C6_13 
REMARK    5  A    between atoms: C6_13  and  N4_14 
REMARK    6  A    between atoms: C9_24  and  C10_25 
REMARK    7  A    between atoms: C10_25  and  O4_26 
REMARK    8  A    between atoms: C10_25  and  C11_28 
REMARK    9  A    between atoms: C13_32  and  C14_33 
ROOT
HETATM    1  C1  UNL     1     -25.766   7.686  13.325  1.00  0.00     0.115 A 
HETATM    2  N2  UNL     1     -25.809   6.348  13.291  1.00  0.00    -0.327 N 
ATOM      3  H2  UNL     1     -26.715   5.881  13.257  1.00  0.00     0.169 HD
HETATM    4  C2  UNL     1     -24.650   5.578  13.301  1.00  0.00     0.130 A 
HETATM    5  C9  UNL     1     -23.441   6.163  13.342  1.00  0.00     0.048 A 
HETATM    6  C12 UNL     1     -23.423   7.605  13.382  1.00  0.00     0.038 A 
HETATM    7  C13 UNL     1     -24.569   8.354  13.373  1.00  0.00     0.092 A 
ENDROOT
BRANCH   4   8
HETATM    8  N3  UNL     1     -24.864   4.179  13.393  1.00  0.00    -0.258 N 
HETATM    9  C3  UNL     1     -25.011   3.531  14.543  1.00  0.00     0.124 A 
HETATM   10  C4  UNL     1     -25.124   2.145  14.561  1.00  0.00     0.096 A 
HETATM   11  C7  UNL     1     -25.080   1.445  13.381  1.00  0.00     0.264 A 
HETATM   12  O2  UNL     1     -25.178   0.182  13.334  1.00  0.00    -0.267 OA
HETATM   13  N5  UNL     1     -24.927   2.132  12.208  1.00  0.00    -0.274 N 
HETATM   14  C8  UNL     1     -24.824   3.459  12.234  1.00  0.00     0.335 A 
ATOM     15  H5  UNL     1     -24.893   1.631  11.320  1.00  0.00     0.173 HD
HETATM   16  O3  UNL     1     -24.681   4.082  11.141  1.00  0.00    -0.246 OA
BRANCH  10  17
HETATM   17  C5  UNL     1     -25.285   1.455  15.827  1.00  0.00     0.191 C 
HETATM   18  O1  UNL     1     -24.252   0.853  16.292  1.00  0.00    -0.290 OA
BRANCH  17  19
HETATM   19  C6  UNL     1     -26.565   1.418  16.586  1.00  0.00     0.313 C 
BRANCH  19  20
HETATM   20  N4  UNL     1     -26.459   0.463  17.685  1.00  0.00    -0.072 N 
ATOM     21  H43 UNL     1     -27.074  -0.341  17.555  1.00  0.00     0.274 HD
ATOM     22  H42 UNL     1     -25.567  -0.032  17.679  1.00  0.00     0.274 HD
ATOM     23  H41 UNL     1     -26.629   0.937  18.571  1.00  0.00     0.274 HD
ENDBRANCH  19  20
ENDBRANCH  17  19
ENDBRANCH  10  17
ENDBRANCH   4   8
BRANCH   5  24
HETATM   24  C10 UNL     1     -22.168   5.524  13.198  1.00  0.00     0.145 C 
BRANCH  24  25
HETATM   25  O4  UNL     1     -21.827   4.928  14.373  1.00  0.00    -0.355 OA
ATOM     26  H4  UNL     1     -21.684   4.001  14.226  1.00  0.00     0.218 HD
ENDBRANCH  24  25
BRANCH  24  27
HETATM   27  C11 UNL     1     -21.179   5.348  12.201  1.00  0.00     0.288 C 
HETATM   28  N6  UNL     1     -21.250   4.092  11.436  1.00  0.00    -0.055 NA
HETATM   29  O5  UNL     1     -20.257   6.051  11.842  1.00  0.00    -0.269 OA
ENDBRANCH  24  27
ENDBRANCH   5  24
BRANCH   1  30
HETATM   30  N1  UNL     1     -26.873   8.349  13.312  1.00  0.00    -0.385 N 
ATOM     31  H12 UNL     1     -27.721   7.931  13.693  1.00  0.00     0.157 HD
ATOM     32  H11 UNL     1     -26.882   9.290  12.919  1.00  0.00     0.157 HD
ENDBRANCH   1  30
BRANCH   7  33
HETATM   33  C14 UNL     1     -24.463   9.853  13.419  1.00  0.00     0.421 C 
HETATM   34  F1  UNL     1     -25.076  10.409  14.496  1.00  0.00    -0.166 F 
HETATM   35  F2  UNL     1     -24.970  10.386  12.258  1.00  0.00    -0.166 F 
HETATM   36  F3  UNL     1     -23.116  10.197  13.510  1.00  0.00    -0.166 F 
ENDBRANCH   7  33
TORSDOF 9
ENDMDL
