MODEL 1
REMARK VINA RESULT: -8.283136063      0.000      0.000
REMARK  13 active torsions:
REMARK  status: ('A' for Active; 'I' for Inactive)
REMARK    1  A    between atoms: O1_2  and  N1_3 
REMARK    2  A    between atoms: C2_5  and  C3_6 
REMARK    3  A    between atoms: C2_5  and  C10_19 
REMARK    4  A    between atoms: C3_6  and  C4_7 
REMARK    5  A    between atoms: C4_7  and  N2_8 
REMARK    6  A    between atoms: C4_7  and  C6_12 
REMARK    7  A    between atoms: N2_8  and  O2_10 
REMARK    8  A    between atoms: C6_12  and  C7_14 
REMARK    9  A    between atoms: C7_14  and  O3_17 
REMARK   10  A    between atoms: C13_22  and  N3_23 
REMARK   11  A    between atoms: C25_36  and  C26_37 
REMARK   12  A    between atoms: C27_41  and  C28_42 
REMARK   13  A    between atoms: C28_42  and  C30_44 
ROOT
HETATM    1  C10 UNL     1     -89.777 165.243 -14.174  1.00  0.00     0.004 A 
HETATM    2  C11 UNL     1     -90.573 165.669 -13.139  1.00  0.00     0.017 A 
HETATM    3  C12 UNL     1     -91.647 166.472 -13.310  1.00  0.00     0.031 A 
HETATM    4  C13 UNL     1     -91.966 166.891 -14.614  1.00  0.00     0.050 A 
HETATM    5  C25 UNL     1     -91.184 166.476 -15.704  1.00  0.00     0.086 A 
HETATM    6  C27 UNL     1     -90.060 165.622 -15.483  1.00  0.00     0.001 A 
ENDROOT
BRANCH   1   7
HETATM    7  C2  UNL     1     -88.449 164.673 -13.759  1.00  0.00     0.067 C 
HETATM    8  N1  UNL     1     -87.546 165.375 -13.470  1.00  0.00    -0.267 N 
ATOM      9  H1  UNL     1     -87.973 166.298 -13.546  1.00  0.00     0.194 HD
BRANCH   8  10
HETATM   10  O1  UNL     1     -86.348 165.674 -13.117  1.00  0.00    -0.285 OA
HETATM   11  C1  UNL     1     -85.755 165.777 -11.820  1.00  0.00     0.237 C 
ENDBRANCH   8  10
BRANCH   7  12
HETATM   12  C3  UNL     1     -88.381 163.207 -13.814  1.00  0.00     0.062 C 
BRANCH  12  13
HETATM   13  C4  UNL     1     -87.361 162.445 -13.172  1.00  0.00     0.071 C 
BRANCH  13  14
HETATM   14  N2  UNL     1     -87.116 162.463 -11.936  1.00  0.00    -0.268 N 
ATOM     15  H2  UNL     1     -86.148 162.364 -11.632  1.00  0.00     0.194 HD
BRANCH  14  16
HETATM   16  O2  UNL     1     -88.081 162.608 -10.990  1.00  0.00    -0.285 OA
HETATM   17  C5  UNL     1     -88.039 163.567  -9.958  1.00  0.00     0.237 C 
ENDBRANCH  14  16
ENDBRANCH  13  14
BRANCH  13  18
HETATM   18  C6  UNL     1     -86.490 161.559 -14.000  1.00  0.00     0.255 C 
HETATM   19  F1  UNL     1     -86.211 160.378 -13.378  1.00  0.00    -0.240 F 
BRANCH  18  20
HETATM   20  C7  UNL     1     -85.266 162.166 -14.555  1.00  0.00     0.087 C 
HETATM   21  C8  UNL     1     -84.966 161.938 -16.002  1.00  0.00     0.049 C 
HETATM   22  C9  UNL     1     -84.032 161.650 -13.784  1.00  0.00     0.049 C 
BRANCH  20  23
HETATM   23  O3  UNL     1     -85.213 163.560 -14.362  1.00  0.00    -0.387 OA
ATOM     24  H3  UNL     1     -85.308 163.810 -13.450  1.00  0.00     0.210 HD
ENDBRANCH  20  23
ENDBRANCH  18  20
ENDBRANCH  13  18
ENDBRANCH  12  13
ENDBRANCH   7  12
ENDBRANCH   1   7
BRANCH   6  25
HETATM   25  C28 UNL     1     -89.437 164.808 -16.526  1.00  0.00    -0.008 C 
HETATM   26  C29 UNL     1     -90.123 163.654 -17.165  1.00  0.00     0.050 C 
BRANCH  25  27
HETATM   27  C30 UNL     1     -88.108 165.194 -17.098  1.00  0.00     0.383 C 
HETATM   28  F5  UNL     1     -87.548 166.389 -16.935  1.00  0.00    -0.209 F 
HETATM   29  F6  UNL     1     -87.189 164.164 -16.821  1.00  0.00    -0.209 F 
ENDBRANCH  25  27
ENDBRANCH   6  25
BRANCH   5  30
HETATM   30  C26 UNL     1     -91.634 166.845 -17.024  1.00  0.00     0.420 C 
HETATM   31  F2  UNL     1     -92.791 166.102 -17.391  1.00  0.00    -0.166 F 
HETATM   32  F3  UNL     1     -92.321 168.100 -17.100  1.00  0.00    -0.166 F 
HETATM   33  F4  UNL     1     -90.811 166.717 -18.091  1.00  0.00    -0.166 F 
ENDBRANCH   5  30
BRANCH   4  34
HETATM   34  N3  UNL     1     -93.130 167.706 -14.633  1.00  0.00    -0.348 N 
HETATM   35  C14 UNL     1     -94.412 167.099 -14.821  1.00  0.00     0.138 C 
HETATM   36  C15 UNL     1     -95.590 168.015 -14.894  1.00  0.00    -0.030 C 
HETATM   37  C16 UNL     1     -96.068 168.265 -16.312  1.00  0.00     0.016 C 
HETATM   38  C17 UNL     1     -96.769 167.273 -14.223  1.00  0.00     0.016 C 
HETATM   39  C18 UNL     1     -95.485 169.308 -14.181  1.00  0.00     0.028 C 
HETATM   40  C19 UNL     1     -94.184 169.983 -14.160  1.00  0.00     0.106 C 
HETATM   41  C20 UNL     1     -94.002 171.142 -15.054  1.00  0.00     0.137 C 
HETATM   42  C24 UNL     1     -93.009 169.091 -14.377  1.00  0.00     0.019 C 
HETATM   43  O4  UNL     1     -94.754 171.443 -15.940  1.00  0.00    -0.297 OA
HETATM   44  C21 UNL     1     -92.793 171.977 -14.812  1.00  0.00     0.083 C 
HETATM   45  C22 UNL     1     -91.758 171.205 -14.004  1.00  0.00     0.036 C 
HETATM   46  C23 UNL     1     -91.845 169.748 -14.271  1.00  0.00    -0.001 C 
ENDBRANCH   4  34
TORSDOF 13
ENDMDL
MODEL 2
REMARK VINA RESULT: -8.048286065      1.068      1.872
REMARK  13 active torsions:
REMARK  status: ('A' for Active; 'I' for Inactive)
REMARK    1  A    between atoms: O1_2  and  N1_3 
REMARK    2  A    between atoms: C2_5  and  C3_6 
REMARK    3  A    between atoms: C2_5  and  C10_19 
REMARK    4  A    between atoms: C3_6  and  C4_7 
REMARK    5  A    between atoms: C4_7  and  N2_8 
REMARK    6  A    between atoms: C4_7  and  C6_12 
REMARK    7  A    between atoms: N2_8  and  O2_10 
REMARK    8  A    between atoms: C6_12  and  C7_14 
REMARK    9  A    between atoms: C7_14  and  O3_17 
REMARK   10  A    between atoms: C13_22  and  N3_23 
REMARK   11  A    between atoms: C25_36  and  C26_37 
REMARK   12  A    between atoms: C27_41  and  C28_42 
REMARK   13  A    between atoms: C28_42  and  C30_44 
ROOT
HETATM    1  C10 UNL     1     -89.732 165.164 -14.144  1.00  0.00     0.004 A 
HETATM    2  C11 UNL     1     -90.475 165.573 -13.064  1.00  0.00     0.017 A 
HETATM    3  C12 UNL     1     -91.534 166.407 -13.164  1.00  0.00     0.031 A 
HETATM    4  C13 UNL     1     -91.894 166.880 -14.438  1.00  0.00     0.050 A 
HETATM    5  C25 UNL     1     -91.166 166.485 -15.573  1.00  0.00     0.086 A 
HETATM    6  C27 UNL     1     -90.056 165.596 -15.427  1.00  0.00     0.001 A 
ENDROOT
BRANCH   1   7
HETATM    7  C2  UNL     1     -88.404 164.548 -13.803  1.00  0.00     0.067 C 
HETATM    8  N1  UNL     1     -87.490 165.213 -13.464  1.00  0.00    -0.267 N 
ATOM      9  H1  UNL     1     -87.910 166.143 -13.449  1.00  0.00     0.194 HD
BRANCH   8  10
HETATM   10  O1  UNL     1     -86.284 165.469 -13.102  1.00  0.00    -0.285 OA
HETATM   11  C1  UNL     1     -85.752 165.852 -11.832  1.00  0.00     0.237 C 
ENDBRANCH   8  10
BRANCH   7  12
HETATM   12  C3  UNL     1     -88.350 163.093 -13.994  1.00  0.00     0.062 C 
BRANCH  12  13
HETATM   13  C4  UNL     1     -87.229 162.294 -13.622  1.00  0.00     0.071 C 
BRANCH  13  14
HETATM   14  N2  UNL     1     -86.331 161.898 -14.412  1.00  0.00    -0.268 N 
ATOM     15  H2  UNL     1     -86.269 160.900 -14.615  1.00  0.00     0.194 HD
BRANCH  14  16
HETATM   16  O2  UNL     1     -85.442 162.736 -15.006  1.00  0.00    -0.285 OA
HETATM   17  C5  UNL     1     -84.384 162.310 -15.834  1.00  0.00     0.237 C 
ENDBRANCH  14  16
ENDBRANCH  13  14
BRANCH  13  18
HETATM   18  C6  UNL     1     -87.087 161.865 -12.199  1.00  0.00     0.255 C 
HETATM   19  F1  UNL     1     -88.022 162.439 -11.389  1.00  0.00    -0.240 F 
BRANCH  18  20
HETATM   20  C7  UNL     1     -85.741 161.968 -11.607  1.00  0.00     0.087 C 
HETATM   21  C8  UNL     1     -84.964 160.705 -11.411  1.00  0.00     0.049 C 
HETATM   22  C9  UNL     1     -85.831 162.626 -10.213  1.00  0.00     0.049 C 
BRANCH  20  23
HETATM   23  O3  UNL     1     -84.895 162.836 -12.324  1.00  0.00    -0.387 OA
ATOM     24  H3  UNL     1     -84.767 162.564 -13.226  1.00  0.00     0.210 HD
ENDBRANCH  20  23
ENDBRANCH  18  20
ENDBRANCH  13  18
ENDBRANCH  12  13
ENDBRANCH   7  12
ENDBRANCH   1   7
BRANCH   6  25
HETATM   25  C28 UNL     1     -89.496 164.804 -16.521  1.00  0.00    -0.008 C 
HETATM   26  C29 UNL     1     -90.239 163.694 -17.175  1.00  0.00     0.050 C 
BRANCH  25  27
HETATM   27  C30 UNL     1     -88.179 165.175 -17.130  1.00  0.00     0.383 C 
HETATM   28  F5  UNL     1     -87.568 166.338 -16.926  1.00  0.00    -0.209 F 
HETATM   29  F6  UNL     1     -87.289 164.098 -16.952  1.00  0.00    -0.209 F 
ENDBRANCH  25  27
ENDBRANCH   6  25
BRANCH   5  30
HETATM   30  C26 UNL     1     -91.658 166.911 -16.860  1.00  0.00     0.420 C 
HETATM   31  F2  UNL     1     -92.868 166.236 -17.188  1.00  0.00    -0.166 F 
HETATM   32  F3  UNL     1     -92.284 168.200 -16.872  1.00  0.00    -0.166 F 
HETATM   33  F4  UNL     1     -90.895 166.770 -17.969  1.00  0.00    -0.166 F 
ENDBRANCH   5  30
BRANCH   4  34
HETATM   34  N3  UNL     1     -93.036 167.723 -14.383  1.00  0.00    -0.348 N 
HETATM   35  C14 UNL     1     -94.343 167.141 -14.399  1.00  0.00     0.138 C 
HETATM   36  C15 UNL     1     -95.503 168.082 -14.401  1.00  0.00    -0.030 C 
HETATM   37  C16 UNL     1     -96.124 168.265 -15.773  1.00  0.00     0.016 C 
HETATM   38  C17 UNL     1     -96.619 167.410 -13.567  1.00  0.00     0.016 C 
HETATM   39  C18 UNL     1     -95.296 169.410 -13.780  1.00  0.00     0.028 C 
HETATM   40  C19 UNL     1     -93.987 170.049 -13.935  1.00  0.00     0.106 C 
HETATM   41  C20 UNL     1     -93.877 171.152 -14.909  1.00  0.00     0.137 C 
HETATM   42  C24 UNL     1     -92.860 169.116 -14.222  1.00  0.00     0.019 C 
HETATM   43  O4  UNL     1     -94.713 171.423 -15.726  1.00  0.00    -0.297 OA
HETATM   44  C21 UNL     1     -92.632 171.967 -14.845  1.00  0.00     0.083 C 
HETATM   45  C22 UNL     1     -91.533 171.213 -14.106  1.00  0.00     0.036 C 
HETATM   46  C23 UNL     1     -91.678 169.747 -14.277  1.00  0.00    -0.001 C 
ENDBRANCH   4  34
TORSDOF 13
ENDMDL
MODEL 3
REMARK VINA RESULT: -7.487719418      1.138      1.956
REMARK  13 active torsions:
REMARK  status: ('A' for Active; 'I' for Inactive)
REMARK    1  A    between atoms: O1_2  and  N1_3 
REMARK    2  A    between atoms: C2_5  and  C3_6 
REMARK    3  A    between atoms: C2_5  and  C10_19 
REMARK    4  A    between atoms: C3_6  and  C4_7 
REMARK    5  A    between atoms: C4_7  and  N2_8 
REMARK    6  A    between atoms: C4_7  and  C6_12 
REMARK    7  A    between atoms: N2_8  and  O2_10 
REMARK    8  A    between atoms: C6_12  and  C7_14 
REMARK    9  A    between atoms: C7_14  and  O3_17 
REMARK   10  A    between atoms: C13_22  and  N3_23 
REMARK   11  A    between atoms: C25_36  and  C26_37 
REMARK   12  A    between atoms: C27_41  and  C28_42 
REMARK   13  A    between atoms: C28_42  and  C30_44 
ROOT
HETATM    1  C10 UNL     1     -89.675 165.205 -14.192  1.00  0.00     0.004 A 
HETATM    2  C11 UNL     1     -90.495 165.635 -13.177  1.00  0.00     0.017 A 
HETATM    3  C12 UNL     1     -91.581 166.413 -13.380  1.00  0.00     0.031 A 
HETATM    4  C13 UNL     1     -91.888 166.802 -14.696  1.00  0.00     0.050 A 
HETATM    5  C25 UNL     1     -91.081 166.382 -15.767  1.00  0.00     0.086 A 
HETATM    6  C27 UNL     1     -89.944 165.554 -15.512  1.00  0.00     0.001 A 
ENDROOT
BRANCH   1   7
HETATM    7  C2  UNL     1     -88.343 164.669 -13.747  1.00  0.00     0.067 C 
HETATM    8  N1  UNL     1     -87.443 165.391 -13.505  1.00  0.00    -0.267 N 
ATOM      9  H1  UNL     1     -87.875 166.306 -13.638  1.00  0.00     0.194 HD
BRANCH   8  10
HETATM   10  O1  UNL     1     -86.245 165.718 -13.175  1.00  0.00    -0.285 OA
HETATM   11  C1  UNL     1     -85.650 165.911 -11.889  1.00  0.00     0.237 C 
ENDBRANCH   8  10
BRANCH   7  12
HETATM   12  C3  UNL     1     -88.267 163.202 -13.710  1.00  0.00     0.062 C 
BRANCH  12  13
HETATM   13  C4  UNL     1     -87.038 162.480 -13.679  1.00  0.00     0.071 C 
BRANCH  13  14
HETATM   14  N2  UNL     1     -86.696 161.601 -14.513  1.00  0.00    -0.268 N 
ATOM     15  H2  UNL     1     -86.816 161.801 -15.506  1.00  0.00     0.194 HD
BRANCH  14  16
HETATM   16  O2  UNL     1     -86.172 160.399 -14.154  1.00  0.00    -0.285 OA
HETATM   17  C5  UNL     1     -85.017 159.835 -14.731  1.00  0.00     0.237 C 
ENDBRANCH  14  16
ENDBRANCH  13  14
BRANCH  13  18
HETATM   18  C6  UNL     1     -86.068 162.753 -12.577  1.00  0.00     0.255 C 
HETATM   19  F1  UNL     1     -84.775 162.551 -12.964  1.00  0.00    -0.240 F 
BRANCH  18  20
HETATM   20  C7  UNL     1     -86.338 162.104 -11.281  1.00  0.00     0.087 C 
HETATM   21  C8  UNL     1     -87.093 162.883 -10.252  1.00  0.00     0.049 C 
HETATM   22  C9  UNL     1     -85.007 161.702 -10.610  1.00  0.00     0.049 C 
BRANCH  20  23
HETATM   23  O3  UNL     1     -87.019 160.879 -11.416  1.00  0.00    -0.387 OA
ATOM     24  H3  UNL     1     -86.607 160.173 -10.930  1.00  0.00     0.210 HD
ENDBRANCH  20  23
ENDBRANCH  18  20
ENDBRANCH  13  18
ENDBRANCH  12  13
ENDBRANCH   7  12
ENDBRANCH   1   7
BRANCH   6  25
HETATM   25  C28 UNL     1     -89.290 164.732 -16.530  1.00  0.00    -0.008 C 
HETATM   26  C29 UNL     1     -89.943 163.551 -17.155  1.00  0.00     0.050 C 
BRANCH  25  27
HETATM   27  C30 UNL     1     -87.962 165.136 -17.093  1.00  0.00     0.383 C 
HETATM   28  F5  UNL     1     -87.433 166.347 -16.951  1.00  0.00    -0.209 F 
HETATM   29  F6  UNL     1     -87.024 164.133 -16.777  1.00  0.00    -0.209 F 
ENDBRANCH  25  27
ENDBRANCH   6  25
BRANCH   5  30
HETATM   30  C26 UNL     1     -91.518 166.717 -17.099  1.00  0.00     0.420 C 
HETATM   31  F2  UNL     1     -92.623 165.909 -17.489  1.00  0.00    -0.166 F 
HETATM   32  F3  UNL     1     -92.271 167.932 -17.202  1.00  0.00    -0.166 F 
HETATM   33  F4  UNL     1     -90.663 166.628 -18.145  1.00  0.00    -0.166 F 
ENDBRANCH   5  30
BRANCH   4  34
HETATM   34  N3  UNL     1     -93.066 167.594 -14.749  1.00  0.00    -0.348 N 
HETATM   35  C14 UNL     1     -94.328 166.965 -14.992  1.00  0.00     0.138 C 
HETATM   36  C15 UNL     1     -95.521 167.857 -15.097  1.00  0.00    -0.030 C 
HETATM   37  C16 UNL     1     -95.951 168.117 -16.528  1.00  0.00     0.016 C 
HETATM   38  C17 UNL     1     -96.709 167.084 -14.480  1.00  0.00     0.016 C 
HETATM   39  C18 UNL     1     -95.469 169.143 -14.364  1.00  0.00     0.028 C 
HETATM   40  C19 UNL     1     -94.183 169.843 -14.286  1.00  0.00     0.106 C 
HETATM   41  C20 UNL     1     -93.991 171.017 -15.158  1.00  0.00     0.137 C 
HETATM   42  C24 UNL     1     -92.983 168.977 -14.470  1.00  0.00     0.019 C 
HETATM   43  O4  UNL     1     -94.716 171.316 -16.067  1.00  0.00    -0.297 OA
HETATM   44  C21 UNL     1     -92.809 171.873 -14.860  1.00  0.00     0.083 C 
HETATM   45  C22 UNL     1     -91.789 171.110 -14.024  1.00  0.00     0.036 C 
HETATM   46  C23 UNL     1     -91.837 169.656 -14.312  1.00  0.00    -0.001 C 
ENDBRANCH   4  34
TORSDOF 13
ENDMDL
MODEL 4
REMARK VINA RESULT: -7.289284474      1.242      1.363
REMARK  13 active torsions:
REMARK  status: ('A' for Active; 'I' for Inactive)
REMARK    1  A    between atoms: O1_2  and  N1_3 
REMARK    2  A    between atoms: C2_5  and  C3_6 
REMARK    3  A    between atoms: C2_5  and  C10_19 
REMARK    4  A    between atoms: C3_6  and  C4_7 
REMARK    5  A    between atoms: C4_7  and  N2_8 
REMARK    6  A    between atoms: C4_7  and  C6_12 
REMARK    7  A    between atoms: N2_8  and  O2_10 
REMARK    8  A    between atoms: C6_12  and  C7_14 
REMARK    9  A    between atoms: C7_14  and  O3_17 
REMARK   10  A    between atoms: C13_22  and  N3_23 
REMARK   11  A    between atoms: C25_36  and  C26_37 
REMARK   12  A    between atoms: C27_41  and  C28_42 
REMARK   13  A    between atoms: C28_42  and  C30_44 
ROOT
HETATM    1  C10 UNL     1     -90.154 165.572 -14.548  1.00  0.00     0.004 A 
HETATM    2  C11 UNL     1     -91.002 166.024 -13.566  1.00  0.00     0.017 A 
HETATM    3  C12 UNL     1     -92.126 166.730 -13.822  1.00  0.00     0.031 A 
HETATM    4  C13 UNL     1     -92.444 167.016 -15.162  1.00  0.00     0.050 A 
HETATM    5  C25 UNL     1     -91.610 166.570 -16.200  1.00  0.00     0.086 A 
HETATM    6  C27 UNL     1     -90.433 165.820 -15.889  1.00  0.00     0.001 A 
ENDROOT
BRANCH   1   7
HETATM    7  C2  UNL     1     -88.799 165.136 -14.065  1.00  0.00     0.067 C 
HETATM    8  N1  UNL     1     -87.841 165.799 -14.250  1.00  0.00    -0.267 N 
ATOM      9  H1  UNL     1     -88.245 166.617 -14.708  1.00  0.00     0.194 HD
BRANCH   8  10
HETATM   10  O1  UNL     1     -86.595 166.111 -14.220  1.00  0.00    -0.285 OA
HETATM   11  C1  UNL     1     -85.533 165.798 -15.124  1.00  0.00     0.237 C 
ENDBRANCH   8  10
BRANCH   7  12
HETATM   12  C3  UNL     1     -88.787 163.816 -13.421  1.00  0.00     0.062 C 
BRANCH  12  13
HETATM   13  C4  UNL     1     -87.993 163.509 -12.277  1.00  0.00     0.071 C 
BRANCH  13  14
HETATM   14  N2  UNL     1     -88.071 164.096 -11.165  1.00  0.00    -0.268 N 
ATOM     15  H2  UNL     1     -87.816 165.082 -11.118  1.00  0.00     0.194 HD
BRANCH  14  16
HETATM   16  O2  UNL     1     -88.478 163.478 -10.025  1.00  0.00    -0.285 OA
HETATM   17  C5  UNL     1     -87.718 163.421  -8.840  1.00  0.00     0.237 C 
ENDBRANCH  14  16
ENDBRANCH  13  14
BRANCH  13  18
HETATM   18  C6  UNL     1     -86.972 162.424 -12.376  1.00  0.00     0.255 C 
HETATM   19  F1  UNL     1     -87.264 161.362 -11.572  1.00  0.00    -0.240 F 
BRANCH  18  20
HETATM   20  C7  UNL     1     -85.561 162.827 -12.226  1.00  0.00     0.087 C 
HETATM   21  C8  UNL     1     -84.607 162.450 -13.314  1.00  0.00     0.049 C 
HETATM   22  C9  UNL     1     -84.980 162.223 -10.930  1.00  0.00     0.049 C 
BRANCH  20  23
HETATM   23  O3  UNL     1     -85.407 164.214 -12.038  1.00  0.00    -0.387 OA
ATOM     24  H3  UNL     1     -86.200 164.633 -11.722  1.00  0.00     0.210 HD
ENDBRANCH  20  23
ENDBRANCH  18  20
ENDBRANCH  13  18
ENDBRANCH  12  13
ENDBRANCH   7  12
ENDBRANCH   1   7
BRANCH   6  25
HETATM   25  C28 UNL     1     -89.731 164.970 -16.849  1.00  0.00    -0.008 C 
HETATM   26  C29 UNL     1     -90.346 163.760 -17.456  1.00  0.00     0.050 C 
BRANCH  25  27
HETATM   27  C30 UNL     1     -88.385 165.367 -17.372  1.00  0.00     0.383 C 
HETATM   28  F5  UNL     1     -87.829 166.557 -17.165  1.00  0.00    -0.209 F 
HETATM   29  F6  UNL     1     -87.476 164.329 -17.092  1.00  0.00    -0.209 F 
ENDBRANCH  25  27
ENDBRANCH   6  25
BRANCH   5  30
HETATM   30  C26 UNL     1     -92.055 166.795 -17.553  1.00  0.00     0.420 C 
HETATM   31  F2  UNL     1     -93.120 165.913 -17.889  1.00  0.00    -0.166 F 
HETATM   32  F3  UNL     1     -92.861 167.965 -17.738  1.00  0.00    -0.166 F 
HETATM   33  F4  UNL     1     -91.192 166.674 -18.589  1.00  0.00    -0.166 F 
ENDBRANCH   5  30
BRANCH   4  34
HETATM   34  N3  UNL     1     -93.661 167.740 -15.269  1.00  0.00    -0.348 N 
HETATM   35  C14 UNL     1     -94.869 167.044 -15.593  1.00  0.00     0.138 C 
HETATM   36  C15 UNL     1     -96.104 167.869 -15.752  1.00  0.00    -0.030 C 
HETATM   37  C16 UNL     1     -96.467 168.131 -17.202  1.00  0.00     0.016 C 
HETATM   38  C17 UNL     1     -97.278 167.018 -15.216  1.00  0.00     0.016 C 
HETATM   39  C18 UNL     1     -96.168 169.142 -14.999  1.00  0.00     0.028 C 
HETATM   40  C19 UNL     1     -94.931 169.912 -14.836  1.00  0.00     0.106 C 
HETATM   41  C20 UNL     1     -94.760 171.112 -15.677  1.00  0.00     0.137 C 
HETATM   42  C24 UNL     1     -93.675 169.120 -14.965  1.00  0.00     0.019 C 
HETATM   43  O4  UNL     1     -95.448 171.385 -16.622  1.00  0.00    -0.297 OA
HETATM   44  C21 UNL     1     -93.648 172.028 -15.300  1.00  0.00     0.083 C 
HETATM   45  C22 UNL     1     -92.634 171.309 -14.418  1.00  0.00     0.036 C 
HETATM   46  C23 UNL     1     -92.581 169.860 -14.732  1.00  0.00    -0.001 C 
ENDBRANCH   4  34
TORSDOF 13
ENDMDL
MODEL 5
REMARK VINA RESULT: -7.279761537      4.085      7.227
REMARK  13 active torsions:
REMARK  status: ('A' for Active; 'I' for Inactive)
REMARK    1  A    between atoms: O1_2  and  N1_3 
REMARK    2  A    between atoms: C2_5  and  C3_6 
REMARK    3  A    between atoms: C2_5  and  C10_19 
REMARK    4  A    between atoms: C3_6  and  C4_7 
REMARK    5  A    between atoms: C4_7  and  N2_8 
REMARK    6  A    between atoms: C4_7  and  C6_12 
REMARK    7  A    between atoms: N2_8  and  O2_10 
REMARK    8  A    between atoms: C6_12  and  C7_14 
REMARK    9  A    between atoms: C7_14  and  O3_17 
REMARK   10  A    between atoms: C13_22  and  N3_23 
REMARK   11  A    between atoms: C25_36  and  C26_37 
REMARK   12  A    between atoms: C27_41  and  C28_42 
REMARK   13  A    between atoms: C28_42  and  C30_44 
ROOT
HETATM    1  C10 UNL     1     -94.080 168.244 -16.150  1.00  0.00     0.004 A 
HETATM    2  C11 UNL     1     -93.869 168.158 -17.505  1.00  0.00     0.017 A 
HETATM    3  C12 UNL     1     -94.846 167.864 -18.391  1.00  0.00     0.031 A 
HETATM    4  C13 UNL     1     -96.144 167.633 -17.902  1.00  0.00     0.050 A 
HETATM    5  C25 UNL     1     -96.408 167.715 -16.525  1.00  0.00     0.086 A 
HETATM    6  C27 UNL     1     -95.349 168.036 -15.620  1.00  0.00     0.001 A 
ENDROOT
BRANCH   1   7
HETATM    7  C2  UNL     1     -92.832 168.219 -15.312  1.00  0.00     0.067 C 
HETATM    8  N1  UNL     1     -92.270 169.215 -15.023  1.00  0.00    -0.267 N 
ATOM      9  H1  UNL     1     -92.881 169.921 -15.434  1.00  0.00     0.194 HD
BRANCH   8  10
HETATM   10  O1  UNL     1     -91.350 169.944 -14.501  1.00  0.00    -0.285 OA
HETATM   11  C1  UNL     1     -91.346 171.329 -14.144  1.00  0.00     0.237 C 
ENDBRANCH   8  10
BRANCH   7  12
HETATM   12  C3  UNL     1     -92.371 166.870 -14.962  1.00  0.00     0.062 C 
BRANCH  12  13
HETATM   13  C4  UNL     1     -91.664 166.023 -15.865  1.00  0.00     0.071 C 
BRANCH  13  14
HETATM   14  N2  UNL     1     -92.183 165.090 -16.535  1.00  0.00    -0.268 N 
ATOM     15  H2  UNL     1     -92.825 164.453 -16.064  1.00  0.00     0.194 HD
BRANCH  14  16
HETATM   16  O2  UNL     1     -91.927 164.893 -17.855  1.00  0.00    -0.285 OA
HETATM   17  C5  UNL     1     -92.810 165.249 -18.894  1.00  0.00     0.237 C 
ENDBRANCH  14  16
ENDBRANCH  13  14
BRANCH  13  18
HETATM   18  C6  UNL     1     -90.195 166.220 -16.043  1.00  0.00     0.255 C 
HETATM   19  F1  UNL     1     -89.872 166.591 -17.315  1.00  0.00    -0.240 F 
BRANCH  18  20
HETATM   20  C7  UNL     1     -89.319 165.131 -15.572  1.00  0.00     0.087 C 
HETATM   21  C8  UNL     1     -89.260 164.866 -14.102  1.00  0.00     0.049 C 
HETATM   22  C9  UNL     1     -87.864 165.405 -16.008  1.00  0.00     0.049 C 
BRANCH  20  23
HETATM   23  O3  UNL     1     -89.614 163.894 -16.178  1.00  0.00    -0.387 OA
ATOM     24  H3  UNL     1     -89.383 163.152 -15.630  1.00  0.00     0.210 HD
ENDBRANCH  20  23
ENDBRANCH  18  20
ENDBRANCH  13  18
ENDBRANCH  12  13
ENDBRANCH   7  12
ENDBRANCH   1   7
BRANCH   6  25
HETATM   25  C28 UNL     1     -95.561 168.547 -14.266  1.00  0.00    -0.008 C 
HETATM   26  C29 UNL     1     -95.539 167.674 -13.062  1.00  0.00     0.050 C 
BRANCH  25  27
HETATM   27  C30 UNL     1     -95.675 170.020 -14.020  1.00  0.00     0.383 C 
HETATM   28  F5  UNL     1     -95.082 170.946 -14.766  1.00  0.00    -0.209 F 
HETATM   29  F6  UNL     1     -97.034 170.331 -13.814  1.00  0.00    -0.209 F 
ENDBRANCH  25  27
ENDBRANCH   6  25
BRANCH   5  30
HETATM   30  C26 UNL     1     -97.781 167.584 -16.102  1.00  0.00     0.420 C 
HETATM   31  F2  UNL     1     -98.519 166.782 -17.018  1.00  0.00    -0.166 F 
HETATM   32  F3  UNL     1     -97.995 166.677 -15.014  1.00  0.00    -0.166 F 
HETATM   33  F4  UNL     1     -98.555 168.682 -15.933  1.00  0.00    -0.166 F 
ENDBRANCH   5  30
BRANCH   4  34
HETATM   34  N3  UNL     1     -97.061 167.361 -18.952  1.00  0.00    -0.348 N 
HETATM   35  C14 UNL     1     -97.166 166.030 -19.468  1.00  0.00     0.138 C 
HETATM   36  C15 UNL     1     -98.103 165.820 -20.612  1.00  0.00    -0.030 C 
HETATM   37  C16 UNL     1     -97.399 165.737 -21.954  1.00  0.00     0.016 C 
HETATM   38  C17 UNL     1     -98.724 164.417 -20.424  1.00  0.00     0.016 C 
HETATM   39  C18 UNL     1     -99.253 166.745 -20.723  1.00  0.00     0.028 C 
HETATM   40  C19 UNL     1     -99.052 168.147 -20.344  1.00  0.00     0.106 C 
HETATM   41  C20 UNL     1     -98.919 169.135 -21.431  1.00  0.00     0.137 C 
HETATM   42  C24 UNL     1     -97.917 168.389 -19.408  1.00  0.00     0.019 C 
HETATM   43  O4  UNL     1     -98.753 168.858 -22.586  1.00  0.00    -0.297 OA
HETATM   44  C21 UNL     1     -99.003 170.568 -21.033  1.00  0.00     0.083 C 
HETATM   45  C22 UNL     1     -98.744 170.728 -19.540  1.00  0.00     0.036 C 
HETATM   46  C23 UNL     1     -97.829 169.675 -19.037  1.00  0.00    -0.001 C 
ENDBRANCH   4  34
TORSDOF 13
ENDMDL
