MODEL 1
REMARK VINA RESULT: -5.437125887      0.000      0.000
REMARK  1 active torsions:
REMARK  status: ('A' for Active; 'I' for Inactive)
REMARK    1  A    between atoms: C3_5  and  C4_6 
ROOT
HETATM    1  C1  UNL     1      26.823  -3.607  -6.273  1.00  0.00     0.089 C 
HETATM    2  C2  UNL     1      27.846  -3.857  -7.332  1.00  0.00     0.077 A 
HETATM    3  N1  UNL     1      28.979  -3.165  -7.535  1.00  0.00    -0.343 N 
ATOM      4  H1  UNL     1      29.293  -2.382  -6.961  1.00  0.00     0.167 HD
HETATM    5  C3  UNL     1      29.652  -3.655  -8.612  1.00  0.00     0.075 A 
HETATM    6  C6  UNL     1      28.879  -4.700  -9.072  1.00  0.00     0.035 A 
HETATM    7  C7  UNL     1      29.290  -5.571 -10.218  1.00  0.00     0.070 C 
HETATM    8  N3  UNL     1      27.808  -4.791  -8.286  1.00  0.00    -0.348 N 
ATOM      9  H3  UNL     1      27.062  -5.477  -8.397  1.00  0.00     0.167 HD
ENDROOT
BRANCH   5  10
HETATM   10  C4  UNL     1      30.844  -3.070  -9.222  1.00  0.00     0.049 C 
HETATM   11  C5  UNL     1      32.043  -3.901  -9.157  1.00  0.00     0.067 C 
HETATM   12  N2  UNL     1      30.700  -2.054 -10.211  1.00  0.00    -0.105 NA
ENDBRANCH   5  10
TORSDOF 1
ENDMDL
MODEL 2
REMARK VINA RESULT: -4.967553434      1.060      1.185
REMARK  1 active torsions:
REMARK  status: ('A' for Active; 'I' for Inactive)
REMARK    1  A    between atoms: C3_5  and  C4_6 
ROOT
HETATM    1  C1  UNL     1      27.058  -3.387  -6.517  1.00  0.00     0.089 C 
HETATM    2  C2  UNL     1      28.074  -3.786  -7.538  1.00  0.00     0.077 A 
HETATM    3  N1  UNL     1      29.294  -3.253  -7.709  1.00  0.00    -0.343 N 
ATOM      4  H1  UNL     1      29.689  -2.509  -7.133  1.00  0.00     0.167 HD
HETATM    5  C3  UNL     1      29.930  -3.844  -8.757  1.00  0.00     0.075 A 
HETATM    6  C6  UNL     1      29.042  -4.785  -9.232  1.00  0.00     0.035 A 
HETATM    7  C7  UNL     1      29.372  -5.720 -10.353  1.00  0.00     0.070 C 
HETATM    8  N3  UNL     1      27.943  -4.722  -8.482  1.00  0.00    -0.348 N 
ATOM      9  H3  UNL     1      27.117  -5.306  -8.611  1.00  0.00     0.167 HD
ENDROOT
BRANCH   5  10
HETATM   10  C4  UNL     1      31.209  -3.431  -9.332  1.00  0.00     0.049 C 
HETATM   11  C5  UNL     1      31.319  -2.007  -9.633  1.00  0.00     0.067 C 
HETATM   12  N2  UNL     1      32.368  -4.234  -9.119  1.00  0.00    -0.105 NA
ENDBRANCH   5  10
TORSDOF 1
ENDMDL
MODEL 3
REMARK VINA RESULT: -4.841748340      1.723      3.923
REMARK  1 active torsions:
REMARK  status: ('A' for Active; 'I' for Inactive)
REMARK    1  A    between atoms: C3_5  and  C4_6 
ROOT
HETATM    1  C1  UNL     1      32.205  -2.125 -12.074  1.00  0.00     0.089 C 
HETATM    2  C2  UNL     1      31.247  -2.908 -11.237  1.00  0.00     0.077 A 
HETATM    3  N1  UNL     1      30.554  -2.463 -10.178  1.00  0.00    -0.343 N 
ATOM      4  H1  UNL     1      30.584  -1.506  -9.824  1.00  0.00     0.167 HD
HETATM    5  C3  UNL     1      29.805  -3.465  -9.641  1.00  0.00     0.075 A 
HETATM    6  C6  UNL     1      30.063  -4.566 -10.428  1.00  0.00     0.035 A 
HETATM    7  C7  UNL     1      29.383  -5.885 -10.228  1.00  0.00     0.070 C 
HETATM    8  N3  UNL     1      30.929  -4.199 -11.370  1.00  0.00    -0.348 N 
ATOM      9  H3  UNL     1      31.300  -4.817 -12.093  1.00  0.00     0.167 HD
ENDROOT
BRANCH   5  10
HETATM   10  C4  UNL     1      29.037  -3.395  -8.399  1.00  0.00     0.049 C 
HETATM   11  C5  UNL     1      29.812  -3.046  -7.213  1.00  0.00     0.067 C 
HETATM   12  N2  UNL     1      27.629  -3.178  -8.455  1.00  0.00    -0.105 NA
ENDBRANCH   5  10
TORSDOF 1
ENDMDL
MODEL 4
REMARK VINA RESULT: -4.731310527      2.380      3.190
REMARK  1 active torsions:
REMARK  status: ('A' for Active; 'I' for Inactive)
REMARK    1  A    between atoms: C3_5  and  C4_6 
ROOT
HETATM    1  C1  UNL     1      27.946  -4.585  -8.411  1.00  0.00     0.089 C 
HETATM    2  C2  UNL     1      29.077  -4.296  -9.343  1.00  0.00     0.077 A 
HETATM    3  N1  UNL     1      29.743  -5.182 -10.099  1.00  0.00    -0.343 N 
ATOM      4  H1  UNL     1      29.535  -6.180 -10.143  1.00  0.00     0.167 HD
HETATM    5  C3  UNL     1      30.734  -4.564 -10.799  1.00  0.00     0.075 A 
HETATM    6  C6  UNL     1      30.649  -3.236 -10.443  1.00  0.00     0.035 A 
HETATM    7  C7  UNL     1      31.522  -2.177 -11.042  1.00  0.00     0.070 C 
HETATM    8  N3  UNL     1      29.650  -3.111  -9.571  1.00  0.00    -0.348 N 
ATOM      9  H3  UNL     1      29.363  -2.233  -9.138  1.00  0.00     0.167 HD
ENDROOT
BRANCH   5  10
HETATM   10  C4  UNL     1      31.755  -5.224 -11.610  1.00  0.00     0.049 C 
HETATM   11  C5  UNL     1      32.643  -6.121 -10.876  1.00  0.00     0.067 C 
HETATM   12  N2  UNL     1      31.552  -5.368 -13.014  1.00  0.00    -0.105 NA
ENDBRANCH   5  10
TORSDOF 1
ENDMDL
MODEL 5
REMARK VINA RESULT: -4.570733797      1.842      2.180
REMARK  1 active torsions:
REMARK  status: ('A' for Active; 'I' for Inactive)
REMARK    1  A    between atoms: C3_5  and  C4_6 
ROOT
HETATM    1  C1  UNL     1      27.977  -3.888  -7.753  1.00  0.00     0.089 C 
HETATM    2  C2  UNL     1      29.123  -3.895  -8.711  1.00  0.00     0.077 A 
HETATM    3  N1  UNL     1      30.230  -3.138  -8.646  1.00  0.00    -0.343 N 
ATOM      4  H1  UNL     1      30.433  -2.468  -7.904  1.00  0.00     0.167 HD
HETATM    5  C3  UNL     1      31.043  -3.391  -9.708  1.00  0.00     0.075 A 
HETATM    6  C6  UNL     1      30.387  -4.355 -10.442  1.00  0.00     0.035 A 
HETATM    7  C7  UNL     1      30.970  -4.977 -11.672  1.00  0.00     0.070 C 
HETATM    8  N3  UNL     1      29.243  -4.632  -9.819  1.00  0.00    -0.348 N 
ATOM      9  H3  UNL     1      28.554  -5.311 -10.143  1.00  0.00     0.167 HD
ENDROOT
BRANCH   5  10
HETATM   10  C4  UNL     1      32.261  -2.658 -10.053  1.00  0.00     0.049 C 
HETATM   11  C5  UNL     1      32.155  -1.205  -9.957  1.00  0.00     0.067 C 
HETATM   12  N2  UNL     1      33.523  -3.316  -9.974  1.00  0.00    -0.105 NA
ENDBRANCH   5  10
TORSDOF 1
ENDMDL
