MODEL 1
REMARK VINA RESULT: -4.222112834      0.000      0.000
REMARK  1 active torsions:
REMARK  status: ('A' for Active; 'I' for Inactive)
REMARK    1  A    between atoms: C2_2  and  C4_4 
ROOT
HETATM    1  C4  UNL     1      30.101  -3.085 -10.013  1.00  0.00     0.189 C 
HETATM    2  N1  UNL     1      30.948  -3.640 -11.052  1.00  0.00    -0.346 N 
ATOM      3  H1  UNL     1      30.804  -4.072 -11.965  1.00  0.00     0.164 HD
HETATM    4  C5  UNL     1      32.069  -3.317 -10.239  1.00  0.00     0.170 C 
HETATM    5  S1  UNL     1      33.646  -3.751 -10.158  1.00  0.00    -0.041 SA
HETATM    6  N2  UNL     1      31.247  -2.438  -9.503  1.00  0.00    -0.346 N 
ATOM      7  H2  UNL     1      31.412  -1.658  -8.866  1.00  0.00     0.164 HD
ENDROOT
BRANCH   1   8
HETATM    8  C2  UNL     1      29.456  -4.156  -9.180  1.00  0.00     0.020 C 
HETATM    9  C1  UNL     1      28.161  -3.633  -8.592  1.00  0.00     0.013 C 
HETATM   10  C3  UNL     1      29.187  -5.425  -9.892  1.00  0.00     0.013 C 
ENDBRANCH   1   8
TORSDOF 1
ENDMDL
MODEL 2
REMARK VINA RESULT: -4.058302267      1.266      1.915
REMARK  1 active torsions:
REMARK  status: ('A' for Active; 'I' for Inactive)
REMARK    1  A    between atoms: C2_2  and  C4_4 
ROOT
HETATM    1  C4  UNL     1      30.627  -3.701  -9.151  1.00  0.00     0.189 C 
HETATM    2  N1  UNL     1      30.979  -2.447  -9.791  1.00  0.00    -0.346 N 
ATOM      3  H1  UNL     1      30.860  -1.456  -9.580  1.00  0.00     0.164 HD
HETATM    4  C5  UNL     1      31.563  -3.207 -10.842  1.00  0.00     0.170 C 
HETATM    5  S1  UNL     1      32.032  -2.937 -12.388  1.00  0.00    -0.041 SA
HETATM    6  N2  UNL     1      31.577  -4.328  -9.986  1.00  0.00    -0.346 N 
ATOM      7  H2  UNL     1      32.069  -5.222  -9.975  1.00  0.00     0.164 HD
ENDROOT
BRANCH   1   8
HETATM    8  C2  UNL     1      29.177  -4.043  -9.338  1.00  0.00     0.020 C 
HETATM    9  C1  UNL     1      29.044  -5.502  -9.723  1.00  0.00     0.013 C 
HETATM   10  C3  UNL     1      28.314  -3.770  -8.167  1.00  0.00     0.013 C 
ENDBRANCH   1   8
TORSDOF 1
ENDMDL
MODEL 3
REMARK VINA RESULT: -4.017348394      1.934      2.442
REMARK  1 active torsions:
REMARK  status: ('A' for Active; 'I' for Inactive)
REMARK    1  A    between atoms: C2_2  and  C4_4 
ROOT
HETATM    1  C4  UNL     1      30.995  -5.003 -10.454  1.00  0.00     0.189 C 
HETATM    2  N1  UNL     1      32.135  -4.132 -10.677  1.00  0.00    -0.346 N 
ATOM      3  H1  UNL     1      32.866  -3.718 -10.099  1.00  0.00     0.164 HD
HETATM    4  C5  UNL     1      31.784  -4.110 -12.055  1.00  0.00     0.170 C 
HETATM    5  S1  UNL     1      32.128  -3.177 -13.356  1.00  0.00    -0.041 SA
HETATM    6  N2  UNL     1      30.992  -5.258 -11.843  1.00  0.00    -0.346 N 
ATOM      7  H2  UNL     1      30.585  -5.975 -12.443  1.00  0.00     0.164 HD
ENDROOT
BRANCH   1   8
HETATM    8  C2  UNL     1      29.829  -4.265  -9.862  1.00  0.00     0.020 C 
HETATM    9  C1  UNL     1      28.788  -5.258  -9.386  1.00  0.00     0.013 C 
HETATM   10  C3  UNL     1      30.168  -3.349  -8.750  1.00  0.00     0.013 C 
ENDBRANCH   1   8
TORSDOF 1
ENDMDL
MODEL 4
REMARK VINA RESULT: -3.938295951      1.640      1.902
REMARK  1 active torsions:
REMARK  status: ('A' for Active; 'I' for Inactive)
REMARK    1  A    between atoms: C2_2  and  C4_4 
ROOT
HETATM    1  C4  UNL     1      30.066  -4.124 -10.335  1.00  0.00     0.189 C 
HETATM    2  N1  UNL     1      30.174  -5.389 -11.040  1.00  0.00    -0.346 N 
ATOM      3  H1  UNL     1      29.528  -6.032 -11.498  1.00  0.00     0.164 HD
HETATM    4  C5  UNL     1      31.576  -5.336 -10.814  1.00  0.00     0.170 C 
HETATM    5  S1  UNL     1      32.829  -6.391 -10.849  1.00  0.00    -0.041 SA
HETATM    6  N2  UNL     1      31.453  -3.958 -10.538  1.00  0.00    -0.346 N 
ATOM      7  H2  UNL     1      32.098  -3.168 -10.501  1.00  0.00     0.164 HD
ENDROOT
BRANCH   1   8
HETATM    8  C2  UNL     1      29.567  -4.304  -8.930  1.00  0.00     0.020 C 
HETATM    9  C1  UNL     1      30.105  -3.190  -8.054  1.00  0.00     0.013 C 
HETATM   10  C3  UNL     1      28.095  -4.361  -8.791  1.00  0.00     0.013 C 
ENDBRANCH   1   8
TORSDOF 1
ENDMDL
MODEL 5
REMARK VINA RESULT: -3.870042611      1.571      1.955
REMARK  1 active torsions:
REMARK  status: ('A' for Active; 'I' for Inactive)
REMARK    1  A    between atoms: C2_2  and  C4_4 
ROOT
HETATM    1  C4  UNL     1      30.586  -4.997 -11.103  1.00  0.00     0.189 C 
HETATM    2  N1  UNL     1      31.676  -5.947 -10.972  1.00  0.00    -0.346 N 
ATOM      3  H1  UNL     1      31.762  -6.942 -10.767  1.00  0.00     0.164 HD
HETATM    4  C5  UNL     1      32.571  -4.880 -11.258  1.00  0.00     0.170 C 
HETATM    5  S1  UNL     1      34.174  -4.589 -11.079  1.00  0.00    -0.041 SA
HETATM    6  N2  UNL     1      31.486  -4.144 -11.778  1.00  0.00    -0.346 N 
ATOM      7  H2  UNL     1      31.390  -3.332 -12.389  1.00  0.00     0.164 HD
ENDROOT
BRANCH   1   8
HETATM    8  C2  UNL     1      30.056  -4.560  -9.768  1.00  0.00     0.020 C 
HETATM    9  C1  UNL     1      29.851  -3.059  -9.767  1.00  0.00     0.013 C 
HETATM   10  C3  UNL     1      28.799  -5.220  -9.348  1.00  0.00     0.013 C 
ENDBRANCH   1   8
TORSDOF 1
ENDMDL
