MODEL 1
REMARK VINA RESULT: -5.158448151      0.000      0.000
REMARK  2 active torsions:
REMARK  status: ('A' for Active; 'I' for Inactive)
REMARK    1  A    between atoms: C2_2  and  C3_3 
REMARK    2  A    between atoms: C7_9  and  N2_10 
ROOT
HETATM    1  C3  UNL     1     -29.778  -4.588  10.256  1.00  0.00     0.028 A 
HETATM    2  C4  UNL     1     -30.126  -3.269  10.076  1.00  0.00     0.050 A 
HETATM    3  C5  UNL     1     -31.041  -2.708  10.941  1.00  0.00     0.024 A 
HETATM    4  C6  UNL     1     -31.476  -1.283  10.817  1.00  0.00     0.068 C 
HETATM    5  N1  UNL     1     -31.585  -3.419  11.937  1.00  0.00    -0.196 N 
ATOM      6  H1  UNL     1     -32.261  -2.997  12.572  1.00  0.00     0.184 HD
HETATM    7  C7  UNL     1     -31.218  -4.706  12.079  1.00  0.00     0.676 A 
HETATM    8  N3  UNL     1     -30.330  -5.291  11.258  1.00  0.00    -0.196 N 
ATOM      9  H3  UNL     1     -30.074  -6.269  11.397  1.00  0.00     0.184 HD
ENDROOT
BRANCH   7  10
HETATM   10  N2  UNL     1     -31.741  -5.389  13.036  1.00  0.00    -0.234 N 
ATOM     11  H22 UNL     1     -32.678  -5.776  12.924  1.00  0.00     0.174 HD
ATOM     12  H21 UNL     1     -31.197  -5.525  13.888  1.00  0.00     0.174 HD
ENDBRANCH   7  10
BRANCH   1  13
HETATM   13  C2  UNL     1     -28.781  -5.240   9.333  1.00  0.00     0.053 C 
HETATM   14  C1  UNL     1     -28.055  -4.107   8.624  1.00  0.00     0.011 C 
ENDBRANCH   1  13
TORSDOF 2
ENDMDL
MODEL 2
REMARK VINA RESULT: -4.820607791      1.510      2.649
REMARK  2 active torsions:
REMARK  status: ('A' for Active; 'I' for Inactive)
REMARK    1  A    between atoms: C2_2  and  C3_3 
REMARK    2  A    between atoms: C7_9  and  N2_10 
ROOT
HETATM    1  C3  UNL     1     -29.558  -4.218   9.717  1.00  0.00     0.028 A 
HETATM    2  C4  UNL     1     -30.032  -4.863  10.837  1.00  0.00     0.050 A 
HETATM    3  C5  UNL     1     -31.084  -4.297  11.525  1.00  0.00     0.024 A 
HETATM    4  C6  UNL     1     -31.659  -4.929  12.750  1.00  0.00     0.068 C 
HETATM    5  N1  UNL     1     -31.640  -3.146  11.123  1.00  0.00    -0.196 N 
ATOM      6  H1  UNL     1     -32.417  -2.734  11.638  1.00  0.00     0.184 HD
HETATM    7  C7  UNL     1     -31.147  -2.547  10.024  1.00  0.00     0.676 A 
HETATM    8  N3  UNL     1     -30.124  -3.065   9.324  1.00  0.00    -0.196 N 
ATOM      9  H3  UNL     1     -29.777  -2.584   8.495  1.00  0.00     0.184 HD
ENDROOT
BRANCH   7  10
HETATM   10  N2  UNL     1     -31.682  -1.442   9.637  1.00  0.00    -0.234 N 
ATOM     11  H22 UNL     1     -32.677  -1.417   9.412  1.00  0.00     0.174 HD
ATOM     12  H21 UNL     1     -31.090  -0.615   9.567  1.00  0.00     0.174 HD
ENDBRANCH   7  10
BRANCH   1  13
HETATM   13  C2  UNL     1     -28.410  -4.803   8.937  1.00  0.00     0.053 C 
HETATM   14  C1  UNL     1     -28.000  -3.742   7.926  1.00  0.00     0.011 C 
ENDBRANCH   1  13
TORSDOF 2
ENDMDL
MODEL 3
REMARK VINA RESULT: -4.800549043      0.739      3.299
REMARK  2 active torsions:
REMARK  status: ('A' for Active; 'I' for Inactive)
REMARK    1  A    between atoms: C2_2  and  C3_3 
REMARK    2  A    between atoms: C7_9  and  N2_10 
ROOT
HETATM    1  C3  UNL     1     -31.159  -2.663  10.252  1.00  0.00     0.028 A 
HETATM    2  C4  UNL     1     -30.124  -3.071   9.443  1.00  0.00     0.050 A 
HETATM    3  C5  UNL     1     -29.505  -4.270   9.724  1.00  0.00     0.024 A 
HETATM    4  C6  UNL     1     -28.373  -4.788   8.898  1.00  0.00     0.068 C 
HETATM    5  N1  UNL     1     -29.892  -5.028  10.758  1.00  0.00    -0.196 N 
ATOM      6  H1  UNL     1     -29.429  -5.914  10.959  1.00  0.00     0.184 HD
HETATM    7  C7  UNL     1     -30.908  -4.593  11.525  1.00  0.00     0.676 A 
HETATM    8  N3  UNL     1     -31.538  -3.431  11.286  1.00  0.00    -0.196 N 
ATOM      9  H3  UNL     1     -32.306  -3.133  11.888  1.00  0.00     0.184 HD
ENDROOT
BRANCH   7  10
HETATM   10  N2  UNL     1     -31.281  -5.323  12.519  1.00  0.00    -0.234 N 
ATOM     11  H22 UNL     1     -32.267  -5.564  12.622  1.00  0.00     0.174 HD
ATOM     12  H21 UNL     1     -30.573  -5.640  13.179  1.00  0.00     0.174 HD
ENDBRANCH   7  10
BRANCH   1  13
HETATM   13  C2  UNL     1     -31.862  -1.358   9.980  1.00  0.00     0.053 C 
HETATM   14  C1  UNL     1     -31.742  -0.538  11.255  1.00  0.00     0.011 C 
ENDBRANCH   1  13
TORSDOF 2
ENDMDL
MODEL 4
REMARK VINA RESULT: -4.652885417      3.240      4.431
REMARK  2 active torsions:
REMARK  status: ('A' for Active; 'I' for Inactive)
REMARK    1  A    between atoms: C2_2  and  C3_3 
REMARK    2  A    between atoms: C7_9  and  N2_10 
ROOT
HETATM    1  C3  UNL     1     -29.011  -4.783   9.132  1.00  0.00     0.028 A 
HETATM    2  C4  UNL     1     -29.941  -3.830   8.786  1.00  0.00     0.050 A 
HETATM    3  C5  UNL     1     -29.695  -3.045   7.679  1.00  0.00     0.024 A 
HETATM    4  C6  UNL     1     -30.651  -1.986   7.232  1.00  0.00     0.068 C 
HETATM    5  N1  UNL     1     -28.581  -3.197   6.950  1.00  0.00    -0.196 N 
ATOM      6  H1  UNL     1     -28.407  -2.613   6.133  1.00  0.00     0.184 HD
HETATM    7  C7  UNL     1     -27.697  -4.141   7.323  1.00  0.00     0.676 A 
HETATM    8  N3  UNL     1     -27.898  -4.926   8.394  1.00  0.00    -0.196 N 
ATOM      9  H3  UNL     1     -27.206  -5.632   8.646  1.00  0.00     0.184 HD
ENDROOT
BRANCH   7  10
HETATM   10  N2  UNL     1     -26.627  -4.287   6.622  1.00  0.00    -0.234 N 
ATOM     11  H22 UNL     1     -25.919  -4.958   6.921  1.00  0.00     0.174 HD
ATOM     12  H21 UNL     1     -26.518  -3.723   5.780  1.00  0.00     0.174 HD
ENDBRANCH   7  10
BRANCH   1  13
HETATM   13  C2  UNL     1     -29.240  -5.661  10.335  1.00  0.00     0.053 C 
HETATM   14  C1  UNL     1     -30.379  -5.022  11.115  1.00  0.00     0.011 C 
ENDBRANCH   1  13
TORSDOF 2
ENDMDL
MODEL 5
REMARK VINA RESULT: -4.651124646      0.968      1.176
REMARK  2 active torsions:
REMARK  status: ('A' for Active; 'I' for Inactive)
REMARK    1  A    between atoms: C2_2  and  C3_3 
REMARK    2  A    between atoms: C7_9  and  N2_10 
ROOT
HETATM    1  C3  UNL     1     -29.853  -3.343   9.800  1.00  0.00     0.028 A 
HETATM    2  C4  UNL     1     -30.801  -2.349   9.716  1.00  0.00     0.050 A 
HETATM    3  C5  UNL     1     -31.889  -2.408  10.561  1.00  0.00     0.024 A 
HETATM    4  C6  UNL     1     -32.965  -1.371  10.537  1.00  0.00     0.068 C 
HETATM    5  N1  UNL     1     -32.031  -3.404  11.446  1.00  0.00    -0.196 N 
ATOM      6  H1  UNL     1     -32.839  -3.439  12.067  1.00  0.00     0.184 HD
HETATM    7  C7  UNL     1     -31.082  -4.356  11.496  1.00  0.00     0.676 A 
HETATM    8  N3  UNL     1     -30.006  -4.336  10.691  1.00  0.00    -0.196 N 
ATOM      9  H3  UNL     1     -29.305  -5.074  10.757  1.00  0.00     0.184 HD
ENDROOT
BRANCH   7  10
HETATM   10  N2  UNL     1     -31.218  -5.312  12.347  1.00  0.00    -0.234 N 
ATOM     11  H22 UNL     1     -31.784  -5.163  13.183  1.00  0.00     0.174 HD
ATOM     12  H21 UNL     1     -30.752  -6.199  12.158  1.00  0.00     0.174 HD
ENDBRANCH   7  10
BRANCH   1  13
HETATM   13  C2  UNL     1     -28.648  -3.317   8.894  1.00  0.00     0.053 C 
HETATM   14  C1  UNL     1     -28.202  -4.763   8.741  1.00  0.00     0.011 C 
ENDBRANCH   1  13
TORSDOF 2
ENDMDL
