MODEL 1
REMARK VINA RESULT: -4.369072138      0.000      0.000
REMARK  2 active torsions:
REMARK  status: ('A' for Active; 'I' for Inactive)
REMARK    1  A    between atoms: C2_2  and  N1_4 
REMARK    2  A    between atoms: C2_2  and  C4_8 
ROOT
HETATM    1  C4  UNL     1      -6.469  -4.445  15.858  1.00  0.00     0.220 C 
HETATM    2  C5  UNL     1      -6.578  -3.059  16.441  1.00  0.00     0.036 C 
HETATM    3  C6  UNL     1      -7.521  -3.174  17.645  1.00  0.00     0.004 C 
HETATM    4  C7  UNL     1      -8.850  -3.593  17.100  1.00  0.00     0.027 C 
HETATM    5  C8  UNL     1      -8.703  -4.996  16.534  1.00  0.00     0.233 C 
HETATM    6  N2  UNL     1      -7.774  -4.871  15.403  1.00  0.00    -0.069 N 
ATOM      7  H21 UNL     1      -7.722  -5.732  14.859  1.00  0.00     0.277 HD
ATOM      8  H22 UNL     1      -8.142  -4.254  14.679  1.00  0.00     0.277 HD
ENDROOT
BRANCH   1   9
HETATM    9  C2  UNL     1      -5.555  -4.458  14.641  1.00  0.00     0.144 C 
HETATM   10  C1  UNL     1      -4.128  -4.678  15.039  1.00  0.00     0.048 C 
HETATM   11  C3  UNL     1      -5.653  -3.084  13.988  1.00  0.00     0.048 C 
BRANCH   9  12
HETATM   12  N1  UNL     1      -5.998  -5.426  13.690  1.00  0.00    -0.069 N 
ATOM     13  H13 UNL     1      -5.222  -5.991  13.347  1.00  0.00     0.275 HD
ATOM     14  H12 UNL     1      -6.546  -6.160  14.137  1.00  0.00     0.275 HD
ATOM     15  H11 UNL     1      -6.512  -4.996  12.921  1.00  0.00     0.275 HD
ENDBRANCH   9  12
ENDBRANCH   1   9
TORSDOF 2
ENDMDL
MODEL 2
REMARK VINA RESULT: -4.339374914      2.064      2.766
REMARK  2 active torsions:
REMARK  status: ('A' for Active; 'I' for Inactive)
REMARK    1  A    between atoms: C2_2  and  N1_4 
REMARK    2  A    between atoms: C2_2  and  C4_8 
ROOT
HETATM    1  C4  UNL     1      -5.475  -3.168  15.454  1.00  0.00     0.220 C 
HETATM    2  C5  UNL     1      -6.933  -2.840  15.646  1.00  0.00     0.036 C 
HETATM    3  C6  UNL     1      -7.584  -4.105  16.220  1.00  0.00     0.004 C 
HETATM    4  C7  UNL     1      -7.445  -5.163  15.172  1.00  0.00     0.027 C 
HETATM    5  C8  UNL     1      -5.965  -5.474  15.016  1.00  0.00     0.233 C 
HETATM    6  N2  UNL     1      -5.355  -4.244  14.496  1.00  0.00    -0.069 N 
ATOM      7  H21 UNL     1      -4.386  -4.393  14.214  1.00  0.00     0.277 HD
ATOM      8  H22 UNL     1      -5.741  -3.986  13.587  1.00  0.00     0.277 HD
ENDROOT
BRANCH   1   9
HETATM    9  C2  UNL     1      -4.717  -1.982  14.878  1.00  0.00     0.144 C 
HETATM   10  C1  UNL     1      -5.069  -0.715  15.595  1.00  0.00     0.048 C 
HETATM   11  C3  UNL     1      -5.150  -1.832  13.423  1.00  0.00     0.048 C 
BRANCH   9  12
HETATM   12  N1  UNL     1      -3.311  -2.229  14.891  1.00  0.00    -0.069 N 
ATOM     13  H13 UNL     1      -2.786  -1.375  15.080  1.00  0.00     0.275 HD
ATOM     14  H12 UNL     1      -3.038  -2.770  15.711  1.00  0.00     0.275 HD
ATOM     15  H11 UNL     1      -2.995  -2.676  14.030  1.00  0.00     0.275 HD
ENDBRANCH   9  12
ENDBRANCH   1   9
TORSDOF 2
ENDMDL
MODEL 3
REMARK VINA RESULT: -4.262146678      1.476      2.036
REMARK  2 active torsions:
REMARK  status: ('A' for Active; 'I' for Inactive)
REMARK    1  A    between atoms: C2_2  and  N1_4 
REMARK    2  A    between atoms: C2_2  and  C4_8 
ROOT
HETATM    1  C4  UNL     1      -6.984  -3.594  15.396  1.00  0.00     0.220 C 
HETATM    2  C5  UNL     1      -7.016  -5.098  15.483  1.00  0.00     0.036 C 
HETATM    3  C6  UNL     1      -8.484  -5.482  15.711  1.00  0.00     0.004 C 
HETATM    4  C7  UNL     1      -8.872  -4.897  17.031  1.00  0.00     0.027 C 
HETATM    5  C8  UNL     1      -8.840  -3.383  16.900  1.00  0.00     0.233 C 
HETATM    6  N2  UNL     1      -7.434  -3.038  16.653  1.00  0.00    -0.069 N 
ATOM      7  H21 UNL     1      -7.279  -2.030  16.698  1.00  0.00     0.277 HD
ATOM      8  H22 UNL     1      -6.834  -3.320  17.428  1.00  0.00     0.277 HD
ENDROOT
BRANCH   1   9
HETATM    9  C2  UNL     1      -5.566  -3.087  15.176  1.00  0.00     0.144 C 
HETATM   10  C1  UNL     1      -4.564  -3.978  15.843  1.00  0.00     0.048 C 
HETATM   11  C3  UNL     1      -5.473  -1.710  15.823  1.00  0.00     0.048 C 
BRANCH   9  12
HETATM   12  N1  UNL     1      -5.299  -2.933  13.782  1.00  0.00    -0.069 N 
ATOM     13  H13 UNL     1      -4.596  -2.212  13.617  1.00  0.00     0.275 HD
ATOM     14  H12 UNL     1      -4.793  -3.737  13.411  1.00  0.00     0.275 HD
ATOM     15  H11 UNL     1      -6.149  -2.752  13.249  1.00  0.00     0.275 HD
ENDBRANCH   9  12
ENDBRANCH   1   9
TORSDOF 2
ENDMDL
MODEL 4
REMARK VINA RESULT: -4.259281426      1.045      1.355
REMARK  2 active torsions:
REMARK  status: ('A' for Active; 'I' for Inactive)
REMARK    1  A    between atoms: C2_2  and  N1_4 
REMARK    2  A    between atoms: C2_2  and  C4_8 
ROOT
HETATM    1  C4  UNL     1      -6.564  -4.229  16.119  1.00  0.00     0.220 C 
HETATM    2  C5  UNL     1      -6.857  -2.926  16.816  1.00  0.00     0.036 C 
HETATM    3  C6  UNL     1      -7.876  -3.249  17.917  1.00  0.00     0.004 C 
HETATM    4  C7  UNL     1      -9.109  -3.731  17.220  1.00  0.00     0.027 C 
HETATM    5  C8  UNL     1      -8.778  -5.050  16.541  1.00  0.00     0.233 C 
HETATM    6  N2  UNL     1      -7.780  -4.726  15.513  1.00  0.00    -0.069 N 
ATOM      7  H21 UNL     1      -7.599  -5.520  14.898  1.00  0.00     0.277 HD
ATOM      8  H22 UNL     1      -8.150  -4.075  14.820  1.00  0.00     0.277 HD
ENDROOT
BRANCH   1   9
HETATM    9  C2  UNL     1      -5.561  -4.035  14.992  1.00  0.00     0.144 C 
HETATM   10  C1  UNL     1      -5.596  -2.630  14.474  1.00  0.00     0.048 C 
HETATM   11  C3  UNL     1      -5.974  -4.964  13.855  1.00  0.00     0.048 C 
BRANCH   9  12
HETATM   12  N1  UNL     1      -4.252  -4.416  15.412  1.00  0.00    -0.069 N 
ATOM     13  H13 UNL     1      -4.288  -5.031  16.226  1.00  0.00     0.275 HD
ATOM     14  H12 UNL     1      -3.821  -5.057  14.747  1.00  0.00     0.275 HD
ATOM     15  H11 UNL     1      -3.657  -3.606  15.586  1.00  0.00     0.275 HD
ENDBRANCH   9  12
ENDBRANCH   1   9
TORSDOF 2
ENDMDL
MODEL 5
REMARK VINA RESULT: -4.243646653      2.058      2.648
REMARK  2 active torsions:
REMARK  status: ('A' for Active; 'I' for Inactive)
REMARK    1  A    between atoms: C2_2  and  N1_4 
REMARK    2  A    between atoms: C2_2  and  C4_8 
ROOT
HETATM    1  C4  UNL     1      -5.419  -3.135  15.327  1.00  0.00     0.220 C 
HETATM    2  C5  UNL     1      -6.865  -2.805  15.593  1.00  0.00     0.036 C 
HETATM    3  C6  UNL     1      -7.484  -4.065  16.212  1.00  0.00     0.004 C 
HETATM    4  C7  UNL     1      -7.399  -5.132  15.168  1.00  0.00     0.027 C 
HETATM    5  C8  UNL     1      -5.930  -5.445  14.936  1.00  0.00     0.233 C 
HETATM    6  N2  UNL     1      -5.349  -4.219  14.373  1.00  0.00    -0.069 N 
ATOM      7  H21 UNL     1      -4.396  -4.371  14.042  1.00  0.00     0.277 HD
ATOM      8  H22 UNL     1      -5.782  -3.970  13.484  1.00  0.00     0.277 HD
ENDROOT
BRANCH   1   9
HETATM    9  C2  UNL     1      -4.693  -1.953  14.701  1.00  0.00     0.144 C 
HETATM   10  C1  UNL     1      -3.209  -2.150  14.736  1.00  0.00     0.048 C 
HETATM   11  C3  UNL     1      -5.023  -0.724  15.541  1.00  0.00     0.048 C 
BRANCH   9  12
HETATM   12  N1  UNL     1      -5.168  -1.716  13.376  1.00  0.00    -0.069 N 
ATOM     13  H13 UNL     1      -4.504  -2.052  12.678  1.00  0.00     0.275 HD
ATOM     14  H12 UNL     1      -5.956  -2.323  13.151  1.00  0.00     0.275 HD
ATOM     15  H11 UNL     1      -5.400  -0.734  13.225  1.00  0.00     0.275 HD
ENDBRANCH   9  12
ENDBRANCH   1   9
TORSDOF 2
ENDMDL
