MODEL 1
REMARK VINA RESULT: -6.692741353      0.000      0.000
REMARK  4 active torsions:
REMARK  status: ('A' for Active; 'I' for Inactive)
REMARK    1  A    between atoms: N3_6  and  C4_7 
REMARK    2  A    between atoms: C7_13  and  N5_14 
REMARK    3  A    between atoms: C10_17  and  C11_18 
REMARK    4  A    between atoms: C11_18  and  N6_19 
ROOT
HETATM    1  N1  UNL     1       3.817 -45.518  29.367  1.00  0.00    -0.172 NA
HETATM    2  C1  UNL     1       4.869 -45.560  29.894  1.00  0.00     0.179 C 
HETATM    3  N2  UNL     1       6.099 -45.618  30.534  1.00  0.00    -0.317 N 
HETATM    4  C2  UNL     1       6.454 -44.640  31.533  1.00  0.00     0.154 C 
HETATM    5  C3  UNL     1       7.797 -44.077  31.132  1.00  0.00     0.145 C 
HETATM    6  N3  UNL     1       8.766 -45.142  30.929  1.00  0.00    -0.364 N 
HETATM    7  C13 UNL     1       8.323 -46.505  31.053  1.00  0.00     0.145 C 
HETATM    8  C14 UNL     1       7.046 -46.657  30.214  1.00  0.00     0.154 C 
ENDROOT
BRANCH   6   9
HETATM    9  C4  UNL     1      10.096 -44.770  30.618  1.00  0.00     0.124 A 
HETATM   10  C5  UNL     1      11.192 -45.184  31.338  1.00  0.00     0.123 A 
HETATM   11  C6  UNL     1      12.502 -44.813  31.021  1.00  0.00     0.263 A 
HETATM   12  O1  UNL     1      13.440 -45.242  31.739  1.00  0.00    -0.268 OA
HETATM   13  N4  UNL     1      12.660 -44.017  29.959  1.00  0.00    -0.156 N 
HETATM   14  C7  UNL     1      11.618 -43.589  29.227  1.00  0.00     0.684 A 
ATOM     15  H4  UNL     1      13.601 -43.724  29.696  1.00  0.00     0.187 HD
HETATM   16  N7  UNL     1      10.369 -43.959  29.553  1.00  0.00    -0.176 N 
ATOM     17  H7  UNL     1       9.594 -43.620  28.983  1.00  0.00     0.186 HD
BRANCH  14  18
HETATM   18  N5  UNL     1      11.800 -42.744  28.105  1.00  0.00    -0.217 N 
HETATM   19  C8  UNL     1      12.140 -41.335  28.114  1.00  0.00     0.141 C 
HETATM   20  C9  UNL     1      11.596 -40.830  26.821  1.00  0.00     0.028 C 
HETATM   21  C10 UNL     1      11.627 -41.983  25.863  1.00  0.00     0.031 C 
HETATM   22  C12 UNL     1      11.661 -43.201  26.728  1.00  0.00     0.147 C 
BRANCH  21  23
HETATM   23  C11 UNL     1      12.798 -41.929  24.918  1.00  0.00     0.235 C 
BRANCH  23  24
HETATM   24  N6  UNL     1      13.329 -43.251  24.646  1.00  0.00    -0.079 N 
ATOM     25  H63 UNL     1      13.499 -43.768  25.509  1.00  0.00     0.274 HD
ATOM     26  H62 UNL     1      12.620 -43.859  24.235  1.00  0.00     0.274 HD
ATOM     27  H61 UNL     1      14.166 -43.209  24.066  1.00  0.00     0.274 HD
ENDBRANCH  23  24
ENDBRANCH  21  23
ENDBRANCH  14  18
ENDBRANCH   6   9
TORSDOF 4
ENDMDL
MODEL 2
REMARK VINA RESULT: -6.569999917      1.403      7.113
REMARK  4 active torsions:
REMARK  status: ('A' for Active; 'I' for Inactive)
REMARK    1  A    between atoms: N3_6  and  C4_7 
REMARK    2  A    between atoms: C7_13  and  N5_14 
REMARK    3  A    between atoms: C10_17  and  C11_18 
REMARK    4  A    between atoms: C11_18  and  N6_19 
ROOT
HETATM    1  N1  UNL     1      14.373 -40.084  24.230  1.00  0.00    -0.172 NA
HETATM    2  C1  UNL     1      13.550 -40.563  24.923  1.00  0.00     0.179 C 
HETATM    3  N2  UNL     1      12.564 -41.120  25.724  1.00  0.00    -0.317 N 
HETATM    4  C2  UNL     1      11.739 -40.284  26.561  1.00  0.00     0.154 C 
HETATM    5  C3  UNL     1      11.816 -40.856  27.957  1.00  0.00     0.145 C 
HETATM    6  N3  UNL     1      11.474 -42.269  27.957  1.00  0.00    -0.364 N 
HETATM    7  C13 UNL     1      11.203 -42.910  26.697  1.00  0.00     0.145 C 
HETATM    8  C14 UNL     1      12.343 -42.545  25.736  1.00  0.00     0.154 C 
ENDROOT
BRANCH   6   9
HETATM    9  C4  UNL     1      11.431 -42.936  29.206  1.00  0.00     0.124 A 
HETATM   10  C5  UNL     1      12.411 -42.826  30.164  1.00  0.00     0.123 A 
HETATM   11  C6  UNL     1      12.357 -43.486  31.395  1.00  0.00     0.263 A 
HETATM   12  O1  UNL     1      13.303 -43.323  32.207  1.00  0.00    -0.268 OA
HETATM   13  N4  UNL     1      11.286 -44.254  31.618  1.00  0.00    -0.156 N 
HETATM   14  C7  UNL     1      10.305 -44.390  30.710  1.00  0.00     0.684 A 
ATOM     15  H4  UNL     1      11.211 -44.752  32.505  1.00  0.00     0.187 HD
HETATM   16  N7  UNL     1      10.381 -43.745  29.535  1.00  0.00    -0.176 N 
ATOM     17  H7  UNL     1       9.624 -43.865  28.861  1.00  0.00     0.186 HD
BRANCH  14  18
HETATM   18  N5  UNL     1       9.176 -45.207  30.959  1.00  0.00    -0.217 N 
HETATM   19  C8  UNL     1       9.154 -46.490  31.635  1.00  0.00     0.141 C 
HETATM   20  C9  UNL     1       7.943 -47.163  31.082  1.00  0.00     0.028 C 
HETATM   21  C10 UNL     1       6.980 -46.075  30.713  1.00  0.00     0.031 C 
HETATM   22  C12 UNL     1       7.823 -44.852  30.550  1.00  0.00     0.147 C 
BRANCH  21  23
HETATM   23  C11 UNL     1       5.896 -45.879  31.741  1.00  0.00     0.235 C 
BRANCH  23  24
HETATM   24  N6  UNL     1       4.641 -45.488  31.127  1.00  0.00    -0.079 N 
ATOM     25  H63 UNL     1       4.445 -46.043  30.294  1.00  0.00     0.274 HD
ATOM     26  H62 UNL     1       3.844 -45.772  31.697  1.00  0.00     0.274 HD
ATOM     27  H61 UNL     1       4.617 -44.489  30.923  1.00  0.00     0.274 HD
ENDBRANCH  23  24
ENDBRANCH  21  23
ENDBRANCH  14  18
ENDBRANCH   6   9
TORSDOF 4
ENDMDL
MODEL 3
REMARK VINA RESULT: -6.422959850      3.352      4.893
REMARK  4 active torsions:
REMARK  status: ('A' for Active; 'I' for Inactive)
REMARK    1  A    between atoms: N3_6  and  C4_7 
REMARK    2  A    between atoms: C7_13  and  N5_14 
REMARK    3  A    between atoms: C10_17  and  C11_18 
REMARK    4  A    between atoms: C11_18  and  N6_19 
ROOT
HETATM    1  N1  UNL     1      12.186 -47.425  37.691  1.00  0.00    -0.172 NA
HETATM    2  C1  UNL     1      11.858 -47.445  36.561  1.00  0.00     0.179 C 
HETATM    3  N2  UNL     1      11.479 -47.492  35.226  1.00  0.00    -0.317 N 
HETATM    4  C2  UNL     1      12.470 -47.458  34.180  1.00  0.00     0.154 C 
HETATM    5  C3  UNL     1      12.066 -46.350  33.235  1.00  0.00     0.145 C 
HETATM    6  N3  UNL     1      10.694 -46.525  32.789  1.00  0.00    -0.364 N 
HETATM    7  C13 UNL     1       9.929 -47.615  33.334  1.00  0.00     0.145 C 
HETATM    8  C14 UNL     1      10.087 -47.577  34.860  1.00  0.00     0.154 C 
ENDROOT
BRANCH   6   9
HETATM    9  C4  UNL     1      10.188 -45.604  31.840  1.00  0.00     0.124 A 
HETATM   10  C5  UNL     1       8.858 -45.274  31.730  1.00  0.00     0.123 A 
HETATM   11  C6  UNL     1       8.368 -44.361  30.791  1.00  0.00     0.263 A 
HETATM   12  O1  UNL     1       7.134 -44.124  30.768  1.00  0.00    -0.268 OA
HETATM   13  N4  UNL     1       9.267 -43.801  29.975  1.00  0.00    -0.156 N 
HETATM   14  C7  UNL     1      10.576 -44.094  30.047  1.00  0.00     0.684 A 
ATOM     15  H4  UNL     1       8.949 -43.130  29.276  1.00  0.00     0.187 HD
HETATM   16  N7  UNL     1      11.020 -44.974  30.958  1.00  0.00    -0.176 N 
ATOM     17  H7  UNL     1      12.018 -45.182  30.992  1.00  0.00     0.186 HD
BRANCH  14  18
HETATM   18  N5  UNL     1      11.516 -43.493  29.176  1.00  0.00    -0.217 N 
HETATM   19  C8  UNL     1      12.610 -42.612  29.537  1.00  0.00     0.141 C 
HETATM   20  C9  UNL     1      12.844 -41.810  28.301  1.00  0.00     0.028 C 
HETATM   21  C10 UNL     1      12.438 -42.675  27.146  1.00  0.00     0.031 C 
HETATM   22  C12 UNL     1      11.508 -43.688  27.731  1.00  0.00     0.147 C 
BRANCH  21  23
HETATM   23  C11 UNL     1      13.611 -43.318  26.454  1.00  0.00     0.235 C 
BRANCH  23  24
HETATM   24  N6  UNL     1      13.424 -43.366  25.017  1.00  0.00    -0.079 N 
ATOM     25  H63 UNL     1      12.435 -43.358  24.769  1.00  0.00     0.274 HD
ATOM     26  H62 UNL     1      13.705 -42.491  24.575  1.00  0.00     0.274 HD
ATOM     27  H61 UNL     1      13.905 -44.164  24.601  1.00  0.00     0.274 HD
ENDBRANCH  23  24
ENDBRANCH  21  23
ENDBRANCH  14  18
ENDBRANCH   6   9
TORSDOF 4
ENDMDL
MODEL 4
REMARK VINA RESULT: -6.397514546      4.702      6.958
REMARK  4 active torsions:
REMARK  status: ('A' for Active; 'I' for Inactive)
REMARK    1  A    between atoms: N3_6  and  C4_7 
REMARK    2  A    between atoms: C7_13  and  N5_14 
REMARK    3  A    between atoms: C10_17  and  C11_18 
REMARK    4  A    between atoms: C11_18  and  N6_19 
ROOT
HETATM    1  N1  UNL     1       9.128 -55.440  30.003  1.00  0.00    -0.172 NA
HETATM    2  C1  UNL     1       9.174 -54.493  30.701  1.00  0.00     0.179 C 
HETATM    3  N2  UNL     1       9.216 -53.389  31.541  1.00  0.00    -0.317 N 
HETATM    4  C2  UNL     1       8.028 -52.614  31.796  1.00  0.00     0.154 C 
HETATM    5  C3  UNL     1       8.377 -51.173  31.506  1.00  0.00     0.145 C 
HETATM    6  N3  UNL     1       9.559 -50.767  32.251  1.00  0.00    -0.364 N 
HETATM    7  C13 UNL     1      10.238 -51.752  33.051  1.00  0.00     0.145 C 
HETATM    8  C14 UNL     1      10.450 -52.995  32.176  1.00  0.00     0.154 C 
ENDROOT
BRANCH   6   9
HETATM    9  C4  UNL     1       9.974 -49.418  32.141  1.00  0.00     0.124 A 
HETATM   10  C5  UNL     1      11.254 -48.990  32.401  1.00  0.00     0.123 A 
HETATM   11  C6  UNL     1      11.655 -47.655  32.287  1.00  0.00     0.263 A 
HETATM   12  O1  UNL     1      12.849 -47.361  32.547  1.00  0.00    -0.268 OA
HETATM   13  N4  UNL     1      10.721 -46.779  31.904  1.00  0.00    -0.156 N 
HETATM   14  C7  UNL     1       9.458 -47.154  31.640  1.00  0.00     0.684 A 
ATOM     15  H4  UNL     1      10.975 -45.796  31.810  1.00  0.00     0.187 HD
HETATM   16  N7  UNL     1       9.099 -48.441  31.757  1.00  0.00    -0.176 N 
ATOM     17  H7  UNL     1       8.134 -48.701  31.552  1.00  0.00     0.186 HD
BRANCH  14  18
HETATM   18  N5  UNL     1       8.479 -46.214  31.236  1.00  0.00    -0.217 N 
HETATM   19  C8  UNL     1       8.705 -44.918  30.627  1.00  0.00     0.141 C 
HETATM   20  C9  UNL     1       7.487 -44.137  30.992  1.00  0.00     0.028 C 
HETATM   21  C10 UNL     1       6.371 -45.126  31.136  1.00  0.00     0.031 C 
HETATM   22  C12 UNL     1       7.046 -46.435  31.388  1.00  0.00     0.147 C 
BRANCH  21  23
HETATM   23  C11 UNL     1       5.472 -45.177  29.928  1.00  0.00     0.235 C 
BRANCH  23  24
HETATM   24  N6  UNL     1       5.688 -46.383  29.151  1.00  0.00    -0.079 N 
ATOM     25  H63 UNL     1       6.591 -46.806  29.364  1.00  0.00     0.274 HD
ATOM     26  H62 UNL     1       5.080 -47.140  29.463  1.00  0.00     0.274 HD
ATOM     27  H61 UNL     1       5.584 -46.210  28.152  1.00  0.00     0.274 HD
ENDBRANCH  23  24
ENDBRANCH  21  23
ENDBRANCH  14  18
ENDBRANCH   6   9
TORSDOF 4
ENDMDL
MODEL 5
REMARK VINA RESULT: -6.344904019      3.933      6.970
REMARK  4 active torsions:
REMARK  status: ('A' for Active; 'I' for Inactive)
REMARK    1  A    between atoms: N3_6  and  C4_7 
REMARK    2  A    between atoms: C7_13  and  N5_14 
REMARK    3  A    between atoms: C10_17  and  C11_18 
REMARK    4  A    between atoms: C11_18  and  N6_19 
ROOT
HETATM    1  N1  UNL     1       4.313 -44.817  32.195  1.00  0.00    -0.172 NA
HETATM    2  C1  UNL     1       5.377 -44.997  31.726  1.00  0.00     0.179 C 
HETATM    3  N2  UNL     1       6.623 -45.206  31.152  1.00  0.00    -0.317 N 
HETATM    4  C2  UNL     1       6.907 -46.425  30.436  1.00  0.00     0.154 C 
HETATM    5  C3  UNL     1       8.178 -46.990  31.026  1.00  0.00     0.145 C 
HETATM    6  N3  UNL     1       9.240 -45.998  31.014  1.00  0.00    -0.364 N 
HETATM    7  C13 UNL     1       8.936 -44.672  30.545  1.00  0.00     0.145 C 
HETATM    8  C14 UNL     1       7.659 -44.208  31.259  1.00  0.00     0.154 C 
ENDROOT
BRANCH   6   9
HETATM    9  C4  UNL     1      10.519 -46.399  31.471  1.00  0.00     0.124 A 
HETATM   10  C5  UNL     1      11.632 -45.591  31.429  1.00  0.00     0.123 A 
HETATM   11  C6  UNL     1      12.890 -45.995  31.884  1.00  0.00     0.263 A 
HETATM   12  O1  UNL     1      13.848 -45.185  31.805  1.00  0.00    -0.268 OA
HETATM   13  N4  UNL     1      12.980 -47.234  32.378  1.00  0.00    -0.156 N 
HETATM   14  C7  UNL     1      11.919 -48.057  32.439  1.00  0.00     0.684 A 
ATOM     15  H4  UNL     1      13.882 -47.566  32.721  1.00  0.00     0.187 HD
HETATM   16  N7  UNL     1      10.722 -47.644  31.994  1.00  0.00    -0.176 N 
ATOM     17  H7  UNL     1       9.931 -48.287  32.048  1.00  0.00     0.186 HD
BRANCH  14  18
HETATM   18  N5  UNL     1      12.029 -49.367  32.963  1.00  0.00    -0.217 N 
HETATM   19  C8  UNL     1      13.178 -49.953  33.626  1.00  0.00     0.141 C 
HETATM   20  C9  UNL     1      13.014 -51.417  33.394  1.00  0.00     0.028 C 
HETATM   21  C10 UNL     1      11.541 -51.669  33.275  1.00  0.00     0.031 C 
HETATM   22  C12 UNL     1      10.952 -50.347  32.904  1.00  0.00     0.147 C 
BRANCH  21  23
HETATM   23  C11 UNL     1      10.936 -52.220  34.540  1.00  0.00     0.235 C 
BRANCH  23  24
HETATM   24  N6  UNL     1       9.931 -51.328  35.086  1.00  0.00    -0.079 N 
ATOM     25  H63 UNL     1       9.738 -50.553  34.452  1.00  0.00     0.274 HD
ATOM     26  H62 UNL     1       9.009 -51.764  35.090  1.00  0.00     0.274 HD
ATOM     27  H61 UNL     1      10.189 -50.994  36.015  1.00  0.00     0.274 HD
ENDBRANCH  23  24
ENDBRANCH  21  23
ENDBRANCH  14  18
ENDBRANCH   6   9
TORSDOF 4
ENDMDL
