MODEL 1
REMARK VINA RESULT: -6.431510795      0.000      0.000
REMARK  5 active torsions:
REMARK  status: ('A' for Active; 'I' for Inactive)
REMARK    1  A    between atoms: N1_2  and  C2_5 
REMARK    2  A    between atoms: C4_9  and  C5_10 
REMARK       I    between atoms: C5_10  and  N3_12 
REMARK    3  A    between atoms: N3_12  and  C6_14 
REMARK    4  A    between atoms: C6_14  and  C7_15 
REMARK    5  A    between atoms: C6_14  and  C10_20 
REMARK       I    between atoms: C7_15  and  N4_17 
ROOT
HETATM    1  C2  UNL     1      36.232  23.207  30.458  1.00  0.00     0.301 C 
HETATM    2  C3  UNL     1      34.998  23.795  29.884  1.00  0.00     0.254 C 
HETATM    3  O1  UNL     1      33.843  23.987  30.309  1.00  0.00    -0.271 OA
HETATM    4  N2  UNL     1      35.718  24.027  28.683  1.00  0.00    -0.319 N 
HETATM    5  C4  UNL     1      36.034  24.673  27.438  1.00  0.00     0.243 C 
HETATM    6  S1  UNL     1      37.867  24.493  27.453  1.00  0.00    -0.123 SA
HETATM    7  C12 UNL     1      37.915  23.029  28.539  1.00  0.00     0.026 C 
HETATM    8  C13 UNL     1      38.223  21.849  27.602  1.00  0.00     0.029 C 
HETATM    9  C14 UNL     1      39.028  23.127  29.518  1.00  0.00     0.029 C 
HETATM   10  C15 UNL     1      36.558  22.946  29.032  1.00  0.00     0.146 C 
ENDROOT
BRANCH   5  11
HETATM   11  C5  UNL     1      35.644  26.074  27.331  1.00  0.00     0.251 C 
HETATM   12  O2  UNL     1      34.934  26.534  28.293  1.00  0.00    -0.270 OA
HETATM   13  N3  UNL     1      35.954  26.972  26.307  1.00  0.00    -0.343 N 
ATOM     14  H3  UNL     1      36.519  26.649  25.522  1.00  0.00     0.163 HD
BRANCH  13  15
HETATM   15  C6  UNL     1      35.490  28.371  26.323  1.00  0.00     0.206 C 
BRANCH  15  16
HETATM   16  C7  UNL     1      34.881  28.732  25.035  1.00  0.00     0.244 C 
HETATM   17  O3  UNL     1      35.559  28.407  23.999  1.00  0.00    -0.271 OA
HETATM   18  N4  UNL     1      33.645  29.387  24.844  1.00  0.00    -0.359 N 
HETATM   19  C8  UNL     1      33.196  29.708  23.480  1.00  0.00     0.152 C 
HETATM   20  C9  UNL     1      32.726  29.766  25.892  1.00  0.00     0.152 C 
ENDBRANCH  15  16
BRANCH  15  21
HETATM   21  C10 UNL     1      36.748  29.181  26.605  1.00  0.00     0.101 C 
HETATM   22  C11 UNL     1      37.084  29.224  28.078  1.00  0.00     0.043 C 
HETATM   23 BR1  UNL     1      36.675  30.975  25.949  1.00  0.00    -0.070 Br
HETATM   24 BR2  UNL     1      38.254  28.263  25.756  1.00  0.00    -0.070 Br
ENDBRANCH  15  21
ENDBRANCH  13  15
ENDBRANCH   5  11
BRANCH   1  25
HETATM   25  N1  UNL     1      36.946  24.216  31.175  1.00  0.00    -0.064 N 
HETATM   26  C1  UNL     1      36.830  23.970  32.587  1.00  0.00     0.268 C 
ATOM     27  H12 UNL     1      36.645  25.157  30.921  1.00  0.00     0.277 HD
ATOM     28  H11 UNL     1      37.919  24.288  30.874  1.00  0.00     0.277 HD
ENDBRANCH   1  25
TORSDOF 5
ENDMDL
MODEL 2
REMARK VINA RESULT: -5.991139058      2.505      7.157
REMARK  5 active torsions:
REMARK  status: ('A' for Active; 'I' for Inactive)
REMARK    1  A    between atoms: N1_2  and  C2_5 
REMARK    2  A    between atoms: C4_9  and  C5_10 
REMARK       I    between atoms: C5_10  and  N3_12 
REMARK    3  A    between atoms: N3_12  and  C6_14 
REMARK    4  A    between atoms: C6_14  and  C7_15 
REMARK    5  A    between atoms: C6_14  and  C10_20 
REMARK       I    between atoms: C7_15  and  N4_17 
ROOT
HETATM    1  C2  UNL     1      34.426  30.020  25.373  1.00  0.00     0.301 C 
HETATM    2  C3  UNL     1      34.161  29.560  26.757  1.00  0.00     0.254 C 
HETATM    3  O1  UNL     1      33.164  29.566  27.504  1.00  0.00    -0.271 OA
HETATM    4  N2  UNL     1      35.512  29.129  26.827  1.00  0.00    -0.319 N 
HETATM    5  C4  UNL     1      36.623  28.340  27.287  1.00  0.00     0.243 C 
HETATM    6  S1  UNL     1      37.613  28.267  25.736  1.00  0.00    -0.123 SA
HETATM    7  C12 UNL     1      36.949  29.799  25.003  1.00  0.00     0.026 C 
HETATM    8  C13 UNL     1      38.067  30.840  25.176  1.00  0.00     0.029 C 
HETATM    9  C14 UNL     1      36.711  29.634  23.546  1.00  0.00     0.029 C 
HETATM   10  C15 UNL     1      35.827  30.110  25.861  1.00  0.00     0.146 C 
ENDROOT
BRANCH   5  11
HETATM   11  C5  UNL     1      36.299  27.002  27.768  1.00  0.00     0.251 C 
HETATM   12  O2  UNL     1      35.083  26.814  28.126  1.00  0.00    -0.270 OA
HETATM   13  N3  UNL     1      37.154  25.904  27.882  1.00  0.00    -0.343 N 
ATOM     14  H3  UNL     1      38.130  26.008  27.606  1.00  0.00     0.163 HD
BRANCH  13  15
HETATM   15  C6  UNL     1      36.692  24.599  28.389  1.00  0.00     0.206 C 
BRANCH  15  16
HETATM   16  C7  UNL     1      36.974  24.470  29.825  1.00  0.00     0.244 C 
HETATM   17  O3  UNL     1      38.117  24.909  30.201  1.00  0.00    -0.271 OA
HETATM   18  N4  UNL     1      36.118  23.921  30.804  1.00  0.00    -0.359 N 
HETATM   19  C8  UNL     1      36.571  23.833  32.201  1.00  0.00     0.152 C 
HETATM   20  C9  UNL     1      34.776  23.440  30.569  1.00  0.00     0.152 C 
ENDBRANCH  15  16
BRANCH  15  21
HETATM   21  C10 UNL     1      37.465  23.580  27.563  1.00  0.00     0.101 C 
HETATM   22  C11 UNL     1      36.681  23.102  26.363  1.00  0.00     0.043 C 
HETATM   23 BR1  UNL     1      38.037  22.052  28.560  1.00  0.00    -0.070 Br
HETATM   24 BR2  UNL     1      39.042  24.477  26.828  1.00  0.00    -0.070 Br
ENDBRANCH  15  21
ENDBRANCH  13  15
ENDBRANCH   5  11
BRANCH   1  25
HETATM   25  N1  UNL     1      34.061  28.988  24.455  1.00  0.00    -0.064 N 
HETATM   26  C1  UNL     1      33.119  29.510  23.502  1.00  0.00     0.268 C 
ATOM     27  H12 UNL     1      33.710  28.156  24.929  1.00  0.00     0.277 HD
ATOM     28  H11 UNL     1      34.873  28.567  24.004  1.00  0.00     0.277 HD
ENDBRANCH   1  25
TORSDOF 5
ENDMDL
MODEL 3
REMARK VINA RESULT: -5.962008595      0.971      1.100
REMARK  5 active torsions:
REMARK  status: ('A' for Active; 'I' for Inactive)
REMARK    1  A    between atoms: N1_2  and  C2_5 
REMARK    2  A    between atoms: C4_9  and  C5_10 
REMARK       I    between atoms: C5_10  and  N3_12 
REMARK    3  A    between atoms: N3_12  and  C6_14 
REMARK    4  A    between atoms: C6_14  and  C7_15 
REMARK    5  A    between atoms: C6_14  and  C10_20 
REMARK       I    between atoms: C7_15  and  N4_17 
ROOT
HETATM    1  C2  UNL     1      36.006  23.173  30.374  1.00  0.00     0.301 C 
HETATM    2  C3  UNL     1      34.895  23.968  29.800  1.00  0.00     0.254 C 
HETATM    3  O1  UNL     1      33.796  24.370  30.229  1.00  0.00    -0.271 OA
HETATM    4  N2  UNL     1      35.636  24.053  28.593  1.00  0.00    -0.319 N 
HETATM    5  C4  UNL     1      36.055  24.619  27.339  1.00  0.00     0.243 C 
HETATM    6  S1  UNL     1      37.825  24.111  27.346  1.00  0.00    -0.123 SA
HETATM    7  C12 UNL     1      37.615  22.673  28.449  1.00  0.00     0.026 C 
HETATM    8  C13 UNL     1      37.698  21.448  27.524  1.00  0.00     0.029 C 
HETATM    9  C14 UNL     1      38.735  22.579  29.421  1.00  0.00     0.029 C 
HETATM   10  C15 UNL     1      36.269  22.842  28.950  1.00  0.00     0.146 C 
ENDROOT
BRANCH   5  11
HETATM   11  C5  UNL     1      35.924  26.066  27.217  1.00  0.00     0.251 C 
HETATM   12  O2  UNL     1      35.288  26.653  28.163  1.00  0.00    -0.270 OA
HETATM   13  N3  UNL     1      36.408  26.886  26.196  1.00  0.00    -0.343 N 
ATOM     14  H3  UNL     1      36.921  26.461  25.424  1.00  0.00     0.163 HD
BRANCH  13  15
HETATM   15  C6  UNL     1      36.202  28.346  26.197  1.00  0.00     0.206 C 
BRANCH  15  16
HETATM   16  C7  UNL     1      34.886  28.685  25.637  1.00  0.00     0.244 C 
HETATM   17  O3  UNL     1      34.578  28.077  24.553  1.00  0.00    -0.271 OA
HETATM   18  N4  UNL     1      33.953  29.596  26.177  1.00  0.00    -0.359 N 
HETATM   19  C8  UNL     1      32.689  29.849  25.468  1.00  0.00     0.152 C 
HETATM   20  C9  UNL     1      34.107  30.317  27.419  1.00  0.00     0.152 C 
ENDBRANCH  15  16
BRANCH  15  21
HETATM   21  C10 UNL     1      37.340  28.887  25.343  1.00  0.00     0.101 C 
HETATM   22  C11 UNL     1      38.666  28.854  26.068  1.00  0.00     0.043 C 
HETATM   23 BR1  UNL     1      37.046  30.663  24.699  1.00  0.00    -0.070 Br
HETATM   24 BR2  UNL     1      37.559  27.691  23.809  1.00  0.00    -0.070 Br
ENDBRANCH  15  21
ENDBRANCH  13  15
ENDBRANCH   5  11
BRANCH   1  25
HETATM   25  N1  UNL     1      36.895  24.043  31.076  1.00  0.00    -0.064 N 
HETATM   26  C1  UNL     1      36.803  23.783  32.487  1.00  0.00     0.268 C 
ATOM     27  H12 UNL     1      36.731  25.025  30.853  1.00  0.00     0.277 HD
ATOM     28  H11 UNL     1      37.854  23.974  30.733  1.00  0.00     0.277 HD
ENDBRANCH   1  25
TORSDOF 5
ENDMDL
MODEL 4
REMARK VINA RESULT: -5.770494994      2.133      2.745
REMARK  5 active torsions:
REMARK  status: ('A' for Active; 'I' for Inactive)
REMARK    1  A    between atoms: N1_2  and  C2_5 
REMARK    2  A    between atoms: C4_9  and  C5_10 
REMARK       I    between atoms: C5_10  and  N3_12 
REMARK    3  A    between atoms: N3_12  and  C6_14 
REMARK    4  A    between atoms: C6_14  and  C7_15 
REMARK    5  A    between atoms: C6_14  and  C10_20 
REMARK       I    between atoms: C7_15  and  N4_17 
ROOT
HETATM    1  C2  UNL     1      37.110  23.956  28.569  1.00  0.00     0.301 C 
HETATM    2  C3  UNL     1      36.905  24.344  27.153  1.00  0.00     0.254 C 
HETATM    3  O1  UNL     1      36.315  23.831  26.183  1.00  0.00    -0.271 OA
HETATM    4  N2  UNL     1      37.659  25.519  27.410  1.00  0.00    -0.319 N 
HETATM    5  C4  UNL     1      38.089  26.878  27.222  1.00  0.00     0.243 C 
HETATM    6  S1  UNL     1      38.467  27.326  28.968  1.00  0.00    -0.123 SA
HETATM    7  C12 UNL     1      38.785  25.626  29.546  1.00  0.00     0.026 C 
HETATM    8  C13 UNL     1      40.314  25.529  29.677  1.00  0.00     0.029 C 
HETATM    9  C14 UNL     1      38.204  25.404  30.896  1.00  0.00     0.029 C 
HETATM   10  C15 UNL     1      38.316  24.816  28.444  1.00  0.00     0.146 C 
ENDROOT
BRANCH   5  11
HETATM   11  C5  UNL     1      37.102  27.785  26.649  1.00  0.00     0.251 C 
HETATM   12  O2  UNL     1      36.019  27.931  27.319  1.00  0.00    -0.270 OA
HETATM   13  N3  UNL     1      37.196  28.512  25.460  1.00  0.00    -0.343 N 
ATOM     14  H3  UNL     1      38.042  28.427  24.896  1.00  0.00     0.163 HD
BRANCH  13  15
HETATM   15  C6  UNL     1      36.115  29.398  24.994  1.00  0.00     0.206 C 
BRANCH  15  16
HETATM   16  C7  UNL     1      35.652  28.995  23.659  1.00  0.00     0.244 C 
HETATM   17  O3  UNL     1      36.562  28.552  22.874  1.00  0.00    -0.271 OA
HETATM   18  N4  UNL     1      34.326  29.048  23.177  1.00  0.00    -0.359 N 
HETATM   19  C8  UNL     1      34.037  28.637  21.794  1.00  0.00     0.152 C 
HETATM   20  C9  UNL     1      33.172  29.457  23.943  1.00  0.00     0.152 C 
ENDBRANCH  15  16
BRANCH  15  21
HETATM   21  C10 UNL     1      36.742  30.785  24.984  1.00  0.00     0.101 C 
HETATM   22  C11 UNL     1      36.545  31.513  26.293  1.00  0.00     0.043 C 
HETATM   23 BR1  UNL     1      36.116  31.906  23.568  1.00  0.00    -0.070 Br
HETATM   24 BR2  UNL     1      38.679  30.565  24.801  1.00  0.00    -0.070 Br
ENDBRANCH  15  21
ENDBRANCH  13  15
ENDBRANCH   5  11
BRANCH   1  25
HETATM   25  N1  UNL     1      35.999  24.404  29.346  1.00  0.00    -0.064 N 
HETATM   26  C1  UNL     1      35.299  23.265  29.877  1.00  0.00     0.268 C 
ATOM     27  H12 UNL     1      35.384  25.024  28.819  1.00  0.00     0.277 HD
ATOM     28  H11 UNL     1      36.277  25.061  30.076  1.00  0.00     0.277 HD
ENDBRANCH   1  25
TORSDOF 5
ENDMDL
MODEL 5
REMARK VINA RESULT: -5.769362032      2.264      3.201
REMARK  5 active torsions:
REMARK  status: ('A' for Active; 'I' for Inactive)
REMARK    1  A    between atoms: N1_2  and  C2_5 
REMARK    2  A    between atoms: C4_9  and  C5_10 
REMARK       I    between atoms: C5_10  and  N3_12 
REMARK    3  A    between atoms: N3_12  and  C6_14 
REMARK    4  A    between atoms: C6_14  and  C7_15 
REMARK    5  A    between atoms: C6_14  and  C10_20 
REMARK       I    between atoms: C7_15  and  N4_17 
ROOT
HETATM    1  C2  UNL     1      38.989  26.212  28.545  1.00  0.00     0.301 C 
HETATM    2  C3  UNL     1      38.207  27.413  28.922  1.00  0.00     0.254 C 
HETATM    3  O1  UNL     1      38.488  28.510  29.441  1.00  0.00    -0.271 OA
HETATM    4  N2  UNL     1      37.046  26.757  28.436  1.00  0.00    -0.319 N 
HETATM    5  C4  UNL     1      35.722  26.655  27.885  1.00  0.00     0.243 C 
HETATM    6  S1  UNL     1      35.920  25.121  26.885  1.00  0.00    -0.123 SA
HETATM    7  C12 UNL     1      37.292  24.422  27.863  1.00  0.00     0.026 C 
HETATM    8  C13 UNL     1      36.653  23.298  28.696  1.00  0.00     0.029 C 
HETATM    9  C14 UNL     1      38.314  23.801  26.981  1.00  0.00     0.029 C 
HETATM   10  C15 UNL     1      37.681  25.526  28.711  1.00  0.00     0.146 C 
ENDROOT
BRANCH   5  11
HETATM   11  C5  UNL     1      35.289  27.772  27.053  1.00  0.00     0.251 C 
HETATM   12  O2  UNL     1      34.275  28.429  27.481  1.00  0.00    -0.270 OA
HETATM   13  N3  UNL     1      35.848  28.211  25.851  1.00  0.00    -0.343 N 
ATOM     14  H3  UNL     1      36.658  27.718  25.475  1.00  0.00     0.163 HD
BRANCH  13  15
HETATM   15  C6  UNL     1      35.306  29.362  25.107  1.00  0.00     0.206 C 
BRANCH  15  16
HETATM   16  C7  UNL     1      35.045  29.000  23.707  1.00  0.00     0.244 C 
HETATM   17  O3  UNL     1      35.946  28.280  23.150  1.00  0.00    -0.271 OA
HETATM   18  N4  UNL     1      33.917  29.364  22.941  1.00  0.00    -0.359 N 
HETATM   19  C8  UNL     1      33.827  28.946  21.533  1.00  0.00     0.152 C 
HETATM   20  C9  UNL     1      32.781  30.115  23.425  1.00  0.00     0.152 C 
ENDBRANCH  15  16
BRANCH  15  21
HETATM   21  C10 UNL     1      36.385  30.430  25.227  1.00  0.00     0.101 C 
HETATM   22  C11 UNL     1      36.254  31.236  26.499  1.00  0.00     0.043 C 
HETATM   23 BR1  UNL     1      36.444  31.638  23.748  1.00  0.00    -0.070 Br
HETATM   24 BR2  UNL     1      38.113  29.521  25.367  1.00  0.00    -0.070 Br
ENDBRANCH  15  21
ENDBRANCH  13  15
ENDBRANCH   5  11
BRANCH   1  25
HETATM   25  N1  UNL     1      39.531  26.393  27.235  1.00  0.00    -0.064 N 
HETATM   26  C1  UNL     1      40.867  26.916  27.341  1.00  0.00     0.268 C 
ATOM     27  H12 UNL     1      38.934  26.975  26.647  1.00  0.00     0.277 HD
ATOM     28  H11 UNL     1      39.494  25.539  26.679  1.00  0.00     0.277 HD
ENDBRANCH   1  25
TORSDOF 5
ENDMDL
