MODEL 1
REMARK VINA RESULT: -8.096508858      0.000      0.000
REMARK  7 active torsions:
REMARK  status: ('A' for Active; 'I' for Inactive)
REMARK    1  A    between atoms: C2_2  and  O2_4 
REMARK    2  A    between atoms: O2_4  and  C3_5 
REMARK    3  A    between atoms: C8_10  and  C9_11 
REMARK    4  A    between atoms: C9_11  and  N1_12 
REMARK    5  A    between atoms: N1_12  and  C10_14 
REMARK    6  A    between atoms: C10_14  and  N2_16 
REMARK       I    between atoms: N2_16  and  C11_18 
REMARK    7  A    between atoms: C11_18  and  C12_20 
ROOT
HETATM    1  C10 UNL     1      34.978  29.048  25.546  1.00  0.00     0.174 C 
HETATM    2  S1  UNL     1      35.985  27.770  25.410  1.00  0.00    -0.041 SA
ENDROOT
BRANCH   1   3
HETATM    3  N1  UNL     1      34.922  29.784  26.757  1.00  0.00    -0.363 N 
ATOM      4  H1  UNL     1      34.655  29.298  27.613  1.00  0.00     0.162 HD
BRANCH   3   5
HETATM    5  C9  UNL     1      35.225  31.187  26.828  1.00  0.00     0.163 C 
BRANCH   5   6
HETATM    6  C8  UNL     1      36.472  31.546  26.120  1.00  0.00    -0.006 A 
HETATM    7  C3  UNL     1      37.638  30.933  26.549  1.00  0.00     0.087 A 
HETATM    8  C4  UNL     1      38.801  31.243  25.884  1.00  0.00     0.038 A 
HETATM    9  C5  UNL     1      38.863  32.127  24.819  1.00  0.00     0.003 A 
HETATM   10  C6  UNL     1      37.699  32.722  24.410  1.00  0.00     0.001 A 
HETATM   11  C7  UNL     1      36.493  32.444  25.048  1.00  0.00     0.011 A 
BRANCH   7  12
HETATM   12  O2  UNL     1      37.560  30.053  27.614  1.00  0.00    -0.279 OA
BRANCH  12  13
HETATM   13  C2  UNL     1      38.447  30.006  28.665  1.00  0.00     0.260 C 
HETATM   14  C1  UNL     1      39.702  29.175  28.612  1.00  0.00     0.126 C 
HETATM   15  O1  UNL     1      38.179  30.682  29.683  1.00  0.00    -0.265 OA
ENDBRANCH  12  13
ENDBRANCH   7  12
ENDBRANCH   5   6
ENDBRANCH   3   5
ENDBRANCH   1   3
BRANCH   1  16
HETATM   16  N2  UNL     1      34.146  29.456  24.442  1.00  0.00    -0.300 N 
HETATM   17  C11 UNL     1      34.681  29.840  23.206  1.00  0.00     0.257 C 
HETATM   18  O3  UNL     1      35.936  29.826  23.054  1.00  0.00    -0.267 OA
ATOM     19  H2  UNL     1      33.134  29.466  24.566  1.00  0.00     0.171 HD
BRANCH  17  20
HETATM   20  C12 UNL     1      33.862  30.255  22.086  1.00  0.00     0.033 A 
HETATM   21  C13 UNL     1      33.125  29.294  21.381  1.00  0.00     0.018 A 
HETATM   22  C14 UNL     1      32.336  29.648  20.312  1.00  0.00     0.021 A 
HETATM   23  C15 UNL     1      32.236  30.951  19.892  1.00  0.00     0.028 A 
HETATM   24 BR1  UNL     1      31.135  31.422  18.404  1.00  0.00    -0.050 Br
HETATM   25  C16 UNL     1      32.942  31.899  20.562  1.00  0.00     0.029 A 
HETATM   26 BR2  UNL     1      32.846  33.721  20.028  1.00  0.00    -0.050 Br
HETATM   27  C17 UNL     1      33.730  31.545  21.629  1.00  0.00     0.037 A 
ENDBRANCH  17  20
ENDBRANCH   1  16
TORSDOF 7
ENDMDL
MODEL 2
REMARK VINA RESULT: -8.036736767      1.073      1.236
REMARK  7 active torsions:
REMARK  status: ('A' for Active; 'I' for Inactive)
REMARK    1  A    between atoms: C2_2  and  O2_4 
REMARK    2  A    between atoms: O2_4  and  C3_5 
REMARK    3  A    between atoms: C8_10  and  C9_11 
REMARK    4  A    between atoms: C9_11  and  N1_12 
REMARK    5  A    between atoms: N1_12  and  C10_14 
REMARK    6  A    between atoms: C10_14  and  N2_16 
REMARK       I    between atoms: N2_16  and  C11_18 
REMARK    7  A    between atoms: C11_18  and  C12_20 
ROOT
HETATM    1  C10 UNL     1      35.301  29.055  26.130  1.00  0.00     0.174 C 
HETATM    2  S1  UNL     1      35.525  27.467  26.438  1.00  0.00    -0.041 SA
ENDROOT
BRANCH   1   3
HETATM    3  N1  UNL     1      35.937  30.033  26.937  1.00  0.00    -0.363 N 
ATOM      4  H1  UNL     1      36.500  29.723  27.729  1.00  0.00     0.162 HD
BRANCH   3   5
HETATM    5  C9  UNL     1      35.819  31.443  26.686  1.00  0.00     0.163 C 
BRANCH   5   6
HETATM    6  C8  UNL     1      36.751  31.924  25.645  1.00  0.00    -0.006 A 
HETATM    7  C3  UNL     1      38.091  31.605  25.802  1.00  0.00     0.087 A 
HETATM    8  C4  UNL     1      38.965  32.030  24.830  1.00  0.00     0.038 A 
HETATM    9  C5  UNL     1      38.576  32.752  23.713  1.00  0.00     0.003 A 
HETATM   10  C6  UNL     1      37.248  33.057  23.575  1.00  0.00     0.001 A 
HETATM   11  C7  UNL     1      36.320  32.652  24.530  1.00  0.00     0.011 A 
BRANCH   7  12
HETATM   12  O2  UNL     1      38.462  30.884  26.923  1.00  0.00    -0.279 OA
BRANCH  12  13
HETATM   13  C2  UNL     1      39.347  29.830  26.926  1.00  0.00     0.260 C 
HETATM   14  C1  UNL     1      40.775  29.990  27.379  1.00  0.00     0.126 C 
HETATM   15  O1  UNL     1      38.928  28.717  26.537  1.00  0.00    -0.265 OA
ENDBRANCH  12  13
ENDBRANCH   7  12
ENDBRANCH   5   6
ENDBRANCH   3   5
ENDBRANCH   1   3
BRANCH   1  16
HETATM   16  N2  UNL     1      34.472  29.487  25.033  1.00  0.00    -0.300 N 
HETATM   17  C11 UNL     1      34.944  29.538  23.716  1.00  0.00     0.257 C 
HETATM   18  O3  UNL     1      36.137  29.192  23.481  1.00  0.00    -0.267 OA
ATOM     19  H2  UNL     1      33.509  29.766  25.223  1.00  0.00     0.171 HD
BRANCH  17  20
HETATM   20  C12 UNL     1      34.127  29.972  22.601  1.00  0.00     0.033 A 
HETATM   21  C13 UNL     1      33.358  29.028  21.905  1.00  0.00     0.018 A 
HETATM   22  C14 UNL     1      32.570  29.400  20.842  1.00  0.00     0.021 A 
HETATM   23  C15 UNL     1      32.503  30.704  20.418  1.00  0.00     0.028 A 
HETATM   24 BR1  UNL     1      31.403  31.200  18.937  1.00  0.00    -0.050 Br
HETATM   25  C16 UNL     1      33.240  31.635  21.078  1.00  0.00     0.029 A 
HETATM   26 BR2  UNL     1      33.190  33.457  20.538  1.00  0.00    -0.050 Br
HETATM   27  C17 UNL     1      34.026  31.264  22.140  1.00  0.00     0.037 A 
ENDBRANCH  17  20
ENDBRANCH   1  16
TORSDOF 7
ENDMDL
MODEL 3
REMARK VINA RESULT: -7.840428322      1.422      1.684
REMARK  7 active torsions:
REMARK  status: ('A' for Active; 'I' for Inactive)
REMARK    1  A    between atoms: C2_2  and  O2_4 
REMARK    2  A    between atoms: O2_4  and  C3_5 
REMARK    3  A    between atoms: C8_10  and  C9_11 
REMARK    4  A    between atoms: C9_11  and  N1_12 
REMARK    5  A    between atoms: N1_12  and  C10_14 
REMARK    6  A    between atoms: C10_14  and  N2_16 
REMARK       I    between atoms: N2_16  and  C11_18 
REMARK    7  A    between atoms: C11_18  and  C12_20 
ROOT
HETATM    1  C10 UNL     1      35.651  29.039  25.340  1.00  0.00     0.174 C 
HETATM    2  S1  UNL     1      36.550  27.689  25.530  1.00  0.00    -0.041 SA
ENDROOT
BRANCH   1   3
HETATM    3  N1  UNL     1      35.387  29.881  26.451  1.00  0.00    -0.363 N 
ATOM      4  H1  UNL     1      34.499  29.778  26.943  1.00  0.00     0.162 HD
BRANCH   3   5
HETATM    5  C9  UNL     1      36.318  30.873  26.913  1.00  0.00     0.163 C 
BRANCH   5   6
HETATM    6  C8  UNL     1      36.973  31.609  25.811  1.00  0.00    -0.006 A 
HETATM    7  C3  UNL     1      38.327  31.383  25.620  1.00  0.00     0.087 A 
HETATM    8  C4  UNL     1      38.943  32.046  24.586  1.00  0.00     0.038 A 
HETATM    9  C5  UNL     1      38.284  32.918  23.734  1.00  0.00     0.003 A 
HETATM   10  C6  UNL     1      36.946  33.128  23.938  1.00  0.00     0.001 A 
HETATM   11  C7  UNL     1      36.273  32.482  24.972  1.00  0.00     0.011 A 
BRANCH   7  12
HETATM   12  O2  UNL     1      38.971  30.510  26.480  1.00  0.00    -0.279 OA
BRANCH  12  13
HETATM   13  C2  UNL     1      40.169  29.886  26.219  1.00  0.00     0.260 C 
HETATM   14  C1  UNL     1      41.478  30.431  26.726  1.00  0.00     0.126 C 
HETATM   15  O1  UNL     1      40.143  28.837  25.537  1.00  0.00    -0.265 OA
ENDBRANCH  12  13
ENDBRANCH   7  12
ENDBRANCH   5   6
ENDBRANCH   3   5
ENDBRANCH   1   3
BRANCH   1  16
HETATM   16  N2  UNL     1      35.127  29.405  24.048  1.00  0.00    -0.300 N 
HETATM   17  C11 UNL     1      33.820  29.880  23.881  1.00  0.00     0.257 C 
HETATM   18  O3  UNL     1      33.076  29.993  24.897  1.00  0.00    -0.267 OA
ATOM     19  H2  UNL     1      35.727  29.315  23.229  1.00  0.00     0.171 HD
BRANCH  17  20
HETATM   20  C12 UNL     1      33.274  30.251  22.591  1.00  0.00     0.033 A 
HETATM   21  C13 UNL     1      32.556  29.302  21.851  1.00  0.00     0.018 A 
HETATM   22  C14 UNL     1      32.023  29.615  20.623  1.00  0.00     0.021 A 
HETATM   23  C15 UNL     1      32.170  30.863  20.072  1.00  0.00     0.028 A 
HETATM   24 BR1  UNL     1      31.422  31.278  18.364  1.00  0.00    -0.050 Br
HETATM   25  C16 UNL     1      32.862  31.799  20.773  1.00  0.00     0.029 A 
HETATM   26 BR2  UNL     1      33.101  33.546  20.063  1.00  0.00    -0.050 Br
HETATM   27  C17 UNL     1      33.395  31.486  21.999  1.00  0.00     0.037 A 
ENDBRANCH  17  20
ENDBRANCH   1  16
TORSDOF 7
ENDMDL
MODEL 4
REMARK VINA RESULT: -7.796712607      1.540      2.947
REMARK  7 active torsions:
REMARK  status: ('A' for Active; 'I' for Inactive)
REMARK    1  A    between atoms: C2_2  and  O2_4 
REMARK    2  A    between atoms: O2_4  and  C3_5 
REMARK    3  A    between atoms: C8_10  and  C9_11 
REMARK    4  A    between atoms: C9_11  and  N1_12 
REMARK    5  A    between atoms: N1_12  and  C10_14 
REMARK    6  A    between atoms: C10_14  and  N2_16 
REMARK       I    between atoms: N2_16  and  C11_18 
REMARK    7  A    between atoms: C11_18  and  C12_20 
ROOT
HETATM    1  C10 UNL     1      35.203  28.921  25.698  1.00  0.00     0.174 C 
HETATM    2  S1  UNL     1      35.974  27.508  25.965  1.00  0.00    -0.041 SA
ENDROOT
BRANCH   1   3
HETATM    3  N1  UNL     1      34.953  29.812  26.774  1.00  0.00    -0.363 N 
ATOM      4  H1  UNL     1      34.226  29.572  27.448  1.00  0.00     0.162 HD
BRANCH   3   5
HETATM    5  C9  UNL     1      35.682  31.037  26.953  1.00  0.00     0.163 C 
BRANCH   5   6
HETATM    6  C8  UNL     1      37.139  30.876  26.765  1.00  0.00    -0.006 A 
HETATM    7  C3  UNL     1      37.735  31.647  25.779  1.00  0.00     0.087 A 
HETATM    8  C4  UNL     1      39.094  31.522  25.609  1.00  0.00     0.038 A 
HETATM    9  C5  UNL     1      39.886  30.674  26.366  1.00  0.00     0.003 A 
HETATM   10  C6  UNL     1      39.278  29.921  27.336  1.00  0.00     0.001 A 
HETATM   11  C7  UNL     1      37.905  30.009  27.551  1.00  0.00     0.011 A 
BRANCH   7  12
HETATM   12  O2  UNL     1      36.930  32.487  25.031  1.00  0.00    -0.279 OA
BRANCH  12  13
HETATM   13  C2  UNL     1      36.605  32.297  23.708  1.00  0.00     0.260 C 
HETATM   14  C1  UNL     1      36.168  33.435  22.823  1.00  0.00     0.126 C 
HETATM   15  O1  UNL     1      36.683  31.135  23.250  1.00  0.00    -0.265 OA
ENDBRANCH  12  13
ENDBRANCH   7  12
ENDBRANCH   5   6
ENDBRANCH   3   5
ENDBRANCH   1   3
BRANCH   1  16
HETATM   16  N2  UNL     1      34.778  29.295  24.371  1.00  0.00    -0.300 N 
HETATM   17  C11 UNL     1      33.516  29.845  24.120  1.00  0.00     0.257 C 
HETATM   18  O3  UNL     1      32.722  30.022  25.088  1.00  0.00    -0.267 OA
ATOM     19  H2  UNL     1      35.419  29.153  23.591  1.00  0.00     0.171 HD
BRANCH  17  20
HETATM   20  C12 UNL     1      33.070  30.225  22.795  1.00  0.00     0.033 A 
HETATM   21  C13 UNL     1      32.355  29.301  22.020  1.00  0.00     0.018 A 
HETATM   22  C14 UNL     1      31.915  29.623  20.758  1.00  0.00     0.021 A 
HETATM   23  C15 UNL     1      32.156  30.857  20.205  1.00  0.00     0.028 A 
HETATM   24 BR1  UNL     1      31.537  31.284  18.449  1.00  0.00    -0.050 Br
HETATM   25  C16 UNL     1      32.847  31.768  20.939  1.00  0.00     0.029 A 
HETATM   26 BR2  UNL     1      33.213  33.492  20.229  1.00  0.00    -0.050 Br
HETATM   27  C17 UNL     1      33.286  31.446  22.199  1.00  0.00     0.037 A 
ENDBRANCH  17  20
ENDBRANCH   1  16
TORSDOF 7
ENDMDL
MODEL 5
REMARK VINA RESULT: -7.708868935      1.989      3.112
REMARK  7 active torsions:
REMARK  status: ('A' for Active; 'I' for Inactive)
REMARK    1  A    between atoms: C2_2  and  O2_4 
REMARK    2  A    between atoms: O2_4  and  C3_5 
REMARK    3  A    between atoms: C8_10  and  C9_11 
REMARK    4  A    between atoms: C9_11  and  N1_12 
REMARK    5  A    between atoms: N1_12  and  C10_14 
REMARK    6  A    between atoms: C10_14  and  N2_16 
REMARK       I    between atoms: N2_16  and  C11_18 
REMARK    7  A    between atoms: C11_18  and  C12_20 
ROOT
HETATM    1  C10 UNL     1      36.022  29.511  25.789  1.00  0.00     0.174 C 
HETATM    2  S1  UNL     1      35.549  28.282  26.754  1.00  0.00    -0.041 SA
ENDROOT
BRANCH   1   3
HETATM    3  N1  UNL     1      37.300  30.101  25.963  1.00  0.00    -0.363 N 
ATOM      4  H1  UNL     1      37.419  30.807  26.689  1.00  0.00     0.162 HD
BRANCH   3   5
HETATM    5  C9  UNL     1      38.436  29.745  25.157  1.00  0.00     0.163 C 
BRANCH   5   6
HETATM    6  C8  UNL     1      39.407  30.848  25.005  1.00  0.00    -0.006 A 
HETATM    7  C3  UNL     1      38.977  31.976  24.323  1.00  0.00     0.087 A 
HETATM    8  C4  UNL     1      39.864  33.018  24.193  1.00  0.00     0.038 A 
HETATM    9  C5  UNL     1      41.151  32.996  24.706  1.00  0.00     0.003 A 
HETATM   10  C6  UNL     1      41.558  31.873  25.377  1.00  0.00     0.001 A 
HETATM   11  C7  UNL     1      40.699  30.788  25.537  1.00  0.00     0.011 A 
BRANCH   7  12
HETATM   12  O2  UNL     1      37.689  31.981  23.817  1.00  0.00    -0.279 OA
BRANCH  12  13
HETATM   13  C2  UNL     1      36.713  32.891  24.154  1.00  0.00     0.260 C 
HETATM   14  C1  UNL     1      36.048  33.764  23.122  1.00  0.00     0.126 C 
HETATM   15  O1  UNL     1      36.387  32.976  25.359  1.00  0.00    -0.265 OA
ENDBRANCH  12  13
ENDBRANCH   7  12
ENDBRANCH   5   6
ENDBRANCH   3   5
ENDBRANCH   1   3
BRANCH   1  16
HETATM   16  N2  UNL     1      35.162  30.005  24.743  1.00  0.00    -0.300 N 
HETATM   17  C11 UNL     1      35.123  29.421  23.471  1.00  0.00     0.257 C 
HETATM   18  O3  UNL     1      35.867  28.427  23.233  1.00  0.00    -0.267 OA
ATOM     19  H2  UNL     1      34.562  30.807  24.936  1.00  0.00     0.171 HD
BRANCH  17  20
HETATM   20  C12 UNL     1      34.268  29.904  22.407  1.00  0.00     0.033 A 
HETATM   21  C13 UNL     1      33.514  28.987  21.661  1.00  0.00     0.018 A 
HETATM   22  C14 UNL     1      32.691  29.406  20.643  1.00  0.00     0.021 A 
HETATM   23  C15 UNL     1      32.571  30.733  20.314  1.00  0.00     0.028 A 
HETATM   24 BR1  UNL     1      31.422  31.295  18.896  1.00  0.00    -0.050 Br
HETATM   25  C16 UNL     1      33.292  31.640  21.025  1.00  0.00     0.029 A 
HETATM   26 BR2  UNL     1      33.171  33.493  20.617  1.00  0.00    -0.050 Br
HETATM   27  C17 UNL     1      34.115  31.221  22.041  1.00  0.00     0.037 A 
ENDBRANCH  17  20
ENDBRANCH   1  16
TORSDOF 7
ENDMDL
