MODEL 1
REMARK VINA RESULT: -7.981948934      0.000      0.000
REMARK  6 active torsions:
REMARK  status: ('A' for Active; 'I' for Inactive)
REMARK    1  A    between atoms: C1_2  and  C2_4 
REMARK    2  A    between atoms: N2_8  and  C6_9 
REMARK    3  A    between atoms: C6_9  and  C15_25 
REMARK       I    between atoms: N3_10  and  C7_12 
REMARK    4  A    between atoms: C7_12  and  C8_14 
REMARK    5  A    between atoms: C8_14  and  N4_15 
REMARK    6  A    between atoms: C8_14  and  C9_19 
ROOT
HETATM    1  C6  UNL     1      35.271  29.260  23.656  1.00  0.00     0.124 C 
HETATM    2  N3  UNL     1      34.315  28.922  22.946  1.00  0.00    -0.310 N 
ATOM      3  H3  UNL     1      33.665  28.504  23.612  1.00  0.00     0.170 HD
HETATM    4  C7  UNL     1      33.675  28.808  21.776  1.00  0.00     0.254 C 
HETATM    5  O2  UNL     1      34.033  27.966  20.854  1.00  0.00    -0.271 OA
ENDROOT
BRANCH   1   6
HETATM    6  N2  UNL     1      35.177  28.981  25.091  1.00  0.00    -0.353 N 
HETATM    7  C2  UNL     1      34.735  29.846  26.151  1.00  0.00     0.175 C 
HETATM    8  C3  UNL     1      35.098  29.159  27.463  1.00  0.00     0.036 C 
HETATM    9  C4  UNL     1      35.339  27.743  27.093  1.00  0.00     0.022 C 
HETATM   10  C5  UNL     1      35.486  27.666  25.605  1.00  0.00     0.125 C 
BRANCH   7  11
HETATM   11  C1  UNL     1      33.225  29.868  26.172  1.00  0.00     0.254 C 
HETATM   12  N1  UNL     1      32.557  30.336  27.325  1.00  0.00    -0.060 NA
HETATM   13  O1  UNL     1      32.619  29.473  25.173  1.00  0.00    -0.275 OA
ENDBRANCH   7  11
ENDBRANCH   1   6
BRANCH   1  14
HETATM   14  C15 UNL     1      36.454  29.876  23.108  1.00  0.00     0.061 C 
HETATM   15 BR1  UNL     1      37.489  28.653  21.945  1.00  0.00    -0.046 Br
HETATM   16  C16 UNL     1      36.967  31.056  23.248  1.00  0.00     0.079 C 
HETATM   17 BR2  UNL     1      36.382  32.517  24.249  1.00  0.00    -0.062 Br
ENDBRANCH   1  14
BRANCH   4  18
HETATM   18  C8  UNL     1      32.487  29.619  21.403  1.00  0.00     0.279 C 
BRANCH  18  19
HETATM   19  N4  UNL     1      32.181  30.488  22.518  1.00  0.00    -0.066 N 
ATOM     20  H43 UNL     1      32.640  30.201  23.382  1.00  0.00     0.275 HD
ATOM     21  H42 UNL     1      32.614  31.407  22.434  1.00  0.00     0.275 HD
ATOM     22  H41 UNL     1      31.166  30.534  22.604  1.00  0.00     0.275 HD
ENDBRANCH  18  19
BRANCH  18  23
HETATM   23  C9  UNL     1      32.658  30.511  20.211  1.00  0.00     0.025 C 
HETATM   24  C10 UNL     1      32.724  31.925  20.767  1.00  0.00     0.007 C 
HETATM   25  C11 UNL     1      32.817  32.978  19.693  1.00  0.00     0.000 C 
HETATM   26  C12 UNL     1      31.461  32.917  18.969  1.00  0.00     0.000 C 
HETATM   27  C13 UNL     1      31.439  31.574  18.294  1.00  0.00     0.000 C 
HETATM   28  C14 UNL     1      31.566  30.404  19.210  1.00  0.00     0.007 C 
ENDBRANCH  18  23
ENDBRANCH   4  18
TORSDOF 6
ENDMDL
MODEL 2
REMARK VINA RESULT: -7.818049634      0.544      1.326
REMARK  6 active torsions:
REMARK  status: ('A' for Active; 'I' for Inactive)
REMARK    1  A    between atoms: C1_2  and  C2_4 
REMARK    2  A    between atoms: N2_8  and  C6_9 
REMARK    3  A    between atoms: C6_9  and  C15_25 
REMARK       I    between atoms: N3_10  and  C7_12 
REMARK    4  A    between atoms: C7_12  and  C8_14 
REMARK    5  A    between atoms: C8_14  and  N4_15 
REMARK    6  A    between atoms: C8_14  and  C9_19 
ROOT
HETATM    1  C6  UNL     1      35.285  29.585  23.674  1.00  0.00     0.124 C 
HETATM    2  N3  UNL     1      34.492  29.141  22.833  1.00  0.00    -0.310 N 
ATOM      3  H3  UNL     1      33.906  28.508  23.376  1.00  0.00     0.170 HD
HETATM    4  C7  UNL     1      33.990  29.044  21.596  1.00  0.00     0.254 C 
HETATM    5  O2  UNL     1      34.604  28.431  20.630  1.00  0.00    -0.271 OA
ENDROOT
BRANCH   1   6
HETATM    6  N2  UNL     1      35.146  29.106  25.051  1.00  0.00    -0.353 N 
HETATM    7  C2  UNL     1      34.634  29.803  26.201  1.00  0.00     0.175 C 
HETATM    8  C3  UNL     1      34.970  28.950  27.420  1.00  0.00     0.036 C 
HETATM    9  C4  UNL     1      35.271  27.606  26.868  1.00  0.00     0.022 C 
HETATM   10  C5  UNL     1      35.478  27.741  25.391  1.00  0.00     0.125 C 
BRANCH   7  11
HETATM   11  C1  UNL     1      33.125  29.780  26.160  1.00  0.00     0.254 C 
HETATM   12  N1  UNL     1      32.398  30.073  27.334  1.00  0.00    -0.060 NA
HETATM   13  O1  UNL     1      32.571  29.504  25.093  1.00  0.00    -0.275 OA
ENDBRANCH   7  11
ENDBRANCH   1   6
BRANCH   1  14
HETATM   14  C15 UNL     1      36.333  30.512  23.326  1.00  0.00     0.061 C 
HETATM   15 BR1  UNL     1      35.696  32.383  23.208  1.00  0.00    -0.046 Br
HETATM   16  C16 UNL     1      37.589  30.349  23.061  1.00  0.00     0.079 C 
HETATM   17 BR2  UNL     1      38.623  28.797  23.014  1.00  0.00    -0.062 Br
ENDBRANCH   1  14
BRANCH   4  18
HETATM   18  C8  UNL     1      32.680  29.616  21.190  1.00  0.00     0.279 C 
BRANCH  18  19
HETATM   19  N4  UNL     1      32.184  30.407  22.296  1.00  0.00    -0.066 N 
ATOM     20  H43 UNL     1      31.264  30.106  22.617  1.00  0.00     0.275 HD
ATOM     21  H42 UNL     1      32.691  30.235  23.164  1.00  0.00     0.275 HD
ATOM     22  H41 UNL     1      32.205  31.386  22.011  1.00  0.00     0.275 HD
ENDBRANCH  18  19
BRANCH  18  23
HETATM   23  C9  UNL     1      32.710  30.531  20.003  1.00  0.00     0.025 C 
HETATM   24  C10 UNL     1      32.714  31.940  20.573  1.00  0.00     0.007 C 
HETATM   25  C11 UNL     1      32.663  33.007  19.511  1.00  0.00     0.000 C 
HETATM   26  C12 UNL     1      31.270  32.859  18.876  1.00  0.00     0.000 C 
HETATM   27  C13 UNL     1      31.297  31.524  18.184  1.00  0.00     0.000 C 
HETATM   28  C14 UNL     1      31.565  30.357  19.074  1.00  0.00     0.007 C 
ENDBRANCH  18  23
ENDBRANCH   4  18
TORSDOF 6
ENDMDL
MODEL 3
REMARK VINA RESULT: -7.650203705      2.208      3.188
REMARK  6 active torsions:
REMARK  status: ('A' for Active; 'I' for Inactive)
REMARK    1  A    between atoms: C1_2  and  C2_4 
REMARK    2  A    between atoms: N2_8  and  C6_9 
REMARK    3  A    between atoms: C6_9  and  C15_25 
REMARK       I    between atoms: N3_10  and  C7_12 
REMARK    4  A    between atoms: C7_12  and  C8_14 
REMARK    5  A    between atoms: C8_14  and  N4_15 
REMARK    6  A    between atoms: C8_14  and  C9_19 
ROOT
HETATM    1  C6  UNL     1      35.803  29.511  22.676  1.00  0.00     0.124 C 
HETATM    2  N3  UNL     1      34.693  29.764  22.191  1.00  0.00    -0.310 N 
ATOM      3  H3  UNL     1      34.541  30.738  22.450  1.00  0.00     0.170 HD
HETATM    4  C7  UNL     1      33.585  29.449  21.510  1.00  0.00     0.254 C 
HETATM    5  O2  UNL     1      32.661  28.670  21.985  1.00  0.00    -0.271 OA
ENDROOT
BRANCH   1   6
HETATM    6  N2  UNL     1      36.484  30.586  23.401  1.00  0.00    -0.353 N 
HETATM    7  C2  UNL     1      35.911  31.700  24.110  1.00  0.00     0.175 C 
HETATM    8  C3  UNL     1      37.057  32.652  24.436  1.00  0.00     0.036 C 
HETATM    9  C4  UNL     1      38.284  31.832  24.281  1.00  0.00     0.022 C 
HETATM   10  C5  UNL     1      37.923  30.583  23.539  1.00  0.00     0.125 C 
BRANCH   7  11
HETATM   11  C1  UNL     1      35.444  31.232  25.468  1.00  0.00     0.254 C 
HETATM   12  N1  UNL     1      34.561  30.134  25.554  1.00  0.00    -0.060 NA
HETATM   13  O1  UNL     1      35.853  31.829  26.466  1.00  0.00    -0.275 OA
ENDBRANCH   7  11
ENDBRANCH   1   6
BRANCH   1  14
HETATM   14  C15 UNL     1      36.406  28.205  22.571  1.00  0.00     0.061 C 
HETATM   15 BR1  UNL     1      36.769  27.382  24.334  1.00  0.00    -0.046 Br
HETATM   16  C16 UNL     1      36.767  27.490  21.554  1.00  0.00     0.079 C 
HETATM   17 BR2  UNL     1      36.659  27.848  19.726  1.00  0.00    -0.062 Br
ENDBRANCH   1  14
BRANCH   4  18
HETATM   18  C8  UNL     1      33.282  29.956  20.146  1.00  0.00     0.279 C 
BRANCH  18  19
HETATM   19  N4  UNL     1      32.699  28.866  19.393  1.00  0.00    -0.066 N 
ATOM     20  H43 UNL     1      32.766  27.971  19.874  1.00  0.00     0.275 HD
ATOM     21  H42 UNL     1      31.681  28.918  19.346  1.00  0.00     0.275 HD
ATOM     22  H41 UNL     1      33.138  28.857  18.472  1.00  0.00     0.275 HD
ENDBRANCH  18  19
BRANCH  18  23
HETATM   23  C9  UNL     1      32.300  31.086  20.076  1.00  0.00     0.025 C 
HETATM   24  C10 UNL     1      31.543  30.888  18.772  1.00  0.00     0.007 C 
HETATM   25  C11 UNL     1      30.555  31.990  18.490  1.00  0.00     0.000 C 
HETATM   26  C12 UNL     1      31.422  33.237  18.242  1.00  0.00     0.000 C 
HETATM   27  C13 UNL     1      32.070  33.531  19.565  1.00  0.00     0.000 C 
HETATM   28  C14 UNL     1      32.923  32.433  20.109  1.00  0.00     0.007 C 
ENDBRANCH  18  23
ENDBRANCH   4  18
TORSDOF 6
ENDMDL
MODEL 4
REMARK VINA RESULT: -7.163364575      2.207      3.272
REMARK  6 active torsions:
REMARK  status: ('A' for Active; 'I' for Inactive)
REMARK    1  A    between atoms: C1_2  and  C2_4 
REMARK    2  A    between atoms: N2_8  and  C6_9 
REMARK    3  A    between atoms: C6_9  and  C15_25 
REMARK       I    between atoms: N3_10  and  C7_12 
REMARK    4  A    between atoms: C7_12  and  C8_14 
REMARK    5  A    between atoms: C8_14  and  N4_15 
REMARK    6  A    between atoms: C8_14  and  C9_19 
ROOT
HETATM    1  C6  UNL     1      35.351  29.293  23.338  1.00  0.00     0.124 C 
HETATM    2  N3  UNL     1      34.354  29.519  22.641  1.00  0.00    -0.310 N 
ATOM      3  H3  UNL     1      34.029  30.423  22.984  1.00  0.00     0.170 HD
HETATM    4  C7  UNL     1      33.472  29.218  21.680  1.00  0.00     0.254 C 
HETATM    5  O2  UNL     1      32.570  28.294  21.814  1.00  0.00    -0.271 OA
ENDROOT
BRANCH   1   6
HETATM    6  N2  UNL     1      35.716  30.297  24.341  1.00  0.00    -0.353 N 
HETATM    7  C2  UNL     1      36.825  31.212  24.339  1.00  0.00     0.175 C 
HETATM    8  C3  UNL     1      36.890  31.829  25.732  1.00  0.00     0.036 C 
HETATM    9  C4  UNL     1      35.558  31.561  26.326  1.00  0.00     0.022 C 
HETATM   10  C5  UNL     1      34.874  30.521  25.494  1.00  0.00     0.125 C 
BRANCH   7  11
HETATM   11  C1  UNL     1      36.494  32.386  23.449  1.00  0.00     0.254 C 
HETATM   12  N1  UNL     1      35.228  32.445  22.825  1.00  0.00    -0.060 NA
HETATM   13  O1  UNL     1      37.346  33.264  23.294  1.00  0.00    -0.275 OA
ENDBRANCH   7  11
ENDBRANCH   1   6
BRANCH   1  14
HETATM   14  C15 UNL     1      36.120  28.080  23.206  1.00  0.00     0.061 C 
HETATM   15 BR1  UNL     1      36.405  27.159  24.935  1.00  0.00    -0.046 Br
HETATM   16  C16 UNL     1      36.666  27.500  22.186  1.00  0.00     0.079 C 
HETATM   17 BR2  UNL     1      36.697  27.995  20.388  1.00  0.00    -0.062 Br
ENDBRANCH   1  14
BRANCH   4  18
HETATM   18  C8  UNL     1      33.419  29.905  20.364  1.00  0.00     0.279 C 
BRANCH  18  19
HETATM   19  N4  UNL     1      33.152  28.901  19.355  1.00  0.00    -0.066 N 
ATOM     20  H43 UNL     1      33.979  28.359  19.108  1.00  0.00     0.275 HD
ATOM     21  H42 UNL     1      32.585  28.129  19.705  1.00  0.00     0.275 HD
ATOM     22  H41 UNL     1      32.731  29.372  18.554  1.00  0.00     0.275 HD
ENDBRANCH  18  19
BRANCH  18  23
HETATM   23  C9  UNL     1      32.348  30.943  20.215  1.00  0.00     0.025 C 
HETATM   24  C10 UNL     1      31.588  30.567  18.952  1.00  0.00     0.007 C 
HETATM   25  C11 UNL     1      30.510  31.556  18.595  1.00  0.00     0.000 C 
HETATM   26  C12 UNL     1      31.268  32.839  18.215  1.00  0.00     0.000 C 
HETATM   27  C13 UNL     1      31.912  33.304  19.491  1.00  0.00     0.000 C 
HETATM   28  C14 UNL     1      32.859  32.332  20.111  1.00  0.00     0.007 C 
ENDBRANCH  18  23
ENDBRANCH   4  18
TORSDOF 6
ENDMDL
MODEL 5
REMARK VINA RESULT: -7.006315541      1.587      2.197
REMARK  6 active torsions:
REMARK  status: ('A' for Active; 'I' for Inactive)
REMARK    1  A    between atoms: C1_2  and  C2_4 
REMARK    2  A    between atoms: N2_8  and  C6_9 
REMARK    3  A    between atoms: C6_9  and  C15_25 
REMARK       I    between atoms: N3_10  and  C7_12 
REMARK    4  A    between atoms: C7_12  and  C8_14 
REMARK    5  A    between atoms: C8_14  and  N4_15 
REMARK    6  A    between atoms: C8_14  and  C9_19 
ROOT
HETATM    1  C6  UNL     1      35.170  30.935  23.665  1.00  0.00     0.124 C 
HETATM    2  N3  UNL     1      34.585  30.131  22.930  1.00  0.00    -0.310 N 
ATOM      3  H3  UNL     1      34.102  29.520  23.589  1.00  0.00     0.170 HD
HETATM    4  C7  UNL     1      34.243  29.629  21.737  1.00  0.00     0.254 C 
HETATM    5  O2  UNL     1      35.071  28.971  20.983  1.00  0.00    -0.271 OA
ENDROOT
BRANCH   1   6
HETATM    6  N2  UNL     1      35.004  30.774  25.111  1.00  0.00    -0.353 N 
HETATM    7  C2  UNL     1      34.234  29.791  25.826  1.00  0.00     0.175 C 
HETATM    8  C3  UNL     1      34.183  30.244  27.281  1.00  0.00     0.036 C 
HETATM    9  C4  UNL     1      35.284  31.229  27.409  1.00  0.00     0.022 C 
HETATM   10  C5  UNL     1      35.719  31.627  26.033  1.00  0.00     0.125 C 
BRANCH   7  11
HETATM   11  C1  UNL     1      35.018  28.501  25.886  1.00  0.00     0.254 C 
HETATM   12  N1  UNL     1      35.142  27.826  27.120  1.00  0.00    -0.060 NA
HETATM   13  O1  UNL     1      35.528  28.075  24.847  1.00  0.00    -0.275 OA
ENDBRANCH   7  11
ENDBRANCH   1   6
BRANCH   1  14
HETATM   14  C15 UNL     1      36.016  31.979  23.139  1.00  0.00     0.061 C 
HETATM   15 BR1  UNL     1      34.990  33.505  22.407  1.00  0.00    -0.046 Br
HETATM   16  C16 UNL     1      37.301  32.093  23.042  1.00  0.00     0.079 C 
HETATM   17 BR2  UNL     1      38.661  30.923  23.555  1.00  0.00    -0.062 Br
ENDBRANCH   1  14
BRANCH   4  18
HETATM   18  C8  UNL     1      32.886  29.758  21.144  1.00  0.00     0.279 C 
BRANCH  18  19
HETATM   19  N4  UNL     1      32.035  30.387  22.131  1.00  0.00    -0.066 N 
ATOM     20  H43 UNL     1      31.393  31.068  21.725  1.00  0.00     0.275 HD
ATOM     21  H42 UNL     1      31.333  29.752  22.511  1.00  0.00     0.275 HD
ATOM     22  H41 UNL     1      32.637  30.788  22.849  1.00  0.00     0.275 HD
ENDBRANCH  18  19
BRANCH  18  23
HETATM   23  C9  UNL     1      32.794  30.604  19.911  1.00  0.00     0.025 C 
HETATM   24  C10 UNL     1      32.576  32.026  20.407  1.00  0.00     0.007 C 
HETATM   25  C11 UNL     1      32.378  33.017  19.289  1.00  0.00     0.000 C 
HETATM   26  C12 UNL     1      31.033  32.625  18.654  1.00  0.00     0.000 C 
HETATM   27  C13 UNL     1      31.272  31.277  18.034  1.00  0.00     0.000 C 
HETATM   28  C14 UNL     1      31.702  30.211  18.985  1.00  0.00     0.007 C 
ENDBRANCH  18  23
ENDBRANCH   4  18
TORSDOF 6
ENDMDL
