MODEL 1
REMARK VINA RESULT: -9.293416394      0.000      0.000
REMARK  16 active torsions:
REMARK  status: ('A' for Active; 'I' for Inactive)
REMARK    1  A    between atoms: O1_1  and  N1_3 
REMARK    2  A    between atoms: C5_8  and  C6_9 
REMARK    3  A    between atoms: C6_9  and  O2_10 
REMARK    4  A    between atoms: O2_10  and  C7_11 
REMARK    5  A    between atoms: C9_13  and  O3_14 
REMARK    6  A    between atoms: C10_16  and  O4_17 
REMARK    7  A    between atoms: C11_19  and  O5_20 
REMARK    8  A    between atoms: O5_20  and  C12_21 
REMARK    9  A    between atoms: C12_21  and  C13_22 
REMARK   10  A    between atoms: C16_25  and  O6_26 
REMARK   11  A    between atoms: C19_30  and  O7_31 
REMARK   12  A    between atoms: O7_31  and  C20_32 
REMARK   13  A    between atoms: C20_32  and  C21_33 
REMARK   14  A    between atoms: C27_39  and  O8_40 
REMARK   15  A    between atoms: O8_40  and  C28_41 
REMARK   16  A    between atoms: C28_41  and  C29_42 
ROOT
HETATM    1  C7  UNL     1     119.692  56.272  15.684  1.00  0.00     0.156 C 
HETATM    2  C8  UNL     1     118.518  56.387  16.634  1.00  0.00     0.069 C 
HETATM    3  C9  UNL     1     118.774  57.252  17.820  1.00  0.00     0.152 C 
HETATM    4  C10 UNL     1     119.600  58.472  17.520  1.00  0.00     0.178 C 
HETATM    5  C11 UNL     1     121.027  58.149  17.877  1.00  0.00     0.184 C 
HETATM    6  C19 UNL     1     121.612  57.456  16.635  1.00  0.00     0.184 C 
HETATM    7  C27 UNL     1     120.999  56.089  16.429  1.00  0.00     0.182 C 
ENDROOT
BRANCH   1   8
HETATM    8  O2  UNL     1     119.422  55.197  14.848  1.00  0.00    -0.377 OA
BRANCH   8   9
HETATM    9  C6  UNL     1     118.597  54.311  15.528  1.00  0.00     0.228 C 
BRANCH   9  10
HETATM   10  C5  UNL     1     118.549  52.981  14.874  1.00  0.00     0.063 A 
HETATM   11  N1  UNL     1     119.112  51.888  15.417  1.00  0.00    -0.238 N 
HETATM   12  C1  UNL     1     119.017  50.727  14.748  1.00  0.00     0.123 A 
HETATM   13  C2  UNL     1     118.372  50.605  13.539  1.00  0.00     0.020 A 
HETATM   14  C3  UNL     1     117.788  51.720  12.970  1.00  0.00     0.003 A 
HETATM   15  C4  UNL     1     117.887  52.914  13.658  1.00  0.00     0.030 A 
BRANCH  11  16
HETATM   16  O1  UNL     1     119.752  52.012  16.619  1.00  0.00    -0.283 OA
ATOM     17  H1  UNL     1     119.296  52.131  17.443  1.00  0.00     0.245 HD
ENDBRANCH  11  16
ENDBRANCH   9  10
ENDBRANCH   8   9
ENDBRANCH   1   8
BRANCH   7  18
HETATM   18  O8  UNL     1     121.873  55.242  15.765  1.00  0.00    -0.376 OA
BRANCH  18  19
HETATM   19  C28 UNL     1     122.443  54.316  16.621  1.00  0.00     0.207 C 
BRANCH  19  20
HETATM   20  C29 UNL     1     123.845  54.022  16.253  1.00  0.00    -0.035 A 
HETATM   21  C30 UNL     1     124.142  53.212  15.178  1.00  0.00     0.009 A 
HETATM   22  C31 UNL     1     125.452  52.927  14.816  1.00  0.00     0.001 A 
HETATM   23  C32 UNL     1     126.491  53.464  15.549  1.00  0.00     0.000 A 
HETATM   24  C33 UNL     1     126.233  54.279  16.631  1.00  0.00     0.001 A 
HETATM   25  C34 UNL     1     124.910  54.536  16.955  1.00  0.00     0.009 A 
ENDBRANCH  19  20
ENDBRANCH  18  19
ENDBRANCH   7  18
BRANCH   3  26
HETATM   26  O3  UNL     1     117.518  57.660  18.319  1.00  0.00    -0.393 OA
ATOM     27  H3  UNL     1     117.469  58.603  18.222  1.00  0.00     0.210 HD
ENDBRANCH   3  26
BRANCH   6  28
HETATM   28  O7  UNL     1     122.983  57.434  16.679  1.00  0.00    -0.376 OA
BRANCH  28  29
HETATM   29  C20 UNL     1     123.486  58.708  16.797  1.00  0.00     0.207 C 
BRANCH  29  30
HETATM   30  C21 UNL     1     124.816  58.743  17.450  1.00  0.00    -0.035 A 
HETATM   31  C22 UNL     1     125.033  59.593  18.516  1.00  0.00     0.009 A 
HETATM   32  C23 UNL     1     126.254  59.666  19.159  1.00  0.00     0.001 A 
HETATM   33  C24 UNL     1     127.314  58.882  18.756  1.00  0.00     0.000 A 
HETATM   34  C25 UNL     1     127.105  58.023  17.684  1.00  0.00     0.001 A 
HETATM   35  C26 UNL     1     125.875  57.959  17.045  1.00  0.00     0.009 A 
ENDBRANCH  29  30
ENDBRANCH  28  29
ENDBRANCH   6  28
BRANCH   4  36
HETATM   36  O4  UNL     1     119.126  59.605  18.187  1.00  0.00    -0.390 OA
ATOM     37  H4  UNL     1     119.149  60.380  17.637  1.00  0.00     0.210 HD
ENDBRANCH   4  36
BRANCH   5  38
HETATM   38  O5  UNL     1     121.146  57.313  18.968  1.00  0.00    -0.376 OA
BRANCH  38  39
HETATM   39  C12 UNL     1     122.035  57.827  19.874  1.00  0.00     0.207 C 
BRANCH  39  40
HETATM   40  C13 UNL     1     121.561  59.022  20.578  1.00  0.00    -0.034 A 
HETATM   41  C14 UNL     1     122.333  60.180  20.475  1.00  0.00     0.012 A 
HETATM   42  C15 UNL     1     122.014  61.364  21.073  1.00  0.00     0.037 A 
HETATM   43  C16 UNL     1     120.854  61.432  21.830  1.00  0.00     0.065 A 
HETATM   44  C17 UNL     1     120.072  60.297  21.945  1.00  0.00     0.037 A 
HETATM   45  C18 UNL     1     120.410  59.097  21.331  1.00  0.00     0.012 A 
BRANCH  43  46
HETATM   46  O6  UNL     1     120.560  62.642  22.419  1.00  0.00    -0.361 OA
ATOM     47  H6  UNL     1     120.426  63.384  21.841  1.00  0.00     0.217 HD
ENDBRANCH  43  46
ENDBRANCH  39  40
ENDBRANCH  38  39
ENDBRANCH   5  38
TORSDOF 16
ENDMDL
MODEL 2
REMARK VINA RESULT: -8.981378758      1.445      1.845
REMARK  16 active torsions:
REMARK  status: ('A' for Active; 'I' for Inactive)
REMARK    1  A    between atoms: O1_1  and  N1_3 
REMARK    2  A    between atoms: C5_8  and  C6_9 
REMARK    3  A    between atoms: C6_9  and  O2_10 
REMARK    4  A    between atoms: O2_10  and  C7_11 
REMARK    5  A    between atoms: C9_13  and  O3_14 
REMARK    6  A    between atoms: C10_16  and  O4_17 
REMARK    7  A    between atoms: C11_19  and  O5_20 
REMARK    8  A    between atoms: O5_20  and  C12_21 
REMARK    9  A    between atoms: C12_21  and  C13_22 
REMARK   10  A    between atoms: C16_25  and  O6_26 
REMARK   11  A    between atoms: C19_30  and  O7_31 
REMARK   12  A    between atoms: O7_31  and  C20_32 
REMARK   13  A    between atoms: C20_32  and  C21_33 
REMARK   14  A    between atoms: C27_39  and  O8_40 
REMARK   15  A    between atoms: O8_40  and  C28_41 
REMARK   16  A    between atoms: C28_41  and  C29_42 
ROOT
HETATM    1  C7  UNL     1     120.189  56.441  17.098  1.00  0.00     0.156 C 
HETATM    2  C8  UNL     1     118.847  56.769  17.720  1.00  0.00     0.069 C 
HETATM    3  C9  UNL     1     118.869  57.944  18.635  1.00  0.00     0.152 C 
HETATM    4  C10 UNL     1     119.760  59.064  18.172  1.00  0.00     0.178 C 
HETATM    5  C11 UNL     1     121.078  58.917  18.885  1.00  0.00     0.184 C 
HETATM    6  C19 UNL     1     121.894  57.926  18.036  1.00  0.00     0.184 C 
HETATM    7  C27 UNL     1     121.313  56.532  18.111  1.00  0.00     0.182 C 
ENDROOT
BRANCH   1   8
HETATM    8  O2  UNL     1     120.078  55.163  16.567  1.00  0.00    -0.377 OA
BRANCH   8   9
HETATM    9  C6  UNL     1     119.204  55.212  15.488  1.00  0.00     0.228 C 
BRANCH   9  10
HETATM   10  C5  UNL     1     119.183  53.937  14.730  1.00  0.00     0.063 A 
HETATM   11  N1  UNL     1     120.227  53.515  13.998  1.00  0.00    -0.238 N 
HETATM   12  C1  UNL     1     120.113  52.346  13.346  1.00  0.00     0.123 A 
HETATM   13  C2  UNL     1     118.982  51.565  13.393  1.00  0.00     0.020 A 
HETATM   14  C3  UNL     1     117.900  51.986  14.143  1.00  0.00     0.003 A 
HETATM   15  C4  UNL     1     118.018  53.189  14.813  1.00  0.00     0.030 A 
BRANCH  11  16
HETATM   16  O1  UNL     1     121.351  54.293  13.954  1.00  0.00    -0.283 OA
ATOM     17  H1  UNL     1     121.981  54.341  14.663  1.00  0.00     0.245 HD
ENDBRANCH  11  16
ENDBRANCH   9  10
ENDBRANCH   8   9
ENDBRANCH   1   8
BRANCH   7  18
HETATM   18  O8  UNL     1     122.290  55.570  17.906  1.00  0.00    -0.376 OA
BRANCH  18  19
HETATM   19  C28 UNL     1     122.721  55.546  16.591  1.00  0.00     0.207 C 
BRANCH  19  20
HETATM   20  C29 UNL     1     124.121  55.080  16.485  1.00  0.00    -0.035 A 
HETATM   21  C30 UNL     1     124.412  53.750  16.268  1.00  0.00     0.009 A 
HETATM   22  C31 UNL     1     125.720  53.294  16.164  1.00  0.00     0.001 A 
HETATM   23  C32 UNL     1     126.762  54.191  16.280  1.00  0.00     0.000 A 
HETATM   24  C33 UNL     1     126.510  55.529  16.497  1.00  0.00     0.001 A 
HETATM   25  C34 UNL     1     125.190  55.938  16.594  1.00  0.00     0.009 A 
ENDBRANCH  19  20
ENDBRANCH  18  19
ENDBRANCH   7  18
BRANCH   3  26
HETATM   26  O3  UNL     1     117.545  58.423  18.735  1.00  0.00    -0.393 OA
ATOM     27  H3  UNL     1     117.190  58.104  19.556  1.00  0.00     0.210 HD
ENDBRANCH   3  26
BRANCH   6  28
HETATM   28  O7  UNL     1     123.226  57.976  18.358  1.00  0.00    -0.376 OA
BRANCH  28  29
HETATM   29  C20 UNL     1     123.849  59.004  17.691  1.00  0.00     0.207 C 
BRANCH  29  30
HETATM   30  C21 UNL     1     124.968  59.595  18.462  1.00  0.00    -0.035 A 
HETATM   31  C22 UNL     1     124.761  60.747  19.195  1.00  0.00     0.009 A 
HETATM   32  C23 UNL     1     125.770  61.340  19.930  1.00  0.00     0.001 A 
HETATM   33  C24 UNL     1     127.037  60.796  19.960  1.00  0.00     0.000 A 
HETATM   34  C25 UNL     1     127.254  59.636  19.226  1.00  0.00     0.001 A 
HETATM   35  C26 UNL     1     126.234  59.051  18.491  1.00  0.00     0.009 A 
ENDBRANCH  29  30
ENDBRANCH  28  29
ENDBRANCH   6  28
BRANCH   4  36
HETATM   36  O4  UNL     1     119.178  60.318  18.377  1.00  0.00    -0.390 OA
ATOM     37  H4  UNL     1     118.409  60.449  17.834  1.00  0.00     0.210 HD
ENDBRANCH   4  36
BRANCH   5  38
HETATM   38  O5  UNL     1     120.957  58.429  20.169  1.00  0.00    -0.376 OA
BRANCH  38  39
HETATM   39  C12 UNL     1     121.821  59.077  21.014  1.00  0.00     0.207 C 
BRANCH  39  40
HETATM   40  C13 UNL     1     121.171  59.973  21.974  1.00  0.00    -0.034 A 
HETATM   41  C14 UNL     1     121.052  59.530  23.292  1.00  0.00     0.012 A 
HETATM   42  C15 UNL     1     120.475  60.257  24.291  1.00  0.00     0.037 A 
HETATM   43  C16 UNL     1     119.972  61.515  23.989  1.00  0.00     0.065 A 
HETATM   44  C17 UNL     1     120.079  61.975  22.689  1.00  0.00     0.037 A 
HETATM   45  C18 UNL     1     120.671  61.223  21.681  1.00  0.00     0.012 A 
BRANCH  43  46
HETATM   46  O6  UNL     1     119.396  62.224  25.020  1.00  0.00    -0.361 OA
ATOM     47  H6  UNL     1     118.535  62.594  24.863  1.00  0.00     0.217 HD
ENDBRANCH  43  46
ENDBRANCH  39  40
ENDBRANCH  38  39
ENDBRANCH   5  38
TORSDOF 16
ENDMDL
MODEL 3
REMARK VINA RESULT: -8.910294522      1.590      2.264
REMARK  16 active torsions:
REMARK  status: ('A' for Active; 'I' for Inactive)
REMARK    1  A    between atoms: O1_1  and  N1_3 
REMARK    2  A    between atoms: C5_8  and  C6_9 
REMARK    3  A    between atoms: C6_9  and  O2_10 
REMARK    4  A    between atoms: O2_10  and  C7_11 
REMARK    5  A    between atoms: C9_13  and  O3_14 
REMARK    6  A    between atoms: C10_16  and  O4_17 
REMARK    7  A    between atoms: C11_19  and  O5_20 
REMARK    8  A    between atoms: O5_20  and  C12_21 
REMARK    9  A    between atoms: C12_21  and  C13_22 
REMARK   10  A    between atoms: C16_25  and  O6_26 
REMARK   11  A    between atoms: C19_30  and  O7_31 
REMARK   12  A    between atoms: O7_31  and  C20_32 
REMARK   13  A    between atoms: C20_32  and  C21_33 
REMARK   14  A    between atoms: C27_39  and  O8_40 
REMARK   15  A    between atoms: O8_40  and  C28_41 
REMARK   16  A    between atoms: C28_41  and  C29_42 
ROOT
HETATM    1  C7  UNL     1     120.520  56.661  17.048  1.00  0.00     0.156 C 
HETATM    2  C8  UNL     1     119.109  56.768  17.591  1.00  0.00     0.069 C 
HETATM    3  C9  UNL     1     118.940  57.794  18.656  1.00  0.00     0.152 C 
HETATM    4  C10 UNL     1     119.739  59.048  18.430  1.00  0.00     0.178 C 
HETATM    5  C11 UNL     1     121.010  58.924  19.228  1.00  0.00     0.184 C 
HETATM    6  C19 UNL     1     121.985  58.148  18.326  1.00  0.00     0.184 C 
HETATM    7  C27 UNL     1     121.551  56.710  18.159  1.00  0.00     0.182 C 
ENDROOT
BRANCH   1   8
HETATM    8  O2  UNL     1     120.583  55.469  16.340  1.00  0.00    -0.377 OA
BRANCH   8   9
HETATM    9  C6  UNL     1     119.445  55.369  15.550  1.00  0.00     0.228 C 
BRANCH   9  10
HETATM   10  C5  UNL     1     119.395  54.088  14.804  1.00  0.00     0.063 A 
HETATM   11  N1  UNL     1     120.435  53.629  14.087  1.00  0.00    -0.238 N 
HETATM   12  C1  UNL     1     120.294  52.457  13.445  1.00  0.00     0.123 A 
HETATM   13  C2  UNL     1     119.141  51.708  13.489  1.00  0.00     0.020 A 
HETATM   14  C3  UNL     1     118.065  52.167  14.223  1.00  0.00     0.003 A 
HETATM   15  C4  UNL     1     118.210  53.373  14.883  1.00  0.00     0.030 A 
BRANCH  11  16
HETATM   16  O1  UNL     1     121.580  54.375  14.046  1.00  0.00    -0.283 OA
ATOM     17  H1  UNL     1     121.898  54.884  14.782  1.00  0.00     0.245 HD
ENDBRANCH  11  16
ENDBRANCH   9  10
ENDBRANCH   8   9
ENDBRANCH   1   8
BRANCH   7  18
HETATM   18  O8  UNL     1     122.636  55.884  17.910  1.00  0.00    -0.376 OA
BRANCH  18  19
HETATM   19  C28 UNL     1     123.408  56.350  16.860  1.00  0.00     0.207 C 
BRANCH  19  20
HETATM   20  C29 UNL     1     124.539  55.442  16.569  1.00  0.00    -0.035 A 
HETATM   21  C30 UNL     1     125.840  55.896  16.601  1.00  0.00     0.009 A 
HETATM   22  C31 UNL     1     126.915  55.058  16.333  1.00  0.00     0.001 A 
HETATM   23  C32 UNL     1     126.681  53.733  16.024  1.00  0.00     0.000 A 
HETATM   24  C33 UNL     1     125.393  53.243  15.982  1.00  0.00     0.001 A 
HETATM   25  C34 UNL     1     124.353  54.116  16.257  1.00  0.00     0.009 A 
ENDBRANCH  19  20
ENDBRANCH  18  19
ENDBRANCH   7  18
BRANCH   3  26
HETATM   26  O3  UNL     1     117.569  58.127  18.705  1.00  0.00    -0.393 OA
ATOM     27  H3  UNL     1     117.159  57.544  19.332  1.00  0.00     0.210 HD
ENDBRANCH   3  26
BRANCH   6  28
HETATM   28  O7  UNL     1     123.277  58.276  18.767  1.00  0.00    -0.376 OA
BRANCH  28  29
HETATM   29  C20 UNL     1     123.565  59.589  19.057  1.00  0.00     0.207 C 
BRANCH  29  30
HETATM   30  C21 UNL     1     125.020  59.867  19.086  1.00  0.00    -0.035 A 
HETATM   31  C22 UNL     1     125.906  58.925  18.602  1.00  0.00     0.009 A 
HETATM   32  C23 UNL     1     127.272  59.133  18.606  1.00  0.00     0.001 A 
HETATM   33  C24 UNL     1     127.808  60.304  19.098  1.00  0.00     0.000 A 
HETATM   34  C25 UNL     1     126.923  61.258  19.587  1.00  0.00     0.001 A 
HETATM   35  C26 UNL     1     125.554  61.038  19.578  1.00  0.00     0.009 A 
ENDBRANCH  29  30
ENDBRANCH  28  29
ENDBRANCH   6  28
BRANCH   4  36
HETATM   36  O4  UNL     1     119.015  60.199  18.754  1.00  0.00    -0.390 OA
ATOM     37  H4  UNL     1     118.458  60.485  18.038  1.00  0.00     0.210 HD
ENDBRANCH   4  36
BRANCH   5  38
HETATM   38  O5  UNL     1     120.848  58.246  20.419  1.00  0.00    -0.376 OA
BRANCH  38  39
HETATM   39  C12 UNL     1     120.118  58.995  21.304  1.00  0.00     0.207 C 
BRANCH  39  40
HETATM   40  C13 UNL     1     120.924  59.827  22.203  1.00  0.00    -0.034 A 
HETATM   41  C14 UNL     1     120.931  59.493  23.558  1.00  0.00     0.012 A 
HETATM   42  C15 UNL     1     121.636  60.175  24.506  1.00  0.00     0.037 A 
HETATM   43  C16 UNL     1     122.395  61.266  24.111  1.00  0.00     0.065 A 
HETATM   44  C17 UNL     1     122.403  61.615  22.773  1.00  0.00     0.037 A 
HETATM   45  C18 UNL     1     121.680  60.912  21.817  1.00  0.00     0.012 A 
BRANCH  43  46
HETATM   46  O6  UNL     1     123.095  61.932  25.093  1.00  0.00    -0.361 OA
ATOM     47  H6  UNL     1     123.639  62.661  24.818  1.00  0.00     0.217 HD
ENDBRANCH  43  46
ENDBRANCH  39  40
ENDBRANCH  38  39
ENDBRANCH   5  38
TORSDOF 16
ENDMDL
MODEL 4
REMARK VINA RESULT: -8.907248985      3.352      9.931
REMARK  16 active torsions:
REMARK  status: ('A' for Active; 'I' for Inactive)
REMARK    1  A    between atoms: O1_1  and  N1_3 
REMARK    2  A    between atoms: C5_8  and  C6_9 
REMARK    3  A    between atoms: C6_9  and  O2_10 
REMARK    4  A    between atoms: O2_10  and  C7_11 
REMARK    5  A    between atoms: C9_13  and  O3_14 
REMARK    6  A    between atoms: C10_16  and  O4_17 
REMARK    7  A    between atoms: C11_19  and  O5_20 
REMARK    8  A    between atoms: O5_20  and  C12_21 
REMARK    9  A    between atoms: C12_21  and  C13_22 
REMARK   10  A    between atoms: C16_25  and  O6_26 
REMARK   11  A    between atoms: C19_30  and  O7_31 
REMARK   12  A    between atoms: O7_31  and  C20_32 
REMARK   13  A    between atoms: C20_32  and  C21_33 
REMARK   14  A    between atoms: C27_39  and  O8_40 
REMARK   15  A    between atoms: O8_40  and  C28_41 
REMARK   16  A    between atoms: C28_41  and  C29_42 
ROOT
HETATM    1  C7  UNL     1     123.473  60.602  19.458  1.00  0.00     0.156 C 
HETATM    2  C8  UNL     1     124.907  60.113  19.458  1.00  0.00     0.069 C 
HETATM    3  C9  UNL     1     125.114  58.826  18.736  1.00  0.00     0.152 C 
HETATM    4  C10 UNL     1     124.288  58.686  17.487  1.00  0.00     0.178 C 
HETATM    5  C11 UNL     1     123.060  57.892  17.845  1.00  0.00     0.184 C 
HETATM    6  C19 UNL     1     122.052  58.920  18.387  1.00  0.00     0.184 C 
HETATM    7  C27 UNL     1     122.497  59.473  19.723  1.00  0.00     0.182 C 
ENDROOT
BRANCH   1   8
HETATM    8  O2  UNL     1     123.391  61.591  20.429  1.00  0.00    -0.377 OA
BRANCH   8   9
HETATM    9  C6  UNL     1     124.671  61.837  20.910  1.00  0.00     0.228 C 
BRANCH   9  10
HETATM   10  C5  UNL     1     124.650  62.437  22.266  1.00  0.00     0.063 A 
HETATM   11  N1  UNL     1     125.621  63.252  22.711  1.00  0.00    -0.238 N 
HETATM   12  C1  UNL     1     125.514  63.747  23.956  1.00  0.00     0.123 A 
HETATM   13  C2  UNL     1     124.461  63.459  24.792  1.00  0.00     0.020 A 
HETATM   14  C3  UNL     1     123.454  62.622  24.348  1.00  0.00     0.003 A 
HETATM   15  C4  UNL     1     123.566  62.114  23.068  1.00  0.00     0.030 A 
BRANCH  11  16
HETATM   16  O1  UNL     1     126.667  63.538  21.877  1.00  0.00    -0.283 OA
ATOM     17  H1  UNL     1     126.562  63.976  21.041  1.00  0.00     0.245 HD
ENDBRANCH  11  16
ENDBRANCH   9  10
ENDBRANCH   8   9
ENDBRANCH   1   8
BRANCH   7  18
HETATM   18  O8  UNL     1     121.412  59.878  20.484  1.00  0.00    -0.376 OA
BRANCH  18  19
HETATM   19  C28 UNL     1     121.259  59.100  21.619  1.00  0.00     0.207 C 
BRANCH  19  20
HETATM   20  C29 UNL     1     120.786  59.900  22.769  1.00  0.00    -0.035 A 
HETATM   21  C30 UNL     1     121.064  59.515  24.064  1.00  0.00     0.009 A 
HETATM   22  C31 UNL     1     120.631  60.254  25.157  1.00  0.00     0.001 A 
HETATM   23  C32 UNL     1     119.899  61.406  24.949  1.00  0.00     0.000 A 
HETATM   24  C33 UNL     1     119.602  61.823  23.669  1.00  0.00     0.001 A 
HETATM   25  C34 UNL     1     120.056  61.054  22.609  1.00  0.00     0.009 A 
ENDBRANCH  19  20
ENDBRANCH  18  19
ENDBRANCH   7  18
BRANCH   3  26
HETATM   26  O3  UNL     1     126.482  58.754  18.392  1.00  0.00    -0.393 OA
ATOM     27  H3  UNL     1     126.590  58.000  17.824  1.00  0.00     0.210 HD
ENDBRANCH   3  26
BRANCH   6  28
HETATM   28  O7  UNL     1     120.781  58.405  18.410  1.00  0.00    -0.376 OA
BRANCH  28  29
HETATM   29  C20 UNL     1     120.159  58.592  17.199  1.00  0.00     0.207 C 
BRANCH  29  30
HETATM   30  C21 UNL     1     119.674  57.327  16.600  1.00  0.00    -0.035 A 
HETATM   31  C22 UNL     1     118.490  56.770  17.042  1.00  0.00     0.009 A 
HETATM   32  C23 UNL     1     117.993  55.591  16.518  1.00  0.00     0.001 A 
HETATM   33  C24 UNL     1     118.669  54.919  15.521  1.00  0.00     0.000 A 
HETATM   34  C25 UNL     1     119.861  55.473  15.070  1.00  0.00     0.001 A 
HETATM   35  C26 UNL     1     120.350  56.656  15.604  1.00  0.00     0.009 A 
ENDBRANCH  29  30
ENDBRANCH  28  29
ENDBRANCH   6  28
BRANCH   4  36
HETATM   36  O4  UNL     1     125.012  58.108  16.440  1.00  0.00    -0.390 OA
ATOM     37  H4  UNL     1     124.641  57.278  16.164  1.00  0.00     0.210 HD
ENDBRANCH   4  36
BRANCH   5  38
HETATM   38  O5  UNL     1     123.289  56.926  18.802  1.00  0.00    -0.376 OA
BRANCH  38  39
HETATM   39  C12 UNL     1     122.721  55.735  18.430  1.00  0.00     0.207 C 
BRANCH  39  40
HETATM   40  C13 UNL     1     123.515  54.956  17.477  1.00  0.00    -0.034 A 
HETATM   41  C14 UNL     1     122.827  54.225  16.508  1.00  0.00     0.012 A 
HETATM   42  C15 UNL     1     123.434  53.458  15.558  1.00  0.00     0.037 A 
HETATM   43  C16 UNL     1     124.820  53.394  15.544  1.00  0.00     0.065 A 
HETATM   44  C17 UNL     1     125.524  54.110  16.495  1.00  0.00     0.037 A 
HETATM   45  C18 UNL     1     124.891  54.888  17.458  1.00  0.00     0.012 A 
BRANCH  43  46
HETATM   46  O6  UNL     1     125.403  52.612  14.572  1.00  0.00    -0.361 OA
ATOM     47  H6  UNL     1     125.776  51.784  14.848  1.00  0.00     0.217 HD
ENDBRANCH  43  46
ENDBRANCH  39  40
ENDBRANCH  38  39
ENDBRANCH   5  38
TORSDOF 16
ENDMDL
MODEL 5
REMARK VINA RESULT: -8.770569615      2.045      5.614
REMARK  16 active torsions:
REMARK  status: ('A' for Active; 'I' for Inactive)
REMARK    1  A    between atoms: O1_1  and  N1_3 
REMARK    2  A    between atoms: C5_8  and  C6_9 
REMARK    3  A    between atoms: C6_9  and  O2_10 
REMARK    4  A    between atoms: O2_10  and  C7_11 
REMARK    5  A    between atoms: C9_13  and  O3_14 
REMARK    6  A    between atoms: C10_16  and  O4_17 
REMARK    7  A    between atoms: C11_19  and  O5_20 
REMARK    8  A    between atoms: O5_20  and  C12_21 
REMARK    9  A    between atoms: C12_21  and  C13_22 
REMARK   10  A    between atoms: C16_25  and  O6_26 
REMARK   11  A    between atoms: C19_30  and  O7_31 
REMARK   12  A    between atoms: O7_31  and  C20_32 
REMARK   13  A    between atoms: C20_32  and  C21_33 
REMARK   14  A    between atoms: C27_39  and  O8_40 
REMARK   15  A    between atoms: O8_40  and  C28_41 
REMARK   16  A    between atoms: C28_41  and  C29_42 
ROOT
HETATM    1  C7  UNL     1     122.270  55.055  15.513  1.00  0.00     0.156 C 
HETATM    2  C8  UNL     1     123.458  54.359  14.880  1.00  0.00     0.069 C 
HETATM    3  C9  UNL     1     124.758  54.638  15.551  1.00  0.00     0.152 C 
HETATM    4  C10 UNL     1     124.668  54.723  17.050  1.00  0.00     0.178 C 
HETATM    5  C11 UNL     1     124.559  56.179  17.413  1.00  0.00     0.184 C 
HETATM    6  C19 UNL     1     123.062  56.516  17.311  1.00  0.00     0.184 C 
HETATM    7  C27 UNL     1     122.591  56.492  15.874  1.00  0.00     0.182 C 
ENDROOT
BRANCH   1   8
HETATM    8  O2  UNL     1     121.229  54.975  14.598  1.00  0.00    -0.377 OA
BRANCH   8   9
HETATM    9  C6  UNL     1     121.321  53.756  13.938  1.00  0.00     0.228 C 
BRANCH   9  10
HETATM   10  C5  UNL     1     120.004  53.082  13.829  1.00  0.00     0.063 A 
HETATM   11  N1  UNL     1     119.760  52.115  12.928  1.00  0.00    -0.238 N 
HETATM   12  C1  UNL     1     118.535  51.564  12.905  1.00  0.00     0.123 A 
HETATM   13  C2  UNL     1     117.524  51.942  13.757  1.00  0.00     0.020 A 
HETATM   14  C3  UNL     1     117.761  52.934  14.689  1.00  0.00     0.003 A 
HETATM   15  C4  UNL     1     119.021  53.500  14.712  1.00  0.00     0.030 A 
BRANCH  11  16
HETATM   16  O1  UNL     1     120.767  51.742  12.082  1.00  0.00    -0.283 OA
ATOM     17  H1  UNL     1     121.677  51.679  12.349  1.00  0.00     0.245 HD
ENDBRANCH  11  16
ENDBRANCH   9  10
ENDBRANCH   8   9
ENDBRANCH   1   8
BRANCH   7  18
HETATM   18  O8  UNL     1     121.510  57.339  15.686  1.00  0.00    -0.376 OA
BRANCH  18  19
HETATM   19  C28 UNL     1     120.315  56.733  16.030  1.00  0.00     0.207 C 
BRANCH  19  20
HETATM   20  C29 UNL     1     119.575  57.520  17.041  1.00  0.00    -0.035 A 
HETATM   21  C30 UNL     1     119.639  58.896  17.056  1.00  0.00     0.009 A 
HETATM   22  C31 UNL     1     118.950  59.652  17.996  1.00  0.00     0.001 A 
HETATM   23  C32 UNL     1     118.178  59.013  18.945  1.00  0.00     0.000 A 
HETATM   24  C33 UNL     1     118.090  57.637  18.961  1.00  0.00     0.001 A 
HETATM   25  C34 UNL     1     118.794  56.925  18.004  1.00  0.00     0.009 A 
ENDBRANCH  19  20
ENDBRANCH  18  19
ENDBRANCH   7  18
BRANCH   3  26
HETATM   26  O3  UNL     1     125.642  53.592  15.203  1.00  0.00    -0.393 OA
ATOM     27  H3  UNL     1     125.628  53.515  14.257  1.00  0.00     0.210 HD
ENDBRANCH   3  26
BRANCH   6  28
HETATM   28  O7  UNL     1     122.772  57.691  17.956  1.00  0.00    -0.376 OA
BRANCH  28  29
HETATM   29  C20 UNL     1     122.336  57.448  19.237  1.00  0.00     0.207 C 
BRANCH  29  30
HETATM   30  C21 UNL     1     121.829  58.665  19.913  1.00  0.00    -0.035 A 
HETATM   31  C22 UNL     1     122.183  59.912  19.434  1.00  0.00     0.009 A 
HETATM   32  C23 UNL     1     121.740  61.078  20.028  1.00  0.00     0.001 A 
HETATM   33  C24 UNL     1     120.916  61.041  21.134  1.00  0.00     0.000 A 
HETATM   34  C25 UNL     1     120.555  59.791  21.622  1.00  0.00     0.001 A 
HETATM   35  C26 UNL     1     121.007  58.627  21.018  1.00  0.00     0.009 A 
ENDBRANCH  29  30
ENDBRANCH  28  29
ENDBRANCH   6  28
BRANCH   4  36
HETATM   36  O4  UNL     1     125.746  54.093  17.678  1.00  0.00    -0.390 OA
ATOM     37  H4  UNL     1     126.543  54.609  17.623  1.00  0.00     0.210 HD
ENDBRANCH   4  36
BRANCH   5  38
HETATM   38  O5  UNL     1     125.274  57.010  16.576  1.00  0.00    -0.376 OA
BRANCH  38  39
HETATM   39  C12 UNL     1     126.505  57.289  17.110  1.00  0.00     0.207 C 
BRANCH  39  40
HETATM   40  C13 UNL     1     126.564  58.534  17.881  1.00  0.00    -0.034 A 
HETATM   41  C14 UNL     1     127.825  59.062  18.160  1.00  0.00     0.012 A 
HETATM   42  C15 UNL     1     128.032  60.212  18.863  1.00  0.00     0.037 A 
HETATM   43  C16 UNL     1     126.927  60.907  19.334  1.00  0.00     0.065 A 
HETATM   44  C17 UNL     1     125.667  60.403  19.071  1.00  0.00     0.037 A 
HETATM   45  C18 UNL     1     125.472  59.229  18.352  1.00  0.00     0.012 A 
BRANCH  43  46
HETATM   46  O6  UNL     1     127.170  62.065  20.040  1.00  0.00    -0.361 OA
ATOM     47  H6  UNL     1     127.143  62.008  20.987  1.00  0.00     0.217 HD
ENDBRANCH  43  46
ENDBRANCH  39  40
ENDBRANCH  38  39
ENDBRANCH   5  38
TORSDOF 16
ENDMDL
