MODEL 1
REMARK VINA RESULT: -9.791257206      0.000      0.000
REMARK  17 active torsions:
REMARK  status: ('A' for Active; 'I' for Inactive)
REMARK    1  A    between atoms: O1_2  and  C2_3 
REMARK    2  A    between atoms: C4_5  and  O2_6 
REMARK    3  A    between atoms: O2_6  and  C5_7 
REMARK    4  A    between atoms: C12_14  and  O3_15 
REMARK    5  A    between atoms: C15_18  and  C16_19 
REMARK    6  A    between atoms: C16_19  and  O4_20 
REMARK    7  A    between atoms: C16_19  and  N1_22 
REMARK    8  A    between atoms: N1_22  and  N2_24 
REMARK    9  A    between atoms: C17_26  and  O5_27 
REMARK   10  A    between atoms: C17_26  and  C18_29 
REMARK   11  A    between atoms: C18_29  and  C19_30 
REMARK   12  A    between atoms: C19_30  and  C20_31 
REMARK       I    between atoms: C20_31  and  N3_33 
REMARK   13  A    between atoms: N3_33  and  C21_34 
REMARK   14  A    between atoms: C21_34  and  C22_35 
REMARK   15  A    between atoms: C22_35  and  C23_36 
REMARK   16  A    between atoms: C26_39  and  O7_40 
REMARK   17  A    between atoms: C28_42  and  O8_43 
ROOT
HETATM    1  N1  UNL     1      74.392 108.773  13.296  1.00  0.00    -0.278 N 
ATOM      2  H1  UNL     1      74.831 109.025  12.411  1.00  0.00     0.189 HD
ENDROOT
BRANCH   1   3
HETATM    3  C16 UNL     1      73.374 107.866  13.473  1.00  0.00     0.165 C 
BRANCH   3   4
HETATM    4  C15 UNL     1      72.691 106.883  14.112  1.00  0.00     0.021 A 
HETATM    5  C14 UNL     1      71.256 106.880  13.995  1.00  0.00     0.053 A 
HETATM    6  C4  UNL     1      70.507 105.843  14.408  1.00  0.00     0.079 A 
HETATM    7  C3  UNL     1      71.122 104.798  14.954  1.00  0.00     0.074 A 
HETATM    8  C2  UNL     1      72.487 104.655  15.121  1.00  0.00     0.071 A 
HETATM    9  C31 UNL     1      73.242 105.718  14.695  1.00  0.00     0.052 A 
BRANCH   6  10
HETATM   10  O2  UNL     1      69.078 105.852  14.223  1.00  0.00    -0.308 OA
BRANCH  10  11
HETATM   11  C5  UNL     1      68.609 107.137  14.649  1.00  0.00     0.110 A 
HETATM   12  C6  UNL     1      69.025 107.643  15.876  1.00  0.00     0.047 A 
HETATM   13  C7  UNL     1      68.565 108.875  16.364  1.00  0.00    -0.053 A 
HETATM   14  C8  UNL     1      69.061 109.484  17.617  1.00  0.00     0.049 C 
HETATM   15  C9  UNL     1      67.687 109.551  15.563  1.00  0.00    -0.053 A 
HETATM   16  C10 UNL     1      67.064 110.773  16.220  1.00  0.00     0.049 C 
HETATM   17  C11 UNL     1      67.267 109.130  14.373  1.00  0.00     0.047 A 
HETATM   18  C12 UNL     1      67.758 107.839  13.865  1.00  0.00     0.102 A 
BRANCH  18  19
HETATM   19  O3  UNL     1      67.337 107.493  12.635  1.00  0.00    -0.353 OA
HETATM   20  C13 UNL     1      66.424 106.422  12.440  1.00  0.00     0.210 C 
ENDBRANCH  18  19
ENDBRANCH  10  11
ENDBRANCH   6  10
BRANCH   8  21
HETATM   21  O1  UNL     1      73.074 103.491  15.672  1.00  0.00    -0.356 OA
HETATM   22  C1  UNL     1      72.044 102.428  15.745  1.00  0.00     0.210 C 
ENDBRANCH   8  21
ENDBRANCH   3   4
BRANCH   3  23
HETATM   23  O4  UNL     1      72.592 108.126  12.273  1.00  0.00    -0.344 OA
ATOM     24  H4  UNL     1      72.481 107.271  11.876  1.00  0.00     0.219 HD
ENDBRANCH   3  23
ENDBRANCH   1   3
BRANCH   1  25
HETATM   25  N2  UNL     1      74.734 109.321  14.640  1.00  0.00    -0.282 N 
HETATM   26  C17 UNL     1      74.449 110.562  14.957  1.00  0.00     0.130 C 
ATOM     27  H2  UNL     1      75.198 108.722  15.324  1.00  0.00     0.189 HD
BRANCH  26  28
HETATM   28  O5  UNL     1      73.792 111.338  14.030  1.00  0.00    -0.348 OA
ATOM     29  H5  UNL     1      74.296 111.972  13.535  1.00  0.00     0.219 HD
ENDBRANCH  26  28
BRANCH  26  30
HETATM   30  C18 UNL     1      74.713 111.333  16.198  1.00  0.00     0.095 C 
BRANCH  30  31
HETATM   31  C19 UNL     1      74.241 110.429  17.279  1.00  0.00     0.127 C 
BRANCH  31  32
HETATM   32  C20 UNL     1      72.521 110.705  17.402  1.00  0.00     0.286 C 
HETATM   33  O6  UNL     1      72.283 109.886  16.549  1.00  0.00    -0.258 OA
HETATM   34  N3  UNL     1      72.592 111.591  18.316  1.00  0.00    -0.415 NA
BRANCH  34  35
HETATM   35  C21 UNL     1      72.650 112.619  19.377  1.00  0.00     0.226 C 
BRANCH  35  36
HETATM   36  C22 UNL     1      72.763 113.897  18.534  1.00  0.00     0.072 C 
BRANCH  36  37
HETATM   37  C23 UNL     1      73.939 114.714  18.681  1.00  0.00    -0.053 A 
HETATM   38  C24 UNL     1      75.183 114.143  18.642  1.00  0.00     0.010 A 
HETATM   39  C25 UNL     1      76.346 114.888  18.896  1.00  0.00     0.040 A 
HETATM   40  C26 UNL     1      76.319 116.191  19.176  1.00  0.00     0.101 A 
HETATM   41  C28 UNL     1      75.042 116.804  19.201  1.00  0.00     0.102 A 
HETATM   42  C30 UNL     1      73.897 116.104  18.977  1.00  0.00     0.046 A 
BRANCH  40  43
HETATM   43  O7  UNL     1      77.399 116.993  19.486  1.00  0.00    -0.353 OA
HETATM   44  C27 UNL     1      78.080 116.776  20.706  1.00  0.00     0.210 C 
ENDBRANCH  40  43
BRANCH  41  45
HETATM   45  O8  UNL     1      75.045 118.187  19.447  1.00  0.00    -0.353 OA
HETATM   46  C29 UNL     1      74.457 118.576  20.692  1.00  0.00     0.210 C 
ENDBRANCH  41  45
ENDBRANCH  36  37
ENDBRANCH  35  36
ENDBRANCH  34  35
ENDBRANCH  31  32
ENDBRANCH  30  31
ENDBRANCH  26  30
ENDBRANCH   1  25
TORSDOF 17
ENDMDL
MODEL 2
REMARK VINA RESULT: -9.609513844      2.660     11.201
REMARK  17 active torsions:
REMARK  status: ('A' for Active; 'I' for Inactive)
REMARK    1  A    between atoms: O1_2  and  C2_3 
REMARK    2  A    between atoms: C4_5  and  O2_6 
REMARK    3  A    between atoms: O2_6  and  C5_7 
REMARK    4  A    between atoms: C12_14  and  O3_15 
REMARK    5  A    between atoms: C15_18  and  C16_19 
REMARK    6  A    between atoms: C16_19  and  O4_20 
REMARK    7  A    between atoms: C16_19  and  N1_22 
REMARK    8  A    between atoms: N1_22  and  N2_24 
REMARK    9  A    between atoms: C17_26  and  O5_27 
REMARK   10  A    between atoms: C17_26  and  C18_29 
REMARK   11  A    between atoms: C18_29  and  C19_30 
REMARK   12  A    between atoms: C19_30  and  C20_31 
REMARK       I    between atoms: C20_31  and  N3_33 
REMARK   13  A    between atoms: N3_33  and  C21_34 
REMARK   14  A    between atoms: C21_34  and  C22_35 
REMARK   15  A    between atoms: C22_35  and  C23_36 
REMARK   16  A    between atoms: C26_39  and  O7_40 
REMARK   17  A    between atoms: C28_42  and  O8_43 
ROOT
HETATM    1  N1  UNL     1      76.387 114.816  18.831  1.00  0.00    -0.278 N 
ATOM      2  H1  UNL     1      77.247 114.457  18.416  1.00  0.00     0.189 HD
ENDROOT
BRANCH   1   3
HETATM    3  C16 UNL     1      76.143 116.116  19.207  1.00  0.00     0.165 C 
BRANCH   3   4
HETATM    4  C15 UNL     1      75.482 117.115  19.843  1.00  0.00     0.021 A 
HETATM    5  C14 UNL     1      74.285 117.625  19.225  1.00  0.00     0.053 A 
HETATM    6  C4  UNL     1      73.448 118.459  19.867  1.00  0.00     0.079 A 
HETATM    7  C3  UNL     1      73.754 118.828  21.107  1.00  0.00     0.074 A 
HETATM    8  C2  UNL     1      74.858 118.413  21.830  1.00  0.00     0.071 A 
HETATM    9  C31 UNL     1      75.704 117.562  21.166  1.00  0.00     0.052 A 
BRANCH   6  10
HETATM   10  O2  UNL     1      72.232 118.903  19.237  1.00  0.00    -0.308 OA
BRANCH  10  11
HETATM   11  C5  UNL     1      71.247 117.890  19.467  1.00  0.00     0.110 A 
HETATM   12  C6  UNL     1      71.144 116.823  18.581  1.00  0.00     0.047 A 
HETATM   13  C7  UNL     1      70.171 115.824  18.732  1.00  0.00    -0.053 A 
HETATM   14  C8  UNL     1      70.098 114.629  17.865  1.00  0.00     0.049 C 
HETATM   15  C9  UNL     1      69.329 115.959  19.802  1.00  0.00    -0.053 A 
HETATM   16  C10 UNL     1      68.171 114.973  19.807  1.00  0.00     0.049 C 
HETATM   17  C11 UNL     1      69.388 116.944  20.693  1.00  0.00     0.047 A 
HETATM   18  C12 UNL     1      70.416 117.985  20.532  1.00  0.00     0.102 A 
BRANCH  18  19
HETATM   19  O3  UNL     1      70.456 118.926  21.493  1.00  0.00    -0.353 OA
HETATM   20  C13 UNL     1      70.413 118.578  22.870  1.00  0.00     0.210 C 
ENDBRANCH  18  19
ENDBRANCH  10  11
ENDBRANCH   6  10
BRANCH   8  21
HETATM   21  O1  UNL     1      75.094 118.815  23.166  1.00  0.00    -0.356 OA
HETATM   22  C1  UNL     1      75.361 120.273  23.185  1.00  0.00     0.210 C 
ENDBRANCH   8  21
ENDBRANCH   3   4
BRANCH   3  23
HETATM   23  O4  UNL     1      77.229 116.788  18.510  1.00  0.00    -0.344 OA
ATOM     24  H4  UNL     1      78.017 116.407  18.879  1.00  0.00     0.219 HD
ENDBRANCH   3  23
ENDBRANCH   1   3
BRANCH   1  25
HETATM   25  N2  UNL     1      75.161 114.027  19.146  1.00  0.00    -0.282 N 
HETATM   26  C17 UNL     1      74.309 113.697  18.203  1.00  0.00     0.130 C 
ATOM     27  H2  UNL     1      74.981 113.740  20.108  1.00  0.00     0.189 HD
BRANCH  26  28
HETATM   28  O5  UNL     1      74.593 114.066  16.908  1.00  0.00    -0.348 OA
ATOM     29  H5  UNL     1      74.046 114.725  16.497  1.00  0.00     0.219 HD
ENDBRANCH  26  28
BRANCH  26  30
HETATM   30  C18 UNL     1      73.025 112.957  18.270  1.00  0.00     0.095 C 
BRANCH  30  31
HETATM   31  C19 UNL     1      73.342 111.647  17.644  1.00  0.00     0.127 C 
BRANCH  31  32
HETATM   32  C20 UNL     1      72.273 111.514  16.268  1.00  0.00     0.286 C 
HETATM   33  O6  UNL     1      73.104 111.969  15.522  1.00  0.00    -0.258 OA
HETATM   34  N3  UNL     1      71.290 111.018  16.910  1.00  0.00    -0.415 NA
BRANCH  34  35
HETATM   35  C21 UNL     1      70.138 110.439  17.633  1.00  0.00     0.226 C 
BRANCH  35  36
HETATM   36  C22 UNL     1      68.969 111.022  16.826  1.00  0.00     0.072 C 
BRANCH  36  37
HETATM   37  C23 UNL     1      68.482 110.282  15.692  1.00  0.00    -0.053 A 
HETATM   38  C24 UNL     1      67.135 110.132  15.494  1.00  0.00     0.010 A 
HETATM   39  C25 UNL     1      66.625 109.323  14.467  1.00  0.00     0.040 A 
HETATM   40  C26 UNL     1      67.408 108.663  13.614  1.00  0.00     0.101 A 
HETATM   41  C28 UNL     1      68.805 108.823  13.789  1.00  0.00     0.102 A 
HETATM   42  C30 UNL     1      69.329 109.585  14.787  1.00  0.00     0.046 A 
BRANCH  40  43
HETATM   43  O7  UNL     1      67.002 107.810  12.608  1.00  0.00    -0.353 OA
HETATM   44  C27 UNL     1      66.385 106.587  12.960  1.00  0.00     0.210 C 
ENDBRANCH  40  43
BRANCH  41  45
HETATM   45  O8  UNL     1      69.607 108.159  12.846  1.00  0.00    -0.353 OA
HETATM   46  C29 UNL     1      70.398 107.090  13.376  1.00  0.00     0.210 C 
ENDBRANCH  41  45
ENDBRANCH  36  37
ENDBRANCH  35  36
ENDBRANCH  34  35
ENDBRANCH  31  32
ENDBRANCH  30  31
ENDBRANCH  26  30
ENDBRANCH   1  25
TORSDOF 17
ENDMDL
MODEL 3
REMARK VINA RESULT: -9.454061125      2.479      5.004
REMARK  17 active torsions:
REMARK  status: ('A' for Active; 'I' for Inactive)
REMARK    1  A    between atoms: O1_2  and  C2_3 
REMARK    2  A    between atoms: C4_5  and  O2_6 
REMARK    3  A    between atoms: O2_6  and  C5_7 
REMARK    4  A    between atoms: C12_14  and  O3_15 
REMARK    5  A    between atoms: C15_18  and  C16_19 
REMARK    6  A    between atoms: C16_19  and  O4_20 
REMARK    7  A    between atoms: C16_19  and  N1_22 
REMARK    8  A    between atoms: N1_22  and  N2_24 
REMARK    9  A    between atoms: C17_26  and  O5_27 
REMARK   10  A    between atoms: C17_26  and  C18_29 
REMARK   11  A    between atoms: C18_29  and  C19_30 
REMARK   12  A    between atoms: C19_30  and  C20_31 
REMARK       I    between atoms: C20_31  and  N3_33 
REMARK   13  A    between atoms: N3_33  and  C21_34 
REMARK   14  A    between atoms: C21_34  and  C22_35 
REMARK   15  A    between atoms: C22_35  and  C23_36 
REMARK   16  A    between atoms: C26_39  and  O7_40 
REMARK   17  A    between atoms: C28_42  and  O8_43 
ROOT
HETATM    1  N1  UNL     1      71.985 107.908  13.247  1.00  0.00    -0.278 N 
ATOM      2  H1  UNL     1      72.078 107.674  12.259  1.00  0.00     0.189 HD
ENDROOT
BRANCH   1   3
HETATM    3  C16 UNL     1      70.880 108.453  13.856  1.00  0.00     0.165 C 
BRANCH   3   4
HETATM    4  C15 UNL     1      70.182 109.023  14.871  1.00  0.00     0.021 A 
HETATM    5  C14 UNL     1      70.931 109.670  15.917  1.00  0.00     0.053 A 
HETATM    6  C4  UNL     1      70.340 110.440  16.848  1.00  0.00     0.079 A 
HETATM    7  C3  UNL     1      69.020 110.588  16.798  1.00  0.00     0.074 A 
HETATM    8  C2  UNL     1      68.175 110.039  15.851  1.00  0.00     0.071 A 
HETATM    9  C31 UNL     1      68.788 109.258  14.905  1.00  0.00     0.052 A 
BRANCH   6  10
HETATM   10  O2  UNL     1      71.129 111.116  17.845  1.00  0.00    -0.308 OA
BRANCH  10  11
HETATM   11  C5  UNL     1      70.805 112.509  17.761  1.00  0.00     0.110 A 
HETATM   12  C6  UNL     1      69.982 113.079  18.727  1.00  0.00     0.047 A 
HETATM   13  C7  UNL     1      69.597 114.426  18.672  1.00  0.00    -0.053 A 
HETATM   14  C8  UNL     1      68.803 115.084  19.732  1.00  0.00     0.049 C 
HETATM   15  C9  UNL     1      70.078 115.148  17.615  1.00  0.00    -0.053 A 
HETATM   16  C10 UNL     1      69.472 116.537  17.486  1.00  0.00     0.049 C 
HETATM   17  C11 UNL     1      70.883 114.667  16.671  1.00  0.00     0.047 A 
HETATM   18  C12 UNL     1      71.288 113.254  16.739  1.00  0.00     0.102 A 
BRANCH  18  19
HETATM   19  O3  UNL     1      72.142 112.841  15.784  1.00  0.00    -0.353 OA
HETATM   20  C13 UNL     1      71.796 112.899  14.408  1.00  0.00     0.210 C 
ENDBRANCH  18  19
ENDBRANCH  10  11
ENDBRANCH   6  10
BRANCH   8  21
HETATM   21  O1  UNL     1      66.780 110.279  15.837  1.00  0.00    -0.356 OA
HETATM   22  C1  UNL     1      66.144 109.336  14.887  1.00  0.00     0.210 C 
ENDBRANCH   8  21
ENDBRANCH   3   4
BRANCH   3  23
HETATM   23  O4  UNL     1      69.916 108.348  12.771  1.00  0.00    -0.344 OA
ATOM     24  H4  UNL     1      70.248 107.642  12.229  1.00  0.00     0.219 HD
ENDBRANCH   3  23
ENDBRANCH   1   3
BRANCH   1  25
HETATM   25  N2  UNL     1      73.024 107.722  14.301  1.00  0.00    -0.282 N 
HETATM   26  C17 UNL     1      73.955 108.626  14.498  1.00  0.00     0.130 C 
ATOM     27  H2  UNL     1      73.011 106.880  14.877  1.00  0.00     0.189 HD
BRANCH  26  28
HETATM   28  O5  UNL     1      73.929 109.769  13.733  1.00  0.00    -0.348 OA
ATOM     29  H5  UNL     1      74.748 110.089  13.373  1.00  0.00     0.219 HD
ENDBRANCH  26  28
BRANCH  26  30
HETATM   30  C18 UNL     1      75.097 108.653  15.447  1.00  0.00     0.095 C 
BRANCH  30  31
HETATM   31  C19 UNL     1      75.526 110.075  15.438  1.00  0.00     0.127 C 
BRANCH  31  32
HETATM   32  C20 UNL     1      76.404 110.310  16.929  1.00  0.00     0.286 C 
HETATM   33  O6  UNL     1      77.314 109.612  16.555  1.00  0.00    -0.258 OA
HETATM   34  N3  UNL     1      75.540 111.071  17.475  1.00  0.00    -0.415 NA
BRANCH  34  35
HETATM   35  C21 UNL     1      74.554 111.958  18.128  1.00  0.00     0.226 C 
BRANCH  35  36
HETATM   36  C22 UNL     1      75.004 113.328  17.601  1.00  0.00     0.072 C 
BRANCH  36  37
HETATM   37  C23 UNL     1      74.916 114.464  18.480  1.00  0.00    -0.053 A 
HETATM   38  C24 UNL     1      73.897 115.368  18.336  1.00  0.00     0.010 A 
HETATM   39  C25 UNL     1      73.842 116.546  19.098  1.00  0.00     0.040 A 
HETATM   40  C26 UNL     1      74.761 116.855  20.013  1.00  0.00     0.101 A 
HETATM   41  C28 UNL     1      75.812 115.922  20.190  1.00  0.00     0.102 A 
HETATM   42  C30 UNL     1      75.902 114.781  19.454  1.00  0.00     0.046 A 
BRANCH  40  43
HETATM   43  O7  UNL     1      74.818 118.006  20.772  1.00  0.00    -0.353 OA
HETATM   44  C27 UNL     1      73.620 118.522  21.318  1.00  0.00     0.210 C 
ENDBRANCH  40  43
BRANCH  41  45
HETATM   45  O8  UNL     1      76.738 116.246  21.195  1.00  0.00    -0.353 OA
HETATM   46  C29 UNL     1      78.062 116.522  20.727  1.00  0.00     0.210 C 
ENDBRANCH  41  45
ENDBRANCH  36  37
ENDBRANCH  35  36
ENDBRANCH  34  35
ENDBRANCH  31  32
ENDBRANCH  30  31
ENDBRANCH  26  30
ENDBRANCH   1  25
TORSDOF 17
ENDMDL
MODEL 4
REMARK VINA RESULT: -9.283100828      2.309      3.148
REMARK  17 active torsions:
REMARK  status: ('A' for Active; 'I' for Inactive)
REMARK    1  A    between atoms: O1_2  and  C2_3 
REMARK    2  A    between atoms: C4_5  and  O2_6 
REMARK    3  A    between atoms: O2_6  and  C5_7 
REMARK    4  A    between atoms: C12_14  and  O3_15 
REMARK    5  A    between atoms: C15_18  and  C16_19 
REMARK    6  A    between atoms: C16_19  and  O4_20 
REMARK    7  A    between atoms: C16_19  and  N1_22 
REMARK    8  A    between atoms: N1_22  and  N2_24 
REMARK    9  A    between atoms: C17_26  and  O5_27 
REMARK   10  A    between atoms: C17_26  and  C18_29 
REMARK   11  A    between atoms: C18_29  and  C19_30 
REMARK   12  A    between atoms: C19_30  and  C20_31 
REMARK       I    between atoms: C20_31  and  N3_33 
REMARK   13  A    between atoms: N3_33  and  C21_34 
REMARK   14  A    between atoms: C21_34  and  C22_35 
REMARK   15  A    between atoms: C22_35  and  C23_36 
REMARK   16  A    between atoms: C26_39  and  O7_40 
REMARK   17  A    between atoms: C28_42  and  O8_43 
ROOT
HETATM    1  N1  UNL     1      74.172 109.114  13.317  1.00  0.00    -0.278 N 
ATOM      2  H1  UNL     1      75.092 109.081  12.878  1.00  0.00     0.189 HD
ENDROOT
BRANCH   1   3
HETATM    3  C16 UNL     1      73.274 108.078  13.409  1.00  0.00     0.165 C 
BRANCH   3   4
HETATM    4  C15 UNL     1      72.637 107.044  14.015  1.00  0.00     0.021 A 
HETATM    5  C14 UNL     1      71.199 107.017  13.957  1.00  0.00     0.053 A 
HETATM    6  C4  UNL     1      70.488 105.941  14.336  1.00  0.00     0.079 A 
HETATM    7  C3  UNL     1      71.145 104.879  14.791  1.00  0.00     0.074 A 
HETATM    8  C2  UNL     1      72.519 104.755  14.893  1.00  0.00     0.071 A 
HETATM    9  C31 UNL     1      73.234 105.858  14.502  1.00  0.00     0.052 A 
BRANCH   6  10
HETATM   10  O2  UNL     1      69.052 105.931  14.211  1.00  0.00    -0.308 OA
BRANCH  10  11
HETATM   11  C5  UNL     1      68.585 107.208  14.658  1.00  0.00     0.110 A 
HETATM   12  C6  UNL     1      69.035 107.714  15.872  1.00  0.00     0.047 A 
HETATM   13  C7  UNL     1      68.579 108.939  16.381  1.00  0.00    -0.053 A 
HETATM   14  C8  UNL     1      69.109 109.548  17.620  1.00  0.00     0.049 C 
HETATM   15  C9  UNL     1      67.667 109.609  15.612  1.00  0.00    -0.053 A 
HETATM   16  C10 UNL     1      67.053 110.822  16.295  1.00  0.00     0.049 C 
HETATM   17  C11 UNL     1      67.213 109.189  14.435  1.00  0.00     0.047 A 
HETATM   18  C12 UNL     1      67.701 107.905  13.905  1.00  0.00     0.102 A 
BRANCH  18  19
HETATM   19  O3  UNL     1      67.242 107.560  12.688  1.00  0.00    -0.353 OA
HETATM   20  C13 UNL     1      66.374 106.449  12.513  1.00  0.00     0.210 C 
ENDBRANCH  18  19
ENDBRANCH  10  11
ENDBRANCH   6  10
BRANCH   8  21
HETATM   21  O1  UNL     1      73.150 103.573  15.346  1.00  0.00    -0.356 OA
HETATM   22  C1  UNL     1      72.123 102.676  15.927  1.00  0.00     0.210 C 
ENDBRANCH   8  21
ENDBRANCH   3   4
BRANCH   3  23
HETATM   23  O4  UNL     1      72.672 108.147  12.086  1.00  0.00    -0.344 OA
ATOM     24  H4  UNL     1      72.519 109.074  11.946  1.00  0.00     0.219 HD
ENDBRANCH   3  23
ENDBRANCH   1   3
BRANCH   1  25
HETATM   25  N2  UNL     1      73.551 110.298  13.979  1.00  0.00    -0.282 N 
HETATM   26  C17 UNL     1      73.890 110.647  15.198  1.00  0.00     0.130 C 
ATOM     27  H2  UNL     1      72.851 110.845  13.476  1.00  0.00     0.189 HD
BRANCH  26  28
HETATM   28  O5  UNL     1      74.862 109.914  15.840  1.00  0.00    -0.348 OA
ATOM     29  H5  UNL     1      74.646 109.513  16.674  1.00  0.00     0.219 HD
ENDBRANCH  26  28
BRANCH  26  30
HETATM   30  C18 UNL     1      73.399 111.746  16.065  1.00  0.00     0.095 C 
BRANCH  30  31
HETATM   31  C19 UNL     1      72.030 111.309  16.443  1.00  0.00     0.127 C 
BRANCH  31  32
HETATM   32  C20 UNL     1      70.944 112.303  15.504  1.00  0.00     0.286 C 
HETATM   33  O6  UNL     1      70.623 111.373  14.806  1.00  0.00    -0.258 OA
HETATM   34  N3  UNL     1      71.165 113.384  16.143  1.00  0.00    -0.415 NA
BRANCH  34  35
HETATM   35  C21 UNL     1      71.404 114.648  16.871  1.00  0.00     0.226 C 
BRANCH  35  36
HETATM   36  C22 UNL     1      70.345 114.547  17.979  1.00  0.00     0.072 C 
BRANCH  36  37
HETATM   37  C23 UNL     1      70.248 115.619  18.934  1.00  0.00    -0.053 A 
HETATM   38  C24 UNL     1      69.092 115.806  19.643  1.00  0.00     0.010 A 
HETATM   39  C25 UNL     1      68.919 116.907  20.498  1.00  0.00     0.040 A 
HETATM   40  C26 UNL     1      69.864 117.828  20.685  1.00  0.00     0.101 A 
HETATM   41  C28 UNL     1      71.076 117.640  19.975  1.00  0.00     0.102 A 
HETATM   42  C30 UNL     1      71.265 116.594  19.126  1.00  0.00     0.046 A 
BRANCH  40  43
HETATM   43  O7  UNL     1      69.769 118.964  21.462  1.00  0.00    -0.353 OA
HETATM   44  C27 UNL     1      69.303 118.843  22.792  1.00  0.00     0.210 C 
ENDBRANCH  40  43
BRANCH  41  45
HETATM   45  O8  UNL     1      72.073 118.596  20.229  1.00  0.00    -0.353 OA
HETATM   46  C29 UNL     1      73.267 118.438  19.456  1.00  0.00     0.210 C 
ENDBRANCH  41  45
ENDBRANCH  36  37
ENDBRANCH  35  36
ENDBRANCH  34  35
ENDBRANCH  31  32
ENDBRANCH  30  31
ENDBRANCH  26  30
ENDBRANCH   1  25
TORSDOF 17
ENDMDL
MODEL 5
REMARK VINA RESULT: -9.272163646      2.105      3.846
REMARK  17 active torsions:
REMARK  status: ('A' for Active; 'I' for Inactive)
REMARK    1  A    between atoms: O1_2  and  C2_3 
REMARK    2  A    between atoms: C4_5  and  O2_6 
REMARK    3  A    between atoms: O2_6  and  C5_7 
REMARK    4  A    between atoms: C12_14  and  O3_15 
REMARK    5  A    between atoms: C15_18  and  C16_19 
REMARK    6  A    between atoms: C16_19  and  O4_20 
REMARK    7  A    between atoms: C16_19  and  N1_22 
REMARK    8  A    between atoms: N1_22  and  N2_24 
REMARK    9  A    between atoms: C17_26  and  O5_27 
REMARK   10  A    between atoms: C17_26  and  C18_29 
REMARK   11  A    between atoms: C18_29  and  C19_30 
REMARK   12  A    between atoms: C19_30  and  C20_31 
REMARK       I    between atoms: C20_31  and  N3_33 
REMARK   13  A    between atoms: N3_33  and  C21_34 
REMARK   14  A    between atoms: C21_34  and  C22_35 
REMARK   15  A    between atoms: C22_35  and  C23_36 
REMARK   16  A    between atoms: C26_39  and  O7_40 
REMARK   17  A    between atoms: C28_42  and  O8_43 
ROOT
HETATM    1  N1  UNL     1      72.898 103.715  15.437  1.00  0.00    -0.278 N 
ATOM      2  H1  UNL     1      73.485 102.901  15.257  1.00  0.00     0.189 HD
ENDROOT
BRANCH   1   3
HETATM    3  C16 UNL     1      71.551 103.822  15.181  1.00  0.00     0.165 C 
BRANCH   3   4
HETATM    4  C15 UNL     1      70.441 104.337  14.594  1.00  0.00     0.021 A 
HETATM    5  C14 UNL     1      70.503 105.695  14.122  1.00  0.00     0.053 A 
HETATM    6  C4  UNL     1      69.542 106.227  13.345  1.00  0.00     0.079 A 
HETATM    7  C3  UNL     1      68.500 105.467  13.023  1.00  0.00     0.074 A 
HETATM    8  C2  UNL     1      68.311 104.148  13.391  1.00  0.00     0.071 A 
HETATM    9  C31 UNL     1      69.296 103.615  14.182  1.00  0.00     0.052 A 
BRANCH   6  10
HETATM   10  O2  UNL     1      69.667 107.572  12.845  1.00  0.00    -0.308 OA
BRANCH  10  11
HETATM   11  C5  UNL     1      69.135 108.442  13.851  1.00  0.00     0.110 A 
HETATM   12  C6  UNL     1      69.979 108.945  14.835  1.00  0.00     0.047 A 
HETATM   13  C7  UNL     1      69.507 109.766  15.869  1.00  0.00    -0.053 A 
HETATM   14  C8  UNL     1      70.394 110.393  16.873  1.00  0.00     0.049 C 
HETATM   15  C9  UNL     1      68.169 110.047  15.852  1.00  0.00    -0.053 A 
HETATM   16  C10 UNL     1      67.671 110.766  17.097  1.00  0.00     0.049 C 
HETATM   17  C11 UNL     1      67.314 109.614  14.929  1.00  0.00     0.047 A 
HETATM   18  C12 UNL     1      67.819 108.757  13.844  1.00  0.00     0.102 A 
BRANCH  18  19
HETATM   19  O3  UNL     1      66.916 108.394  12.915  1.00  0.00    -0.353 OA
HETATM   20  C13 UNL     1      65.892 107.454  13.208  1.00  0.00     0.210 C 
ENDBRANCH  18  19
ENDBRANCH  10  11
ENDBRANCH   6  10
BRANCH   8  21
HETATM   21  O1  UNL     1      67.194 103.387  12.971  1.00  0.00    -0.356 OA
HETATM   22  C1  UNL     1      67.037 103.541  11.505  1.00  0.00     0.210 C 
ENDBRANCH   8  21
ENDBRANCH   3   4
BRANCH   3  23
HETATM   23  O4  UNL     1      71.045 102.770  16.050  1.00  0.00    -0.344 OA
ATOM     24  H4  UNL     1      71.826 102.341  16.379  1.00  0.00     0.219 HD
ENDBRANCH   3  23
ENDBRANCH   1   3
BRANCH   1  25
HETATM   25  N2  UNL     1      73.340 105.012  16.027  1.00  0.00    -0.282 N 
HETATM   26  C17 UNL     1      73.832 105.965  15.272  1.00  0.00     0.130 C 
ATOM     27  H2  UNL     1      73.259 105.160  17.034  1.00  0.00     0.189 HD
BRANCH  26  28
HETATM   28  O5  UNL     1      73.897 105.754  13.914  1.00  0.00    -0.348 OA
ATOM     29  H5  UNL     1      73.106 105.871  13.401  1.00  0.00     0.219 HD
ENDBRANCH  26  28
BRANCH  26  30
HETATM   30  C18 UNL     1      74.361 107.307  15.623  1.00  0.00     0.095 C 
BRANCH  30  31
HETATM   31  C19 UNL     1      73.568 108.230  14.769  1.00  0.00     0.127 C 
BRANCH  31  32
HETATM   32  C20 UNL     1      74.741 109.201  13.914  1.00  0.00     0.286 C 
HETATM   33  O6  UNL     1      74.647 108.522  12.922  1.00  0.00    -0.258 OA
HETATM   34  N3  UNL     1      74.958 110.019  14.868  1.00  0.00    -0.415 NA
BRANCH  34  35
HETATM   35  C21 UNL     1      75.224 110.981  15.958  1.00  0.00     0.226 C 
BRANCH  35  36
HETATM   36  C22 UNL     1      73.809 111.514  16.224  1.00  0.00     0.072 C 
BRANCH  36  37
HETATM   37  C23 UNL     1      73.658 112.658  17.084  1.00  0.00    -0.053 A 
HETATM   38  C24 UNL     1      72.661 113.567  16.851  1.00  0.00     0.010 A 
HETATM   39  C25 UNL     1      72.553 114.752  17.598  1.00  0.00     0.040 A 
HETATM   40  C26 UNL     1      73.395 115.062  18.582  1.00  0.00     0.101 A 
HETATM   41  C28 UNL     1      74.421 114.122  18.852  1.00  0.00     0.102 A 
HETATM   42  C30 UNL     1      74.563 112.976  18.134  1.00  0.00     0.046 A 
BRANCH  40  43
HETATM   43  O7  UNL     1      73.399 116.218  19.335  1.00  0.00    -0.353 OA
HETATM   44  C27 UNL     1      72.312 116.467  20.206  1.00  0.00     0.210 C 
ENDBRANCH  40  43
BRANCH  41  45
HETATM   45  O8  UNL     1      75.264 114.448  19.928  1.00  0.00    -0.353 OA
HETATM   46  C29 UNL     1      76.633 114.665  19.574  1.00  0.00     0.210 C 
ENDBRANCH  41  45
ENDBRANCH  36  37
ENDBRANCH  35  36
ENDBRANCH  34  35
ENDBRANCH  31  32
ENDBRANCH  30  31
ENDBRANCH  26  30
ENDBRANCH   1  25
TORSDOF 17
ENDMDL
