MODEL 1
REMARK VINA RESULT: -7.990966408      0.000      0.000
REMARK  16 active torsions:
REMARK  status: ('A' for Active; 'I' for Inactive)
REMARK    1  A    between atoms: C2_3  and  S1_4 
REMARK    2  A    between atoms: S1_4  and  C3_5 
REMARK    3  A    between atoms: C3_5  and  C4_6 
REMARK    4  A    between atoms: C4_6  and  N2_7 
REMARK    5  A    between atoms: N2_7  and  C5_9 
REMARK    6  A    between atoms: C6_12  and  N4_13 
REMARK    7  A    between atoms: N4_13  and  C7_15 
REMARK    8  A    between atoms: C7_15  and  C8_16 
REMARK    9  A    between atoms: C11_19  and  C12_20 
REMARK   10  A    between atoms: C15_23  and  O1_24 
REMARK   11  A    between atoms: O1_24  and  C16_25 
REMARK   12  A    between atoms: C16_25  and  C17_26 
REMARK   13  A    between atoms: C17_26  and  N5_27 
REMARK   14  A    between atoms: C26_38  and  N7_39 
REMARK   15  A    between atoms: N7_39  and  C27_41 
REMARK   16  A    between atoms: C27_41  and  C28_42 
ROOT
HETATM    1  N1  UNL     1      67.073 107.718  12.559  1.00  0.00    -0.197 NA
HETATM    2  C1  UNL     1      66.740 106.619  12.665  1.00  0.00     0.069 C 
HETATM    3  C2  UNL     1      66.314 105.209  12.823  1.00  0.00     0.197 C 
ENDROOT
BRANCH   3   4
HETATM    4  S1  UNL     1      67.678 104.096  12.493  1.00  0.00    -0.153 SA
BRANCH   4   5
HETATM    5  C3  UNL     1      68.529 103.527  13.971  1.00  0.00     0.095 C 
BRANCH   5   6
HETATM    6  C4  UNL     1      69.990 103.873  14.008  1.00  0.00     0.148 C 
BRANCH   6   7
HETATM    7  N2  UNL     1      70.341 104.922  14.906  1.00  0.00    -0.224 N 
ATOM      8  H2  UNL     1      70.335 104.691  15.899  1.00  0.00     0.177 HD
BRANCH   7   9
HETATM    9  C5  UNL     1      70.664 106.126  14.600  1.00  0.00     0.707 A 
HETATM   10  N3  UNL     1      71.970 106.428  14.415  1.00  0.00    -0.022 N 
HETATM   11  C6  UNL     1      72.390 107.653  14.095  1.00  0.00     0.707 A 
ATOM     12  H3  UNL     1      72.663 105.688  14.526  1.00  0.00     0.203 HD
HETATM   13  N6  UNL     1      71.469 108.647  13.946  1.00  0.00    -0.022 N 
HETATM   14  C26 UNL     1      70.152 108.375  14.125  1.00  0.00     0.707 A 
ATOM     15  H6  UNL     1      71.769 109.591  13.701  1.00  0.00     0.203 HD
HETATM   16  N8  UNL     1      69.773 107.118  14.449  1.00  0.00    -0.022 N 
ATOM     17  H8  UNL     1      68.781 106.918  14.582  1.00  0.00     0.203 HD
BRANCH  11  18
HETATM   18  N4  UNL     1      73.602 108.013  13.901  1.00  0.00    -0.221 N 
ATOM     19  H4  UNL     1      73.871 108.322  12.968  1.00  0.00     0.178 HD
BRANCH  18  20
HETATM   20  C7  UNL     1      74.598 108.005  14.924  1.00  0.00     0.176 C 
BRANCH  20  21
HETATM   21  C8  UNL     1      74.477 109.299  15.656  1.00  0.00    -0.040 A 
HETATM   22  C9  UNL     1      73.893 109.323  16.913  1.00  0.00     0.009 A 
HETATM   23  C10 UNL     1      73.753 110.484  17.632  1.00  0.00     0.013 A 
HETATM   24  C11 UNL     1      74.204 111.697  17.110  1.00  0.00    -0.026 A 
HETATM   25  C24 UNL     1      74.783 111.657  15.861  1.00  0.00     0.013 A 
HETATM   26  C25 UNL     1      74.921 110.499  15.145  1.00  0.00     0.009 A 
BRANCH  24  27
HETATM   27  C12 UNL     1      74.048 112.938  17.865  1.00  0.00    -0.026 A 
HETATM   28  C13 UNL     1      74.652 114.108  17.471  1.00  0.00     0.015 A 
HETATM   29  C14 UNL     1      74.517 115.287  18.160  1.00  0.00     0.037 A 
HETATM   30  C15 UNL     1      73.732 115.331  19.326  1.00  0.00     0.068 A 
HETATM   31  C22 UNL     1      73.134 114.176  19.719  1.00  0.00     0.037 A 
HETATM   32  C23 UNL     1      73.284 113.006  19.009  1.00  0.00     0.015 A 
BRANCH  30  33
HETATM   33  O1  UNL     1      73.644 116.531  19.954  1.00  0.00    -0.349 OA
BRANCH  33  34
HETATM   34  C16 UNL     1      72.678 117.096  20.745  1.00  0.00     0.206 C 
BRANCH  34  35
HETATM   35  C17 UNL     1      71.509 117.743  20.098  1.00  0.00     0.299 C 
BRANCH  35  36
HETATM   36  N5  UNL     1      70.389 116.923  19.811  1.00  0.00     0.090 N 
HETATM   37  C18 UNL     1      70.056 115.941  20.782  1.00  0.00     0.272 C 
HETATM   38  C19 UNL     1      68.916 115.190  20.115  1.00  0.00     0.032 C 
HETATM   39  C20 UNL     1      68.948 115.615  18.640  1.00  0.00     0.032 C 
HETATM   40  C21 UNL     1      70.355 116.240  18.572  1.00  0.00     0.272 C 
ENDBRANCH  35  36
ENDBRANCH  34  35
ENDBRANCH  33  34
ENDBRANCH  30  33
ENDBRANCH  24  27
ENDBRANCH  20  21
ENDBRANCH  18  20
ENDBRANCH  11  18
BRANCH  14  41
HETATM   41  N7  UNL     1      69.330 109.354  13.969  1.00  0.00    -0.219 N 
ATOM     42  H7  UNL     1      69.211 109.735  13.031  1.00  0.00     0.178 HD
BRANCH  41  43
HETATM   43  C27 UNL     1      68.570 109.943  15.035  1.00  0.00     0.203 C 
BRANCH  43  44
HETATM   44  C28 UNL     1      69.368 111.037  15.679  1.00  0.00     0.070 A 
HETATM   45  C29 UNL     1      69.307 111.446  16.999  1.00  0.00     0.036 A 
HETATM   46  C30 UNL     1      70.210 112.475  17.146  1.00  0.00     0.027 A 
HETATM   47  C31 UNL     1      70.791 112.658  15.907  1.00  0.00     0.142 A 
HETATM   48  O2  UNL     1      70.259 111.792  15.100  1.00  0.00    -0.325 OA
ENDBRANCH  43  44
ENDBRANCH  41  43
ENDBRANCH  14  41
ENDBRANCH   7   9
ENDBRANCH   6   7
ENDBRANCH   5   6
ENDBRANCH   4   5
ENDBRANCH   3   4
TORSDOF 16
ENDMDL
MODEL 2
REMARK VINA RESULT: -7.960630983      2.682      6.377
REMARK  16 active torsions:
REMARK  status: ('A' for Active; 'I' for Inactive)
REMARK    1  A    between atoms: C2_3  and  S1_4 
REMARK    2  A    between atoms: S1_4  and  C3_5 
REMARK    3  A    between atoms: C3_5  and  C4_6 
REMARK    4  A    between atoms: C4_6  and  N2_7 
REMARK    5  A    between atoms: N2_7  and  C5_9 
REMARK    6  A    between atoms: C6_12  and  N4_13 
REMARK    7  A    between atoms: N4_13  and  C7_15 
REMARK    8  A    between atoms: C7_15  and  C8_16 
REMARK    9  A    between atoms: C11_19  and  C12_20 
REMARK   10  A    between atoms: C15_23  and  O1_24 
REMARK   11  A    between atoms: O1_24  and  C16_25 
REMARK   12  A    between atoms: C16_25  and  C17_26 
REMARK   13  A    between atoms: C17_26  and  N5_27 
REMARK   14  A    between atoms: C26_38  and  N7_39 
REMARK   15  A    between atoms: N7_39  and  C27_41 
REMARK   16  A    between atoms: C27_41  and  C28_42 
ROOT
HETATM    1  N1  UNL     1      74.039 113.988  16.990  1.00  0.00    -0.197 NA
HETATM    2  C1  UNL     1      74.137 112.869  17.253  1.00  0.00     0.069 C 
HETATM    3  C2  UNL     1      74.283 111.432  17.581  1.00  0.00     0.197 C 
ENDROOT
BRANCH   3   4
HETATM    4  S1  UNL     1      73.351 110.424  16.430  1.00  0.00    -0.153 SA
BRANCH   4   5
HETATM    5  C3  UNL     1      73.845 110.630  14.714  1.00  0.00     0.095 C 
BRANCH   5   6
HETATM    6  C4  UNL     1      74.414 109.389  14.087  1.00  0.00     0.148 C 
BRANCH   6   7
HETATM    7  N2  UNL     1      73.505 108.648  13.278  1.00  0.00    -0.224 N 
ATOM      8  H2  UNL     1      73.652 108.694  12.270  1.00  0.00     0.177 HD
BRANCH   7   9
HETATM    9  C5  UNL     1      72.520 107.930  13.681  1.00  0.00     0.707 A 
HETATM   10  N3  UNL     1      71.263 108.419  13.572  1.00  0.00    -0.022 N 
HETATM   11  C6  UNL     1      70.186 107.738  13.965  1.00  0.00     0.707 A 
ATOM     12  H3  UNL     1      71.134 109.349  13.173  1.00  0.00     0.203 HD
HETATM   13  N6  UNL     1      70.351 106.495  14.500  1.00  0.00    -0.022 N 
HETATM   14  C26 UNL     1      71.600 105.977  14.622  1.00  0.00     0.707 A 
ATOM     15  H6  UNL     1      69.541 105.957  14.807  1.00  0.00     0.203 HD
HETATM   16  N8  UNL     1      72.662 106.704  14.210  1.00  0.00    -0.022 N 
ATOM     17  H8  UNL     1      73.599 106.310  14.303  1.00  0.00     0.203 HD
BRANCH  11  18
HETATM   18  N4  UNL     1      68.971 108.131  13.891  1.00  0.00    -0.221 N 
ATOM     19  H4  UNL     1      68.576 108.307  12.968  1.00  0.00     0.178 HD
BRANCH  18  20
HETATM   20  C7  UNL     1      68.139 108.337  15.034  1.00  0.00     0.176 C 
BRANCH  20  21
HETATM   21  C8  UNL     1      68.694 109.512  15.766  1.00  0.00    -0.040 A 
HETATM   22  C9  UNL     1      68.694 110.759  15.162  1.00  0.00     0.009 A 
HETATM   23  C10 UNL     1      69.192 111.875  15.787  1.00  0.00     0.013 A 
HETATM   24  C11 UNL     1      69.724 111.785  17.075  1.00  0.00    -0.026 A 
HETATM   25  C24 UNL     1      69.716 110.539  17.662  1.00  0.00     0.013 A 
HETATM   26  C25 UNL     1      69.219 109.428  17.038  1.00  0.00     0.009 A 
BRANCH  24  27
HETATM   27  C12 UNL     1      70.267 112.967  17.741  1.00  0.00    -0.026 A 
HETATM   28  C13 UNL     1      70.948 112.879  18.931  1.00  0.00     0.015 A 
HETATM   29  C14 UNL     1      71.472 113.972  19.575  1.00  0.00     0.037 A 
HETATM   30  C15 UNL     1      71.319 115.253  19.015  1.00  0.00     0.068 A 
HETATM   31  C22 UNL     1      70.646 115.343  17.838  1.00  0.00     0.037 A 
HETATM   32  C23 UNL     1      70.131 114.231  17.212  1.00  0.00     0.015 A 
BRANCH  30  33
HETATM   33  O1  UNL     1      71.864 116.286  19.707  1.00  0.00    -0.349 OA
BRANCH  33  34
HETATM   34  C16 UNL     1      73.150 116.576  20.081  1.00  0.00     0.206 C 
BRANCH  34  35
HETATM   35  C17 UNL     1      74.132 116.958  19.037  1.00  0.00     0.299 C 
BRANCH  35  36
HETATM   36  N5  UNL     1      75.468 116.512  19.205  1.00  0.00     0.090 N 
HETATM   37  C18 UNL     1      75.646 115.303  19.930  1.00  0.00     0.272 C 
HETATM   38  C19 UNL     1      77.158 115.191  20.019  1.00  0.00     0.032 C 
HETATM   39  C20 UNL     1      77.699 116.572  19.622  1.00  0.00     0.032 C 
HETATM   40  C21 UNL     1      76.414 117.411  19.753  1.00  0.00     0.272 C 
ENDBRANCH  35  36
ENDBRANCH  34  35
ENDBRANCH  33  34
ENDBRANCH  30  33
ENDBRANCH  24  27
ENDBRANCH  20  21
ENDBRANCH  18  20
ENDBRANCH  11  18
BRANCH  14  41
HETATM   41  N7  UNL     1      71.692 104.798  15.133  1.00  0.00    -0.219 N 
ATOM     42  H7  UNL     1      71.934 104.723  16.121  1.00  0.00     0.178 HD
BRANCH  41  43
HETATM   43  C27 UNL     1      71.476 103.585  14.399  1.00  0.00     0.203 C 
BRANCH  43  44
HETATM   44  C28 UNL     1      70.014 103.424  14.107  1.00  0.00     0.070 A 
HETATM   45  C29 UNL     1      69.440 103.066  12.901  1.00  0.00     0.036 A 
HETATM   46  C30 UNL     1      68.077 103.042  13.093  1.00  0.00     0.027 A 
HETATM   47  C31 UNL     1      67.867 103.386  14.413  1.00  0.00     0.142 A 
HETATM   48  O2  UNL     1      69.032 103.596  14.947  1.00  0.00    -0.325 OA
ENDBRANCH  43  44
ENDBRANCH  41  43
ENDBRANCH  14  41
ENDBRANCH   7   9
ENDBRANCH   6   7
ENDBRANCH   5   6
ENDBRANCH   4   5
ENDBRANCH   3   4
TORSDOF 16
ENDMDL
MODEL 3
REMARK VINA RESULT: -7.887225269      3.081      6.573
REMARK  16 active torsions:
REMARK  status: ('A' for Active; 'I' for Inactive)
REMARK    1  A    between atoms: C2_3  and  S1_4 
REMARK    2  A    between atoms: S1_4  and  C3_5 
REMARK    3  A    between atoms: C3_5  and  C4_6 
REMARK    4  A    between atoms: C4_6  and  N2_7 
REMARK    5  A    between atoms: N2_7  and  C5_9 
REMARK    6  A    between atoms: C6_12  and  N4_13 
REMARK    7  A    between atoms: N4_13  and  C7_15 
REMARK    8  A    between atoms: C7_15  and  C8_16 
REMARK    9  A    between atoms: C11_19  and  C12_20 
REMARK   10  A    between atoms: C15_23  and  O1_24 
REMARK   11  A    between atoms: O1_24  and  C16_25 
REMARK   12  A    between atoms: C16_25  and  C17_26 
REMARK   13  A    between atoms: C17_26  and  N5_27 
REMARK   14  A    between atoms: C26_38  and  N7_39 
REMARK   15  A    between atoms: N7_39  and  C27_41 
REMARK   16  A    between atoms: C27_41  and  C28_42 
ROOT
HETATM    1  N1  UNL     1      74.068 113.645  16.891  1.00  0.00    -0.197 NA
HETATM    2  C1  UNL     1      74.132 112.540  17.216  1.00  0.00     0.069 C 
HETATM    3  C2  UNL     1      74.235 111.120  17.625  1.00  0.00     0.197 C 
ENDROOT
BRANCH   3   4
HETATM    4  S1  UNL     1      73.402 110.060  16.446  1.00  0.00    -0.153 SA
BRANCH   4   5
HETATM    5  C3  UNL     1      73.676 110.521  14.730  1.00  0.00     0.095 C 
BRANCH   5   6
HETATM    6  C4  UNL     1      74.361 109.462  13.913  1.00  0.00     0.148 C 
BRANCH   6   7
HETATM    7  N2  UNL     1      73.493 108.643  13.135  1.00  0.00    -0.224 N 
ATOM      8  H2  UNL     1      73.632 108.665  12.125  1.00  0.00     0.177 HD
BRANCH   7   9
HETATM    9  C5  UNL     1      72.555 107.881  13.567  1.00  0.00     0.707 A 
HETATM   10  N3  UNL     1      71.268 108.268  13.406  1.00  0.00    -0.022 N 
HETATM   11  C6  UNL     1      70.235 107.535  13.825  1.00  0.00     0.707 A 
ATOM     12  H3  UNL     1      71.080 109.158  12.945  1.00  0.00     0.203 HD
HETATM   13  N6  UNL     1      70.479 106.344  14.442  1.00  0.00    -0.022 N 
HETATM   14  C26 UNL     1      71.759 105.929  14.618  1.00  0.00     0.707 A 
ATOM     15  H6  UNL     1      69.704 105.769  14.770  1.00  0.00     0.203 HD
HETATM   16  N8  UNL     1      72.774 106.706  14.177  1.00  0.00    -0.022 N 
ATOM     17  H8  UNL     1      73.735 106.389  14.311  1.00  0.00     0.203 HD
BRANCH  11  18
HETATM   18  N4  UNL     1      68.996 107.832  13.705  1.00  0.00    -0.221 N 
ATOM     19  H4  UNL     1      68.608 107.915  12.766  1.00  0.00     0.178 HD
BRANCH  18  20
HETATM   20  C7  UNL     1      68.129 108.052  14.818  1.00  0.00     0.176 C 
BRANCH  20  21
HETATM   21  C8  UNL     1      68.675 109.218  15.568  1.00  0.00    -0.040 A 
HETATM   22  C9  UNL     1      68.716 110.464  14.963  1.00  0.00     0.009 A 
HETATM   23  C10 UNL     1      69.209 111.574  15.605  1.00  0.00     0.013 A 
HETATM   24  C11 UNL     1      69.693 111.477  16.911  1.00  0.00    -0.026 A 
HETATM   25  C24 UNL     1      69.645 110.233  17.498  1.00  0.00     0.013 A 
HETATM   26  C25 UNL     1      69.154 109.129  16.858  1.00  0.00     0.009 A 
BRANCH  24  27
HETATM   27  C12 UNL     1      70.230 112.651  17.595  1.00  0.00    -0.026 A 
HETATM   28  C13 UNL     1      70.898 112.551  18.792  1.00  0.00     0.015 A 
HETATM   29  C14 UNL     1      71.416 113.637  19.452  1.00  0.00     0.037 A 
HETATM   30  C15 UNL     1      71.271 114.924  18.903  1.00  0.00     0.068 A 
HETATM   31  C22 UNL     1      70.612 115.027  17.720  1.00  0.00     0.037 A 
HETATM   32  C23 UNL     1      70.102 113.921  17.077  1.00  0.00     0.015 A 
BRANCH  30  33
HETATM   33  O1  UNL     1      71.810 115.949  19.611  1.00  0.00    -0.349 OA
BRANCH  33  34
HETATM   34  C16 UNL     1      73.097 116.255  19.967  1.00  0.00     0.206 C 
BRANCH  34  35
HETATM   35  C17 UNL     1      74.068 116.617  18.905  1.00  0.00     0.299 C 
BRANCH  35  36
HETATM   36  N5  UNL     1      75.411 116.196  19.079  1.00  0.00     0.090 N 
HETATM   37  C18 UNL     1      75.617 115.068  19.918  1.00  0.00     0.272 C 
HETATM   38  C19 UNL     1      77.132 114.971  19.975  1.00  0.00     0.032 C 
HETATM   39  C20 UNL     1      77.652 116.307  19.425  1.00  0.00     0.032 C 
HETATM   40  C21 UNL     1      76.365 117.150  19.506  1.00  0.00     0.272 C 
ENDBRANCH  35  36
ENDBRANCH  34  35
ENDBRANCH  33  34
ENDBRANCH  30  33
ENDBRANCH  24  27
ENDBRANCH  20  21
ENDBRANCH  18  20
ENDBRANCH  11  18
BRANCH  14  41
HETATM   41  N7  UNL     1      71.927 104.796  15.207  1.00  0.00    -0.219 N 
ATOM     42  H7  UNL     1      72.123 104.801  16.207  1.00  0.00     0.178 HD
BRANCH  41  43
HETATM   43  C27 UNL     1      71.853 103.526  14.542  1.00  0.00     0.203 C 
BRANCH  43  44
HETATM   44  C28 UNL     1      73.220 103.119  14.079  1.00  0.00     0.070 A 
HETATM   45  C29 UNL     1      73.894 101.953  14.396  1.00  0.00     0.036 A 
HETATM   46  C30 UNL     1      75.110 102.000  13.753  1.00  0.00     0.027 A 
HETATM   47  C31 UNL     1      75.136 103.197  13.064  1.00  0.00     0.142 A 
HETATM   48  O2  UNL     1      74.009 103.799  13.295  1.00  0.00    -0.325 OA
ENDBRANCH  43  44
ENDBRANCH  41  43
ENDBRANCH  14  41
ENDBRANCH   7   9
ENDBRANCH   6   7
ENDBRANCH   5   6
ENDBRANCH   4   5
ENDBRANCH   3   4
TORSDOF 16
ENDMDL
MODEL 4
REMARK VINA RESULT: -7.837049594      1.415      2.355
REMARK  16 active torsions:
REMARK  status: ('A' for Active; 'I' for Inactive)
REMARK    1  A    between atoms: C2_3  and  S1_4 
REMARK    2  A    between atoms: S1_4  and  C3_5 
REMARK    3  A    between atoms: C3_5  and  C4_6 
REMARK    4  A    between atoms: C4_6  and  N2_7 
REMARK    5  A    between atoms: N2_7  and  C5_9 
REMARK    6  A    between atoms: C6_12  and  N4_13 
REMARK    7  A    between atoms: N4_13  and  C7_15 
REMARK    8  A    between atoms: C7_15  and  C8_16 
REMARK    9  A    between atoms: C11_19  and  C12_20 
REMARK   10  A    between atoms: C15_23  and  O1_24 
REMARK   11  A    between atoms: O1_24  and  C16_25 
REMARK   12  A    between atoms: C16_25  and  C17_26 
REMARK   13  A    between atoms: C17_26  and  N5_27 
REMARK   14  A    between atoms: C26_38  and  N7_39 
REMARK   15  A    between atoms: N7_39  and  C27_41 
REMARK   16  A    between atoms: C27_41  and  C28_42 
ROOT
HETATM    1  N1  UNL     1      72.217 104.493  15.085  1.00  0.00    -0.197 NA
HETATM    2  C1  UNL     1      71.687 103.474  14.973  1.00  0.00     0.069 C 
HETATM    3  C2  UNL     1      71.005 102.171  14.806  1.00  0.00     0.197 C 
ENDROOT
BRANCH   3   4
HETATM    4  S1  UNL     1      69.307 102.269  15.369  1.00  0.00    -0.153 SA
BRANCH   4   5
HETATM    5  C3  UNL     1      68.132 102.678  14.072  1.00  0.00     0.095 C 
BRANCH   5   6
HETATM    6  C4  UNL     1      67.911 104.152  13.887  1.00  0.00     0.148 C 
BRANCH   6   7
HETATM    7  N2  UNL     1      68.964 104.843  13.221  1.00  0.00    -0.224 N 
ATOM      8  H2  UNL     1      69.539 104.291  12.586  1.00  0.00     0.177 HD
BRANCH   7   9
HETATM    9  C5  UNL     1      69.266 106.086  13.334  1.00  0.00     0.707 A 
HETATM   10  N3  UNL     1      70.557 106.462  13.184  1.00  0.00    -0.022 N 
HETATM   11  C6  UNL     1      70.956 107.732  13.284  1.00  0.00     0.707 A 
ATOM     12  H3  UNL     1      71.256 105.746  12.985  1.00  0.00     0.203 HD
HETATM   13  N6  UNL     1      70.028 108.695  13.548  1.00  0.00    -0.022 N 
HETATM   14  C26 UNL     1      68.725 108.347  13.704  1.00  0.00     0.707 A 
ATOM     15  H6  UNL     1      70.311 109.671  13.629  1.00  0.00     0.203 HD
HETATM   16  N8  UNL     1      68.368 107.048  13.594  1.00  0.00    -0.022 N 
ATOM     17  H8  UNL     1      67.387 106.792  13.711  1.00  0.00     0.203 HD
BRANCH  11  18
HETATM   18  N4  UNL     1      72.153 108.163  13.151  1.00  0.00    -0.221 N 
ATOM     19  H4  UNL     1      72.358 108.786  12.370  1.00  0.00     0.178 HD
BRANCH  18  20
HETATM   20  C7  UNL     1      73.216 107.820  14.040  1.00  0.00     0.176 C 
BRANCH  20  21
HETATM   21  C8  UNL     1      73.353 108.947  15.006  1.00  0.00    -0.040 A 
HETATM   22  C9  UNL     1      73.037 110.236  14.606  1.00  0.00     0.009 A 
HETATM   23  C10 UNL     1      73.146 111.312  15.451  1.00  0.00     0.013 A 
HETATM   24  C11 UNL     1      73.585 111.137  16.764  1.00  0.00    -0.026 A 
HETATM   25  C24 UNL     1      73.894 109.851  17.148  1.00  0.00     0.013 A 
HETATM   26  C25 UNL     1      73.786 108.780  16.304  1.00  0.00     0.009 A 
BRANCH  24  27
HETATM   27  C12 UNL     1      73.713 112.280  17.666  1.00  0.00    -0.026 A 
HETATM   28  C13 UNL     1      72.917 112.419  18.777  1.00  0.00     0.015 A 
HETATM   29  C14 UNL     1      73.021 113.480  19.642  1.00  0.00     0.037 A 
HETATM   30  C15 UNL     1      73.976 114.486  19.405  1.00  0.00     0.068 A 
HETATM   31  C22 UNL     1      74.764 114.351  18.306  1.00  0.00     0.037 A 
HETATM   32  C23 UNL     1      74.640 113.277  17.455  1.00  0.00     0.015 A 
BRANCH  30  33
HETATM   33  O1  UNL     1      74.020 115.503  20.303  1.00  0.00    -0.349 OA
BRANCH  33  34
HETATM   34  C16 UNL     1      73.318 116.674  20.413  1.00  0.00     0.206 C 
BRANCH  34  35
HETATM   35  C17 UNL     1      72.426 117.083  19.300  1.00  0.00     0.299 C 
BRANCH  35  36
HETATM   36  N5  UNL     1      71.076 116.655  19.357  1.00  0.00     0.090 N 
HETATM   37  C18 UNL     1      70.622 116.152  20.605  1.00  0.00     0.272 C 
HETATM   38  C19 UNL     1      69.212 115.689  20.282  1.00  0.00     0.032 C 
HETATM   39  C20 UNL     1      69.128 115.659  18.750  1.00  0.00     0.032 C 
HETATM   40  C21 UNL     1      70.626 115.717  18.397  1.00  0.00     0.272 C 
ENDBRANCH  35  36
ENDBRANCH  34  35
ENDBRANCH  33  34
ENDBRANCH  30  33
ENDBRANCH  24  27
ENDBRANCH  20  21
ENDBRANCH  18  20
ENDBRANCH  11  18
BRANCH  14  41
HETATM   41  N7  UNL     1      67.895 109.301  13.951  1.00  0.00    -0.219 N 
ATOM     42  H7  UNL     1      67.535 109.838  13.163  1.00  0.00     0.178 HD
BRANCH  41  43
HETATM   43  C27 UNL     1      67.446 109.655  15.267  1.00  0.00     0.203 C 
BRANCH  43  44
HETATM   44  C28 UNL     1      68.414 110.617  15.889  1.00  0.00     0.070 A 
HETATM   45  C29 UNL     1      69.039 110.494  17.117  1.00  0.00     0.036 A 
HETATM   46  C30 UNL     1      69.836 111.604  17.279  1.00  0.00     0.027 A 
HETATM   47  C31 UNL     1      69.670 112.368  16.140  1.00  0.00     0.142 A 
HETATM   48  O2  UNL     1      68.831 111.739  15.373  1.00  0.00    -0.325 OA
ENDBRANCH  43  44
ENDBRANCH  41  43
ENDBRANCH  14  41
ENDBRANCH   7   9
ENDBRANCH   6   7
ENDBRANCH   5   6
ENDBRANCH   4   5
ENDBRANCH   3   4
TORSDOF 16
ENDMDL
MODEL 5
REMARK VINA RESULT: -7.772446939      2.247      4.612
REMARK  16 active torsions:
REMARK  status: ('A' for Active; 'I' for Inactive)
REMARK    1  A    between atoms: C2_3  and  S1_4 
REMARK    2  A    between atoms: S1_4  and  C3_5 
REMARK    3  A    between atoms: C3_5  and  C4_6 
REMARK    4  A    between atoms: C4_6  and  N2_7 
REMARK    5  A    between atoms: N2_7  and  C5_9 
REMARK    6  A    between atoms: C6_12  and  N4_13 
REMARK    7  A    between atoms: N4_13  and  C7_15 
REMARK    8  A    between atoms: C7_15  and  C8_16 
REMARK    9  A    between atoms: C11_19  and  C12_20 
REMARK   10  A    between atoms: C15_23  and  O1_24 
REMARK   11  A    between atoms: O1_24  and  C16_25 
REMARK   12  A    between atoms: C16_25  and  C17_26 
REMARK   13  A    between atoms: C17_26  and  N5_27 
REMARK   14  A    between atoms: C26_38  and  N7_39 
REMARK   15  A    between atoms: N7_39  and  C27_41 
REMARK   16  A    between atoms: C27_41  and  C28_42 
ROOT
HETATM    1  N1  UNL     1      70.575 111.779  14.710  1.00  0.00    -0.197 NA
HETATM    2  C1  UNL     1      70.371 111.398  15.779  1.00  0.00     0.069 C 
HETATM    3  C2  UNL     1      70.122 110.892  17.148  1.00  0.00     0.197 C 
ENDROOT
BRANCH   3   4
HETATM    4  S1  UNL     1      68.558 110.021  17.226  1.00  0.00    -0.153 SA
BRANCH   4   5
HETATM    5  C3  UNL     1      67.432 110.424  15.886  1.00  0.00     0.095 C 
BRANCH   5   6
HETATM    6  C4  UNL     1      67.288 109.338  14.858  1.00  0.00     0.148 C 
BRANCH   6   7
HETATM    7  N2  UNL     1      68.386 109.205  13.960  1.00  0.00    -0.224 N 
ATOM      8  H2  UNL     1      68.415 109.860  13.179  1.00  0.00     0.177 HD
BRANCH   7   9
HETATM    9  C5  UNL     1      69.342 108.351  14.028  1.00  0.00     0.707 A 
HETATM   10  N3  UNL     1      70.570 108.705  13.584  1.00  0.00    -0.022 N 
HETATM   11  C6  UNL     1      71.617 107.879  13.620  1.00  0.00     0.707 A 
ATOM     12  H3  UNL     1      70.701 109.643  13.205  1.00  0.00     0.203 HD
HETATM   13  N6  UNL     1      71.449 106.624  14.124  1.00  0.00    -0.022 N 
HETATM   14  C26 UNL     1      70.229 106.240  14.577  1.00  0.00     0.707 A 
ATOM     15  H6  UNL     1      72.236 105.977  14.161  1.00  0.00     0.203 HD
HETATM   16  N8  UNL     1      69.196 107.112  14.521  1.00  0.00    -0.022 N 
ATOM     17  H8  UNL     1      68.281 106.818  14.864  1.00  0.00     0.203 HD
BRANCH  11  18
HETATM   18  N4  UNL     1      72.805 108.142  13.223  1.00  0.00    -0.221 N 
ATOM     19  H4  UNL     1      72.932 108.480  12.270  1.00  0.00     0.178 HD
BRANCH  18  20
HETATM   20  C7  UNL     1      73.961 107.988  14.046  1.00  0.00     0.176 C 
BRANCH  20  21
HETATM   21  C8  UNL     1      73.948 109.113  15.025  1.00  0.00    -0.040 A 
HETATM   22  C9  UNL     1      74.096 110.415  14.574  1.00  0.00     0.009 A 
HETATM   23  C10 UNL     1      74.093 111.490  15.428  1.00  0.00     0.013 A 
HETATM   24  C11 UNL     1      73.939 111.300  16.803  1.00  0.00    -0.026 A 
HETATM   25  C24 UNL     1      73.793 110.000  17.235  1.00  0.00     0.013 A 
HETATM   26  C25 UNL     1      73.795 108.930  16.383  1.00  0.00     0.009 A 
BRANCH  24  27
HETATM   27  C12 UNL     1      73.947 112.438  17.719  1.00  0.00    -0.026 A 
HETATM   28  C13 UNL     1      73.028 112.559  18.733  1.00  0.00     0.015 A 
HETATM   29  C14 UNL     1      73.017 113.615  19.609  1.00  0.00     0.037 A 
HETATM   30  C15 UNL     1      73.977 114.635  19.487  1.00  0.00     0.068 A 
HETATM   31  C22 UNL     1      74.887 114.519  18.486  1.00  0.00     0.037 A 
HETATM   32  C23 UNL     1      74.877 113.449  17.620  1.00  0.00     0.015 A 
BRANCH  30  33
HETATM   33  O1  UNL     1      73.905 115.647  20.390  1.00  0.00    -0.349 OA
BRANCH  33  34
HETATM   34  C16 UNL     1      73.645 116.986  20.262  1.00  0.00     0.206 C 
BRANCH  34  35
HETATM   35  C17 UNL     1      72.347 117.414  19.685  1.00  0.00     0.299 C 
BRANCH  35  36
HETATM   36  N5  UNL     1      71.259 116.511  19.791  1.00  0.00     0.090 N 
HETATM   37  C18 UNL     1      70.294 116.555  18.749  1.00  0.00     0.272 C 
HETATM   38  C19 UNL     1      69.242 115.572  19.231  1.00  0.00     0.032 C 
HETATM   39  C20 UNL     1      69.559 115.319  20.711  1.00  0.00     0.032 C 
HETATM   40  C21 UNL     1      70.505 116.503  20.989  1.00  0.00     0.272 C 
ENDBRANCH  35  36
ENDBRANCH  34  35
ENDBRANCH  33  34
ENDBRANCH  30  33
ENDBRANCH  24  27
ENDBRANCH  20  21
ENDBRANCH  18  20
ENDBRANCH  11  18
BRANCH  14  41
HETATM   41  N7  UNL     1      70.132 105.043  15.043  1.00  0.00    -0.219 N 
ATOM     42  H7  UNL     1      69.530 104.892  15.852  1.00  0.00     0.178 HD
BRANCH  41  43
HETATM   43  C27 UNL     1      70.820 103.909  14.495  1.00  0.00     0.203 C 
BRANCH  43  44
HETATM   44  C28 UNL     1      71.989 103.558  15.367  1.00  0.00     0.070 A 
HETATM   45  C29 UNL     1      72.336 102.301  15.827  1.00  0.00     0.036 A 
HETATM   46  C30 UNL     1      73.473 102.448  16.589  1.00  0.00     0.027 A 
HETATM   47  C31 UNL     1      73.781 103.795  16.566  1.00  0.00     0.142 A 
HETATM   48  O2  UNL     1      72.880 104.383  15.839  1.00  0.00    -0.325 OA
ENDBRANCH  43  44
ENDBRANCH  41  43
ENDBRANCH  14  41
ENDBRANCH   7   9
ENDBRANCH   6   7
ENDBRANCH   5   6
ENDBRANCH   4   5
ENDBRANCH   3   4
TORSDOF 16
ENDMDL
