MODEL 1
REMARK VINA RESULT: -8.432776924      0.000      0.000
REMARK  17 active torsions:
REMARK  status: ('A' for Active; 'I' for Inactive)
REMARK    1  A    between atoms: C2_2  and  N1_3 
REMARK    2  A    between atoms: N2_6  and  C5_7 
REMARK    3  A    between atoms: C6_10  and  C7_11 
REMARK    4  A    between atoms: C7_11  and  O1_12 
REMARK    5  A    between atoms: C7_11  and  N4_14 
REMARK    6  A    between atoms: N4_14  and  C8_15 
REMARK    7  A    between atoms: C9_18  and  C10_19 
REMARK    8  A    between atoms: C10_19  and  O2_20 
REMARK    9  A    between atoms: C10_19  and  N6_22 
REMARK   10  A    between atoms: N6_22  and  C11_24 
REMARK   11  A    between atoms: C13_34  and  C14_35 
REMARK   12  A    between atoms: C14_35  and  O4_37 
REMARK   13  A    between atoms: C16_39  and  N11_40 
REMARK   14  A    between atoms: C17_45  and  N13_46 
REMARK   15  A    between atoms: N13_46  and  N14_48 
REMARK   16  A    between atoms: N14_48  and  S1_50 
REMARK   17  A    between atoms: S1_50  and  N15_51 
ROOT
HETATM    1  C7  UNL     1      -6.273  -7.369 -26.876  1.00  0.00     0.261 C 
ENDROOT
BRANCH   1   2
HETATM    2  C6  UNL     1      -6.572  -7.571 -25.460  1.00  0.00     0.175 A 
HETATM    3  N3  UNL     1      -5.690  -7.013 -24.575  1.00  0.00    -0.323 N 
HETATM    4  C5  UNL     1      -5.876  -7.006 -23.238  1.00  0.00     0.134 A 
ATOM      5  H3  UNL     1      -4.845  -6.577 -24.947  1.00  0.00     0.169 HD
HETATM    6  C19 UNL     1      -7.018  -7.598 -22.764  1.00  0.00     0.135 A 
HETATM    7  C17 UNL     1      -7.947  -8.176 -23.612  1.00  0.00     0.152 A 
HETATM    8  N16 UNL     1      -7.254  -7.638 -21.368  1.00  0.00    -0.094 NA
HETATM    9  N12 UNL     1      -7.673  -8.137 -24.949  1.00  0.00    -0.321 N 
ATOM     10  H12 UNL     1      -8.342  -8.561 -25.592  1.00  0.00     0.169 HD
BRANCH   4  11
HETATM   11  N2  UNL     1      -4.925  -6.407 -22.358  1.00  0.00    -0.356 N 
HETATM   12  C4  UNL     1      -3.927  -7.205 -21.755  1.00  0.00     0.169 C 
HETATM   13  C3  UNL     1      -2.992  -6.505 -20.832  1.00  0.00     0.083 C 
HETATM   14  N1  UNL     1      -3.133  -5.119 -20.746  1.00  0.00    -0.371 N 
HETATM   15  C21 UNL     1      -4.410  -4.548 -20.854  1.00  0.00     0.083 C 
HETATM   16  C20 UNL     1      -5.082  -4.997 -22.144  1.00  0.00     0.169 C 
BRANCH  14  17
HETATM   17  C2  UNL     1      -2.217  -4.384 -19.988  1.00  0.00     0.122 C 
HETATM   18  C1  UNL     1      -0.815  -5.005 -20.045  1.00  0.00     0.027 C 
ENDBRANCH  14  17
ENDBRANCH   4  11
BRANCH   7  19
HETATM   19  N13 UNL     1      -9.190  -8.705 -23.103  1.00  0.00    -0.269 N 
HETATM   20  C18 UNL     1      -9.754  -9.847 -23.746  1.00  0.00     0.180 C 
BRANCH  19  21
HETATM   21  N14 UNL     1      -9.771  -8.054 -22.047  1.00  0.00    -0.207 N 
ATOM     22  H14 UNL     1      -9.517  -8.268 -21.082  1.00  0.00     0.202 HD
BRANCH  21  23
HETATM   23  S1  UNL     1     -10.943  -6.866 -22.419  1.00  0.00     0.330 S 
HETATM   24  O7  UNL     1     -10.357  -6.003 -23.564  1.00  0.00    -0.181 OA
HETATM   25  O8  UNL     1     -12.210  -7.409 -22.997  1.00  0.00    -0.181 OA
BRANCH  23  26
HETATM   26  N15 UNL     1     -11.228  -5.754 -21.139  1.00  0.00    -0.310 N 
ATOM     27 2H15 UNL     1     -10.655  -4.921 -21.003  1.00  0.00     0.170 HD
ATOM     28 1H15 UNL     1     -12.014  -6.010 -20.543  1.00  0.00     0.170 HD
ENDBRANCH  23  26
ENDBRANCH  21  23
ENDBRANCH  19  21
ENDBRANCH   7  19
ENDBRANCH   1   2
BRANCH   1  29
HETATM   29  O1  UNL     1      -7.399  -7.437 -27.580  1.00  0.00    -0.333 OA
ATOM     30  H1  UNL     1      -7.857  -6.606 -27.525  1.00  0.00     0.220 HD
ENDBRANCH   1  29
BRANCH   1  31
HETATM   31  N4  UNL     1      -5.112  -7.158 -27.456  1.00  0.00    -0.356 NA
BRANCH  31  32
HETATM   32  C8  UNL     1      -3.904  -6.939 -28.058  1.00  0.00     0.216 A 
HETATM   33  N5  UNL     1      -3.704  -6.840 -29.409  1.00  0.00    -0.329 N 
HETATM   34  C9  UNL     1      -2.528  -6.624 -30.000  1.00  0.00     0.062 A 
ATOM     35  H5  UNL     1      -4.520  -6.941 -30.013  1.00  0.00     0.168 HD
HETATM   36  C12 UNL     1      -1.409  -6.483 -29.229  1.00  0.00     0.050 A 
HETATM   37  C13 UNL     1      -1.487  -6.564 -27.828  1.00  0.00     0.079 A 
HETATM   38  C16 UNL     1      -2.721  -6.788 -27.304  1.00  0.00     0.177 A 
BRANCH  34  39
HETATM   39  C10 UNL     1      -2.441  -6.533 -31.501  1.00  0.00     0.285 C 
BRANCH  39  40
HETATM   40  O2  UNL     1      -3.477  -7.299 -32.077  1.00  0.00    -0.370 OA
ATOM     41  H2  UNL     1      -3.780  -6.874 -32.870  1.00  0.00     0.212 HD
ENDBRANCH  39  40
BRANCH  39  42
HETATM   42  N6  UNL     1      -2.673  -5.170 -31.869  1.00  0.00    -0.191 N 
ATOM     43  H6  UNL     1      -3.638  -4.843 -31.830  1.00  0.00     0.180 HD
BRANCH  42  44
HETATM   44  C11 UNL     1      -1.794  -4.323 -32.241  1.00  0.00     0.712 A 
HETATM   45  N7  UNL     1      -0.587  -4.154 -31.636  1.00  0.00    -0.115 N 
HETATM   46  N8  UNL     1       0.068  -3.216 -32.265  1.00  0.00    -0.213 N 
ATOM     47  H7  UNL     1      -0.250  -4.674 -30.826  1.00  0.00     0.207 HD
HETATM   48  N9  UNL     1      -0.678  -2.785 -33.246  1.00  0.00    -0.213 N 
ATOM     49  H8  UNL     1       1.001  -2.878 -32.030  1.00  0.00     0.210 HD
HETATM   50  N10 UNL     1      -1.817  -3.445 -33.252  1.00  0.00    -0.115 N 
ATOM     51  H9  UNL     1      -0.419  -2.051 -33.905  1.00  0.00     0.210 HD
ATOM     52  H10 UNL     1      -2.583  -3.311 -33.913  1.00  0.00     0.207 HD
ENDBRANCH  42  44
ENDBRANCH  39  42
ENDBRANCH  34  39
BRANCH  37  53
HETATM   53  C14 UNL     1      -0.294  -6.390 -27.030  1.00  0.00     0.295 C 
HETATM   54  O3  UNL     1       0.394  -7.293 -26.546  1.00  0.00    -0.259 OA
BRANCH  53  55
HETATM   55  O4  UNL     1       0.146  -5.076 -26.761  1.00  0.00    -0.322 OA
HETATM   56  C15 UNL     1       0.328  -4.583 -25.453  1.00  0.00     0.213 C 
ENDBRANCH  53  55
ENDBRANCH  37  53
BRANCH  38  57
HETATM   57  N11 UNL     1      -2.866  -6.862 -25.909  1.00  0.00    -0.110 N 
HETATM   58  O5  UNL     1      -3.058  -5.792 -25.253  1.00  0.00    -0.532 OA
HETATM   59  O6  UNL     1      -2.813  -7.999 -25.183  1.00  0.00    -0.532 OA
ENDBRANCH  38  57
ENDBRANCH  31  32
ENDBRANCH   1  31
TORSDOF 17
ENDMDL
MODEL 2
REMARK VINA RESULT: -8.396105044      2.503      3.512
REMARK  17 active torsions:
REMARK  status: ('A' for Active; 'I' for Inactive)
REMARK    1  A    between atoms: C2_2  and  N1_3 
REMARK    2  A    between atoms: N2_6  and  C5_7 
REMARK    3  A    between atoms: C6_10  and  C7_11 
REMARK    4  A    between atoms: C7_11  and  O1_12 
REMARK    5  A    between atoms: C7_11  and  N4_14 
REMARK    6  A    between atoms: N4_14  and  C8_15 
REMARK    7  A    between atoms: C9_18  and  C10_19 
REMARK    8  A    between atoms: C10_19  and  O2_20 
REMARK    9  A    between atoms: C10_19  and  N6_22 
REMARK   10  A    between atoms: N6_22  and  C11_24 
REMARK   11  A    between atoms: C13_34  and  C14_35 
REMARK   12  A    between atoms: C14_35  and  O4_37 
REMARK   13  A    between atoms: C16_39  and  N11_40 
REMARK   14  A    between atoms: C17_45  and  N13_46 
REMARK   15  A    between atoms: N13_46  and  N14_48 
REMARK   16  A    between atoms: N14_48  and  S1_50 
REMARK   17  A    between atoms: S1_50  and  N15_51 
ROOT
HETATM    1  C7  UNL     1      -6.731  -7.382 -27.230  1.00  0.00     0.261 C 
ENDROOT
BRANCH   1   2
HETATM    2  C6  UNL     1      -7.155  -7.552 -25.842  1.00  0.00     0.175 A 
HETATM    3  N3  UNL     1      -7.467  -6.404 -25.165  1.00  0.00    -0.323 N 
HETATM    4  C5  UNL     1      -7.984  -6.390 -23.918  1.00  0.00     0.134 A 
ATOM      5  H3  UNL     1      -7.301  -5.511 -25.629  1.00  0.00     0.169 HD
HETATM    6  C19 UNL     1      -8.197  -7.602 -23.317  1.00  0.00     0.135 A 
HETATM    7  C17 UNL     1      -7.903  -8.796 -23.954  1.00  0.00     0.152 A 
HETATM    8  N16 UNL     1      -8.718  -7.646 -22.000  1.00  0.00    -0.094 NA
HETATM    9  N12 UNL     1      -7.382  -8.712 -25.213  1.00  0.00    -0.321 N 
ATOM     10  H12 UNL     1      -7.154  -9.579 -25.700  1.00  0.00     0.169 HD
BRANCH   4  11
HETATM   11  N2  UNL     1      -8.294  -5.164 -23.256  1.00  0.00    -0.356 N 
HETATM   12  C4  UNL     1      -7.264  -4.241 -22.968  1.00  0.00     0.169 C 
HETATM   13  C3  UNL     1      -7.671  -3.000 -22.254  1.00  0.00     0.083 C 
HETATM   14  N1  UNL     1      -9.041  -2.831 -22.044  1.00  0.00    -0.371 N 
HETATM   15  C21 UNL     1      -9.844  -3.955 -21.801  1.00  0.00     0.083 C 
HETATM   16  C20 UNL     1      -9.675  -4.976 -22.916  1.00  0.00     0.169 C 
BRANCH  14  17
HETATM   17  C2  UNL     1      -9.504  -1.637 -21.483  1.00  0.00     0.122 C 
HETATM   18  C1  UNL     1     -10.938  -1.782 -20.959  1.00  0.00     0.027 C 
ENDBRANCH  14  17
ENDBRANCH   4  11
BRANCH   7  19
HETATM   19  N13 UNL     1      -8.227 -10.064 -23.344  1.00  0.00    -0.269 N 
HETATM   20  C18 UNL     1      -9.220 -10.879 -23.963  1.00  0.00     0.180 C 
BRANCH  19  21
HETATM   21  N14 UNL     1      -7.580 -10.392 -22.182  1.00  0.00    -0.207 N 
ATOM     22  H14 UNL     1      -8.072 -10.831 -21.403  1.00  0.00     0.202 HD
BRANCH  21  23
HETATM   23  S1  UNL     1      -5.911 -10.033 -22.095  1.00  0.00     0.330 S 
HETATM   24  O7  UNL     1      -5.268 -11.113 -21.191  1.00  0.00    -0.181 OA
HETATM   25  O8  UNL     1      -5.181 -10.175 -23.392  1.00  0.00    -0.181 OA
BRANCH  23  26
HETATM   26  N15 UNL     1      -5.566  -8.545 -21.307  1.00  0.00    -0.310 N 
ATOM     27 2H15 UNL     1      -5.024  -7.805 -21.753  1.00  0.00     0.170 HD
ATOM     28 1H15 UNL     1      -5.952  -8.481 -20.365  1.00  0.00     0.170 HD
ENDBRANCH  23  26
ENDBRANCH  21  23
ENDBRANCH  19  21
ENDBRANCH   7  19
ENDBRANCH   1   2
BRANCH   1  29
HETATM   29  O1  UNL     1      -7.796  -7.414 -28.025  1.00  0.00    -0.333 OA
ATOM     30  H1  UNL     1      -7.548  -7.767 -28.872  1.00  0.00     0.220 HD
ENDBRANCH   1  29
BRANCH   1  31
HETATM   31  N4  UNL     1      -5.517  -7.226 -27.712  1.00  0.00    -0.356 NA
BRANCH  31  32
HETATM   32  C8  UNL     1      -4.255  -7.064 -28.212  1.00  0.00     0.216 A 
HETATM   33  N5  UNL     1      -3.946  -6.919 -29.538  1.00  0.00    -0.329 N 
HETATM   34  C9  UNL     1      -2.717  -6.757 -30.030  1.00  0.00     0.062 A 
ATOM     35  H5  UNL     1      -4.718  -6.936 -30.204  1.00  0.00     0.168 HD
HETATM   36  C12 UNL     1      -1.653  -6.728 -29.172  1.00  0.00     0.050 A 
HETATM   37  C13 UNL     1      -1.843  -6.866 -27.786  1.00  0.00     0.079 A 
HETATM   38  C16 UNL     1      -3.126  -7.028 -27.366  1.00  0.00     0.177 A 
BRANCH  34  39
HETATM   39  C10 UNL     1      -2.509  -6.605 -31.514  1.00  0.00     0.285 C 
BRANCH  39  40
HETATM   40  O2  UNL     1      -3.491  -7.349 -32.202  1.00  0.00    -0.370 OA
ATOM     41  H2  UNL     1      -3.930  -6.787 -32.829  1.00  0.00     0.212 HD
ENDBRANCH  39  40
BRANCH  39  42
HETATM   42  N6  UNL     1      -2.718  -5.229 -31.844  1.00  0.00    -0.191 N 
ATOM     43  H6  UNL     1      -3.677  -4.886 -31.796  1.00  0.00     0.180 HD
BRANCH  42  44
HETATM   44  C11 UNL     1      -1.824  -4.387 -32.193  1.00  0.00     0.712 A 
HETATM   45  N7  UNL     1      -0.610  -4.264 -31.592  1.00  0.00    -0.115 N 
HETATM   46  N8  UNL     1       0.060  -3.317 -32.191  1.00  0.00    -0.213 N 
ATOM     47  H7  UNL     1      -0.278  -4.819 -30.803  1.00  0.00     0.207 HD
HETATM   48  N9  UNL     1      -0.684  -2.836 -33.151  1.00  0.00    -0.213 N 
ATOM     49  H8  UNL     1       1.002  -3.007 -31.952  1.00  0.00     0.210 HD
HETATM   50  N10 UNL     1      -1.836  -3.473 -33.172  1.00  0.00    -0.115 N 
ATOM     51  H9  UNL     1      -0.414  -2.085 -33.785  1.00  0.00     0.210 HD
ATOM     52  H10 UNL     1      -2.604  -3.300 -33.821  1.00  0.00     0.207 HD
ENDBRANCH  42  44
ENDBRANCH  39  42
ENDBRANCH  34  39
BRANCH  37  53
HETATM   53  C14 UNL     1      -0.707  -6.809 -26.895  1.00  0.00     0.295 C 
HETATM   54  O3  UNL     1       0.026  -7.755 -26.592  1.00  0.00    -0.259 OA
BRANCH  53  55
HETATM   55  O4  UNL     1      -0.383  -5.571 -26.300  1.00  0.00    -0.322 OA
HETATM   56  C15 UNL     1      -0.184  -5.418 -24.913  1.00  0.00     0.213 C 
ENDBRANCH  53  55
ENDBRANCH  37  53
BRANCH  38  57
HETATM   57  N11 UNL     1      -3.382  -7.154 -25.991  1.00  0.00    -0.110 N 
HETATM   58  O5  UNL     1      -3.665  -6.114 -25.320  1.00  0.00    -0.532 OA
HETATM   59  O6  UNL     1      -3.348  -8.313 -25.299  1.00  0.00    -0.532 OA
ENDBRANCH  38  57
ENDBRANCH  31  32
ENDBRANCH   1  31
TORSDOF 17
ENDMDL
MODEL 3
REMARK VINA RESULT: -8.261148179      3.147      6.227
REMARK  17 active torsions:
REMARK  status: ('A' for Active; 'I' for Inactive)
REMARK    1  A    between atoms: C2_2  and  N1_3 
REMARK    2  A    between atoms: N2_6  and  C5_7 
REMARK    3  A    between atoms: C6_10  and  C7_11 
REMARK    4  A    between atoms: C7_11  and  O1_12 
REMARK    5  A    between atoms: C7_11  and  N4_14 
REMARK    6  A    between atoms: N4_14  and  C8_15 
REMARK    7  A    between atoms: C9_18  and  C10_19 
REMARK    8  A    between atoms: C10_19  and  O2_20 
REMARK    9  A    between atoms: C10_19  and  N6_22 
REMARK   10  A    between atoms: N6_22  and  C11_24 
REMARK   11  A    between atoms: C13_34  and  C14_35 
REMARK   12  A    between atoms: C14_35  and  O4_37 
REMARK   13  A    between atoms: C16_39  and  N11_40 
REMARK   14  A    between atoms: C17_45  and  N13_46 
REMARK   15  A    between atoms: N13_46  and  N14_48 
REMARK   16  A    between atoms: N14_48  and  S1_50 
REMARK   17  A    between atoms: S1_50  and  N15_51 
ROOT
HETATM    1  C7  UNL     1      -0.497  -6.106 -24.516  1.00  0.00     0.261 C 
ENDROOT
BRANCH   1   2
HETATM    2  C6  UNL     1      -1.175  -5.930 -23.233  1.00  0.00     0.175 A 
HETATM    3  N3  UNL     1      -2.453  -6.413 -23.159  1.00  0.00    -0.323 N 
HETATM    4  C5  UNL     1      -3.178  -6.436 -22.020  1.00  0.00     0.134 A 
ATOM      5  H3  UNL     1      -2.882  -6.776 -24.011  1.00  0.00     0.169 HD
HETATM    6  C19 UNL     1      -2.581  -5.943 -20.890  1.00  0.00     0.135 A 
HETATM    7  C17 UNL     1      -1.289  -5.444 -20.904  1.00  0.00     0.152 A 
HETATM    8  N16 UNL     1      -3.303  -5.923 -19.671  1.00  0.00    -0.094 NA
HETATM    9  N12 UNL     1      -0.634  -5.459 -22.102  1.00  0.00    -0.321 N 
ATOM     10  H12 UNL     1       0.318  -5.093 -22.136  1.00  0.00     0.169 HD
BRANCH   4  11
HETATM   11  N2  UNL     1      -4.508  -6.953 -21.996  1.00  0.00    -0.356 N 
HETATM   12  C4  UNL     1      -5.608  -6.066 -22.025  1.00  0.00     0.169 C 
HETATM   13  C3  UNL     1      -6.959  -6.688 -21.971  1.00  0.00     0.083 C 
HETATM   14  N1  UNL     1      -6.997  -8.083 -22.010  1.00  0.00    -0.371 N 
HETATM   15  C21 UNL     1      -5.973  -8.817 -21.393  1.00  0.00     0.083 C 
HETATM   16  C20 UNL     1      -4.616  -8.382 -21.927  1.00  0.00     0.169 C 
BRANCH  14  17
HETATM   17  C2  UNL     1      -8.233  -8.731 -22.078  1.00  0.00     0.122 C 
HETATM   18  C1  UNL     1      -9.394  -7.728 -22.067  1.00  0.00     0.027 C 
ENDBRANCH  14  17
ENDBRANCH   4  11
BRANCH   7  19
HETATM   19  N13 UNL     1      -0.642  -5.021 -19.685  1.00  0.00    -0.269 N 
HETATM   20  C18 UNL     1      -0.469  -3.623 -19.459  1.00  0.00     0.180 C 
BRANCH  19  21
HETATM   21  N14 UNL     1      -0.200  -5.997 -18.831  1.00  0.00    -0.207 N 
ATOM     22  H14 UNL     1       0.367  -6.779 -19.161  1.00  0.00     0.202 HD
BRANCH  21  23
HETATM   23  S1  UNL     1      -0.639  -5.844 -17.186  1.00  0.00     0.330 S 
HETATM   24  O7  UNL     1      -0.162  -7.134 -16.474  1.00  0.00    -0.181 OA
HETATM   25  O8  UNL     1       0.075  -4.752 -16.455  1.00  0.00    -0.181 OA
BRANCH  23  26
HETATM   26  N15 UNL     1      -2.337  -5.808 -16.926  1.00  0.00    -0.310 N 
ATOM     27 2H15 UNL     1      -3.000  -5.630 -17.680  1.00  0.00     0.170 HD
ATOM     28 1H15 UNL     1      -2.607  -5.979 -15.957  1.00  0.00     0.170 HD
ENDBRANCH  23  26
ENDBRANCH  21  23
ENDBRANCH  19  21
ENDBRANCH   7  19
ENDBRANCH   1   2
BRANCH   1  29
HETATM   29  O1  UNL     1       0.803  -6.289 -24.308  1.00  0.00    -0.333 OA
ATOM     30  H1  UNL     1       1.080  -7.094 -24.729  1.00  0.00     0.220 HD
ENDBRANCH   1  29
BRANCH   1  31
HETATM   31  N4  UNL     1      -1.004  -6.091 -25.729  1.00  0.00    -0.356 NA
BRANCH  31  32
HETATM   32  C8  UNL     1      -1.530  -6.075 -26.991  1.00  0.00     0.216 A 
HETATM   33  N5  UNL     1      -0.818  -5.838 -28.138  1.00  0.00    -0.329 N 
HETATM   34  C9  UNL     1      -1.326  -5.824 -29.370  1.00  0.00     0.062 A 
ATOM     35  H5  UNL     1       0.181  -5.656 -28.041  1.00  0.00     0.168 HD
HETATM   36  C12 UNL     1      -2.660  -6.063 -29.545  1.00  0.00     0.050 A 
HETATM   37  C13 UNL     1      -3.495  -6.320 -28.444  1.00  0.00     0.079 A 
HETATM   38  C16 UNL     1      -2.901  -6.315 -27.222  1.00  0.00     0.177 A 
BRANCH  34  39
HETATM   39  C10 UNL     1      -0.434  -5.552 -30.553  1.00  0.00     0.285 C 
BRANCH  39  40
HETATM   40  O2  UNL     1      -0.968  -6.183 -31.696  1.00  0.00    -0.370 OA
ATOM     41  H2  UNL     1      -0.398  -6.897 -31.958  1.00  0.00     0.212 HD
ENDBRANCH  39  40
BRANCH  39  42
HETATM   42  N6  UNL     1      -0.457  -4.144 -30.801  1.00  0.00    -0.191 N 
ATOM     43  H6  UNL     1      -0.188  -3.537 -30.027  1.00  0.00     0.180 HD
BRANCH  42  44
HETATM   44  C11 UNL     1      -0.778  -3.570 -31.895  1.00  0.00     0.712 A 
HETATM   45  N7  UNL     1       0.077  -2.835 -32.656  1.00  0.00    -0.115 N 
HETATM   46  N8  UNL     1      -0.568  -2.394 -33.703  1.00  0.00    -0.213 N 
ATOM     47  H7  UNL     1       1.059  -2.657 -32.445  1.00  0.00     0.207 HD
HETATM   48  N9  UNL     1      -1.799  -2.823 -33.634  1.00  0.00    -0.213 N 
ATOM     49  H8  UNL     1      -0.177  -1.815 -34.446  1.00  0.00     0.210 HD
HETATM   50  N10 UNL     1      -1.951  -3.542 -32.541  1.00  0.00    -0.115 N 
ATOM     51  H9  UNL     1      -2.530  -2.632 -34.319  1.00  0.00     0.210 HD
ATOM     52  H10 UNL     1      -2.813  -3.999 -32.240  1.00  0.00     0.207 HD
ENDBRANCH  42  44
ENDBRANCH  39  42
ENDBRANCH  34  39
BRANCH  37  53
HETATM   53  C14 UNL     1      -4.899  -6.592 -28.654  1.00  0.00     0.295 C 
HETATM   54  O3  UNL     1      -5.803  -5.754 -28.688  1.00  0.00    -0.259 OA
BRANCH  53  55
HETATM   55  O4  UNL     1      -5.301  -7.933 -28.838  1.00  0.00    -0.322 OA
HETATM   56  C15 UNL     1      -6.525  -8.437 -28.353  1.00  0.00     0.213 C 
ENDBRANCH  53  55
ENDBRANCH  37  53
BRANCH  38  57
HETATM   57  N11 UNL     1      -3.679  -6.582 -26.084  1.00  0.00    -0.110 N 
HETATM   58  O5  UNL     1      -3.768  -7.778 -25.667  1.00  0.00    -0.532 OA
HETATM   59  O6  UNL     1      -4.365  -5.657 -25.379  1.00  0.00    -0.532 OA
ENDBRANCH  38  57
ENDBRANCH  31  32
ENDBRANCH   1  31
TORSDOF 17
ENDMDL
MODEL 4
REMARK VINA RESULT: -8.258207239      3.174      9.416
REMARK  17 active torsions:
REMARK  status: ('A' for Active; 'I' for Inactive)
REMARK    1  A    between atoms: C2_2  and  N1_3 
REMARK    2  A    between atoms: N2_6  and  C5_7 
REMARK    3  A    between atoms: C6_10  and  C7_11 
REMARK    4  A    between atoms: C7_11  and  O1_12 
REMARK    5  A    between atoms: C7_11  and  N4_14 
REMARK    6  A    between atoms: N4_14  and  C8_15 
REMARK    7  A    between atoms: C9_18  and  C10_19 
REMARK    8  A    between atoms: C10_19  and  O2_20 
REMARK    9  A    between atoms: C10_19  and  N6_22 
REMARK   10  A    between atoms: N6_22  and  C11_24 
REMARK   11  A    between atoms: C13_34  and  C14_35 
REMARK   12  A    between atoms: C14_35  and  O4_37 
REMARK   13  A    between atoms: C16_39  and  N11_40 
REMARK   14  A    between atoms: C17_45  and  N13_46 
REMARK   15  A    between atoms: N13_46  and  N14_48 
REMARK   16  A    between atoms: N14_48  and  S1_50 
REMARK   17  A    between atoms: S1_50  and  N15_51 
ROOT
HETATM    1  C7  UNL     1      -6.181  -6.377 -27.493  1.00  0.00     0.261 C 
ENDROOT
BRANCH   1   2
HETATM    2  C6  UNL     1      -4.743  -6.437 -27.748  1.00  0.00     0.175 A 
HETATM    3  N3  UNL     1      -4.283  -5.658 -28.776  1.00  0.00    -0.323 N 
HETATM    4  C5  UNL     1      -2.974  -5.508 -29.070  1.00  0.00     0.134 A 
ATOM      5  H3  UNL     1      -4.967  -5.165 -29.350  1.00  0.00     0.169 HD
HETATM    6  C19 UNL     1      -2.076  -6.182 -28.285  1.00  0.00     0.135 A 
HETATM    7  C17 UNL     1      -2.483  -6.981 -27.230  1.00  0.00     0.152 A 
HETATM    8  N16 UNL     1      -0.691  -6.077 -28.563  1.00  0.00    -0.094 NA
HETATM    9  N12 UNL     1      -3.827  -7.075 -27.009  1.00  0.00    -0.321 N 
ATOM     10  H12 UNL     1      -4.150  -7.662 -26.239  1.00  0.00     0.169 HD
BRANCH   4  11
HETATM   11  N2  UNL     1      -2.547  -4.682 -30.153  1.00  0.00    -0.356 N 
HETATM   12  C4  UNL     1      -2.386  -5.239 -31.441  1.00  0.00     0.169 C 
HETATM   13  C3  UNL     1      -1.912  -4.313 -32.506  1.00  0.00     0.083 C 
HETATM   14  N1  UNL     1      -1.784  -2.971 -32.144  1.00  0.00    -0.371 N 
HETATM   15  C21 UNL     1      -1.379  -2.646 -30.841  1.00  0.00     0.083 C 
HETATM   16  C20 UNL     1      -2.293  -3.309 -29.821  1.00  0.00     0.169 C 
BRANCH  14  17
HETATM   17  C2  UNL     1      -1.455  -2.028 -33.121  1.00  0.00     0.122 C 
HETATM   18  C1  UNL     1      -2.606  -1.042 -33.360  1.00  0.00     0.027 C 
ENDBRANCH  14  17
ENDBRANCH   4  11
BRANCH   7  19
HETATM   19  N13 UNL     1      -1.519  -7.603 -26.354  1.00  0.00    -0.269 N 
HETATM   20  C18 UNL     1      -1.227  -8.987 -26.541  1.00  0.00     0.180 C 
BRANCH  19  21
HETATM   21  N14 UNL     1      -0.967  -6.829 -25.368  1.00  0.00    -0.207 N 
ATOM     22  H14 UNL     1      -0.108  -6.300 -25.523  1.00  0.00     0.202 HD
BRANCH  21  23
HETATM   23  S1  UNL     1      -1.781  -6.788 -23.865  1.00  0.00     0.330 S 
HETATM   24  O7  UNL     1      -3.132  -6.071 -24.108  1.00  0.00    -0.181 OA
HETATM   25  O8  UNL     1      -2.181  -8.131 -23.344  1.00  0.00    -0.181 OA
BRANCH  23  26
HETATM   26  N15 UNL     1      -0.989  -5.831 -22.677  1.00  0.00    -0.310 N 
ATOM     27 2H15 UNL     1       0.009  -5.916 -22.487  1.00  0.00     0.170 HD
ATOM     28 1H15 UNL     1      -1.610  -5.183 -22.193  1.00  0.00     0.170 HD
ENDBRANCH  23  26
ENDBRANCH  21  23
ENDBRANCH  19  21
ENDBRANCH   7  19
ENDBRANCH   1   2
BRANCH   1  29
HETATM   29  O1  UNL     1      -6.785  -5.770 -28.509  1.00  0.00    -0.333 OA
ATOM     30  H1  UNL     1      -6.462  -4.879 -28.583  1.00  0.00     0.220 HD
ENDBRANCH   1  29
BRANCH   1  31
HETATM   31  N4  UNL     1      -6.857  -6.816 -26.454  1.00  0.00    -0.356 NA
BRANCH  31  32
HETATM   32  C8  UNL     1      -7.560  -7.274 -25.374  1.00  0.00     0.216 A 
HETATM   33  N5  UNL     1      -7.421  -8.515 -24.813  1.00  0.00    -0.329 N 
HETATM   34  C9  UNL     1      -8.102  -8.965 -23.758  1.00  0.00     0.062 A 
ATOM     35  H5  UNL     1      -6.741  -9.148 -25.236  1.00  0.00     0.168 HD
HETATM   36  C12 UNL     1      -9.022  -8.150 -23.161  1.00  0.00     0.050 A 
HETATM   37  C13 UNL     1      -9.254  -6.851 -23.646  1.00  0.00     0.079 A 
HETATM   38  C16 UNL     1      -8.520  -6.470 -24.725  1.00  0.00     0.177 A 
BRANCH  34  39
HETATM   39  C10 UNL     1      -7.853 -10.354 -23.233  1.00  0.00     0.285 C 
BRANCH  39  40
HETATM   40  O2  UNL     1      -6.958 -11.026 -24.093  1.00  0.00    -0.370 OA
ATOM     41  H2  UNL     1      -7.230 -11.931 -24.185  1.00  0.00     0.212 HD
ENDBRANCH  39  40
BRANCH  39  42
HETATM   42  N6  UNL     1      -7.203 -10.231 -21.964  1.00  0.00    -0.191 N 
ATOM     43  H6  UNL     1      -7.780 -10.384 -21.137  1.00  0.00     0.180 HD
BRANCH  42  44
HETATM   44  C11 UNL     1      -5.975  -9.949 -21.764  1.00  0.00     0.712 A 
HETATM   45  N7  UNL     1      -5.499  -8.690 -21.564  1.00  0.00    -0.115 N 
HETATM   46  N8  UNL     1      -4.207  -8.754 -21.388  1.00  0.00    -0.213 N 
ATOM     47  H7  UNL     1      -6.059  -7.838 -21.554  1.00  0.00     0.207 HD
HETATM   48  N9  UNL     1      -3.846 -10.007 -21.467  1.00  0.00    -0.213 N 
ATOM     49  H8  UNL     1      -3.587  -7.963 -21.217  1.00  0.00     0.210 HD
HETATM   50  N10 UNL     1      -4.906 -10.754 -21.695  1.00  0.00    -0.115 N 
ATOM     51  H9  UNL     1      -2.892 -10.353 -21.368  1.00  0.00     0.210 HD
ATOM     52  H10 UNL     1      -4.912 -11.769 -21.801  1.00  0.00     0.207 HD
ENDBRANCH  42  44
ENDBRANCH  39  42
ENDBRANCH  34  39
BRANCH  37  53
HETATM   53  C14 UNL     1     -10.215  -5.998 -22.985  1.00  0.00     0.295 C 
HETATM   54  O3  UNL     1     -11.441  -6.135 -23.004  1.00  0.00    -0.259 OA
BRANCH  53  55
HETATM   55  O4  UNL     1      -9.735  -4.896 -22.244  1.00  0.00    -0.322 OA
HETATM   56  C15 UNL     1      -8.911  -5.039 -21.110  1.00  0.00     0.213 C 
ENDBRANCH  53  55
ENDBRANCH  37  53
BRANCH  38  57
HETATM   57  N11 UNL     1      -8.695  -5.177 -25.246  1.00  0.00    -0.110 N 
HETATM   58  O5  UNL     1      -9.574  -4.989 -26.143  1.00  0.00    -0.532 OA
HETATM   59  O6  UNL     1      -7.988  -4.089 -24.873  1.00  0.00    -0.532 OA
ENDBRANCH  38  57
ENDBRANCH  31  32
ENDBRANCH   1  31
TORSDOF 17
ENDMDL
MODEL 5
REMARK VINA RESULT: -8.253991727      2.862      5.958
REMARK  17 active torsions:
REMARK  status: ('A' for Active; 'I' for Inactive)
REMARK    1  A    between atoms: C2_2  and  N1_3 
REMARK    2  A    between atoms: N2_6  and  C5_7 
REMARK    3  A    between atoms: C6_10  and  C7_11 
REMARK    4  A    between atoms: C7_11  and  O1_12 
REMARK    5  A    between atoms: C7_11  and  N4_14 
REMARK    6  A    between atoms: N4_14  and  C8_15 
REMARK    7  A    between atoms: C9_18  and  C10_19 
REMARK    8  A    between atoms: C10_19  and  O2_20 
REMARK    9  A    between atoms: C10_19  and  N6_22 
REMARK   10  A    between atoms: N6_22  and  C11_24 
REMARK   11  A    between atoms: C13_34  and  C14_35 
REMARK   12  A    between atoms: C14_35  and  O4_37 
REMARK   13  A    between atoms: C16_39  and  N11_40 
REMARK   14  A    between atoms: C17_45  and  N13_46 
REMARK   15  A    between atoms: N13_46  and  N14_48 
REMARK   16  A    between atoms: N14_48  and  S1_50 
REMARK   17  A    between atoms: S1_50  and  N15_51 
ROOT
HETATM    1  C7  UNL     1      -2.952  -8.037 -24.044  1.00  0.00     0.261 C 
ENDROOT
BRANCH   1   2
HETATM    2  C6  UNL     1      -3.595  -7.592 -22.810  1.00  0.00     0.175 A 
HETATM    3  N3  UNL     1      -4.957  -7.473 -22.853  1.00  0.00    -0.323 N 
HETATM    4  C5  UNL     1      -5.716  -7.185 -21.773  1.00  0.00     0.134 A 
ATOM      5  H3  UNL     1      -5.425  -7.609 -23.749  1.00  0.00     0.169 HD
HETATM    6  C19 UNL     1      -5.064  -7.006 -20.582  1.00  0.00     0.135 A 
HETATM    7  C17 UNL     1      -3.688  -7.116 -20.478  1.00  0.00     0.152 A 
HETATM    8  N16 UNL     1      -5.809  -6.682 -19.422  1.00  0.00    -0.094 NA
HETATM    9  N12 UNL     1      -3.003  -7.407 -21.623  1.00  0.00    -0.321 N 
ATOM     10  H12 UNL     1      -1.987  -7.489 -21.570  1.00  0.00     0.169 HD
BRANCH   4  11
HETATM   11  N2  UNL     1      -7.136  -7.075 -21.872  1.00  0.00    -0.356 N 
HETATM   12  C4  UNL     1      -7.930  -8.243 -21.913  1.00  0.00     0.169 C 
HETATM   13  C3  UNL     1      -9.399  -8.037 -22.042  1.00  0.00     0.083 C 
HETATM   14  N1  UNL     1      -9.842  -6.714 -21.998  1.00  0.00    -0.371 N 
HETATM   15  C21 UNL     1      -9.043  -5.702 -22.549  1.00  0.00     0.083 C 
HETATM   16  C20 UNL     1      -7.649  -5.737 -21.939  1.00  0.00     0.169 C 
BRANCH  14  17
HETATM   17  C2  UNL     1     -11.215  -6.453 -21.999  1.00  0.00     0.122 C 
HETATM   18  C1  UNL     1     -12.012  -7.641 -22.554  1.00  0.00     0.027 C 
ENDBRANCH  14  17
ENDBRANCH   4  11
BRANCH   7  19
HETATM   19  N13 UNL     1      -3.029  -7.022 -19.197  1.00  0.00    -0.269 N 
HETATM   20  C18 UNL     1      -2.975  -8.187 -18.376  1.00  0.00     0.180 C 
BRANCH  19  21
HETATM   21  N14 UNL     1      -2.522  -5.802 -18.833  1.00  0.00    -0.207 N 
ATOM     22  H14 UNL     1      -3.085  -5.123 -18.319  1.00  0.00     0.202 HD
BRANCH  21  23
HETATM   23  S1  UNL     1      -0.906  -5.468 -19.279  1.00  0.00     0.330 S 
HETATM   24  O7  UNL     1      -0.029  -6.574 -18.640  1.00  0.00    -0.181 OA
HETATM   25  O8  UNL     1      -0.631  -5.598 -20.742  1.00  0.00    -0.181 OA
BRANCH  23  26
HETATM   26  N15 UNL     1      -0.299  -4.000 -18.624  1.00  0.00    -0.310 N 
ATOM     27 2H15 UNL     1      -0.787  -3.111 -18.736  1.00  0.00     0.170 HD
ATOM     28 1H15 UNL     1       0.582  -4.109 -18.121  1.00  0.00     0.170 HD
ENDBRANCH  23  26
ENDBRANCH  21  23
ENDBRANCH  19  21
ENDBRANCH   7  19
ENDBRANCH   1   2
BRANCH   1  29
HETATM   29  O1  UNL     1      -1.916  -8.816 -23.748  1.00  0.00    -0.333 OA
ATOM     30  H1  UNL     1      -2.030  -9.664 -24.160  1.00  0.00     0.220 HD
ENDBRANCH   1  29
BRANCH   1  31
HETATM   31  N4  UNL     1      -3.267  -7.757 -25.290  1.00  0.00    -0.356 NA
BRANCH  31  32
HETATM   32  C8  UNL     1      -3.595  -7.465 -26.585  1.00  0.00     0.216 A 
HETATM   33  N5  UNL     1      -2.702  -7.110 -27.562  1.00  0.00    -0.329 N 
HETATM   34  C9  UNL     1      -3.017  -6.827 -28.827  1.00  0.00     0.062 A 
ATOM     35  H5  UNL     1      -1.718  -7.057 -27.301  1.00  0.00     0.168 HD
HETATM   36  C12 UNL     1      -4.325  -6.887 -29.219  1.00  0.00     0.050 A 
HETATM   37  C13 UNL     1      -5.333  -7.240 -28.306  1.00  0.00     0.079 A 
HETATM   38  C16 UNL     1      -4.930  -7.512 -27.037  1.00  0.00     0.177 A 
BRANCH  34  39
HETATM   39  C10 UNL     1      -1.938  -6.452 -29.808  1.00  0.00     0.285 C 
BRANCH  39  40
HETATM   40  O2  UNL     1      -1.537  -7.599 -30.525  1.00  0.00    -0.370 OA
ATOM     41  H2  UNL     1      -0.928  -8.103 -29.998  1.00  0.00     0.212 HD
ENDBRANCH  39  40
BRANCH  39  42
HETATM   42  N6  UNL     1      -2.508  -5.543 -30.756  1.00  0.00    -0.191 N 
ATOM     43  H6  UNL     1      -3.526  -5.495 -30.789  1.00  0.00     0.180 HD
BRANCH  42  44
HETATM   44  C11 UNL     1      -1.870  -4.787 -31.562  1.00  0.00     0.712 A 
HETATM   45  N7  UNL     1      -2.443  -4.108 -32.593  1.00  0.00    -0.115 N 
HETATM   46  N8  UNL     1      -1.517  -3.431 -33.215  1.00  0.00    -0.213 N 
ATOM     47  H7  UNL     1      -3.433  -4.125 -32.838  1.00  0.00     0.207 HD
HETATM   48  N9  UNL     1      -0.377  -3.655 -32.617  1.00  0.00    -0.213 N 
ATOM     49  H8  UNL     1      -1.657  -2.831 -34.027  1.00  0.00     0.210 HD
HETATM   50  N10 UNL     1      -0.568  -4.478 -31.607  1.00  0.00    -0.115 N 
ATOM     51  H9  UNL     1       0.520  -3.255 -32.889  1.00  0.00     0.210 HD
ATOM     52  H10 UNL     1       0.151  -4.819 -30.969  1.00  0.00     0.207 HD
ENDBRANCH  42  44
ENDBRANCH  39  42
ENDBRANCH  34  39
BRANCH  37  53
HETATM   53  C14 UNL     1      -6.707  -7.319 -28.748  1.00  0.00     0.295 C 
HETATM   54  O3  UNL     1      -7.298  -8.343 -29.101  1.00  0.00    -0.259 OA
BRANCH  53  55
HETATM   55  O4  UNL     1      -7.466  -6.130 -28.791  1.00  0.00    -0.322 OA
HETATM   56  C15 UNL     1      -8.607  -5.921 -27.990  1.00  0.00     0.213 C 
ENDBRANCH  53  55
ENDBRANCH  37  53
BRANCH  38  57
HETATM   57  N11 UNL     1      -5.890  -7.887 -26.082  1.00  0.00    -0.110 N 
HETATM   58  O5  UNL     1      -6.444  -6.986 -25.380  1.00  0.00    -0.532 OA
HETATM   59  O6  UNL     1      -6.282  -9.155 -25.834  1.00  0.00    -0.532 OA
ENDBRANCH  38  57
ENDBRANCH  31  32
ENDBRANCH   1  31
TORSDOF 17
ENDMDL
