MODEL 1
REMARK VINA RESULT: -7.866418662      0.000      0.000
REMARK  6 active torsions:
REMARK  status: ('A' for Active; 'I' for Inactive)
REMARK    1  A    between atoms: C2_2  and  C5_5 
REMARK    2  A    between atoms: C7_7  and  C8_8 
REMARK    3  A    between atoms: N1_9  and  C9_11 
REMARK    4  A    between atoms: C13_17  and  S1_18 
REMARK    5  A    between atoms: S1_18  and  O1_19 
REMARK    6  A    between atoms: C14_21  and  O2_22 
ROOT
HETATM    1  C5  UNL     1       9.779 -26.001  15.041  1.00  0.00    -0.015 A 
HETATM    2  C6  UNL     1       8.979 -25.796  16.140  1.00  0.00     0.023 A 
HETATM    3  C7  UNL     1       8.145 -26.764  16.644  1.00  0.00    -0.019 A 
HETATM    4  C12 UNL     1       8.153 -27.988  15.973  1.00  0.00     0.036 A 
HETATM    5  C13 UNL     1       8.935 -28.239  14.873  1.00  0.00     0.062 A 
HETATM    6  C14 UNL     1       9.758 -27.241  14.396  1.00  0.00     0.091 A 
ENDROOT
BRANCH   3   7
HETATM    7  C8  UNL     1       7.292 -26.551  17.812  1.00  0.00     0.095 C 
HETATM    8  N1  UNL     1       6.980 -27.505  18.616  1.00  0.00    -0.387 N 
ATOM      9  H1  UNL     1       7.333 -28.448  18.445  1.00  0.00     0.159 HD
BRANCH   8  10
HETATM   10  C9  UNL     1       6.136 -27.253  19.757  1.00  0.00     0.159 A 
HETATM   11  C10 UNL     1       5.270 -28.292  20.329  1.00  0.00     0.112 A 
HETATM   12  C11 UNL     1       6.543 -27.959  21.051  1.00  0.00     0.265 A 
HETATM   13  F1  UNL     1       6.525 -27.141  22.155  1.00  0.00    -0.204 F 
HETATM   14  F2  UNL     1       7.532 -28.933  20.952  1.00  0.00    -0.204 F 
ENDBRANCH   8  10
ENDBRANCH   3   7
BRANCH   1  15
HETATM   15  C2  UNL     1      10.679 -24.977  14.484  1.00  0.00    -0.021 C 
HETATM   16  C1  UNL     1      10.814 -25.051  12.998  1.00  0.00     0.019 C 
HETATM   17  C3  UNL     1      10.159 -23.572  14.812  1.00  0.00     0.019 C 
HETATM   18  C4  UNL     1      12.062 -25.080  15.090  1.00  0.00     0.019 C 
ENDBRANCH   1  15
BRANCH   5  19
HETATM   19  S1  UNL     1       8.854 -29.851  14.100  1.00  0.00     0.028 SA
BRANCH  19  20
HETATM   20  O1  UNL     1       7.426 -30.064  13.199  1.00  0.00    -0.325 OA
ATOM     21  H1  UNL     1       7.465 -30.830  12.639  1.00  0.00     0.228 HD
ENDBRANCH  19  20
ENDBRANCH   5  19
BRANCH   6  22
HETATM   22  O2  UNL     1      10.549 -27.487  13.287  1.00  0.00    -0.359 OA
ATOM     23  H2  UNL     1      10.186 -27.466  12.410  1.00  0.00     0.217 HD
ENDBRANCH   6  22
TORSDOF 6
ENDMDL
MODEL 2
REMARK VINA RESULT: -7.204140650      4.378      7.016
REMARK  6 active torsions:
REMARK  status: ('A' for Active; 'I' for Inactive)
REMARK    1  A    between atoms: C2_2  and  C5_5 
REMARK    2  A    between atoms: C7_7  and  C8_8 
REMARK    3  A    between atoms: N1_9  and  C9_11 
REMARK    4  A    between atoms: C13_17  and  S1_18 
REMARK    5  A    between atoms: S1_18  and  O1_19 
REMARK    6  A    between atoms: C14_21  and  O2_22 
ROOT
HETATM    1  C5  UNL     1       7.583 -28.673  18.388  1.00  0.00    -0.015 A 
HETATM    2  C6  UNL     1       8.605 -28.506  17.483  1.00  0.00     0.023 A 
HETATM    3  C7  UNL     1       8.619 -27.496  16.554  1.00  0.00    -0.019 A 
HETATM    4  C12 UNL     1       7.524 -26.630  16.576  1.00  0.00     0.036 A 
HETATM    5  C13 UNL     1       6.481 -26.756  17.460  1.00  0.00     0.062 A 
HETATM    6  C14 UNL     1       6.503 -27.785  18.378  1.00  0.00     0.091 A 
ENDROOT
BRANCH   3   7
HETATM    7  C8  UNL     1       9.702 -27.314  15.589  1.00  0.00     0.095 C 
HETATM    8  N1  UNL     1      10.120 -26.149  15.239  1.00  0.00    -0.387 N 
ATOM      9  H1  UNL     1       9.690 -25.315  15.639  1.00  0.00     0.159 HD
BRANCH   8  10
HETATM   10  C9  UNL     1      11.192 -26.014  14.285  1.00  0.00     0.159 A 
HETATM   11  C10 UNL     1      10.948 -25.619  12.892  1.00  0.00     0.112 A 
HETATM   12  C11 UNL     1      11.499 -24.586  13.831  1.00  0.00     0.265 A 
HETATM   13  F1  UNL     1      12.840 -24.284  13.828  1.00  0.00    -0.204 F 
HETATM   14  F2  UNL     1      10.589 -23.600  14.200  1.00  0.00    -0.204 F 
ENDBRANCH   8  10
ENDBRANCH   3   7
BRANCH   1  15
HETATM   15  C2  UNL     1       7.548 -29.751  19.391  1.00  0.00    -0.021 C 
HETATM   16  C1  UNL     1       6.327 -30.606  19.301  1.00  0.00     0.019 C 
HETATM   17  C3  UNL     1       8.755 -30.681  19.219  1.00  0.00     0.019 C 
HETATM   18  C4  UNL     1       7.630 -29.189  20.795  1.00  0.00     0.019 C 
ENDBRANCH   1  15
BRANCH   5  19
HETATM   19  S1  UNL     1       5.133 -25.581  17.387  1.00  0.00     0.028 SA
BRANCH  19  20
HETATM   20  O1  UNL     1       3.836 -26.145  16.441  1.00  0.00    -0.325 OA
ATOM     21  H1  UNL     1       3.007 -25.763  16.703  1.00  0.00     0.228 HD
ENDBRANCH  19  20
ENDBRANCH   5  19
BRANCH   6  22
HETATM   22  O2  UNL     1       5.456 -27.918  19.272  1.00  0.00    -0.359 OA
ATOM     23  H2  UNL     1       4.944 -27.167  19.547  1.00  0.00     0.217 HD
ENDBRANCH   6  22
TORSDOF 6
ENDMDL
MODEL 3
REMARK VINA RESULT: -7.075517886      4.072      6.944
REMARK  6 active torsions:
REMARK  status: ('A' for Active; 'I' for Inactive)
REMARK    1  A    between atoms: C2_2  and  C5_5 
REMARK    2  A    between atoms: C7_7  and  C8_8 
REMARK    3  A    between atoms: N1_9  and  C9_11 
REMARK    4  A    between atoms: C13_17  and  S1_18 
REMARK    5  A    between atoms: S1_18  and  O1_19 
REMARK    6  A    between atoms: C14_21  and  O2_22 
ROOT
HETATM    1  C5  UNL     1       6.522 -26.178  20.573  1.00  0.00    -0.015 A 
HETATM    2  C6  UNL     1       7.142 -25.699  19.443  1.00  0.00     0.023 A 
HETATM    3  C7  UNL     1       7.156 -26.385  18.254  1.00  0.00    -0.019 A 
HETATM    4  C12 UNL     1       6.495 -27.614  18.250  1.00  0.00     0.036 A 
HETATM    5  C13 UNL     1       5.861 -28.133  19.353  1.00  0.00     0.062 A 
HETATM    6  C14 UNL     1       5.871 -27.414  20.529  1.00  0.00     0.091 A 
ENDROOT
BRANCH   3   7
HETATM    7  C8  UNL     1       7.814 -25.881  17.049  1.00  0.00     0.095 C 
HETATM    8  N1  UNL     1       8.559 -26.626  16.312  1.00  0.00    -0.387 N 
ATOM      9  H1  UNL     1       8.705 -27.605  16.564  1.00  0.00     0.159 HD
BRANCH   8  10
HETATM   10  C9  UNL     1       9.189 -26.090  15.133  1.00  0.00     0.159 A 
HETATM   11  C10 UNL     1      10.184 -25.013  15.203  1.00  0.00     0.112 A 
HETATM   12  C11 UNL     1      10.676 -26.411  14.971  1.00  0.00     0.265 A 
HETATM   13  F1  UNL     1      11.016 -26.831  13.708  1.00  0.00    -0.204 F 
HETATM   14  F2  UNL     1      11.318 -26.985  16.065  1.00  0.00    -0.204 F 
ENDBRANCH   8  10
ENDBRANCH   3   7
BRANCH   1  15
HETATM   15  C2  UNL     1       6.498 -25.458  21.858  1.00  0.00    -0.021 C 
HETATM   16  C1  UNL     1       6.651 -26.355  23.043  1.00  0.00     0.019 C 
HETATM   17  C3  UNL     1       7.642 -24.439  21.922  1.00  0.00     0.019 C 
HETATM   18  C4  UNL     1       5.211 -24.678  22.019  1.00  0.00     0.019 C 
ENDBRANCH   1  15
BRANCH   5  19
HETATM   19  S1  UNL     1       5.048 -29.722  19.220  1.00  0.00     0.028 SA
BRANCH  19  20
HETATM   20  O1  UNL     1       3.758 -29.696  18.112  1.00  0.00    -0.325 OA
ATOM     21  H1  UNL     1       3.925 -30.240  17.351  1.00  0.00     0.228 HD
ENDBRANCH  19  20
ENDBRANCH   5  19
BRANCH   6  22
HETATM   22  O2  UNL     1       5.234 -27.930  21.644  1.00  0.00    -0.359 OA
ATOM     23  H2  UNL     1       4.534 -27.455  22.074  1.00  0.00     0.217 HD
ENDBRANCH   6  22
TORSDOF 6
ENDMDL
MODEL 4
REMARK VINA RESULT: -7.028178383      2.451      3.853
REMARK  6 active torsions:
REMARK  status: ('A' for Active; 'I' for Inactive)
REMARK    1  A    between atoms: C2_2  and  C5_5 
REMARK    2  A    between atoms: C7_7  and  C8_8 
REMARK    3  A    between atoms: N1_9  and  C9_11 
REMARK    4  A    between atoms: C13_17  and  S1_18 
REMARK    5  A    between atoms: S1_18  and  O1_19 
REMARK    6  A    between atoms: C14_21  and  O2_22 
ROOT
HETATM    1  C5  UNL     1       8.754 -28.105  15.592  1.00  0.00    -0.015 A 
HETATM    2  C6  UNL     1       7.983 -27.630  16.626  1.00  0.00     0.023 A 
HETATM    3  C7  UNL     1       7.965 -26.308  16.995  1.00  0.00    -0.019 A 
HETATM    4  C12 UNL     1       8.784 -25.455  16.253  1.00  0.00     0.036 A 
HETATM    5  C13 UNL     1       9.570 -25.883  15.212  1.00  0.00     0.062 A 
HETATM    6  C14 UNL     1       9.561 -27.219  14.872  1.00  0.00     0.091 A 
ENDROOT
BRANCH   3   7
HETATM    7  C8  UNL     1       7.147 -25.797  18.094  1.00  0.00     0.095 C 
HETATM    8  N1  UNL     1       7.341 -26.151  19.315  1.00  0.00    -0.387 N 
ATOM      9  H1  UNL     1       8.088 -26.811  19.539  1.00  0.00     0.159 HD
BRANCH   8  10
HETATM   10  C9  UNL     1       6.512 -25.625  20.370  1.00  0.00     0.159 A 
HETATM   11  C10 UNL     1       6.692 -26.019  21.772  1.00  0.00     0.112 A 
HETATM   12  C11 UNL     1       7.206 -24.675  21.347  1.00  0.00     0.265 A 
HETATM   13  F1  UNL     1       6.486 -23.536  21.616  1.00  0.00    -0.204 F 
HETATM   14  F2  UNL     1       8.593 -24.589  21.263  1.00  0.00    -0.204 F 
ENDBRANCH   8  10
ENDBRANCH   3   7
BRANCH   1  15
HETATM   15  C2  UNL     1       8.787 -29.519  15.181  1.00  0.00    -0.021 C 
HETATM   16  C1  UNL     1      10.150 -30.127  15.258  1.00  0.00     0.019 C 
HETATM   17  C3  UNL     1       7.875 -30.360  16.083  1.00  0.00     0.019 C 
HETATM   18  C4  UNL     1       8.274 -29.687  13.766  1.00  0.00     0.019 C 
ENDBRANCH   1  15
BRANCH   5  19
HETATM   19  S1  UNL     1      10.578 -24.690  14.338  1.00  0.00     0.028 SA
BRANCH  19  20
HETATM   20  O1  UNL     1      10.981 -25.213  12.769  1.00  0.00    -0.325 OA
ATOM     21  H1  UNL     1      11.758 -25.760  12.760  1.00  0.00     0.228 HD
ENDBRANCH  19  20
ENDBRANCH   5  19
BRANCH   6  22
HETATM   22  O2  UNL     1      10.351 -27.658  13.824  1.00  0.00    -0.359 OA
ATOM     23  H2  UNL     1      10.152 -27.423  12.926  1.00  0.00     0.217 HD
ENDBRANCH   6  22
TORSDOF 6
ENDMDL
MODEL 5
REMARK VINA RESULT: -7.001213897      4.287      6.889
REMARK  6 active torsions:
REMARK  status: ('A' for Active; 'I' for Inactive)
REMARK    1  A    between atoms: C2_2  and  C5_5 
REMARK    2  A    between atoms: C7_7  and  C8_8 
REMARK    3  A    between atoms: N1_9  and  C9_11 
REMARK    4  A    between atoms: C13_17  and  S1_18 
REMARK    5  A    between atoms: S1_18  and  O1_19 
REMARK    6  A    between atoms: C14_21  and  O2_22 
ROOT
HETATM    1  C5  UNL     1       6.799 -26.901  20.038  1.00  0.00    -0.015 A 
HETATM    2  C6  UNL     1       7.748 -26.953  19.044  1.00  0.00     0.023 A 
HETATM    3  C7  UNL     1       7.764 -27.930  18.080  1.00  0.00    -0.019 A 
HETATM    4  C12 UNL     1       6.749 -28.884  18.159  1.00  0.00     0.036 A 
HETATM    5  C13 UNL     1       5.780 -28.873  19.132  1.00  0.00     0.062 A 
HETATM    6  C14 UNL     1       5.798 -27.876  20.084  1.00  0.00     0.091 A 
ENDROOT
BRANCH   3   7
HETATM    7  C8  UNL     1       8.771 -27.989  17.021  1.00  0.00     0.095 C 
HETATM    8  N1  UNL     1       9.207 -26.934  16.430  1.00  0.00    -0.387 N 
ATOM      9  H1  UNL     1       8.847 -26.017  16.698  1.00  0.00     0.159 HD
BRANCH   8  10
HETATM   10  C9  UNL     1      10.201 -27.036  15.391  1.00  0.00     0.159 A 
HETATM   11  C10 UNL     1       9.849 -26.966  13.967  1.00  0.00     0.112 A 
HETATM   12  C11 UNL     1      10.468 -25.754  14.601  1.00  0.00     0.265 A 
HETATM   13  F1  UNL     1      11.804 -25.481  14.426  1.00  0.00    -0.204 F 
HETATM   14  F2  UNL     1       9.587 -24.696  14.802  1.00  0.00    -0.204 F 
ENDBRANCH   8  10
ENDBRANCH   3   7
BRANCH   1  15
HETATM   15  C2  UNL     1       6.766 -25.863  21.082  1.00  0.00    -0.021 C 
HETATM   16  C1  UNL     1       6.572 -26.412  22.458  1.00  0.00     0.019 C 
HETATM   17  C3  UNL     1       8.084 -25.079  21.100  1.00  0.00     0.019 C 
HETATM   18  C4  UNL     1       5.666 -24.858  20.814  1.00  0.00     0.019 C 
ENDBRANCH   1  15
BRANCH   5  19
HETATM   19  S1  UNL     1       4.530 -30.155  19.127  1.00  0.00     0.028 SA
BRANCH  19  20
HETATM   20  O1  UNL     1       3.059 -29.624  19.797  1.00  0.00    -0.325 OA
ATOM     21  H1  UNL     1       2.423 -30.326  19.869  1.00  0.00     0.228 HD
ENDBRANCH  19  20
ENDBRANCH   5  19
BRANCH   6  22
HETATM   22  O2  UNL     1       4.825 -27.859  21.067  1.00  0.00    -0.359 OA
ATOM     23  H2  UNL     1       4.212 -27.138  21.140  1.00  0.00     0.217 HD
ENDBRANCH   6  22
TORSDOF 6
ENDMDL
