MODEL 1
REMARK VINA RESULT: -8.056911154      0.000      0.000
REMARK  8 active torsions:
REMARK  status: ('A' for Active; 'I' for Inactive)
REMARK    1  A    between atoms: O1_2  and  C2_3 
REMARK    2  A    between atoms: C2_3  and  C3_5 
REMARK    3  A    between atoms: C3_5  and  C4_6 
REMARK    4  A    between atoms: C4_6  and  O3_7 
REMARK    5  A    between atoms: C4_6  and  C5_9 
REMARK    6  A    between atoms: C7_11  and  C8_12 
REMARK    7  A    between atoms: C9_13  and  C10_14 
REMARK    8  A    between atoms: C10_14  and  O4_15 
ROOT
HETATM    1  C10 UNL     1       6.853  19.380 -45.265  1.00  0.00     0.128 C 
HETATM    2  C11 UNL     1       7.206  19.563 -43.828  1.00  0.00     0.053 C 
HETATM    3  C12 UNL     1       6.584  20.823 -43.184  1.00  0.00     0.013 C 
HETATM    4  C13 UNL     1       5.197  20.743 -43.647  1.00  0.00    -0.039 C 
HETATM    5  C14 UNL     1       3.961  21.252 -43.101  1.00  0.00     0.014 C 
HETATM    6  C15 UNL     1       3.354  19.891 -43.468  1.00  0.00    -0.013 C 
HETATM    7  C16 UNL     1       3.150  19.597 -44.889  1.00  0.00     0.005 C 
HETATM    8  C17 UNL     1       4.333  18.892 -45.605  1.00  0.00     0.013 C 
HETATM    9  C18 UNL     1       5.529  19.722 -45.769  1.00  0.00    -0.001 C 
HETATM   10  C19 UNL     1       5.685  20.139 -47.256  1.00  0.00     0.019 C 
HETATM   11  C20 UNL     1       5.191  21.050 -45.082  1.00  0.00     0.022 C 
HETATM   12  C21 UNL     1       4.731  19.416 -43.139  1.00  0.00     0.014 C 
ENDROOT
BRANCH   1  13
HETATM   13  C9  UNL     1       7.323  18.045 -45.661  1.00  0.00    -0.067 C 
HETATM   14  C8  UNL     1       7.686  16.935 -45.979  1.00  0.00    -0.098 C 
BRANCH  14  15
HETATM   15  C7  UNL     1       8.100  15.564 -46.371  1.00  0.00     0.072 A 
HETATM   16  C5  UNL     1       7.201  14.905 -47.310  1.00  0.00     0.032 A 
HETATM   17  C6  UNL     1       8.490  15.449 -47.855  1.00  0.00     0.026 A 
BRANCH  16  18
HETATM   18  C4  UNL     1       7.098  13.399 -47.322  1.00  0.00     0.132 C 
BRANCH  18  19
HETATM   19  C3  UNL     1       5.690  12.878 -47.256  1.00  0.00     0.143 C 
BRANCH  19  20
HETATM   20  C2  UNL     1       5.159  13.172 -45.869  1.00  0.00     0.260 C 
HETATM   21  O2  UNL     1       3.929  13.193 -45.631  1.00  0.00    -0.265 OA
BRANCH  20  22
HETATM   22  O1  UNL     1       6.061  13.426 -44.843  1.00  0.00    -0.326 OA
HETATM   23  C1  UNL     1       5.702  14.359 -43.843  1.00  0.00     0.213 C 
ENDBRANCH  20  22
ENDBRANCH  19  20
ENDBRANCH  18  19
BRANCH  18  24
HETATM   24  O3  UNL     1       7.619  12.933 -48.545  1.00  0.00    -0.395 OA
ATOM     25  H3  UNL     1       7.886  13.710 -49.024  1.00  0.00     0.210 HD
ENDBRANCH  18  24
ENDBRANCH  16  18
ENDBRANCH  14  15
ENDBRANCH   1  13
BRANCH   1  26
HETATM   26  O4  UNL     1       7.750  20.279 -45.933  1.00  0.00    -0.377 OA
ATOM     27  H4  UNL     1       7.782  21.040 -45.365  1.00  0.00     0.211 HD
ENDBRANCH   1  26
TORSDOF 8
ENDMDL
MODEL 2
REMARK VINA RESULT: -7.873613609      3.673      6.139
REMARK  8 active torsions:
REMARK  status: ('A' for Active; 'I' for Inactive)
REMARK    1  A    between atoms: O1_2  and  C2_3 
REMARK    2  A    between atoms: C2_3  and  C3_5 
REMARK    3  A    between atoms: C3_5  and  C4_6 
REMARK    4  A    between atoms: C4_6  and  O3_7 
REMARK    5  A    between atoms: C4_6  and  C5_9 
REMARK    6  A    between atoms: C7_11  and  C8_12 
REMARK    7  A    between atoms: C9_13  and  C10_14 
REMARK    8  A    between atoms: C10_14  and  O4_15 
ROOT
HETATM    1  C10 UNL     1       9.044  17.832 -48.971  1.00  0.00     0.128 C 
HETATM    2  C11 UNL     1      10.061  16.819 -49.374  1.00  0.00     0.053 C 
HETATM    3  C12 UNL     1      11.051  17.318 -50.452  1.00  0.00     0.013 C 
HETATM    4  C13 UNL     1      11.420  18.637 -49.934  1.00  0.00    -0.039 C 
HETATM    5  C14 UNL     1      12.597  19.454 -50.111  1.00  0.00     0.014 C 
HETATM    6  C15 UNL     1      12.503  19.740 -48.606  1.00  0.00    -0.013 C 
HETATM    7  C16 UNL     1      11.408  20.594 -48.142  1.00  0.00     0.005 C 
HETATM    8  C17 UNL     1      10.100  19.856 -47.749  1.00  0.00     0.013 C 
HETATM    9  C18 UNL     1       9.382  19.247 -48.871  1.00  0.00    -0.001 C 
HETATM   10  C19 UNL     1       8.097  20.060 -49.183  1.00  0.00     0.019 C 
HETATM   11  C20 UNL     1      10.257  19.517 -50.099  1.00  0.00     0.022 C 
HETATM   12  C21 UNL     1      11.979  18.341 -48.579  1.00  0.00     0.014 C 
ENDROOT
BRANCH   1  13
HETATM   13  C9  UNL     1       8.337  17.296 -47.800  1.00  0.00    -0.067 C 
HETATM   14  C8  UNL     1       7.732  16.857 -46.848  1.00  0.00    -0.098 C 
BRANCH  14  15
HETATM   15  C7  UNL     1       6.963  16.313 -45.700  1.00  0.00     0.072 A 
HETATM   16  C5  UNL     1       5.607  15.892 -46.024  1.00  0.00     0.032 A 
HETATM   17  C6  UNL     1       6.638  14.816 -45.843  1.00  0.00     0.026 A 
BRANCH  16  18
HETATM   18  C4  UNL     1       4.535  15.923 -44.962  1.00  0.00     0.132 C 
BRANCH  18  19
HETATM   19  C3  UNL     1       4.253  14.589 -44.331  1.00  0.00     0.143 C 
BRANCH  19  20
HETATM   20  C2  UNL     1       2.844  14.634 -43.777  1.00  0.00     0.260 C 
HETATM   21  O2  UNL     1       2.513  15.468 -42.903  1.00  0.00    -0.265 OA
BRANCH  20  22
HETATM   22  O1  UNL     1       1.906  13.725 -44.251  1.00  0.00    -0.326 OA
HETATM   23  C1  UNL     1       2.295  12.819 -45.265  1.00  0.00     0.213 C 
ENDBRANCH  20  22
ENDBRANCH  19  20
ENDBRANCH  18  19
BRANCH  18  24
HETATM   24  O3  UNL     1       4.979  16.753 -43.913  1.00  0.00    -0.395 OA
ATOM     25  H3  UNL     1       5.881  16.971 -44.123  1.00  0.00     0.210 HD
ENDBRANCH  18  24
ENDBRANCH  16  18
ENDBRANCH  14  15
ENDBRANCH   1  13
BRANCH   1  26
HETATM   26  O4  UNL     1       8.077  17.754 -50.029  1.00  0.00    -0.377 OA
ATOM     27  H4  UNL     1       8.070  18.627 -50.403  1.00  0.00     0.211 HD
ENDBRANCH   1  26
TORSDOF 8
ENDMDL
MODEL 3
REMARK VINA RESULT: -7.751985120      3.204      4.995
REMARK  8 active torsions:
REMARK  status: ('A' for Active; 'I' for Inactive)
REMARK    1  A    between atoms: O1_2  and  C2_3 
REMARK    2  A    between atoms: C2_3  and  C3_5 
REMARK    3  A    between atoms: C3_5  and  C4_6 
REMARK    4  A    between atoms: C4_6  and  O3_7 
REMARK    5  A    between atoms: C4_6  and  C5_9 
REMARK    6  A    between atoms: C7_11  and  C8_12 
REMARK    7  A    between atoms: C9_13  and  C10_14 
REMARK    8  A    between atoms: C10_14  and  O4_15 
ROOT
HETATM    1  C10 UNL     1       5.127  19.753 -44.846  1.00  0.00     0.128 C 
HETATM    2  C11 UNL     1       4.713  19.767 -46.279  1.00  0.00     0.053 C 
HETATM    3  C12 UNL     1       5.507  20.766 -47.152  1.00  0.00     0.013 C 
HETATM    4  C13 UNL     1       6.885  20.498 -46.737  1.00  0.00    -0.039 C 
HETATM    5  C14 UNL     1       8.151  20.669 -47.409  1.00  0.00     0.014 C 
HETATM    6  C15 UNL     1       8.526  19.294 -46.839  1.00  0.00    -0.013 C 
HETATM    7  C16 UNL     1       8.773  19.198 -45.398  1.00  0.00     0.005 C 
HETATM    8  C17 UNL     1       7.534  18.855 -44.526  1.00  0.00     0.013 C 
HETATM    9  C18 UNL     1       6.524  19.913 -44.460  1.00  0.00    -0.001 C 
HETATM   10  C19 UNL     1       6.550  20.585 -43.061  1.00  0.00     0.019 C 
HETATM   11  C20 UNL     1       7.047  21.024 -45.376  1.00  0.00     0.022 C 
HETATM   12  C21 UNL     1       7.066  19.043 -47.028  1.00  0.00     0.014 C 
ENDROOT
BRANCH   1  13
HETATM   13  C9  UNL     1       4.452  18.613 -44.211  1.00  0.00    -0.067 C 
HETATM   14  C8  UNL     1       3.890  17.663 -43.712  1.00  0.00    -0.098 C 
BRANCH  14  15
HETATM   15  C7  UNL     1       3.207  16.482 -43.129  1.00  0.00     0.072 A 
HETATM   16  C5  UNL     1       3.076  15.349 -44.035  1.00  0.00     0.032 A 
HETATM   17  C6  UNL     1       4.132  15.262 -42.972  1.00  0.00     0.026 A 
BRANCH  16  18
HETATM   18  C4  UNL     1       1.932  14.379 -43.867  1.00  0.00     0.132 C 
BRANCH  18  19
HETATM   19  C3  UNL     1       2.059  13.127 -44.689  1.00  0.00     0.143 C 
BRANCH  19  20
HETATM   20  C2  UNL     1       0.699  12.462 -44.721  1.00  0.00     0.260 C 
HETATM   21  O2  UNL     1      -0.226  12.828 -43.959  1.00  0.00    -0.265 OA
BRANCH  20  22
HETATM   22  O1  UNL     1       0.480  11.420 -45.615  1.00  0.00    -0.326 OA
HETATM   23  C1  UNL     1      -0.794  11.301 -46.215  1.00  0.00     0.213 C 
ENDBRANCH  20  22
ENDBRANCH  19  20
ENDBRANCH  18  19
BRANCH  18  24
HETATM   24  O3  UNL     1       1.911  13.952 -42.525  1.00  0.00    -0.395 OA
ATOM     25  H3  UNL     1       2.215  14.694 -42.015  1.00  0.00     0.210 HD
ENDBRANCH  18  24
ENDBRANCH  16  18
ENDBRANCH  14  15
ENDBRANCH   1  13
BRANCH   1  26
HETATM   26  O4  UNL     1       4.457  20.902 -44.307  1.00  0.00    -0.377 OA
ATOM     27  H4  UNL     1       5.070  21.252 -43.672  1.00  0.00     0.211 HD
ENDBRANCH   1  26
TORSDOF 8
ENDMDL
MODEL 4
REMARK VINA RESULT: -7.599354647      3.128      4.415
REMARK  8 active torsions:
REMARK  status: ('A' for Active; 'I' for Inactive)
REMARK    1  A    between atoms: O1_2  and  C2_3 
REMARK    2  A    between atoms: C2_3  and  C3_5 
REMARK    3  A    between atoms: C3_5  and  C4_6 
REMARK    4  A    between atoms: C4_6  and  O3_7 
REMARK    5  A    between atoms: C4_6  and  C5_9 
REMARK    6  A    between atoms: C7_11  and  C8_12 
REMARK    7  A    between atoms: C9_13  and  C10_14 
REMARK    8  A    between atoms: C10_14  and  O4_15 
ROOT
HETATM    1  C10 UNL     1       5.910  19.777 -43.640  1.00  0.00     0.128 C 
HETATM    2  C11 UNL     1       5.000  20.926 -43.362  1.00  0.00     0.053 C 
HETATM    3  C12 UNL     1       5.523  22.283 -43.886  1.00  0.00     0.013 C 
HETATM    4  C13 UNL     1       5.955  21.935 -45.242  1.00  0.00    -0.039 C 
HETATM    5  C14 UNL     1       6.087  22.716 -46.448  1.00  0.00     0.014 C 
HETATM    6  C15 UNL     1       5.449  21.523 -47.172  1.00  0.00    -0.013 C 
HETATM    7  C16 UNL     1       6.251  20.306 -47.316  1.00  0.00     0.005 C 
HETATM    8  C17 UNL     1       6.104  19.267 -46.171  1.00  0.00     0.013 C 
HETATM    9  C18 UNL     1       6.662  19.692 -44.886  1.00  0.00    -0.001 C 
HETATM   10  C19 UNL     1       7.971  18.911 -44.591  1.00  0.00     0.019 C 
HETATM   11  C20 UNL     1       7.169  21.119 -45.122  1.00  0.00     0.022 C 
HETATM   12  C21 UNL     1       4.717  21.389 -45.878  1.00  0.00     0.014 C 
ENDROOT
BRANCH   1  13
HETATM   13  C9  UNL     1       5.180  18.551 -43.291  1.00  0.00    -0.067 C 
HETATM   14  C8  UNL     1       4.576  17.534 -43.030  1.00  0.00    -0.098 C 
BRANCH  14  15
HETATM   15  C7  UNL     1       3.844  16.276 -42.740  1.00  0.00     0.072 A 
HETATM   16  C5  UNL     1       3.482  15.500 -43.919  1.00  0.00     0.032 A 
HETATM   17  C6  UNL     1       4.643  15.012 -43.101  1.00  0.00     0.026 A 
BRANCH  16  18
HETATM   18  C4  UNL     1       2.268  14.604 -43.886  1.00  0.00     0.132 C 
BRANCH  18  19
HETATM   19  C3  UNL     1       2.420  13.331 -44.670  1.00  0.00     0.143 C 
BRANCH  19  20
HETATM   20  C2  UNL     1       1.044  12.714 -44.811  1.00  0.00     0.260 C 
HETATM   21  O2  UNL     1       0.225  12.722 -43.863  1.00  0.00    -0.265 OA
BRANCH  20  22
HETATM   22  O1  UNL     1       0.692  12.125 -46.019  1.00  0.00    -0.326 OA
HETATM   23  C1  UNL     1      -0.578  11.511 -46.126  1.00  0.00     0.213 C 
ENDBRANCH  20  22
ENDBRANCH  19  20
ENDBRANCH  18  19
BRANCH  18  24
HETATM   24  O3  UNL     1       2.052  14.205 -42.552  1.00  0.00    -0.395 OA
ATOM     25  H3  UNL     1       1.237  14.618 -42.290  1.00  0.00     0.210 HD
ENDBRANCH  18  24
ENDBRANCH  16  18
ENDBRANCH  14  15
ENDBRANCH   1  13
BRANCH   1  26
HETATM   26  O4  UNL     1       6.903  19.899 -42.611  1.00  0.00    -0.377 OA
ATOM     27  H4  UNL     1       6.399  19.989 -41.811  1.00  0.00     0.211 HD
ENDBRANCH   1  26
TORSDOF 8
ENDMDL
MODEL 5
REMARK VINA RESULT: -7.578492872      0.928      1.231
REMARK  8 active torsions:
REMARK  status: ('A' for Active; 'I' for Inactive)
REMARK    1  A    between atoms: O1_2  and  C2_3 
REMARK    2  A    between atoms: C2_3  and  C3_5 
REMARK    3  A    between atoms: C3_5  and  C4_6 
REMARK    4  A    between atoms: C4_6  and  O3_7 
REMARK    5  A    between atoms: C4_6  and  C5_9 
REMARK    6  A    between atoms: C7_11  and  C8_12 
REMARK    7  A    between atoms: C9_13  and  C10_14 
REMARK    8  A    between atoms: C10_14  and  O4_15 
ROOT
HETATM    1  C10 UNL     1       6.741  19.630 -46.043  1.00  0.00     0.128 C 
HETATM    2  C11 UNL     1       7.853  20.418 -45.439  1.00  0.00     0.053 C 
HETATM    3  C12 UNL     1       7.448  21.846 -45.007  1.00  0.00     0.013 C 
HETATM    4  C13 UNL     1       6.188  21.602 -44.303  1.00  0.00    -0.039 C 
HETATM    5  C14 UNL     1       5.503  22.326 -43.259  1.00  0.00     0.014 C 
HETATM    6  C15 UNL     1       5.236  20.955 -42.621  1.00  0.00    -0.013 C 
HETATM    7  C16 UNL     1       4.274  20.072 -43.283  1.00  0.00     0.005 C 
HETATM    8  C17 UNL     1       4.870  19.098 -44.335  1.00  0.00     0.013 C 
HETATM    9  C18 UNL     1       5.375  19.745 -45.548  1.00  0.00    -0.001 C 
HETATM   10  C19 UNL     1       4.419  19.462 -46.738  1.00  0.00     0.019 C 
HETATM   11  C20 UNL     1       5.181  21.246 -45.311  1.00  0.00     0.022 C 
HETATM   12  C21 UNL     1       6.567  20.643 -43.220  1.00  0.00     0.014 C 
ENDROOT
BRANCH   1  13
HETATM   13  C9  UNL     1       7.217  18.247 -46.186  1.00  0.00    -0.067 C 
HETATM   14  C8  UNL     1       7.584  17.099 -46.305  1.00  0.00    -0.098 C 
BRANCH  14  15
HETATM   15  C7  UNL     1       8.003  15.684 -46.463  1.00  0.00     0.072 A 
HETATM   16  C5  UNL     1       7.237  14.931 -47.447  1.00  0.00     0.032 A 
HETATM   17  C6  UNL     1       8.612  15.382 -47.842  1.00  0.00     0.026 A 
BRANCH  16  18
HETATM   18  C4  UNL     1       7.082  13.437 -47.297  1.00  0.00     0.132 C 
BRANCH  18  19
HETATM   19  C3  UNL     1       5.656  12.964 -47.277  1.00  0.00     0.143 C 
BRANCH  19  20
HETATM   20  C2  UNL     1       5.126  13.171 -45.874  1.00  0.00     0.260 C 
HETATM   21  O2  UNL     1       3.900  13.112 -45.623  1.00  0.00    -0.265 OA
BRANCH  20  22
HETATM   22  O1  UNL     1       6.025  13.438 -44.848  1.00  0.00    -0.326 OA
HETATM   23  C1  UNL     1       5.668  14.391 -43.866  1.00  0.00     0.213 C 
ENDBRANCH  20  22
ENDBRANCH  19  20
ENDBRANCH  18  19
BRANCH  18  24
HETATM   24  O3  UNL     1       7.671  12.820 -48.419  1.00  0.00    -0.395 OA
ATOM     25  H3  UNL     1       7.440  13.365 -49.163  1.00  0.00     0.210 HD
ENDBRANCH  18  24
ENDBRANCH  16  18
ENDBRANCH  14  15
ENDBRANCH   1  13
BRANCH   1  26
HETATM   26  O4  UNL     1       6.693  20.125 -47.390  1.00  0.00    -0.377 OA
ATOM     27  H4  UNL     1       5.779  20.345 -47.524  1.00  0.00     0.211 HD
ENDBRANCH   1  26
TORSDOF 8
ENDMDL
