MODEL 1
REMARK VINA RESULT: -8.324287313      0.000      0.000
REMARK  3 active torsions:
REMARK  status: ('A' for Active; 'I' for Inactive)
REMARK    1  A    between atoms: C7_7  and  N1_8 
REMARK    2  A    between atoms: C11_16  and  C12_17 
REMARK    3  A    between atoms: C13_19  and  N3_20 
REMARK       I    between atoms: N5_27  and  C17_28 
ROOT
HETATM    1  N1  UNL     1     -15.502 -39.793  -9.346  1.00  0.00    -0.289 N 
HETATM    2  C8  UNL     1     -14.960 -39.597  -8.052  1.00  0.00     0.330 A 
HETATM    3  O1  UNL     1     -13.768 -39.795  -7.712  1.00  0.00    -0.246 OA
HETATM    4  N2  UNL     1     -15.928 -39.134  -7.137  1.00  0.00    -0.273 N 
ATOM      5  H2  UNL     1     -15.780 -38.920  -6.151  1.00  0.00     0.173 HD
HETATM    6  C9  UNL     1     -17.142 -39.022  -7.852  1.00  0.00     0.276 A 
HETATM    7  O2  UNL     1     -18.229 -38.626  -7.301  1.00  0.00    -0.266 OA
HETATM    8  C10 UNL     1     -16.897 -39.425  -9.222  1.00  0.00     0.109 A 
HETATM    9  C11 UNL     1     -17.784 -39.505 -10.183  1.00  0.00     0.056 C 
ENDROOT
BRANCH   1  10
HETATM   10  C7  UNL     1     -14.886 -40.267 -10.526  1.00  0.00     0.107 C 
HETATM   11  C3  UNL     1     -14.864 -41.732 -10.780  1.00  0.00     0.060 C 
HETATM   12  C2  UNL     1     -13.843 -42.522 -10.085  1.00  0.00     0.012 C 
HETATM   13  C4  UNL     1     -14.098 -41.655 -12.149  1.00  0.00     0.038 C 
HETATM   14  C1  UNL     1     -14.111 -43.542  -9.295  1.00  0.00     0.039 C 
HETATM   15  N5  UNL     1     -12.579 -42.000 -10.465  1.00  0.00    -0.318 N 
HETATM   16  C5  UNL     1     -12.870 -41.028 -11.521  1.00  0.00     0.095 C 
HETATM   17  C17 UNL     1     -11.293 -42.262 -10.013  1.00  0.00     0.220 C 
HETATM   18  C6  UNL     1     -13.491 -39.825 -10.808  1.00  0.00     0.052 C 
HETATM   19  C18 UNL     1     -10.980 -43.215  -8.944  1.00  0.00     0.117 C 
HETATM   20  O3  UNL     1     -10.331 -41.624 -10.573  1.00  0.00    -0.273 OA
ENDBRANCH   1  10
BRANCH   9  21
HETATM   21  C12 UNL     1     -19.193 -39.120 -10.047  1.00  0.00     0.033 A 
HETATM   22  S1  UNL     1     -20.494 -40.149  -9.661  1.00  0.00    -0.052 SA
HETATM   23  C13 UNL     1     -21.778 -38.989  -9.773  1.00  0.00     0.145 A 
HETATM   24  N4  UNL     1     -21.123 -37.881 -10.101  1.00  0.00    -0.339 N 
HETATM   25  C15 UNL     1     -19.817 -37.927 -10.245  1.00  0.00     0.024 A 
ATOM     26  H4  UNL     1     -21.628 -37.004 -10.239  1.00  0.00     0.168 HD
HETATM   27  C16 UNL     1     -19.035 -36.687 -10.671  1.00  0.00     0.069 C 
BRANCH  23  28
HETATM   28  N3  UNL     1     -23.039 -39.222  -9.573  1.00  0.00    -0.375 N 
HETATM   29  C14 UNL     1     -23.508 -40.020  -8.504  1.00  0.00     0.148 C 
ATOM     30  H3  UNL     1     -23.719 -38.814 -10.213  1.00  0.00     0.161 HD
ENDBRANCH  23  28
ENDBRANCH   9  21
TORSDOF 3
ENDMDL
MODEL 2
REMARK VINA RESULT: -8.229664582      1.762      2.230
REMARK  3 active torsions:
REMARK  status: ('A' for Active; 'I' for Inactive)
REMARK    1  A    between atoms: C7_7  and  N1_8 
REMARK    2  A    between atoms: C11_16  and  C12_17 
REMARK    3  A    between atoms: C13_19  and  N3_20 
REMARK       I    between atoms: N5_27  and  C17_28 
ROOT
HETATM    1  N1  UNL     1     -17.382 -39.557  -9.159  1.00  0.00    -0.289 N 
HETATM    2  C8  UNL     1     -16.877 -39.149  -7.901  1.00  0.00     0.330 A 
HETATM    3  O1  UNL     1     -15.672 -38.935  -7.621  1.00  0.00    -0.246 OA
HETATM    4  N2  UNL     1     -17.901 -38.992  -6.944  1.00  0.00    -0.273 N 
ATOM      5  H2  UNL     1     -17.788 -38.707  -5.971  1.00  0.00     0.173 HD
HETATM    6  C9  UNL     1     -19.116 -39.308  -7.594  1.00  0.00     0.276 A 
HETATM    7  O2  UNL     1     -20.247 -39.268  -6.993  1.00  0.00    -0.266 OA
HETATM    8  C10 UNL     1     -18.813 -39.659  -8.967  1.00  0.00     0.109 A 
HETATM    9  C11 UNL     1     -19.667 -40.058  -9.877  1.00  0.00     0.056 C 
ENDROOT
BRANCH   1  10
HETATM   10  C7  UNL     1     -16.698 -39.847 -10.361  1.00  0.00     0.107 C 
HETATM   11  C3  UNL     1     -16.140 -41.213 -10.552  1.00  0.00     0.060 C 
HETATM   12  C2  UNL     1     -14.861 -41.515  -9.903  1.00  0.00     0.012 C 
HETATM   13  C4  UNL     1     -15.535 -40.950 -11.978  1.00  0.00     0.038 C 
HETATM   14  C1  UNL     1     -14.682 -42.505  -9.051  1.00  0.00     0.039 C 
HETATM   15  N5  UNL     1     -13.908 -40.588 -10.401  1.00  0.00    -0.318 N 
HETATM   16  C5  UNL     1     -14.601 -39.869 -11.472  1.00  0.00     0.095 C 
HETATM   17  C17 UNL     1     -12.597 -40.320 -10.037  1.00  0.00     0.220 C 
HETATM   18  C6  UNL     1     -15.589 -38.938 -10.767  1.00  0.00     0.052 C 
HETATM   19  C18 UNL     1     -11.890 -41.012  -8.955  1.00  0.00     0.117 C 
HETATM   20  O3  UNL     1     -11.976 -39.410 -10.695  1.00  0.00    -0.273 OA
ENDBRANCH   1  10
BRANCH   9  21
HETATM   21  C12 UNL     1     -21.117 -40.148  -9.673  1.00  0.00     0.033 A 
HETATM   22  S1  UNL     1     -22.023 -41.569  -9.429  1.00  0.00    -0.052 SA
HETATM   23  C13 UNL     1     -23.602 -40.857  -9.359  1.00  0.00     0.145 A 
HETATM   24  N4  UNL     1     -23.332 -39.568  -9.527  1.00  0.00    -0.339 N 
HETATM   25  C15 UNL     1     -22.084 -39.189  -9.689  1.00  0.00     0.024 A 
ATOM     26  H4  UNL     1     -24.085 -38.879  -9.530  1.00  0.00     0.168 HD
HETATM   27  C16 UNL     1     -21.738 -37.723  -9.936  1.00  0.00     0.069 C 
BRANCH  23  28
HETATM   28  N3  UNL     1     -24.720 -41.492  -9.183  1.00  0.00    -0.375 N 
HETATM   29  C14 UNL     1     -25.754 -41.499 -10.146  1.00  0.00     0.148 C 
ATOM     30  H3  UNL     1     -24.858 -42.008  -8.314  1.00  0.00     0.161 HD
ENDBRANCH  23  28
ENDBRANCH   9  21
TORSDOF 3
ENDMDL
MODEL 3
REMARK VINA RESULT: -8.130032814      3.718      6.566
REMARK  3 active torsions:
REMARK  status: ('A' for Active; 'I' for Inactive)
REMARK    1  A    between atoms: C7_7  and  N1_8 
REMARK    2  A    between atoms: C11_16  and  C12_17 
REMARK    3  A    between atoms: C13_19  and  N3_20 
REMARK       I    between atoms: N5_27  and  C17_28 
ROOT
HETATM    1  N1  UNL     1     -14.486 -37.935 -10.958  1.00  0.00    -0.289 N 
HETATM    2  C8  UNL     1     -13.103 -37.732 -10.731  1.00  0.00     0.330 A 
HETATM    3  O1  UNL     1     -12.386 -36.856 -11.272  1.00  0.00    -0.246 OA
HETATM    4  N2  UNL     1     -12.581 -38.646  -9.792  1.00  0.00    -0.273 N 
ATOM      5  H2  UNL     1     -11.616 -38.699  -9.466  1.00  0.00     0.173 HD
HETATM    6  C9  UNL     1     -13.654 -39.474  -9.391  1.00  0.00     0.276 A 
HETATM    7  O2  UNL     1     -13.509 -40.421  -8.540  1.00  0.00    -0.266 OA
HETATM    8  C10 UNL     1     -14.842 -39.048 -10.102  1.00  0.00     0.109 A 
HETATM    9  C11 UNL     1     -16.029 -39.597 -10.038  1.00  0.00     0.056 C 
ENDROOT
BRANCH   1  10
HETATM   10  C7  UNL     1     -15.372 -37.262 -11.830  1.00  0.00     0.107 C 
HETATM   11  C3  UNL     1     -14.945 -35.963 -12.415  1.00  0.00     0.060 C 
HETATM   12  C2  UNL     1     -15.074 -34.770 -11.574  1.00  0.00     0.012 C 
HETATM   13  C4  UNL     1     -16.255 -35.712 -13.244  1.00  0.00     0.038 C 
HETATM   14  C1  UNL     1     -14.070 -33.971 -11.269  1.00  0.00     0.039 C 
HETATM   15  N5  UNL     1     -16.443 -34.653 -11.218  1.00  0.00    -0.318 N 
HETATM   16  C5  UNL     1     -17.130 -35.678 -12.006  1.00  0.00     0.095 C 
HETATM   17  C17 UNL     1     -17.103 -33.810 -10.336  1.00  0.00     0.220 C 
HETATM   18  C6  UNL     1     -16.760 -37.011 -11.353  1.00  0.00     0.052 C 
HETATM   19  C18 UNL     1     -16.434 -32.792  -9.521  1.00  0.00     0.117 C 
HETATM   20  O3  UNL     1     -18.376 -33.941 -10.236  1.00  0.00    -0.273 OA
ENDBRANCH   1  10
BRANCH   9  21
HETATM   21  C12 UNL     1     -16.379 -40.719  -9.160  1.00  0.00     0.033 A 
HETATM   22  S1  UNL     1     -16.555 -42.350  -9.616  1.00  0.00    -0.052 SA
HETATM   23  C13 UNL     1     -17.039 -42.994  -8.080  1.00  0.00     0.145 A 
HETATM   24  N4  UNL     1     -17.033 -41.911  -7.311  1.00  0.00    -0.339 N 
HETATM   25  C15 UNL     1     -16.705 -40.752  -7.838  1.00  0.00     0.024 A 
ATOM     26  H4  UNL     1     -17.281 -41.977  -6.323  1.00  0.00     0.168 HD
HETATM   27  C16 UNL     1     -16.736 -39.477  -7.000  1.00  0.00     0.069 C 
BRANCH  23  28
HETATM   28  N3  UNL     1     -17.319 -44.235  -7.825  1.00  0.00    -0.375 N 
HETATM   29  C14 UNL     1     -16.598 -45.312  -8.389  1.00  0.00     0.148 C 
ATOM     30  H3  UNL     1     -18.091 -44.442  -7.192  1.00  0.00     0.161 HD
ENDBRANCH  23  28
ENDBRANCH   9  21
TORSDOF 3
ENDMDL
MODEL 4
REMARK VINA RESULT: -8.125490460      2.984      3.928
REMARK  3 active torsions:
REMARK  status: ('A' for Active; 'I' for Inactive)
REMARK    1  A    between atoms: C7_7  and  N1_8 
REMARK    2  A    between atoms: C11_16  and  C12_17 
REMARK    3  A    between atoms: C13_19  and  N3_20 
REMARK       I    between atoms: N5_27  and  C17_28 
ROOT
HETATM    1  N1  UNL     1     -17.383 -38.061  -9.437  1.00  0.00    -0.289 N 
HETATM    2  C8  UNL     1     -16.620 -38.515  -8.333  1.00  0.00     0.330 A 
HETATM    3  O1  UNL     1     -15.433 -38.200  -8.075  1.00  0.00    -0.246 OA
HETATM    4  N2  UNL     1     -17.353 -39.394  -7.508  1.00  0.00    -0.273 N 
ATOM      5  H2  UNL     1     -17.021 -39.850  -6.659  1.00  0.00     0.173 HD
HETATM    6  C9  UNL     1     -18.636 -39.520  -8.088  1.00  0.00     0.276 A 
HETATM    7  O2  UNL     1     -19.550 -40.259  -7.579  1.00  0.00    -0.266 OA
HETATM    8  C10 UNL     1     -18.673 -38.700  -9.283  1.00  0.00     0.109 A 
HETATM    9  C11 UNL     1     -19.672 -38.589 -10.122  1.00  0.00     0.056 C 
ENDROOT
BRANCH   1  10
HETATM   10  C7  UNL     1     -17.020 -37.203 -10.499  1.00  0.00     0.107 C 
HETATM   11  C3  UNL     1     -16.261 -37.770 -11.646  1.00  0.00     0.060 C 
HETATM   12  C2  UNL     1     -14.817 -37.955 -11.474  1.00  0.00     0.012 C 
HETATM   13  C4  UNL     1     -16.153 -36.430 -12.457  1.00  0.00     0.038 C 
HETATM   14  C1  UNL     1     -14.199 -39.110 -11.617  1.00  0.00     0.039 C 
HETATM   15  N5  UNL     1     -14.264 -36.681 -11.180  1.00  0.00    -0.318 N 
HETATM   16  C5  UNL     1     -15.367 -35.735 -11.363  1.00  0.00     0.095 C 
HETATM   17  C17 UNL     1     -12.991 -36.290 -10.790  1.00  0.00     0.220 C 
HETATM   18  C6  UNL     1     -16.291 -35.948 -10.162  1.00  0.00     0.052 C 
HETATM   19  C18 UNL     1     -11.878 -37.221 -10.580  1.00  0.00     0.117 C 
HETATM   20  O3  UNL     1     -12.790 -35.037 -10.604  1.00  0.00    -0.273 OA
ENDBRANCH   1  10
BRANCH   9  21
HETATM   21  C12 UNL     1     -20.977 -39.235  -9.950  1.00  0.00     0.033 A 
HETATM   22  S1  UNL     1     -21.389 -40.827 -10.392  1.00  0.00    -0.052 SA
HETATM   23  C13 UNL     1     -23.066 -40.789  -9.951  1.00  0.00     0.145 A 
HETATM   24  N4  UNL     1     -23.203 -39.551  -9.490  1.00  0.00    -0.339 N 
HETATM   25  C15 UNL     1     -22.161 -38.750  -9.483  1.00  0.00     0.024 A 
ATOM     26  H4  UNL     1     -24.107 -39.226  -9.146  1.00  0.00     0.168 HD
HETATM   27  C16 UNL     1     -22.290 -37.305  -9.009  1.00  0.00     0.069 C 
BRANCH  23  28
HETATM   28  N3  UNL     1     -23.910 -41.767 -10.072  1.00  0.00    -0.375 N 
HETATM   29  C14 UNL     1     -25.310 -41.582  -9.994  1.00  0.00     0.148 C 
ATOM     30  H3  UNL     1     -23.550 -42.708 -10.230  1.00  0.00     0.161 HD
ENDBRANCH  23  28
ENDBRANCH   9  21
TORSDOF 3
ENDMDL
MODEL 5
REMARK VINA RESULT: -8.064130316      4.050      6.009
REMARK  3 active torsions:
REMARK  status: ('A' for Active; 'I' for Inactive)
REMARK    1  A    between atoms: C7_7  and  N1_8 
REMARK    2  A    between atoms: C11_16  and  C12_17 
REMARK    3  A    between atoms: C13_19  and  N3_20 
REMARK       I    between atoms: N5_27  and  C17_28 
ROOT
HETATM    1  N1  UNL     1     -17.353 -37.364 -10.104  1.00  0.00    -0.289 N 
HETATM    2  C8  UNL     1     -17.733 -36.488  -9.058  1.00  0.00     0.330 A 
HETATM    3  O1  UNL     1     -17.726 -35.234  -9.104  1.00  0.00    -0.246 OA
HETATM    4  N2  UNL     1     -18.145 -37.188  -7.904  1.00  0.00    -0.273 N 
ATOM      5  H2  UNL     1     -18.463 -36.779  -7.026  1.00  0.00     0.173 HD
HETATM    6  C9  UNL     1     -18.031 -38.565  -8.202  1.00  0.00     0.276 A 
HETATM    7  O2  UNL     1     -18.328 -39.478  -7.353  1.00  0.00    -0.266 OA
HETATM    8  C10 UNL     1     -17.543 -38.693  -9.561  1.00  0.00     0.109 A 
HETATM    9  C11 UNL     1     -17.262 -39.808 -10.187  1.00  0.00     0.056 C 
ENDROOT
BRANCH   1  10
HETATM   10  C7  UNL     1     -16.861 -37.075 -11.397  1.00  0.00     0.107 C 
HETATM   11  C3  UNL     1     -15.403 -37.217 -11.653  1.00  0.00     0.060 C 
HETATM   12  C2  UNL     1     -14.531 -36.122 -11.218  1.00  0.00     0.012 C 
HETATM   13  C4  UNL     1     -15.454 -36.788 -13.163  1.00  0.00     0.038 C 
HETATM   14  C1  UNL     1     -13.517 -36.272 -10.390  1.00  0.00     0.039 C 
HETATM   15  N5  UNL     1     -14.972 -34.947 -11.881  1.00  0.00    -0.318 N 
HETATM   16  C5  UNL     1     -15.983 -35.405 -12.836  1.00  0.00     0.095 C 
HETATM   17  C17 UNL     1     -14.614 -33.614 -11.742  1.00  0.00     0.220 C 
HETATM   18  C6  UNL     1     -17.211 -35.756 -11.995  1.00  0.00     0.052 C 
HETATM   19  C18 UNL     1     -13.621 -33.130 -10.779  1.00  0.00     0.117 C 
HETATM   20  O3  UNL     1     -15.194 -32.765 -12.509  1.00  0.00    -0.273 OA
ENDBRANCH   1  10
BRANCH   9  21
HETATM   21  C12 UNL     1     -17.469 -41.149  -9.629  1.00  0.00     0.033 A 
HETATM   22  S1  UNL     1     -16.306 -42.112  -8.840  1.00  0.00    -0.052 SA
HETATM   23  C13 UNL     1     -17.280 -43.520  -8.571  1.00  0.00     0.145 A 
HETATM   24  N4  UNL     1     -18.441 -43.161  -9.105  1.00  0.00    -0.339 N 
HETATM   25  C15 UNL     1     -18.556 -41.968  -9.646  1.00  0.00     0.024 A 
ATOM     26  H4  UNL     1     -19.235 -43.802  -9.097  1.00  0.00     0.168 HD
HETATM   27  C16 UNL     1     -19.859 -41.537 -10.316  1.00  0.00     0.069 C 
BRANCH  23  28
HETATM   28  N3  UNL     1     -16.898 -44.614  -7.986  1.00  0.00    -0.375 N 
HETATM   29  C14 UNL     1     -16.959 -45.878  -8.614  1.00  0.00     0.148 C 
ATOM     30  H3  UNL     1     -16.538 -44.559  -7.033  1.00  0.00     0.161 HD
ENDBRANCH  23  28
ENDBRANCH   9  21
TORSDOF 3
ENDMDL
