MODEL 1
REMARK VINA RESULT: -8.969705838      0.000      0.000
REMARK  8 active torsions:
REMARK  status: ('A' for Active; 'I' for Inactive)
REMARK    1  A    between atoms: C3_3  and  C4_4 
REMARK       I    between atoms: N1_5  and  C5_7 
REMARK    2  A    between atoms: C5_7  and  C6_9 
REMARK    3  A    between atoms: C6_9  and  S1_10 
REMARK    4  A    between atoms: S1_10  and  C7_11 
REMARK    5  A    between atoms: C8_16  and  C9_17 
REMARK    6  A    between atoms: N5_24  and  C14_25 
REMARK    7  A    between atoms: C17_28  and  O2_29 
REMARK    8  A    between atoms: O2_29  and  C18_30 
ROOT
HETATM    1  C7  UNL     1       4.383  32.459  24.528  1.00  0.00     0.168 A 
HETATM    2  N2  UNL     1       3.877  31.249  24.350  1.00  0.00    -0.278 N 
ATOM      3  H2  UNL     1       4.401  30.417  24.077  1.00  0.00     0.189 HD
HETATM    4  N3  UNL     1       2.604  31.300  24.583  1.00  0.00    -0.286 N 
ATOM      5  H3  UNL     1       1.968  30.506  24.520  1.00  0.00     0.188 HD
HETATM    6  C8  UNL     1       2.232  32.578  24.927  1.00  0.00     0.109 A 
HETATM    7  N5  UNL     1       3.351  33.291  24.889  1.00  0.00    -0.279 N 
ENDROOT
BRANCH   1   8
HETATM    8  S1  UNL     1       6.075  33.022  24.356  1.00  0.00    -0.083 SA
BRANCH   8   9
HETATM    9  C6  UNL     1       7.162  31.589  24.327  1.00  0.00     0.185 C 
BRANCH   9  10
HETATM   10  C5  UNL     1       7.256  30.974  22.994  1.00  0.00     0.231 C 
HETATM   11  N1  UNL     1       8.524  30.940  22.359  1.00  0.00    -0.337 N 
HETATM   12  C4  UNL     1       9.608  31.222  22.988  1.00  0.00     0.090 C 
ATOM     13  H1  UNL     1       8.576  30.684  21.373  1.00  0.00     0.168 HD
HETATM   14  O1  UNL     1       6.261  30.476  22.395  1.00  0.00    -0.272 OA
BRANCH  12  15
HETATM   15  C3  UNL     1      10.898  31.181  22.320  1.00  0.00     0.013 C 
HETATM   16  C2  UNL     1      12.013  31.345  22.998  1.00  0.00    -0.030 C 
HETATM   17  C1  UNL     1      13.305  31.299  22.306  1.00  0.00     0.036 C 
ENDBRANCH  12  15
ENDBRANCH   9  10
ENDBRANCH   8   9
ENDBRANCH   1   8
BRANCH   7  18
HETATM   18  C14 UNL     1       3.479  34.669  25.161  1.00  0.00     0.043 A 
HETATM   19  C15 UNL     1       3.446  35.598  24.156  1.00  0.00     0.033 A 
HETATM   20  C16 UNL     1       3.587  36.967  24.431  1.00  0.00     0.039 A 
HETATM   21  C17 UNL     1       3.763  37.366  25.747  1.00  0.00     0.075 A 
HETATM   22  C19 UNL     1       3.797  36.424  26.765  1.00  0.00     0.039 A 
HETATM   23  C20 UNL     1       3.654  35.095  26.443  1.00  0.00     0.033 A 
BRANCH  21  24
HETATM   24  O2  UNL     1       3.910  38.684  26.116  1.00  0.00    -0.290 OA
BRANCH  24  25
HETATM   25  C18 UNL     1       2.920  39.568  26.529  1.00  0.00     0.505 C 
HETATM   26  F1  UNL     1       1.642  39.036  26.373  1.00  0.00    -0.184 F 
HETATM   27  F2  UNL     1       3.117  39.767  27.905  1.00  0.00    -0.184 F 
ENDBRANCH  24  25
ENDBRANCH  21  24
ENDBRANCH   7  18
BRANCH   6  28
HETATM   28  C9  UNL     1       0.859  32.938  25.238  1.00  0.00     0.058 C 
HETATM   29  C10 UNL     1       0.300  34.150  24.582  1.00  0.00     0.031 C 
HETATM   30  C11 UNL     1      -1.230  34.019  24.691  1.00  0.00     0.114 C 
HETATM   31  N4  UNL     1      -1.624  33.024  25.624  1.00  0.00    -0.421 N 
HETATM   32  C12 UNL     1      -0.944  32.991  26.872  1.00  0.00     0.114 C 
ATOM     33  H4  UNL     1      -2.366  32.358  25.407  1.00  0.00     0.153 HD
HETATM   34  C13 UNL     1       0.582  33.118  26.738  1.00  0.00     0.031 C 
ENDBRANCH   6  28
TORSDOF 8
ENDMDL
MODEL 2
REMARK VINA RESULT: -8.939003760      0.938      1.087
REMARK  8 active torsions:
REMARK  status: ('A' for Active; 'I' for Inactive)
REMARK    1  A    between atoms: C3_3  and  C4_4 
REMARK       I    between atoms: N1_5  and  C5_7 
REMARK    2  A    between atoms: C5_7  and  C6_9 
REMARK    3  A    between atoms: C6_9  and  S1_10 
REMARK    4  A    between atoms: S1_10  and  C7_11 
REMARK    5  A    between atoms: C8_16  and  C9_17 
REMARK    6  A    between atoms: N5_24  and  C14_25 
REMARK    7  A    between atoms: C17_28  and  O2_29 
REMARK    8  A    between atoms: O2_29  and  C18_30 
ROOT
HETATM    1  C7  UNL     1       4.382  32.437  24.547  1.00  0.00     0.168 A 
HETATM    2  N2  UNL     1       3.867  31.230  24.371  1.00  0.00    -0.278 N 
ATOM      3  H2  UNL     1       4.386  30.394  24.103  1.00  0.00     0.189 HD
HETATM    4  N3  UNL     1       2.593  31.293  24.596  1.00  0.00    -0.286 N 
ATOM      5  H3  UNL     1       1.952  30.503  24.532  1.00  0.00     0.188 HD
HETATM    6  C8  UNL     1       2.230  32.574  24.934  1.00  0.00     0.109 A 
HETATM    7  N5  UNL     1       3.354  33.278  24.900  1.00  0.00    -0.279 N 
ENDROOT
BRANCH   1   8
HETATM    8  S1  UNL     1       6.079  32.986  24.384  1.00  0.00    -0.083 SA
BRANCH   8   9
HETATM    9  C6  UNL     1       7.152  31.544  24.335  1.00  0.00     0.185 C 
BRANCH   9  10
HETATM   10  C5  UNL     1       7.234  30.941  22.995  1.00  0.00     0.231 C 
HETATM   11  N1  UNL     1       8.495  30.919  22.346  1.00  0.00    -0.337 N 
HETATM   12  C4  UNL     1       9.585  31.200  22.966  1.00  0.00     0.090 C 
ATOM     13  H1  UNL     1       8.537  30.672  21.357  1.00  0.00     0.168 HD
HETATM   14  O1  UNL     1       6.235  30.444  22.403  1.00  0.00    -0.272 OA
BRANCH  12  15
HETATM   15  C3  UNL     1      10.867  31.172  22.283  1.00  0.00     0.013 C 
HETATM   16  C2  UNL     1      11.991  31.296  22.955  1.00  0.00    -0.030 C 
HETATM   17  C1  UNL     1      13.276  31.264  22.248  1.00  0.00     0.036 C 
ENDBRANCH  12  15
ENDBRANCH   9  10
ENDBRANCH   8   9
ENDBRANCH   1   8
BRANCH   7  18
HETATM   18  C14 UNL     1       3.492  34.656  25.169  1.00  0.00     0.043 A 
HETATM   19  C15 UNL     1       3.480  35.582  24.161  1.00  0.00     0.033 A 
HETATM   20  C16 UNL     1       3.630  36.951  24.432  1.00  0.00     0.039 A 
HETATM   21  C17 UNL     1       3.793  37.353  25.748  1.00  0.00     0.075 A 
HETATM   22  C19 UNL     1       3.806  36.415  26.771  1.00  0.00     0.039 A 
HETATM   23  C20 UNL     1       3.655  35.085  26.452  1.00  0.00     0.033 A 
BRANCH  21  24
HETATM   24  O2  UNL     1       3.948  38.671  26.115  1.00  0.00    -0.290 OA
BRANCH  24  25
HETATM   25  C18 UNL     1       5.025  39.508  25.845  1.00  0.00     0.505 C 
HETATM   26  F1  UNL     1       5.283  40.386  26.895  1.00  0.00    -0.184 F 
HETATM   27  F2  UNL     1       6.149  38.677  25.718  1.00  0.00    -0.184 F 
ENDBRANCH  24  25
ENDBRANCH  21  24
ENDBRANCH   7  18
BRANCH   6  28
HETATM   28  C9  UNL     1       0.858  32.947  25.237  1.00  0.00     0.058 C 
HETATM   29  C10 UNL     1       0.309  34.155  24.568  1.00  0.00     0.031 C 
HETATM   30  C11 UNL     1      -1.222  34.035  24.672  1.00  0.00     0.114 C 
HETATM   31  N4  UNL     1      -1.626  33.051  25.613  1.00  0.00    -0.421 N 
HETATM   32  C12 UNL     1      -0.951  33.027  26.863  1.00  0.00     0.114 C 
ATOM     33  H4  UNL     1      -2.371  32.389  25.400  1.00  0.00     0.153 HD
HETATM   34  C13 UNL     1       0.577  33.142  26.734  1.00  0.00     0.031 C 
ENDBRANCH   6  28
TORSDOF 8
ENDMDL
MODEL 3
REMARK VINA RESULT: -8.777637557      4.010      5.784
REMARK  8 active torsions:
REMARK  status: ('A' for Active; 'I' for Inactive)
REMARK    1  A    between atoms: C3_3  and  C4_4 
REMARK       I    between atoms: N1_5  and  C5_7 
REMARK    2  A    between atoms: C5_7  and  C6_9 
REMARK    3  A    between atoms: C6_9  and  S1_10 
REMARK    4  A    between atoms: S1_10  and  C7_11 
REMARK    5  A    between atoms: C8_16  and  C9_17 
REMARK    6  A    between atoms: N5_24  and  C14_25 
REMARK    7  A    between atoms: C17_28  and  O2_29 
REMARK    8  A    between atoms: O2_29  and  C18_30 
ROOT
HETATM    1  C7  UNL     1       2.941  36.684  26.132  1.00  0.00     0.168 A 
HETATM    2  N2  UNL     1       2.388  37.886  26.100  1.00  0.00    -0.278 N 
ATOM      3  H2  UNL     1       2.695  38.700  26.633  1.00  0.00     0.189 HD
HETATM    4  N3  UNL     1       1.389  37.854  25.276  1.00  0.00    -0.286 N 
ATOM      5  H3  UNL     1       0.786  38.647  25.060  1.00  0.00     0.188 HD
HETATM    6  C8  UNL     1       1.257  36.598  24.733  1.00  0.00     0.109 A 
HETATM    7  N5  UNL     1       2.231  35.878  25.275  1.00  0.00    -0.279 N 
ENDROOT
BRANCH   1   8
HETATM    8  S1  UNL     1       4.348  36.104  27.076  1.00  0.00    -0.083 SA
BRANCH   8   9
HETATM    9  C6  UNL     1       5.812  36.165  26.032  1.00  0.00     0.185 C 
BRANCH   9  10
HETATM   10  C5  UNL     1       6.987  35.545  26.662  1.00  0.00     0.231 C 
HETATM   11  N1  UNL     1       7.427  34.289  26.172  1.00  0.00    -0.337 N 
HETATM   12  C4  UNL     1       6.979  33.792  25.075  1.00  0.00     0.090 C 
ATOM     13  H1  UNL     1       8.120  33.765  26.706  1.00  0.00     0.168 HD
HETATM   14  O1  UNL     1       7.618  36.081  27.617  1.00  0.00    -0.272 OA
BRANCH  12  15
HETATM   15  C3  UNL     1       7.443  32.504  24.588  1.00  0.00     0.013 C 
HETATM   16  C2  UNL     1       7.652  32.304  23.305  1.00  0.00    -0.030 C 
HETATM   17  C1  UNL     1       8.121  30.997  22.833  1.00  0.00     0.036 C 
ENDBRANCH  12  15
ENDBRANCH   9  10
ENDBRANCH   8   9
ENDBRANCH   1   8
BRANCH   7  18
HETATM   18  C14 UNL     1       2.505  34.516  25.034  1.00  0.00     0.043 A 
HETATM   19  C15 UNL     1       1.712  33.528  25.555  1.00  0.00     0.033 A 
HETATM   20  C16 UNL     1       1.995  32.174  25.322  1.00  0.00     0.039 A 
HETATM   21  C17 UNL     1       3.100  31.849  24.549  1.00  0.00     0.075 A 
HETATM   22  C19 UNL     1       3.903  32.850  24.021  1.00  0.00     0.039 A 
HETATM   23  C20 UNL     1       3.583  34.163  24.279  1.00  0.00     0.033 A 
BRANCH  21  24
HETATM   24  O2  UNL     1       3.459  30.551  24.265  1.00  0.00    -0.290 OA
BRANCH  24  25
HETATM   25  C18 UNL     1       4.578  30.111  23.567  1.00  0.00     0.505 C 
HETATM   26  F1  UNL     1       5.517  29.512  24.403  1.00  0.00    -0.184 F 
HETATM   27  F2  UNL     1       4.126  29.121  22.680  1.00  0.00    -0.184 F 
ENDBRANCH  24  25
ENDBRANCH  21  24
ENDBRANCH   7  18
BRANCH   6  28
HETATM   28  C9  UNL     1       0.216  36.262  23.777  1.00  0.00     0.058 C 
HETATM   29  C10 UNL     1      -0.236  37.330  22.847  1.00  0.00     0.031 C 
HETATM   30  C11 UNL     1      -0.939  36.607  21.684  1.00  0.00     0.114 C 
HETATM   31  N4  UNL     1      -1.234  35.251  21.988  1.00  0.00    -0.421 N 
HETATM   32  C12 UNL     1      -1.785  34.974  23.269  1.00  0.00     0.114 C 
ATOM     33  H4  UNL     1      -1.057  34.507  21.314  1.00  0.00     0.153 HD
HETATM   34  C13 UNL     1      -1.065  35.703  24.414  1.00  0.00     0.031 C 
ENDBRANCH   6  28
TORSDOF 8
ENDMDL
MODEL 4
REMARK VINA RESULT: -8.768707261      2.992      7.266
REMARK  8 active torsions:
REMARK  status: ('A' for Active; 'I' for Inactive)
REMARK    1  A    between atoms: C3_3  and  C4_4 
REMARK       I    between atoms: N1_5  and  C5_7 
REMARK    2  A    between atoms: C5_7  and  C6_9 
REMARK    3  A    between atoms: C6_9  and  S1_10 
REMARK    4  A    between atoms: S1_10  and  C7_11 
REMARK    5  A    between atoms: C8_16  and  C9_17 
REMARK    6  A    between atoms: N5_24  and  C14_25 
REMARK    7  A    between atoms: C17_28  and  O2_29 
REMARK    8  A    between atoms: O2_29  and  C18_30 
ROOT
HETATM    1  C7  UNL     1       2.089  32.556  25.179  1.00  0.00     0.168 A 
HETATM    2  N2  UNL     1       2.016  31.270  24.875  1.00  0.00    -0.278 N 
ATOM      3  H2  UNL     1       1.218  30.659  25.050  1.00  0.00     0.189 HD
HETATM    4  N3  UNL     1       3.131  30.918  24.317  1.00  0.00    -0.286 N 
ATOM      5  H3  UNL     1       3.344  29.978  23.984  1.00  0.00     0.188 HD
HETATM    6  C8  UNL     1       3.987  31.990  24.240  1.00  0.00     0.109 A 
HETATM    7  N5  UNL     1       3.325  33.006  24.781  1.00  0.00    -0.279 N 
ENDROOT
BRANCH   1   8
HETATM    8  S1  UNL     1       0.873  33.612  25.962  1.00  0.00    -0.083 SA
BRANCH   8   9
HETATM    9  C6  UNL     1      -0.758  32.893  25.723  1.00  0.00     0.185 C 
BRANCH   9  10
HETATM   10  C5  UNL     1      -1.822  33.906  25.653  1.00  0.00     0.231 C 
HETATM   11  N1  UNL     1      -1.835  34.791  24.545  1.00  0.00    -0.337 N 
HETATM   12  C4  UNL     1      -1.096  34.597  23.511  1.00  0.00     0.090 C 
ATOM     13  H1  UNL     1      -2.448  35.605  24.570  1.00  0.00     0.168 HD
HETATM   14  O1  UNL     1      -2.721  34.020  26.535  1.00  0.00    -0.272 OA
BRANCH  12  15
HETATM   15  C3  UNL     1      -1.124  35.515  22.385  1.00  0.00     0.013 C 
HETATM   16  C2  UNL     1      -0.174  36.411  22.224  1.00  0.00    -0.030 C 
HETATM   17  C1  UNL     1      -0.219  37.328  21.080  1.00  0.00     0.036 C 
ENDBRANCH  12  15
ENDBRANCH   9  10
ENDBRANCH   8   9
ENDBRANCH   1   8
BRANCH   7  18
HETATM   18  C14 UNL     1       3.794  34.327  24.936  1.00  0.00     0.043 A 
HETATM   19  C15 UNL     1       3.420  35.321  24.072  1.00  0.00     0.033 A 
HETATM   20  C16 UNL     1       3.898  36.631  24.223  1.00  0.00     0.039 A 
HETATM   21  C17 UNL     1       4.763  36.906  25.271  1.00  0.00     0.075 A 
HETATM   22  C19 UNL     1       5.143  35.899  26.148  1.00  0.00     0.039 A 
HETATM   23  C20 UNL     1       4.646  34.630  25.955  1.00  0.00     0.033 A 
BRANCH  21  24
HETATM   24  O2  UNL     1       5.286  38.158  25.502  1.00  0.00    -0.290 OA
BRANCH  24  25
HETATM   25  C18 UNL     1       6.505  38.665  25.066  1.00  0.00     0.505 C 
HETATM   26  F1  UNL     1       7.314  37.679  24.505  1.00  0.00    -0.184 F 
HETATM   27  F2  UNL     1       6.209  39.583  24.045  1.00  0.00    -0.184 F 
ENDBRANCH  24  25
ENDBRANCH  21  24
ENDBRANCH   7  18
BRANCH   6  28
HETATM   28  C9  UNL     1       5.318  31.893  23.665  1.00  0.00     0.058 C 
HETATM   29  C10 UNL     1       5.665  30.640  22.943  1.00  0.00     0.031 C 
HETATM   30  C11 UNL     1       6.877  30.987  22.059  1.00  0.00     0.114 C 
HETATM   31  N4  UNL     1       7.481  32.219  22.425  1.00  0.00    -0.421 N 
HETATM   32  C12 UNL     1       7.679  32.463  23.811  1.00  0.00     0.114 C 
ATOM     33  H4  UNL     1       7.761  32.901  21.721  1.00  0.00     0.153 HD
HETATM   34  C13 UNL     1       6.455  32.115  24.673  1.00  0.00     0.031 C 
ENDBRANCH   6  28
TORSDOF 8
ENDMDL
MODEL 5
REMARK VINA RESULT: -8.701116041      3.982      6.360
REMARK  8 active torsions:
REMARK  status: ('A' for Active; 'I' for Inactive)
REMARK    1  A    between atoms: C3_3  and  C4_4 
REMARK       I    between atoms: N1_5  and  C5_7 
REMARK    2  A    between atoms: C5_7  and  C6_9 
REMARK    3  A    between atoms: C6_9  and  S1_10 
REMARK    4  A    between atoms: S1_10  and  C7_11 
REMARK    5  A    between atoms: C8_16  and  C9_17 
REMARK    6  A    between atoms: N5_24  and  C14_25 
REMARK    7  A    between atoms: C17_28  and  O2_29 
REMARK    8  A    between atoms: O2_29  and  C18_30 
ROOT
HETATM    1  C7  UNL     1      -1.300  35.142  23.478  1.00  0.00     0.168 A 
HETATM    2  N2  UNL     1      -1.962  34.929  22.352  1.00  0.00    -0.278 N 
ATOM      3  H2  UNL     1      -2.768  34.313  22.241  1.00  0.00     0.189 HD
HETATM    4  N3  UNL     1      -1.413  35.635  21.415  1.00  0.00    -0.286 N 
ATOM      5  H3  UNL     1      -1.726  35.660  20.445  1.00  0.00     0.188 HD
HETATM    6  C8  UNL     1      -0.349  36.347  21.915  1.00  0.00     0.109 A 
HETATM    7  N5  UNL     1      -0.289  36.031  23.202  1.00  0.00    -0.279 N 
ENDROOT
BRANCH   1   8
HETATM    8  S1  UNL     1      -1.577  34.456  25.109  1.00  0.00    -0.083 SA
BRANCH   8   9
HETATM    9  C6  UNL     1      -0.686  32.899  25.242  1.00  0.00     0.185 C 
BRANCH   9  10
HETATM   10  C5  UNL     1       0.300  32.899  26.333  1.00  0.00     0.231 C 
HETATM   11  N1  UNL     1       1.623  32.480  26.041  1.00  0.00    -0.337 N 
HETATM   12  C4  UNL     1       2.035  32.317  24.834  1.00  0.00     0.090 C 
ATOM     13  H1  UNL     1       2.267  32.303  26.812  1.00  0.00     0.168 HD
HETATM   14  O1  UNL     1       0.020  33.254  27.513  1.00  0.00    -0.272 OA
BRANCH  12  15
HETATM   15  C3  UNL     1       3.395  31.888  24.555  1.00  0.00     0.013 C 
HETATM   16  C2  UNL     1       3.635  30.695  24.058  1.00  0.00    -0.030 C 
HETATM   17  C1  UNL     1       5.015  30.280  23.782  1.00  0.00     0.036 C 
ENDBRANCH  12  15
ENDBRANCH   9  10
ENDBRANCH   8   9
ENDBRANCH   1   8
BRANCH   7  18
HETATM   18  C14 UNL     1       0.648  36.508  24.143  1.00  0.00     0.043 A 
HETATM   19  C15 UNL     1       0.469  37.707  24.778  1.00  0.00     0.033 A 
HETATM   20  C16 UNL     1       1.410  38.184  25.704  1.00  0.00     0.039 A 
HETATM   21  C17 UNL     1       2.533  37.414  25.967  1.00  0.00     0.075 A 
HETATM   22  C19 UNL     1       2.714  36.198  25.322  1.00  0.00     0.039 A 
HETATM   23  C20 UNL     1       1.762  35.776  24.423  1.00  0.00     0.033 A 
BRANCH  21  24
HETATM   24  O2  UNL     1       3.511  37.796  26.857  1.00  0.00    -0.290 OA
BRANCH  24  25
HETATM   25  C18 UNL     1       4.231  36.987  27.728  1.00  0.00     0.505 C 
HETATM   26  F1  UNL     1       5.493  36.673  27.231  1.00  0.00    -0.184 F 
HETATM   27  F2  UNL     1       4.424  37.740  28.897  1.00  0.00    -0.184 F 
ENDBRANCH  24  25
ENDBRANCH  21  24
ENDBRANCH   7  18
BRANCH   6  28
HETATM   28  C9  UNL     1       0.463  37.226  21.091  1.00  0.00     0.058 C 
HETATM   29  C10 UNL     1       1.932  37.221  21.320  1.00  0.00     0.031 C 
HETATM   30  C11 UNL     1       2.558  37.826  20.050  1.00  0.00     0.114 C 
HETATM   31  N4  UNL     1       1.601  38.485  19.234  1.00  0.00    -0.421 N 
HETATM   32  C12 UNL     1       0.660  39.330  19.883  1.00  0.00     0.114 C 
ATOM     33  H4  UNL     1       1.588  38.356  18.223  1.00  0.00     0.153 HD
HETATM   34  C13 UNL     1       0.044  38.703  21.144  1.00  0.00     0.031 C 
ENDBRANCH   6  28
TORSDOF 8
ENDMDL
