MODEL 1
REMARK VINA RESULT: -7.215550694      0.000      0.000
REMARK  4 active torsions:
REMARK  status: ('A' for Active; 'I' for Inactive)
REMARK    1  A    between atoms: C4_4  and  C5_5 
REMARK    2  A    between atoms: C7_7  and  C8_8 
REMARK    3  A    between atoms: C13_13  and  N1_14 
REMARK    4  A    between atoms: C14_17  and  N2_18 
ROOT
HETATM    1  C8  UNL     1      65.215  35.281  24.774  1.00  0.00     0.107 C 
HETATM    2  C9  UNL     1      66.323  36.014  25.448  1.00  0.00     0.034 C 
HETATM    3  C10 UNL     1      66.823  37.240  24.788  1.00  0.00     0.045 C 
HETATM    4  C11 UNL     1      66.393  37.448  23.380  1.00  0.00    -0.012 A 
HETATM    5  C12 UNL     1      67.157  38.263  22.584  1.00  0.00     0.051 A 
HETATM    6  C13 UNL     1      66.763  38.487  21.263  1.00  0.00     0.146 A 
HETATM    7  C14 UNL     1      65.621  37.880  20.807  1.00  0.00     0.134 A 
HETATM    8  N3  UNL     1      64.877  37.071  21.621  1.00  0.00    -0.327 N 
ATOM      9  H3  UNL     1      64.031  36.629  21.261  1.00  0.00     0.169 HD
HETATM   10  C15 UNL     1      65.255  36.856  22.888  1.00  0.00     0.109 A 
HETATM   11  N4  UNL     1      64.511  36.020  23.759  1.00  0.00    -0.368 N 
ATOM     12  H4  UNL     1      63.498  35.943  23.667  1.00  0.00     0.161 HD
ENDROOT
BRANCH   1  13
HETATM   13  C7  UNL     1      64.328  34.540  25.679  1.00  0.00     0.005 C 
HETATM   14  C5  UNL     1      64.573  33.333  26.212  1.00  0.00    -0.064 C 
HETATM   15  C6  UNL     1      65.831  32.617  25.914  1.00  0.00     0.048 C 
BRANCH  14  16
HETATM   16  C4  UNL     1      63.569  32.765  27.085  1.00  0.00     0.008 C 
HETATM   17  C2  UNL     1      63.684  32.255  28.278  1.00  0.00    -0.087 C 
HETATM   18  C1  UNL     1      62.389  31.749  28.899  1.00  0.00     0.043 C 
HETATM   19  C3  UNL     1      64.867  32.091  29.117  1.00  0.00     0.043 C 
ENDBRANCH  14  16
ENDBRANCH   1  13
BRANCH   7  20
HETATM   20  N2  UNL     1      65.230  38.038  19.601  1.00  0.00    -0.383 N 
ATOM     21  H22 UNL     1      64.227  38.111  19.429  1.00  0.00     0.157 HD
ATOM     22  H21 UNL     1      65.900  38.075  18.833  1.00  0.00     0.157 HD
ENDBRANCH   7  20
BRANCH   6  23
HETATM   23  N1  UNL     1      67.606  39.333  20.521  1.00  0.00    -0.112 N 
HETATM   24  O1  UNL     1      67.125  40.290  19.852  1.00  0.00    -0.532 OA
HETATM   25  O2  UNL     1      68.949  39.176  20.484  1.00  0.00    -0.532 OA
ENDBRANCH   6  23
TORSDOF 4
ENDMDL
MODEL 2
REMARK VINA RESULT: -7.121806839      4.118      8.149
REMARK  4 active torsions:
REMARK  status: ('A' for Active; 'I' for Inactive)
REMARK    1  A    between atoms: C4_4  and  C5_5 
REMARK    2  A    between atoms: C7_7  and  C8_8 
REMARK    3  A    between atoms: C13_13  and  N1_14 
REMARK    4  A    between atoms: C14_17  and  N2_18 
ROOT
HETATM    1  C8  UNL     1      64.852  36.653  22.455  1.00  0.00     0.107 C 
HETATM    2  C9  UNL     1      63.501  36.049  22.635  1.00  0.00     0.034 C 
HETATM    3  C10 UNL     1      63.301  35.176  23.811  1.00  0.00     0.045 C 
HETATM    4  C11 UNL     1      64.533  34.738  24.519  1.00  0.00    -0.012 A 
HETATM    5  C12 UNL     1      64.470  33.602  25.285  1.00  0.00     0.051 A 
HETATM    6  C13 UNL     1      65.609  33.182  25.974  1.00  0.00     0.146 A 
HETATM    7  C14 UNL     1      66.758  33.923  25.858  1.00  0.00     0.134 A 
HETATM    8  N3  UNL     1      66.794  35.052  25.087  1.00  0.00    -0.327 N 
ATOM      9  H3  UNL     1      67.659  35.589  25.014  1.00  0.00     0.169 HD
HETATM   10  C15 UNL     1      65.701  35.455  24.427  1.00  0.00     0.109 A 
HETATM   11  N4  UNL     1      65.704  36.618  23.615  1.00  0.00    -0.368 N 
ATOM     12  H4  UNL     1      66.298  37.415  23.848  1.00  0.00     0.161 HD
ENDROOT
BRANCH   1  13
HETATM   13  C7  UNL     1      64.861  37.945  21.761  1.00  0.00     0.005 C 
HETATM   14  C5  UNL     1      65.702  38.309  20.781  1.00  0.00    -0.064 C 
HETATM   15  C6  UNL     1      66.744  37.380  20.295  1.00  0.00     0.048 C 
BRANCH  14  16
HETATM   16  C4  UNL     1      65.551  39.634  20.220  1.00  0.00     0.008 C 
HETATM   17  C2  UNL     1      65.004  40.016  19.101  1.00  0.00    -0.087 C 
HETATM   18  C1  UNL     1      65.028  41.516  18.840  1.00  0.00     0.043 C 
HETATM   19  C3  UNL     1      64.369  39.225  18.051  1.00  0.00     0.043 C 
ENDBRANCH  14  16
ENDBRANCH   1  13
BRANCH   7  20
HETATM   20  N2  UNL     1      67.831  33.568  26.452  1.00  0.00    -0.383 N 
ATOM     21  H22 UNL     1      67.797  33.438  27.464  1.00  0.00     0.157 HD
ATOM     22  H21 UNL     1      68.699  33.434  25.933  1.00  0.00     0.157 HD
ENDBRANCH   7  20
BRANCH   6  23
HETATM   23  N1  UNL     1      65.454  32.007  26.731  1.00  0.00    -0.112 N 
HETATM   24  O1  UNL     1      65.809  30.889  26.261  1.00  0.00    -0.532 OA
HETATM   25  O2  UNL     1      64.930  32.006  27.978  1.00  0.00    -0.532 OA
ENDBRANCH   6  23
TORSDOF 4
ENDMDL
MODEL 3
REMARK VINA RESULT: -7.080384040      4.121      8.287
REMARK  4 active torsions:
REMARK  status: ('A' for Active; 'I' for Inactive)
REMARK    1  A    between atoms: C4_4  and  C5_5 
REMARK    2  A    between atoms: C7_7  and  C8_8 
REMARK    3  A    between atoms: C13_13  and  N1_14 
REMARK    4  A    between atoms: C14_17  and  N2_18 
ROOT
HETATM    1  C8  UNL     1      66.358  37.336  23.142  1.00  0.00     0.107 C 
HETATM    2  C9  UNL     1      65.074  37.891  23.656  1.00  0.00     0.034 C 
HETATM    3  C10 UNL     1      64.485  37.241  24.847  1.00  0.00     0.045 C 
HETATM    4  C11 UNL     1      65.056  35.922  25.224  1.00  0.00    -0.012 A 
HETATM    5  C12 UNL     1      64.288  35.076  25.983  1.00  0.00     0.051 A 
HETATM    6  C13 UNL     1      64.811  33.839  26.364  1.00  0.00     0.146 A 
HETATM    7  C14 UNL     1      66.081  33.511  25.962  1.00  0.00     0.134 A 
HETATM    8  N3  UNL     1      66.827  34.372  25.205  1.00  0.00    -0.327 N 
ATOM      9  H3  UNL     1      67.769  34.108  24.916  1.00  0.00     0.169 HD
HETATM   10  C15 UNL     1      66.325  35.559  24.840  1.00  0.00     0.109 A 
HETATM   11  N4  UNL     1      67.067  36.474  24.051  1.00  0.00    -0.368 N 
ATOM     12  H4  UNL     1      68.084  36.520  24.125  1.00  0.00     0.161 HD
ENDROOT
BRANCH   1  13
HETATM   13  C7  UNL     1      67.222  38.310  22.465  1.00  0.00     0.005 C 
HETATM   14  C5  UNL     1      67.404  38.417  21.140  1.00  0.00    -0.064 C 
HETATM   15  C6  UNL     1      66.706  37.510  20.205  1.00  0.00     0.048 C 
BRANCH  14  16
HETATM   16  C4  UNL     1      68.302  39.447  20.665  1.00  0.00     0.008 C 
HETATM   17  C2  UNL     1      68.108  40.392  19.789  1.00  0.00    -0.087 C 
HETATM   18  C1  UNL     1      69.300  41.306  19.539  1.00  0.00     0.043 C 
HETATM   19  C3  UNL     1      66.919  40.713  19.004  1.00  0.00     0.043 C 
ENDBRANCH  14  16
ENDBRANCH   1  13
BRANCH   7  20
HETATM   20  N2  UNL     1      66.596  32.383  26.268  1.00  0.00    -0.383 N 
ATOM     21  H22 UNL     1      66.019  31.717  26.782  1.00  0.00     0.157 HD
ATOM     22  H21 UNL     1      67.560  32.161  26.019  1.00  0.00     0.157 HD
ENDBRANCH   7  20
BRANCH   6  23
HETATM   23  N1  UNL     1      63.954  33.037  27.138  1.00  0.00    -0.112 N 
HETATM   24  O1  UNL     1      62.710  33.029  26.917  1.00  0.00    -0.532 OA
HETATM   25  O2  UNL     1      64.401  32.244  28.138  1.00  0.00    -0.532 OA
ENDBRANCH   6  23
TORSDOF 4
ENDMDL
MODEL 4
REMARK VINA RESULT: -6.896676181      4.611      8.240
REMARK  4 active torsions:
REMARK  status: ('A' for Active; 'I' for Inactive)
REMARK    1  A    between atoms: C4_4  and  C5_5 
REMARK    2  A    between atoms: C7_7  and  C8_8 
REMARK    3  A    between atoms: C13_13  and  N1_14 
REMARK    4  A    between atoms: C14_17  and  N2_18 
ROOT
HETATM    1  C8  UNL     1      64.876  35.962  24.152  1.00  0.00     0.107 C 
HETATM    2  C9  UNL     1      66.235  35.641  24.672  1.00  0.00     0.034 C 
HETATM    3  C10 UNL     1      66.362  34.456  25.548  1.00  0.00     0.045 C 
HETATM    4  C11 UNL     1      65.091  33.891  26.074  1.00  0.00    -0.012 A 
HETATM    5  C12 UNL     1      65.143  33.133  27.215  1.00  0.00     0.051 A 
HETATM    6  C13 UNL     1      63.965  32.576  27.717  1.00  0.00     0.146 A 
HETATM    7  C14 UNL     1      62.791  32.811  27.048  1.00  0.00     0.134 A 
HETATM    8  N3  UNL     1      62.766  33.572  25.912  1.00  0.00    -0.327 N 
ATOM      9  H3  UNL     1      61.882  33.734  25.429  1.00  0.00     0.169 HD
HETATM   10  C15 UNL     1      63.896  34.105  25.430  1.00  0.00     0.109 A 
HETATM   11  N4  UNL     1      63.907  34.903  24.258  1.00  0.00    -0.368 N 
ATOM     12  H4  UNL     1      63.241  34.730  23.504  1.00  0.00     0.161 HD
ENDROOT
BRANCH   1  13
HETATM   13  C7  UNL     1      64.859  36.643  22.852  1.00  0.00     0.005 C 
HETATM   14  C5  UNL     1      64.702  37.960  22.653  1.00  0.00    -0.064 C 
HETATM   15  C6  UNL     1      64.528  38.882  23.795  1.00  0.00     0.048 C 
BRANCH  14  16
HETATM   16  C4  UNL     1      64.714  38.442  21.288  1.00  0.00     0.008 C 
HETATM   17  C2  UNL     1      65.691  38.511  20.430  1.00  0.00    -0.087 C 
HETATM   18  C1  UNL     1      65.324  39.081  19.066  1.00  0.00     0.043 C 
HETATM   19  C3  UNL     1      67.092  38.126  20.572  1.00  0.00     0.043 C 
ENDBRANCH  14  16
ENDBRANCH   1  13
BRANCH   7  20
HETATM   20  N2  UNL     1      61.684  32.341  27.478  1.00  0.00    -0.383 N 
ATOM     21  H22 UNL     1      61.193  31.664  26.894  1.00  0.00     0.157 HD
ATOM     22  H21 UNL     1      61.296  32.645  28.371  1.00  0.00     0.157 HD
ENDBRANCH   7  20
BRANCH   6  23
HETATM   23  N1  UNL     1      64.112  31.816  28.891  1.00  0.00    -0.112 N 
HETATM   24  O1  UNL     1      65.256  31.626  29.393  1.00  0.00    -0.532 OA
HETATM   25  O2  UNL     1      63.062  31.260  29.538  1.00  0.00    -0.532 OA
ENDBRANCH   6  23
TORSDOF 4
ENDMDL
MODEL 5
REMARK VINA RESULT: -6.714937896      4.217      5.067
REMARK  4 active torsions:
REMARK  status: ('A' for Active; 'I' for Inactive)
REMARK    1  A    between atoms: C4_4  and  C5_5 
REMARK    2  A    between atoms: C7_7  and  C8_8 
REMARK    3  A    between atoms: C13_13  and  N1_14 
REMARK    4  A    between atoms: C14_17  and  N2_18 
ROOT
HETATM    1  C8  UNL     1      65.536  36.800  25.945  1.00  0.00     0.107 C 
HETATM    2  C9  UNL     1      64.848  37.424  24.780  1.00  0.00     0.034 C 
HETATM    3  C10 UNL     1      65.148  38.845  24.499  1.00  0.00     0.045 C 
HETATM    4  C11 UNL     1      65.853  39.591  25.574  1.00  0.00    -0.012 A 
HETATM    5  C12 UNL     1      65.745  40.958  25.590  1.00  0.00     0.051 A 
HETATM    6  C13 UNL     1      66.413  41.681  26.580  1.00  0.00     0.146 A 
HETATM    7  C14 UNL     1      67.156  40.995  27.507  1.00  0.00     0.134 A 
HETATM    8  N3  UNL     1      67.247  39.631  27.469  1.00  0.00    -0.327 N 
ATOM      9  H3  UNL     1      67.805  39.140  28.167  1.00  0.00     0.169 HD
HETATM   10  C15 UNL     1      66.606  38.937  26.519  1.00  0.00     0.109 A 
HETATM   11  N4  UNL     1      66.674  37.522  26.452  1.00  0.00    -0.368 N 
ATOM     12  H4  UNL     1      67.511  37.026  26.757  1.00  0.00     0.161 HD
ENDROOT
BRANCH   1  13
HETATM   13  C7  UNL     1      65.767  35.356  25.822  1.00  0.00     0.005 C 
HETATM   14  C5  UNL     1      64.824  34.402  25.825  1.00  0.00    -0.064 C 
HETATM   15  C6  UNL     1      63.394  34.754  25.956  1.00  0.00     0.048 C 
BRANCH  14  16
HETATM   16  C4  UNL     1      65.254  33.027  25.693  1.00  0.00     0.008 C 
HETATM   17  C2  UNL     1      65.355  32.088  26.591  1.00  0.00    -0.087 C 
HETATM   18  C1  UNL     1      65.851  30.743  26.076  1.00  0.00     0.043 C 
HETATM   19  C3  UNL     1      65.068  32.125  28.022  1.00  0.00     0.043 C 
ENDBRANCH  14  16
ENDBRANCH   1  13
BRANCH   7  20
HETATM   20  N2  UNL     1      67.769  41.610  28.443  1.00  0.00    -0.383 N 
ATOM     21  H22 UNL     1      68.270  42.466  28.205  1.00  0.00     0.157 HD
ATOM     22  H21 UNL     1      67.770  41.247  29.397  1.00  0.00     0.157 HD
ENDBRANCH   7  20
BRANCH   6  23
HETATM   23  N1  UNL     1      66.245  43.076  26.522  1.00  0.00    -0.112 N 
HETATM   24  O1  UNL     1      66.563  43.717  25.481  1.00  0.00    -0.532 OA
HETATM   25  O2  UNL     1      65.741  43.795  27.551  1.00  0.00    -0.532 OA
ENDBRANCH   6  23
TORSDOF 4
ENDMDL
