MODEL 1
REMARK VINA RESULT: -7.752927273      0.000      0.000
REMARK  4 active torsions:
REMARK  status: ('A' for Active; 'I' for Inactive)
REMARK    1  A    between atoms: O1_1  and  N1_3 
REMARK       I    between atoms: C1_5  and  N2_6 
REMARK       I    between atoms: C1_5  and  N4_18 
REMARK    2  A    between atoms: N2_6  and  N3_8 
REMARK    3  A    between atoms: C2_10  and  C3_11 
REMARK    4  A    between atoms: N4_18  and  C10_20 
ROOT
HETATM    1  N1  UNL     1      68.043  37.304  24.151  1.00  0.00    -0.097 N 
ATOM      2  H1  UNL     1      68.473  36.546  23.623  1.00  0.00     0.213 HD
HETATM    3  C1  UNL     1      67.678  37.098  25.366  1.00  0.00     0.716 C 
HETATM    4  N2  UNL     1      67.894  35.810  25.920  1.00  0.00    -0.131 N 
ATOM      5  H2  UNL     1      68.708  35.619  26.504  1.00  0.00     0.205 HD
HETATM    6  N4  UNL     1      67.080  38.085  26.167  1.00  0.00    -0.189 N 
ATOM      7  H4  UNL     1      66.088  38.298  26.057  1.00  0.00     0.184 HD
ENDROOT
BRANCH   1   8
HETATM    8  O1  UNL     1      67.867  38.517  23.554  1.00  0.00    -0.276 OA
ATOM      9  H1  UNL     1      67.000  38.877  23.413  1.00  0.00     0.245 HD
ENDBRANCH   1   8
BRANCH   4  10
HETATM   10  N3  UNL     1      66.966  34.817  25.643  1.00  0.00    -0.301 N 
HETATM   11  C2  UNL     1      66.971  33.642  26.155  1.00  0.00     0.085 C 
ATOM     12  H3  UNL     1      66.222  35.040  24.981  1.00  0.00     0.186 HD
BRANCH  11  13
HETATM   13  C3  UNL     1      65.922  32.694  25.767  1.00  0.00     0.025 C 
HETATM   14  C4  UNL     1      64.640  33.392  25.449  1.00  0.00     0.010 C 
HETATM   15  C5  UNL     1      63.757  33.607  26.648  1.00  0.00     0.001 C 
HETATM   16  C6  UNL     1      63.154  32.317  27.148  1.00  0.00     0.000 C 
HETATM   17  C7  UNL     1      63.908  31.773  28.346  1.00  0.00     0.000 C 
HETATM   18  C8  UNL     1      65.383  32.038  28.131  1.00  0.00     0.001 C 
HETATM   19  C9  UNL     1      65.753  31.567  26.763  1.00  0.00     0.010 C 
ENDBRANCH  11  13
ENDBRANCH   4  10
BRANCH   6  20
HETATM   20  C10 UNL     1      67.849  38.784  27.125  1.00  0.00     0.051 A 
HETATM   21  C11 UNL     1      67.325  39.155  28.365  1.00  0.00     0.030 A 
HETATM   22  C12 UNL     1      68.067  39.835  29.301  1.00  0.00     0.004 A 
HETATM   23  C13 UNL     1      69.368  40.153  28.999  1.00  0.00     0.024 A 
HETATM   24  C14 UNL     1      69.911  39.795  27.778  1.00  0.00     0.036 A 
HETATM   25 CL1  UNL     1      71.580  40.206  27.394  1.00  0.00    -0.084 Cl
HETATM   26  C15 UNL     1      69.160  39.119  26.855  1.00  0.00     0.053 A 
ENDBRANCH   6  20
TORSDOF 4
ENDMDL
MODEL 2
REMARK VINA RESULT: -7.734529691      4.259      7.731
REMARK  4 active torsions:
REMARK  status: ('A' for Active; 'I' for Inactive)
REMARK    1  A    between atoms: O1_1  and  N1_3 
REMARK       I    between atoms: C1_5  and  N2_6 
REMARK       I    between atoms: C1_5  and  N4_18 
REMARK    2  A    between atoms: N2_6  and  N3_8 
REMARK    3  A    between atoms: C2_10  and  C3_11 
REMARK    4  A    between atoms: N4_18  and  C10_20 
ROOT
HETATM    1  N1  UNL     1      65.617  37.438  25.297  1.00  0.00    -0.097 N 
ATOM      2  H1  UNL     1      66.415  38.061  25.417  1.00  0.00     0.213 HD
HETATM    3  C1  UNL     1      65.788  36.299  24.730  1.00  0.00     0.716 C 
HETATM    4  N2  UNL     1      67.095  35.958  24.294  1.00  0.00    -0.131 N 
ATOM      5  H2  UNL     1      67.702  35.368  24.864  1.00  0.00     0.205 HD
HETATM    6  N4  UNL     1      64.747  35.378  24.523  1.00  0.00    -0.189 N 
ATOM      7  H4  UNL     1      64.100  35.506  23.745  1.00  0.00     0.184 HD
ENDROOT
BRANCH   1   8
HETATM    8  O1  UNL     1      64.390  37.832  25.741  1.00  0.00    -0.276 OA
ATOM      9  H1  UNL     1      64.233  38.721  26.036  1.00  0.00     0.245 HD
ENDBRANCH   1   8
BRANCH   4  10
HETATM   10  N3  UNL     1      67.523  36.450  23.070  1.00  0.00    -0.301 N 
HETATM   11  C2  UNL     1      66.937  37.375  22.403  1.00  0.00     0.085 C 
ATOM     12  H3  UNL     1      68.369  36.044  22.669  1.00  0.00     0.186 HD
BRANCH  11  13
HETATM   13  C3  UNL     1      67.507  37.794  21.119  1.00  0.00     0.025 C 
HETATM   14  C4  UNL     1      68.366  39.007  21.268  1.00  0.00     0.010 C 
HETATM   15  C5  UNL     1      67.607  40.302  21.153  1.00  0.00     0.001 C 
HETATM   16  C6  UNL     1      67.144  40.565  19.740  1.00  0.00     0.000 C 
HETATM   17  C7  UNL     1      65.685  40.197  19.550  1.00  0.00     0.000 C 
HETATM   18  C8  UNL     1      65.409  38.946  20.355  1.00  0.00     0.001 C 
HETATM   19  C9  UNL     1      66.462  37.936  20.033  1.00  0.00     0.010 C 
ENDBRANCH  11  13
ENDBRANCH   4  10
BRANCH   6  20
HETATM   20  C10 UNL     1      64.593  34.274  25.392  1.00  0.00     0.051 A 
HETATM   21  C11 UNL     1      63.437  34.088  26.152  1.00  0.00     0.030 A 
HETATM   22  C12 UNL     1      63.280  33.017  26.999  1.00  0.00     0.004 A 
HETATM   23  C13 UNL     1      64.301  32.103  27.094  1.00  0.00     0.024 A 
HETATM   24  C14 UNL     1      65.457  32.266  26.352  1.00  0.00     0.036 A 
HETATM   25 CL1  UNL     1      66.764  31.092  26.477  1.00  0.00    -0.084 Cl
HETATM   26  C15 UNL     1      65.599  33.337  25.512  1.00  0.00     0.053 A 
ENDBRANCH   6  20
TORSDOF 4
ENDMDL
MODEL 3
REMARK VINA RESULT: -7.653117865      1.215      1.346
REMARK  4 active torsions:
REMARK  status: ('A' for Active; 'I' for Inactive)
REMARK    1  A    between atoms: O1_1  and  N1_3 
REMARK       I    between atoms: C1_5  and  N2_6 
REMARK       I    between atoms: C1_5  and  N4_18 
REMARK    2  A    between atoms: N2_6  and  N3_8 
REMARK    3  A    between atoms: C2_10  and  C3_11 
REMARK    4  A    between atoms: N4_18  and  C10_20 
ROOT
HETATM    1  N1  UNL     1      68.092  37.295  24.453  1.00  0.00    -0.097 N 
ATOM      2  H1  UNL     1      68.564  36.556  23.933  1.00  0.00     0.213 HD
HETATM    3  C1  UNL     1      67.685  37.062  25.649  1.00  0.00     0.716 C 
HETATM    4  N2  UNL     1      67.913  35.772  26.194  1.00  0.00    -0.131 N 
ATOM      5  H2  UNL     1      68.708  35.595  26.809  1.00  0.00     0.205 HD
HETATM    6  N4  UNL     1      67.028  38.021  26.438  1.00  0.00    -0.189 N 
ATOM      7  H4  UNL     1      66.036  38.209  26.291  1.00  0.00     0.184 HD
ENDROOT
BRANCH   1   8
HETATM    8  O1  UNL     1      67.907  38.511  23.865  1.00  0.00    -0.276 OA
ATOM      9  H1  UNL     1      67.459  38.594  23.032  1.00  0.00     0.245 HD
ENDBRANCH   1   8
BRANCH   4  10
HETATM   10  N3  UNL     1      67.025  34.759  25.867  1.00  0.00    -0.301 N 
HETATM   11  C2  UNL     1      67.052  33.572  26.351  1.00  0.00     0.085 C 
ATOM     12  H3  UNL     1      66.293  34.975  25.190  1.00  0.00     0.186 HD
BRANCH  11  13
HETATM   13  C3  UNL     1      66.044  32.603  25.910  1.00  0.00     0.025 C 
HETATM   14  C4  UNL     1      64.782  33.278  25.482  1.00  0.00     0.010 C 
HETATM   15  C5  UNL     1      63.811  33.510  26.609  1.00  0.00     0.001 C 
HETATM   16  C6  UNL     1      63.187  32.224  27.094  1.00  0.00     0.000 C 
HETATM   17  C7  UNL     1      63.857  31.717  28.357  1.00  0.00     0.000 C 
HETATM   18  C8  UNL     1      65.340  31.995  28.243  1.00  0.00     0.001 C 
HETATM   19  C9  UNL     1      65.814  31.497  26.917  1.00  0.00     0.010 C 
ENDBRANCH  11  13
ENDBRANCH   4  10
BRANCH   6  20
HETATM   20  C10 UNL     1      67.738  38.727  27.436  1.00  0.00     0.051 A 
HETATM   21  C11 UNL     1      68.731  38.117  28.206  1.00  0.00     0.030 A 
HETATM   22  C12 UNL     1      69.426  38.796  29.178  1.00  0.00     0.004 A 
HETATM   23  C13 UNL     1      69.129  40.120  29.389  1.00  0.00     0.024 A 
HETATM   24  C14 UNL     1      68.150  40.747  28.640  1.00  0.00     0.036 A 
HETATM   25 CL1  UNL     1      67.772  42.445  28.915  1.00  0.00    -0.084 Cl
HETATM   26  C15 UNL     1      67.466  40.058  27.676  1.00  0.00     0.053 A 
ENDBRANCH   6  20
TORSDOF 4
ENDMDL
MODEL 4
REMARK VINA RESULT: -7.631714068      1.162      1.555
REMARK  4 active torsions:
REMARK  status: ('A' for Active; 'I' for Inactive)
REMARK    1  A    between atoms: O1_1  and  N1_3 
REMARK       I    between atoms: C1_5  and  N2_6 
REMARK       I    between atoms: C1_5  and  N4_18 
REMARK    2  A    between atoms: N2_6  and  N3_8 
REMARK    3  A    between atoms: C2_10  and  C3_11 
REMARK    4  A    between atoms: N4_18  and  C10_20 
ROOT
HETATM    1  N1  UNL     1      67.987  37.425  24.044  1.00  0.00    -0.097 N 
ATOM      2  H1  UNL     1      68.362  36.674  23.465  1.00  0.00     0.213 HD
HETATM    3  C1  UNL     1      67.671  37.180  25.264  1.00  0.00     0.716 C 
HETATM    4  N2  UNL     1      67.861  35.861  25.753  1.00  0.00    -0.131 N 
ATOM      5  H2  UNL     1      68.693  35.616  26.290  1.00  0.00     0.205 HD
HETATM    6  N4  UNL     1      67.148  38.153  26.133  1.00  0.00    -0.189 N 
ATOM      7  H4  UNL     1      66.162  38.407  26.079  1.00  0.00     0.184 HD
ENDROOT
BRANCH   1   8
HETATM    8  O1  UNL     1      67.831  38.668  23.506  1.00  0.00    -0.276 OA
ATOM      9  H1  UNL     1      68.505  39.059  22.963  1.00  0.00     0.245 HD
ENDBRANCH   1   8
BRANCH   4  10
HETATM   10  N3  UNL     1      66.883  34.917  25.480  1.00  0.00    -0.301 N 
HETATM   11  C2  UNL     1      66.866  33.722  25.943  1.00  0.00     0.085 C 
ATOM     12  H3  UNL     1      66.120  35.195  24.863  1.00  0.00     0.186 HD
BRANCH  11  13
HETATM   13  C3  UNL     1      65.763  32.831  25.567  1.00  0.00     0.025 C 
HETATM   14  C4  UNL     1      64.495  33.588  25.345  1.00  0.00     0.010 C 
HETATM   15  C5  UNL     1      63.680  33.779  26.595  1.00  0.00     0.001 C 
HETATM   16  C6  UNL     1      63.054  32.488  27.067  1.00  0.00     0.000 C 
HETATM   17  C7  UNL     1      63.845  31.863  28.200  1.00  0.00     0.000 C 
HETATM   18  C8  UNL     1      65.316  32.085  27.923  1.00  0.00     0.001 C 
HETATM   19  C9  UNL     1      65.601  31.666  26.518  1.00  0.00     0.010 C 
ENDBRANCH  11  13
ENDBRANCH   4  10
BRANCH   6  20
HETATM   20  C10 UNL     1      67.987  38.780  27.082  1.00  0.00     0.051 A 
HETATM   21  C11 UNL     1      69.255  39.259  26.744  1.00  0.00     0.030 A 
HETATM   22  C12 UNL     1      70.076  39.870  27.661  1.00  0.00     0.004 A 
HETATM   23  C13 UNL     1      69.625  40.012  28.950  1.00  0.00     0.024 A 
HETATM   24  C14 UNL     1      68.373  39.547  29.310  1.00  0.00     0.036 A 
HETATM   25 CL1  UNL     1      67.800  39.732  30.964  1.00  0.00    -0.084 Cl
HETATM   26  C15 UNL     1      67.566  38.941  28.386  1.00  0.00     0.053 A 
ENDBRANCH   6  20
TORSDOF 4
ENDMDL
MODEL 5
REMARK VINA RESULT: -7.390973651      4.450      7.796
REMARK  4 active torsions:
REMARK  status: ('A' for Active; 'I' for Inactive)
REMARK    1  A    between atoms: O1_1  and  N1_3 
REMARK       I    between atoms: C1_5  and  N2_6 
REMARK       I    between atoms: C1_5  and  N4_18 
REMARK    2  A    between atoms: N2_6  and  N3_8 
REMARK    3  A    between atoms: C2_10  and  C3_11 
REMARK    4  A    between atoms: N4_18  and  C10_20 
ROOT
HETATM    1  N1  UNL     1      65.394  37.013  25.132  1.00  0.00    -0.097 N 
ATOM      2  H1  UNL     1      65.962  37.860  25.140  1.00  0.00     0.213 HD
HETATM    3  C1  UNL     1      65.906  35.916  24.705  1.00  0.00     0.716 C 
HETATM    4  N2  UNL     1      67.253  35.935  24.259  1.00  0.00    -0.131 N 
ATOM      5  H2  UNL     1      68.013  35.639  24.871  1.00  0.00     0.205 HD
HETATM    6  N4  UNL     1      65.198  34.703  24.659  1.00  0.00    -0.189 N 
ATOM      7  H4  UNL     1      64.541  34.524  23.899  1.00  0.00     0.184 HD
ENDROOT
BRANCH   1   8
HETATM    8  O1  UNL     1      64.106  37.070  25.576  1.00  0.00    -0.276 OA
ATOM      9  H1  UNL     1      63.789  37.809  26.080  1.00  0.00     0.245 HD
ENDBRANCH   1   8
BRANCH   4  10
HETATM   10  N3  UNL     1      67.506  36.368  22.966  1.00  0.00    -0.301 N 
HETATM   11  C2  UNL     1      67.474  37.590  22.580  1.00  0.00     0.085 C 
ATOM     12  H3  UNL     1      67.736  35.660  22.269  1.00  0.00     0.186 HD
BRANCH  11  13
HETATM   13  C3  UNL     1      67.764  37.899  21.176  1.00  0.00     0.025 C 
HETATM   14  C4  UNL     1      68.482  39.202  21.037  1.00  0.00     0.010 C 
HETATM   15  C5  UNL     1      67.562  40.388  20.925  1.00  0.00     0.001 C 
HETATM   16  C6  UNL     1      66.840  40.422  19.599  1.00  0.00     0.000 C 
HETATM   17  C7  UNL     1      65.426  39.888  19.717  1.00  0.00     0.000 C 
HETATM   18  C8  UNL     1      65.444  38.726  20.686  1.00  0.00     0.001 C 
HETATM   19  C9  UNL     1      66.543  37.796  20.289  1.00  0.00     0.010 C 
ENDBRANCH  11  13
ENDBRANCH   4  10
BRANCH   6  20
HETATM   20  C10 UNL     1      65.394  33.729  25.665  1.00  0.00     0.051 A 
HETATM   21  C11 UNL     1      66.655  33.202  25.947  1.00  0.00     0.030 A 
HETATM   22  C12 UNL     1      66.853  32.256  26.924  1.00  0.00     0.004 A 
HETATM   23  C13 UNL     1      65.767  31.820  27.642  1.00  0.00     0.024 A 
HETATM   24  C14 UNL     1      64.506  32.327  27.382  1.00  0.00     0.036 A 
HETATM   25 CL1  UNL     1      63.116  31.765  28.305  1.00  0.00    -0.084 Cl
HETATM   26  C15 UNL     1      64.325  33.269  26.406  1.00  0.00     0.053 A 
ENDBRANCH   6  20
TORSDOF 4
ENDMDL
