MODEL 1
REMARK VINA RESULT: -7.567636301      0.000      0.000
REMARK  7 active torsions:
REMARK  status: ('A' for Active; 'I' for Inactive)
REMARK    1  A    between atoms: C2_2  and  C4_4 
REMARK    2  A    between atoms: C4_4  and  C5_5 
REMARK    3  A    between atoms: C5_5  and  O1_7 
REMARK    4  A    between atoms: C5_5  and  C7_9 
REMARK    5  A    between atoms: C8_12  and  N2_13 
REMARK    6  A    between atoms: N2_13  and  C9_15 
REMARK    7  A    between atoms: C13_22  and  C14_23 
ROOT
HETATM    1  C7  UNL     1       1.544  34.649  25.062  1.00  0.00     0.073 A 
HETATM    2  N1  UNL     1       0.465  34.123  25.639  1.00  0.00    -0.192 N 
ATOM      3  H1  UNL     1       0.620  33.498  26.430  1.00  0.00     0.184 HD
HETATM    4  C8  UNL     1      -0.816  34.341  25.272  1.00  0.00     0.679 A 
HETATM    5  N3  UNL     1      -0.994  35.160  24.233  1.00  0.00    -0.185 N 
ATOM      6  H3  UNL     1      -1.941  35.359  23.909  1.00  0.00     0.185 HD
HETATM    7  C12 UNL     1       0.072  35.738  23.592  1.00  0.00     0.103 A 
HETATM    8  S1  UNL     1       0.214  36.815  22.278  1.00  0.00    -0.069 SA
HETATM    9  C13 UNL     1       1.903  36.971  22.223  1.00  0.00     0.035 A 
HETATM   10  C17 UNL     1       2.326  36.164  23.248  1.00  0.00     0.037 A 
HETATM   11  C18 UNL     1       1.369  35.520  23.961  1.00  0.00     0.026 A 
ENDROOT
BRANCH   1  12
HETATM   12  C5  UNL     1       2.906  34.272  25.557  1.00  0.00     0.098 C 
HETATM   13  C6  UNL     1       3.720  35.443  25.943  1.00  0.00     0.053 C 
BRANCH  12  14
HETATM   14  C4  UNL     1       3.522  33.224  24.686  1.00  0.00     0.048 C 
BRANCH  14  15
HETATM   15  C2  UNL     1       4.251  32.115  25.362  1.00  0.00    -0.020 C 
HETATM   16  C1  UNL     1       4.074  30.809  24.529  1.00  0.00     0.009 C 
HETATM   17  C3  UNL     1       5.733  32.353  25.518  1.00  0.00     0.009 C 
ENDBRANCH  14  15
ENDBRANCH  12  14
BRANCH  12  18
HETATM   18  O1  UNL     1       2.674  33.562  26.791  1.00  0.00    -0.384 OA
ATOM     19  H1  UNL     1       2.182  34.191  27.304  1.00  0.00     0.211 HD
ENDBRANCH  12  18
ENDBRANCH   1  12
BRANCH   4  20
HETATM   20  N2  UNL     1      -1.756  33.768  25.917  1.00  0.00    -0.222 N 
ATOM     21  H2  UNL     1      -2.640  34.273  25.985  1.00  0.00     0.178 HD
BRANCH  20  22
HETATM   22  C9  UNL     1      -1.694  32.497  26.549  1.00  0.00     0.091 C 
HETATM   23  C10 UNL     1      -2.939  31.681  26.467  1.00  0.00     0.032 C 
HETATM   24  C11 UNL     1      -1.415  32.741  28.038  1.00  0.00     0.032 C 
ENDBRANCH  20  22
ENDBRANCH   4  20
BRANCH   9  25
HETATM   25  C14 UNL     1       2.743  37.783  21.292  1.00  0.00     0.056 A 
HETATM   26  C15 UNL     1       3.986  38.211  21.697  1.00  0.00     0.081 A 
HETATM   27  S2  UNL     1       4.515  39.067  20.317  1.00  0.00    -0.094 SA
HETATM   28  C16 UNL     1       3.145  38.833  19.330  1.00  0.00     0.138 A 
HETATM   29  N4  UNL     1       2.356  38.112  20.106  1.00  0.00    -0.358 N 
ATOM     30  H4  UNL     1       1.441  37.815  19.768  1.00  0.00     0.166 HD
ENDBRANCH   9  25
TORSDOF 7
ENDMDL
MODEL 2
REMARK VINA RESULT: -7.106072259      2.307      6.394
REMARK  7 active torsions:
REMARK  status: ('A' for Active; 'I' for Inactive)
REMARK    1  A    between atoms: C2_2  and  C4_4 
REMARK    2  A    between atoms: C4_4  and  C5_5 
REMARK    3  A    between atoms: C5_5  and  O1_7 
REMARK    4  A    between atoms: C5_5  and  C7_9 
REMARK    5  A    between atoms: C8_12  and  N2_13 
REMARK    6  A    between atoms: N2_13  and  C9_15 
REMARK    7  A    between atoms: C13_22  and  C14_23 
ROOT
HETATM    1  C7  UNL     1       2.194  35.179  24.494  1.00  0.00     0.073 A 
HETATM    2  N1  UNL     1       2.414  36.060  23.520  1.00  0.00    -0.192 N 
ATOM      3  H1  UNL     1       3.384  36.313  23.333  1.00  0.00     0.184 HD
HETATM    4  C8  UNL     1       1.469  36.650  22.756  1.00  0.00     0.679 A 
HETATM    5  N3  UNL     1       0.207  36.306  23.020  1.00  0.00    -0.185 N 
ATOM      6  H3  UNL     1      -0.550  36.722  22.476  1.00  0.00     0.185 HD
HETATM    7  C12 UNL     1      -0.092  35.403  24.009  1.00  0.00     0.103 A 
HETATM    8  S1  UNL     1      -1.548  34.738  24.595  1.00  0.00    -0.069 SA
HETATM    9  C13 UNL     1      -0.927  33.717  25.800  1.00  0.00     0.035 A 
HETATM   10  C17 UNL     1       0.426  33.923  25.717  1.00  0.00     0.037 A 
HETATM   11  C18 UNL     1       0.860  34.805  24.782  1.00  0.00     0.026 A 
ENDROOT
BRANCH   1  12
HETATM   12  C5  UNL     1       3.348  34.648  25.286  1.00  0.00     0.098 C 
HETATM   13  C6  UNL     1       4.252  35.713  25.768  1.00  0.00     0.053 C 
BRANCH  12  14
HETATM   14  C4  UNL     1       3.943  33.445  24.627  1.00  0.00     0.048 C 
BRANCH  14  15
HETATM   15  C2  UNL     1       4.524  32.397  25.512  1.00  0.00    -0.020 C 
HETATM   16  C1  UNL     1       4.188  30.993  24.926  1.00  0.00     0.009 C 
HETATM   17  C3  UNL     1       6.025  32.477  25.660  1.00  0.00     0.009 C 
ENDBRANCH  14  15
ENDBRANCH  12  14
BRANCH  12  18
HETATM   18  O1  UNL     1       2.760  34.095  26.482  1.00  0.00    -0.384 OA
ATOM     19  H1  UNL     1       2.578  34.869  27.001  1.00  0.00     0.211 HD
ENDBRANCH  12  18
ENDBRANCH   1  12
BRANCH   4  20
HETATM   20  N2  UNL     1       1.824  37.479  21.854  1.00  0.00    -0.222 N 
ATOM     21  H2  UNL     1       2.797  37.786  21.870  1.00  0.00     0.178 HD
BRANCH  20  22
HETATM   22  C9  UNL     1       0.999  38.019  20.830  1.00  0.00     0.091 C 
HETATM   23  C10 UNL     1       1.653  38.179  19.500  1.00  0.00     0.032 C 
HETATM   24  C11 UNL     1       0.560  39.416  21.286  1.00  0.00     0.032 C 
ENDBRANCH  20  22
ENDBRANCH   4  20
BRANCH   9  25
HETATM   25  C14 UNL     1      -1.659  32.809  26.733  1.00  0.00     0.056 A 
HETATM   26  C15 UNL     1      -1.220  32.670  28.030  1.00  0.00     0.081 A 
HETATM   27  S2  UNL     1      -2.359  31.562  28.655  1.00  0.00    -0.094 SA
HETATM   28  C16 UNL     1      -3.305  31.349  27.253  1.00  0.00     0.138 A 
HETATM   29  N4  UNL     1      -2.701  32.136  26.381  1.00  0.00    -0.358 N 
ATOM     30  H4  UNL     1      -3.059  32.211  25.428  1.00  0.00     0.166 HD
ENDBRANCH   9  25
TORSDOF 7
ENDMDL
MODEL 3
REMARK VINA RESULT: -6.789787626      4.233      7.947
REMARK  7 active torsions:
REMARK  status: ('A' for Active; 'I' for Inactive)
REMARK    1  A    between atoms: C2_2  and  C4_4 
REMARK    2  A    between atoms: C4_4  and  C5_5 
REMARK    3  A    between atoms: C5_5  and  O1_7 
REMARK    4  A    between atoms: C5_5  and  C7_9 
REMARK    5  A    between atoms: C8_12  and  N2_13 
REMARK    6  A    between atoms: N2_13  and  C9_15 
REMARK    7  A    between atoms: C13_22  and  C14_23 
ROOT
HETATM    1  C7  UNL     1       6.700  33.244  25.889  1.00  0.00     0.073 A 
HETATM    2  N1  UNL     1       7.771  32.525  25.561  1.00  0.00    -0.192 N 
ATOM      3  H1  UNL     1       8.684  32.936  25.758  1.00  0.00     0.184 HD
HETATM    4  C8  UNL     1       7.761  31.301  24.991  1.00  0.00     0.679 A 
HETATM    5  N3  UNL     1       6.556  30.784  24.741  1.00  0.00    -0.185 N 
ATOM      6  H3  UNL     1       6.486  29.862  24.309  1.00  0.00     0.185 HD
HETATM    7  C12 UNL     1       5.409  31.469  25.054  1.00  0.00     0.103 A 
HETATM    8  S1  UNL     1       3.748  31.120  24.895  1.00  0.00    -0.069 SA
HETATM    9  C13 UNL     1       3.097  32.539  25.561  1.00  0.00     0.035 A 
HETATM   10  C17 UNL     1       4.210  33.266  25.898  1.00  0.00     0.037 A 
HETATM   11  C18 UNL     1       5.416  32.707  25.631  1.00  0.00     0.026 A 
ENDROOT
BRANCH   1  12
HETATM   12  C5  UNL     1       6.876  34.611  26.473  1.00  0.00     0.098 C 
HETATM   13  C6  UNL     1       7.036  34.591  27.942  1.00  0.00     0.053 C 
BRANCH  12  14
HETATM   14  C4  UNL     1       5.911  35.581  25.869  1.00  0.00     0.048 C 
BRANCH  14  15
HETATM   15  C2  UNL     1       5.830  36.936  26.483  1.00  0.00    -0.020 C 
HETATM   16  C1  UNL     1       6.235  38.000  25.419  1.00  0.00     0.009 C 
HETATM   17  C3  UNL     1       4.456  37.304  26.988  1.00  0.00     0.009 C 
ENDBRANCH  14  15
ENDBRANCH  12  14
BRANCH  12  18
HETATM   18  O1  UNL     1       8.146  35.074  25.971  1.00  0.00    -0.384 OA
ATOM     19  H1  UNL     1       8.657  35.183  26.764  1.00  0.00     0.211 HD
ENDBRANCH  12  18
ENDBRANCH   1  12
BRANCH   4  20
HETATM   20  N2  UNL     1       8.868  30.725  24.730  1.00  0.00    -0.222 N 
ATOM     21  H2  UNL     1       9.208  30.050  25.415  1.00  0.00     0.178 HD
BRANCH  20  22
HETATM   22  C9  UNL     1       9.677  30.930  23.579  1.00  0.00     0.091 C 
HETATM   23  C10 UNL     1      10.399  29.724  23.082  1.00  0.00     0.032 C 
HETATM   24  C11 UNL     1      10.741  31.971  23.948  1.00  0.00     0.032 C 
ENDBRANCH  20  22
ENDBRANCH   4  20
BRANCH   9  25
HETATM   25  C14 UNL     1       1.665  32.920  25.745  1.00  0.00     0.056 A 
HETATM   26  C15 UNL     1       1.078  33.801  24.865  1.00  0.00     0.081 A 
HETATM   27  S2  UNL     1      -0.507  33.900  25.493  1.00  0.00    -0.094 SA
HETATM   28  C16 UNL     1      -0.327  32.835  26.812  1.00  0.00     0.138 A 
HETATM   29  N4  UNL     1       0.934  32.459  26.703  1.00  0.00    -0.358 N 
ATOM     30  H4  UNL     1       1.331  31.803  27.376  1.00  0.00     0.166 HD
ENDBRANCH   9  25
TORSDOF 7
ENDMDL
MODEL 4
REMARK VINA RESULT: -6.765680954      3.246      6.176
REMARK  7 active torsions:
REMARK  status: ('A' for Active; 'I' for Inactive)
REMARK    1  A    between atoms: C2_2  and  C4_4 
REMARK    2  A    between atoms: C4_4  and  C5_5 
REMARK    3  A    between atoms: C5_5  and  O1_7 
REMARK    4  A    between atoms: C5_5  and  C7_9 
REMARK    5  A    between atoms: C8_12  and  N2_13 
REMARK    6  A    between atoms: N2_13  and  C9_15 
REMARK    7  A    between atoms: C13_22  and  C14_23 
ROOT
HETATM    1  C7  UNL     1       0.504  35.383  25.091  1.00  0.00     0.073 A 
HETATM    2  N1  UNL     1       0.206  36.668  25.273  1.00  0.00    -0.192 N 
ATOM      3  H1  UNL     1      -0.776  36.932  25.190  1.00  0.00     0.184 HD
HETATM    4  C8  UNL     1       1.084  37.653  25.558  1.00  0.00     0.679 A 
HETATM    5  N3  UNL     1       2.363  37.284  25.659  1.00  0.00    -0.185 N 
ATOM      6  H3  UNL     1       3.071  37.987  25.871  1.00  0.00     0.185 HD
HETATM    7  C12 UNL     1       2.741  35.977  25.485  1.00  0.00     0.103 A 
HETATM    8  S1  UNL     1       4.239  35.166  25.554  1.00  0.00    -0.069 SA
HETATM    9  C13 UNL     1       3.719  33.585  25.222  1.00  0.00     0.035 A 
HETATM   10  C17 UNL     1       2.364  33.728  25.062  1.00  0.00     0.037 A 
HETATM   11  C18 UNL     1       1.856  34.978  25.198  1.00  0.00     0.026 A 
ENDROOT
BRANCH   1  12
HETATM   12  C5  UNL     1      -0.580  34.414  24.733  1.00  0.00     0.098 C 
HETATM   13  C6  UNL     1      -1.918  35.039  24.697  1.00  0.00     0.053 C 
BRANCH  12  14
HETATM   14  C4  UNL     1      -0.410  33.122  25.466  1.00  0.00     0.048 C 
BRANCH  14  15
HETATM   15  C2  UNL     1      -0.705  33.120  26.926  1.00  0.00    -0.020 C 
HETATM   16  C1  UNL     1      -2.078  32.423  27.165  1.00  0.00     0.009 C 
HETATM   17  C3  UNL     1       0.321  32.396  27.763  1.00  0.00     0.009 C 
ENDBRANCH  14  15
ENDBRANCH  12  14
BRANCH  12  18
HETATM   18  O1  UNL     1      -0.312  34.040  23.365  1.00  0.00    -0.384 OA
ATOM     19  H1  UNL     1      -0.211  33.097  23.424  1.00  0.00     0.211 HD
ENDBRANCH  12  18
ENDBRANCH   1  12
BRANCH   4  20
HETATM   20  N2  UNL     1       0.657  38.846  25.707  1.00  0.00    -0.222 N 
ATOM     21  H2  UNL     1       0.373  39.117  26.649  1.00  0.00     0.178 HD
BRANCH  20  22
HETATM   22  C9  UNL     1       0.536  39.834  24.692  1.00  0.00     0.091 C 
HETATM   23  C10 UNL     1       0.285  39.312  23.319  1.00  0.00     0.032 C 
HETATM   24  C11 UNL     1       1.862  40.604  24.645  1.00  0.00     0.032 C 
ENDBRANCH  20  22
ENDBRANCH   4  20
BRANCH   9  25
HETATM   25  C14 UNL     1       4.524  32.330  25.125  1.00  0.00     0.056 A 
HETATM   26  C15 UNL     1       3.938  31.182  24.644  1.00  0.00     0.081 A 
HETATM   27  S2  UNL     1       5.236  30.077  24.732  1.00  0.00    -0.094 SA
HETATM   28  C16 UNL     1       6.422  31.126  25.364  1.00  0.00     0.138 A 
HETATM   29  N4  UNL     1       5.764  32.265  25.474  1.00  0.00    -0.358 N 
ATOM     30  H4  UNL     1       6.236  33.094  25.835  1.00  0.00     0.166 HD
ENDBRANCH   9  25
TORSDOF 7
ENDMDL
MODEL 5
REMARK VINA RESULT: -6.722440330      3.964      6.986
REMARK  7 active torsions:
REMARK  status: ('A' for Active; 'I' for Inactive)
REMARK    1  A    between atoms: C2_2  and  C4_4 
REMARK    2  A    between atoms: C4_4  and  C5_5 
REMARK    3  A    between atoms: C5_5  and  O1_7 
REMARK    4  A    between atoms: C5_5  and  C7_9 
REMARK    5  A    between atoms: C8_12  and  N2_13 
REMARK    6  A    between atoms: N2_13  and  C9_15 
REMARK    7  A    between atoms: C13_22  and  C14_23 
ROOT
HETATM    1  C7  UNL     1       1.847  36.606  25.325  1.00  0.00     0.073 A 
HETATM    2  N1  UNL     1       1.874  37.847  25.806  1.00  0.00    -0.192 N 
ATOM      3  H1  UNL     1       1.063  38.435  25.616  1.00  0.00     0.184 HD
HETATM    4  C8  UNL     1       2.878  38.398  26.522  1.00  0.00     0.679 A 
HETATM    5  N3  UNL     1       3.929  37.610  26.756  1.00  0.00    -0.185 N 
ATOM      6  H3  UNL     1       4.719  37.974  27.290  1.00  0.00     0.185 HD
HETATM    7  C12 UNL     1       3.968  36.320  26.291  1.00  0.00     0.103 A 
HETATM    8  S1  UNL     1       5.110  35.059  26.410  1.00  0.00    -0.069 SA
HETATM    9  C13 UNL     1       4.286  33.851  25.548  1.00  0.00     0.035 A 
HETATM   10  C17 UNL     1       3.119  34.470  25.180  1.00  0.00     0.037 A 
HETATM   11  C18 UNL     1       2.955  35.759  25.568  1.00  0.00     0.026 A 
ENDROOT
BRANCH   1  12
HETATM   12  C5  UNL     1       0.679  36.154  24.506  1.00  0.00     0.098 C 
HETATM   13  C6  UNL     1       0.005  34.968  25.073  1.00  0.00     0.053 C 
BRANCH  12  14
HETATM   14  C4  UNL     1       1.010  36.163  23.047  1.00  0.00     0.048 C 
BRANCH  14  15
HETATM   15  C2  UNL     1      -0.026  36.687  22.114  1.00  0.00    -0.020 C 
HETATM   16  C1  UNL     1       0.676  37.469  20.964  1.00  0.00     0.009 C 
HETATM   17  C3  UNL     1      -0.881  35.619  21.477  1.00  0.00     0.009 C 
ENDBRANCH  14  15
ENDBRANCH  12  14
BRANCH  12  18
HETATM   18  O1  UNL     1      -0.291  37.217  24.617  1.00  0.00    -0.384 OA
ATOM     19  H1  UNL     1      -1.117  36.754  24.541  1.00  0.00     0.211 HD
ENDBRANCH  12  18
ENDBRANCH   1  12
BRANCH   4  20
HETATM   20  N2  UNL     1       2.770  39.605  26.921  1.00  0.00    -0.222 N 
ATOM     21  H2  UNL     1       1.887  40.076  26.723  1.00  0.00     0.178 HD
BRANCH  20  22
HETATM   22  C9  UNL     1       3.757  40.358  27.613  1.00  0.00     0.091 C 
HETATM   23  C10 UNL     1       3.653  40.335  29.100  1.00  0.00     0.032 C 
HETATM   24  C11 UNL     1       3.606  41.821  27.175  1.00  0.00     0.032 C 
ENDBRANCH  20  22
ENDBRANCH   4  20
BRANCH   9  25
HETATM   25  C14 UNL     1       4.712  32.451  25.253  1.00  0.00     0.056 A 
HETATM   26  C15 UNL     1       3.804  31.561  24.726  1.00  0.00     0.081 A 
HETATM   27  S2  UNL     1       4.757  30.152  24.579  1.00  0.00    -0.094 SA
HETATM   28  C16 UNL     1       6.225  30.771  25.186  1.00  0.00     0.138 A 
HETATM   29  N4  UNL     1       5.910  32.022  25.469  1.00  0.00    -0.358 N 
ATOM     30  H4  UNL     1       6.613  32.650  25.858  1.00  0.00     0.166 HD
ENDBRANCH   9  25
TORSDOF 7
ENDMDL
