MODEL 1
REMARK VINA RESULT: -8.723238499      0.000      0.000
REMARK  14 active torsions:
REMARK  status: ('A' for Active; 'I' for Inactive)
REMARK    1  A    between atoms: N1_5  and  C5_6 
REMARK    2  A    between atoms: C5_6  and  C6_7 
REMARK    3  A    between atoms: C6_7  and  N2_8 
REMARK       I    between atoms: N2_8  and  C7_10 
REMARK    4  A    between atoms: C7_10  and  C8_12 
REMARK    5  A    between atoms: C8_12  and  N3_13 
REMARK    6  A    between atoms: C8_12  and  C9_17 
REMARK    7  A    between atoms: C9_17  and  C10_18 
REMARK    8  A    between atoms: C10_18  and  N4_19 
REMARK    9  A    between atoms: C10_18  and  C11_23 
REMARK   10  A    between atoms: C11_23  and  C12_24 
REMARK   11  A    between atoms: N6_29  and  C15_30 
REMARK   12  A    between atoms: C15_30  and  C16_31 
REMARK   13  A    between atoms: C16_31  and  O2_32 
REMARK   14  A    between atoms: C16_31  and  N7_34 
REMARK       I    between atoms: N7_34  and  C17_35 
ROOT
HETATM    1  C10 UNL     1      -0.708  27.826   6.125  1.00  0.00     0.190 C 
ENDROOT
BRANCH   1   2
HETATM    2  C9  UNL     1       0.682  28.252   6.416  1.00  0.00     0.075 C 
BRANCH   2   3
HETATM    3  C8  UNL     1       0.995  29.686   6.279  1.00  0.00     0.276 C 
BRANCH   3   4
HETATM    4  C7  UNL     1       1.773  29.900   5.009  1.00  0.00     0.248 C 
HETATM    5  N2  UNL     1       2.209  28.824   4.223  1.00  0.00    -0.358 N 
ATOM      6  H2  UNL     1       1.981  27.885   4.553  1.00  0.00     0.162 HD
HETATM    7  O1  UNL     1       2.004  31.093   4.701  1.00  0.00    -0.271 OA
BRANCH   5   8
HETATM    8  C6  UNL     1       2.947  28.926   2.995  1.00  0.00     0.143 C 
BRANCH   8   9
HETATM    9  C5  UNL     1       3.368  27.569   2.523  1.00  0.00     0.148 C 
BRANCH   9  10
HETATM   10  N1  UNL     1       2.265  26.887   1.859  1.00  0.00    -0.359 N 
HETATM   11  C4  UNL     1       1.845  27.307   0.660  1.00  0.00     0.091 A 
HETATM   12  C3  UNL     1       0.824  26.681  -0.017  1.00  0.00     0.024 A 
HETATM   13  C2  UNL     1       0.193  25.586   0.529  1.00  0.00    -0.059 A 
HETATM   14  C1  UNL     1      -0.908  24.865  -0.160  1.00  0.00     0.048 C 
HETATM   15  C21 UNL     1       0.649  25.171   1.780  1.00  0.00     0.031 A 
HETATM   16  C19 UNL     1       1.693  25.836   2.435  1.00  0.00     0.007 A 
HETATM   17  C20 UNL     1       2.117  25.326   3.738  1.00  0.00     0.068 C 
ENDBRANCH   9  10
ENDBRANCH   8   9
ENDBRANCH   5   8
ENDBRANCH   3   4
BRANCH   3  18
HETATM   18  N3  UNL     1      -0.091  30.611   6.331  1.00  0.00    -0.066 N 
ATOM     19  H33 UNL     1       0.076  31.435   5.752  1.00  0.00     0.275 HD
ATOM     20  H32 UNL     1      -0.919  30.260   5.849  1.00  0.00     0.275 HD
ATOM     21  H31 UNL     1      -0.283  30.853   7.302  1.00  0.00     0.275 HD
ENDBRANCH   3  18
ENDBRANCH   2   3
ENDBRANCH   1   2
BRANCH   1  22
HETATM   22  N4  UNL     1      -1.243  26.900   7.103  1.00  0.00    -0.075 N 
ATOM     23  H43 UNL     1      -0.832  25.974   6.987  1.00  0.00     0.274 HD
ATOM     24  H42 UNL     1      -0.900  27.123   8.038  1.00  0.00     0.274 HD
ATOM     25  H41 UNL     1      -2.262  26.846   7.095  1.00  0.00     0.274 HD
ENDBRANCH   1  22
BRANCH   1  26
HETATM   26  C11 UNL     1      -0.928  27.321   4.725  1.00  0.00     0.074 C 
BRANCH  26  27
HETATM   27  C12 UNL     1      -1.576  28.341   3.875  1.00  0.00    -0.025 A 
HETATM   28  C13 UNL     1      -2.677  29.044   4.337  1.00  0.00     0.097 A 
HETATM   29  N5  UNL     1      -3.275  29.961   3.540  1.00  0.00    -0.361 N 
HETATM   30  C14 UNL     1      -2.838  30.222   2.302  1.00  0.00     0.182 A 
ATOM     31  H5  UNL     1      -4.086  30.470   3.894  1.00  0.00     0.166 HD
HETATM   32  N6  UNL     1      -1.783  29.573   1.810  1.00  0.00    -0.344 N 
HETATM   33  C18 UNL     1      -1.171  28.648   2.599  1.00  0.00     0.100 A 
BRANCH  32  34
HETATM   34  C15 UNL     1      -1.236  29.758   0.509  1.00  0.00     0.229 C 
BRANCH  34  35
HETATM   35  C16 UNL     1      -2.291  29.348  -0.515  1.00  0.00     0.211 C 
BRANCH  35  36
HETATM   36  O2  UNL     1      -3.480  29.881  -0.330  1.00  0.00    -0.338 OA
ATOM     37  H2  UNL     1      -4.200  29.261  -0.320  1.00  0.00     0.220 HD
ENDBRANCH  35  36
BRANCH  35  38
HETATM   38  N7  UNL     1      -2.104  28.541  -1.512  1.00  0.00    -0.353 NA
HETATM   39  C17 UNL     1      -1.801  27.866  -2.426  1.00  0.00     0.277 C 
HETATM   40  N8  UNL     1      -0.477  27.976  -3.035  1.00  0.00    -0.052 NA
HETATM   41  N9  UNL     1      -2.651  26.873  -3.054  1.00  0.00    -0.052 NA
ENDBRANCH  35  38
ENDBRANCH  34  35
ENDBRANCH  32  34
ENDBRANCH  26  27
ENDBRANCH   1  26
TORSDOF 14
ENDMDL
MODEL 2
REMARK VINA RESULT: -8.250402159      2.046      3.586
REMARK  14 active torsions:
REMARK  status: ('A' for Active; 'I' for Inactive)
REMARK    1  A    between atoms: N1_5  and  C5_6 
REMARK    2  A    between atoms: C5_6  and  C6_7 
REMARK    3  A    between atoms: C6_7  and  N2_8 
REMARK       I    between atoms: N2_8  and  C7_10 
REMARK    4  A    between atoms: C7_10  and  C8_12 
REMARK    5  A    between atoms: C8_12  and  N3_13 
REMARK    6  A    between atoms: C8_12  and  C9_17 
REMARK    7  A    between atoms: C9_17  and  C10_18 
REMARK    8  A    between atoms: C10_18  and  N4_19 
REMARK    9  A    between atoms: C10_18  and  C11_23 
REMARK   10  A    between atoms: C11_23  and  C12_24 
REMARK   11  A    between atoms: N6_29  and  C15_30 
REMARK   12  A    between atoms: C15_30  and  C16_31 
REMARK   13  A    between atoms: C16_31  and  O2_32 
REMARK   14  A    between atoms: C16_31  and  N7_34 
REMARK       I    between atoms: N7_34  and  C17_35 
ROOT
HETATM    1  C10 UNL     1      -0.340  27.946   6.255  1.00  0.00     0.190 C 
ENDROOT
BRANCH   1   2
HETATM    2  C9  UNL     1       1.097  28.295   6.370  1.00  0.00     0.075 C 
BRANCH   2   3
HETATM    3  C8  UNL     1       1.466  29.713   6.208  1.00  0.00     0.276 C 
BRANCH   3   4
HETATM    4  C7  UNL     1       2.149  29.895   4.880  1.00  0.00     0.248 C 
HETATM    5  N2  UNL     1       2.695  28.810   4.179  1.00  0.00    -0.358 N 
ATOM      6  H2  UNL     1       2.615  27.889   4.612  1.00  0.00     0.162 HD
HETATM    7  O1  UNL     1       2.198  31.068   4.443  1.00  0.00    -0.271 OA
BRANCH   5   8
HETATM    8  C6  UNL     1       3.357  28.880   2.906  1.00  0.00     0.143 C 
BRANCH   8   9
HETATM    9  C5  UNL     1       3.375  27.533   2.251  1.00  0.00     0.148 C 
BRANCH   9  10
HETATM   10  N1  UNL     1       2.081  27.230   1.655  1.00  0.00    -0.359 N 
HETATM   11  C4  UNL     1       1.599  28.003   0.675  1.00  0.00     0.091 A 
HETATM   12  C3  UNL     1       0.394  27.743   0.065  1.00  0.00     0.024 A 
HETATM   13  C2  UNL     1      -0.365  26.661   0.452  1.00  0.00    -0.059 A 
HETATM   14  C1  UNL     1      -1.668  26.326  -0.177  1.00  0.00     0.048 C 
HETATM   15  C21 UNL     1       0.159  25.874   1.477  1.00  0.00     0.031 A 
HETATM   16  C19 UNL     1       1.392  26.174   2.071  1.00  0.00     0.007 A 
HETATM   17  C20 UNL     1       1.874  25.288   3.130  1.00  0.00     0.068 C 
ENDBRANCH   9  10
ENDBRANCH   8   9
ENDBRANCH   5   8
ENDBRANCH   3   4
BRANCH   3  18
HETATM   18  N3  UNL     1       0.433  30.688   6.346  1.00  0.00    -0.066 N 
ATOM     19  H33 UNL     1       0.786  31.577   6.703  1.00  0.00     0.275 HD
ATOM     20  H32 UNL     1       0.091  31.019   5.444  1.00  0.00     0.275 HD
ATOM     21  H31 UNL     1      -0.315  30.309   6.926  1.00  0.00     0.275 HD
ENDBRANCH   3  18
ENDBRANCH   2   3
ENDBRANCH   1   2
BRANCH   1  22
HETATM   22  N4  UNL     1      -0.875  27.312   7.442  1.00  0.00    -0.075 N 
ATOM     23  H43 UNL     1      -1.346  27.995   8.037  1.00  0.00     0.274 HD
ATOM     24  H42 UNL     1      -1.670  26.716   7.207  1.00  0.00     0.274 HD
ATOM     25  H41 UNL     1      -0.177  26.790   7.973  1.00  0.00     0.274 HD
ENDBRANCH   1  22
BRANCH   1  26
HETATM   26  C11 UNL     1      -0.697  27.168   5.018  1.00  0.00     0.074 C 
BRANCH  26  27
HETATM   27  C12 UNL     1      -1.438  28.000   4.048  1.00  0.00    -0.025 A 
HETATM   28  C13 UNL     1      -0.789  29.000   3.340  1.00  0.00     0.097 A 
HETATM   29  N5  UNL     1      -1.484  29.770   2.470  1.00  0.00    -0.361 N 
HETATM   30  C14 UNL     1      -2.795  29.602   2.259  1.00  0.00     0.182 A 
ATOM     31  H5  UNL     1      -0.992  30.504   1.958  1.00  0.00     0.166 HD
HETATM   32  N6  UNL     1      -3.466  28.655   2.914  1.00  0.00    -0.344 N 
HETATM   33  C18 UNL     1      -2.782  27.872   3.792  1.00  0.00     0.100 A 
BRANCH  32  34
HETATM   34  C15 UNL     1      -4.858  28.390   2.780  1.00  0.00     0.229 C 
BRANCH  34  35
HETATM   35  C16 UNL     1      -5.596  29.725   2.742  1.00  0.00     0.211 C 
BRANCH  35  36
HETATM   36  O2  UNL     1      -6.240  29.970   1.621  1.00  0.00    -0.338 OA
ATOM     37  H2  UNL     1      -7.187  29.993   1.700  1.00  0.00     0.220 HD
ENDBRANCH  35  36
BRANCH  35  38
HETATM   38  N7  UNL     1      -5.627  30.600   3.698  1.00  0.00    -0.353 NA
HETATM   39  C17 UNL     1      -5.542  31.322   4.623  1.00  0.00     0.277 C 
HETATM   40  N8  UNL     1      -4.520  31.116   5.646  1.00  0.00    -0.052 NA
HETATM   41  N9  UNL     1      -6.396  32.467   4.873  1.00  0.00    -0.052 NA
ENDBRANCH  35  38
ENDBRANCH  34  35
ENDBRANCH  32  34
ENDBRANCH  26  27
ENDBRANCH   1  26
TORSDOF 14
ENDMDL
MODEL 3
REMARK VINA RESULT: -8.189478240      2.782      6.852
REMARK  14 active torsions:
REMARK  status: ('A' for Active; 'I' for Inactive)
REMARK    1  A    between atoms: N1_5  and  C5_6 
REMARK    2  A    between atoms: C5_6  and  C6_7 
REMARK    3  A    between atoms: C6_7  and  N2_8 
REMARK       I    between atoms: N2_8  and  C7_10 
REMARK    4  A    between atoms: C7_10  and  C8_12 
REMARK    5  A    between atoms: C8_12  and  N3_13 
REMARK    6  A    between atoms: C8_12  and  C9_17 
REMARK    7  A    between atoms: C9_17  and  C10_18 
REMARK    8  A    between atoms: C10_18  and  N4_19 
REMARK    9  A    between atoms: C10_18  and  C11_23 
REMARK   10  A    between atoms: C11_23  and  C12_24 
REMARK   11  A    between atoms: N6_29  and  C15_30 
REMARK   12  A    between atoms: C15_30  and  C16_31 
REMARK   13  A    between atoms: C16_31  and  O2_32 
REMARK   14  A    between atoms: C16_31  and  N7_34 
REMARK       I    between atoms: N7_34  and  C17_35 
ROOT
HETATM    1  C10 UNL     1      -1.675  28.620  -0.341  1.00  0.00     0.190 C 
ENDROOT
BRANCH   1   2
HETATM    2  C9  UNL     1      -2.089  28.610   1.083  1.00  0.00     0.075 C 
BRANCH   2   3
HETATM    3  C8  UNL     1      -1.581  29.693   1.945  1.00  0.00     0.276 C 
BRANCH   3   4
HETATM    4  C7  UNL     1      -2.148  29.526   3.329  1.00  0.00     0.248 C 
HETATM    5  N2  UNL     1      -2.005  28.328   4.042  1.00  0.00    -0.358 N 
ATOM      6  H2  UNL     1      -1.504  27.568   3.580  1.00  0.00     0.162 HD
HETATM    7  O1  UNL     1      -2.749  30.520   3.799  1.00  0.00    -0.271 OA
BRANCH   5   8
HETATM    8  C6  UNL     1      -2.500  28.075   5.367  1.00  0.00     0.143 C 
BRANCH   8   9
HETATM    9  C5  UNL     1      -3.452  26.919   5.358  1.00  0.00     0.148 C 
BRANCH   9  10
HETATM   10  N1  UNL     1      -4.819  27.376   5.143  1.00  0.00    -0.359 N 
HETATM   11  C4  UNL     1      -5.451  28.065   6.099  1.00  0.00     0.091 A 
HETATM   12  C3  UNL     1      -6.732  28.537   5.933  1.00  0.00     0.024 A 
HETATM   13  C2  UNL     1      -7.413  28.311   4.758  1.00  0.00    -0.059 A 
HETATM   14  C1  UNL     1      -8.793  28.805   4.519  1.00  0.00     0.048 C 
HETATM   15  C21 UNL     1      -6.731  27.588   3.779  1.00  0.00     0.031 A 
HETATM   16  C19 UNL     1      -5.426  27.125   3.988  1.00  0.00     0.007 A 
HETATM   17  C20 UNL     1      -4.780  26.387   2.904  1.00  0.00     0.068 C 
ENDBRANCH   9  10
ENDBRANCH   8   9
ENDBRANCH   5   8
ENDBRANCH   3   4
BRANCH   3  18
HETATM   18  N3  UNL     1      -0.167  29.866   2.030  1.00  0.00    -0.066 N 
ATOM     19  H33 UNL     1       0.211  29.525   2.914  1.00  0.00     0.275 HD
ATOM     20  H32 UNL     1       0.337  29.237   1.404  1.00  0.00     0.275 HD
ATOM     21  H31 UNL     1       0.065  30.845   1.862  1.00  0.00     0.275 HD
ENDBRANCH   3  18
ENDBRANCH   2   3
ENDBRANCH   1   2
BRANCH   1  22
HETATM   22  N4  UNL     1      -2.406  29.578  -1.146  1.00  0.00    -0.075 N 
ATOM     23  H43 UNL     1      -2.026  29.621  -2.092  1.00  0.00     0.274 HD
ATOM     24  H42 UNL     1      -3.343  29.234  -1.356  1.00  0.00     0.274 HD
ATOM     25  H41 UNL     1      -2.447  30.509  -0.730  1.00  0.00     0.274 HD
ENDBRANCH   1  22
BRANCH   1  26
HETATM   26  C11 UNL     1      -1.656  27.266  -0.997  1.00  0.00     0.074 C 
BRANCH  26  27
HETATM   27  C12 UNL     1      -0.639  26.383  -0.390  1.00  0.00    -0.025 A 
HETATM   28  C13 UNL     1      -0.963  25.084  -0.028  1.00  0.00     0.097 A 
HETATM   29  N5  UNL     1      -0.028  24.291   0.547  1.00  0.00    -0.361 N 
HETATM   30  C14 UNL     1       1.218  24.717   0.784  1.00  0.00     0.182 A 
ATOM     31  H5  UNL     1      -0.282  23.339   0.810  1.00  0.00     0.166 HD
HETATM   32  N6  UNL     1       1.581  25.957   0.455  1.00  0.00    -0.344 N 
HETATM   33  C18 UNL     1       0.653  26.766  -0.124  1.00  0.00     0.100 A 
BRANCH  32  34
HETATM   34  C15 UNL     1       2.870  26.522   0.667  1.00  0.00     0.229 C 
BRANCH  34  35
HETATM   35  C16 UNL     1       2.736  27.647   1.688  1.00  0.00     0.211 C 
BRANCH  35  36
HETATM   36  O2  UNL     1       3.451  28.721   1.428  1.00  0.00    -0.338 OA
ATOM     37  H2  UNL     1       4.380  28.636   1.608  1.00  0.00     0.220 HD
ENDBRANCH  35  36
BRANCH  35  38
HETATM   38  N7  UNL     1       1.997  27.618   2.753  1.00  0.00    -0.353 NA
HETATM   39  C17 UNL     1       1.279  27.462   3.672  1.00  0.00     0.277 C 
HETATM   40  N8  UNL     1       0.457  26.261   3.788  1.00  0.00    -0.052 NA
HETATM   41  N9  UNL     1       1.112  28.392   4.772  1.00  0.00    -0.052 NA
ENDBRANCH  35  38
ENDBRANCH  34  35
ENDBRANCH  32  34
ENDBRANCH  26  27
ENDBRANCH   1  26
TORSDOF 14
ENDMDL
MODEL 4
REMARK VINA RESULT: -8.145094355      1.924      3.129
REMARK  14 active torsions:
REMARK  status: ('A' for Active; 'I' for Inactive)
REMARK    1  A    between atoms: N1_5  and  C5_6 
REMARK    2  A    between atoms: C5_6  and  C6_7 
REMARK    3  A    between atoms: C6_7  and  N2_8 
REMARK       I    between atoms: N2_8  and  C7_10 
REMARK    4  A    between atoms: C7_10  and  C8_12 
REMARK    5  A    between atoms: C8_12  and  N3_13 
REMARK    6  A    between atoms: C8_12  and  C9_17 
REMARK    7  A    between atoms: C9_17  and  C10_18 
REMARK    8  A    between atoms: C10_18  and  N4_19 
REMARK    9  A    between atoms: C10_18  and  C11_23 
REMARK   10  A    between atoms: C11_23  and  C12_24 
REMARK   11  A    between atoms: N6_29  and  C15_30 
REMARK   12  A    between atoms: C15_30  and  C16_31 
REMARK   13  A    between atoms: C16_31  and  O2_32 
REMARK   14  A    between atoms: C16_31  and  N7_34 
REMARK       I    between atoms: N7_34  and  C17_35 
ROOT
HETATM    1  C10 UNL     1      -2.013  29.549   4.376  1.00  0.00     0.190 C 
ENDROOT
BRANCH   1   2
HETATM    2  C9  UNL     1      -2.175  29.213   5.811  1.00  0.00     0.075 C 
BRANCH   2   3
HETATM    3  C8  UNL     1      -1.074  29.576   6.722  1.00  0.00     0.276 C 
BRANCH   3   4
HETATM    4  C7  UNL     1      -0.060  28.465   6.735  1.00  0.00     0.248 C 
HETATM    5  N2  UNL     1       1.316  28.724   6.676  1.00  0.00    -0.358 N 
ATOM      6  H2  UNL     1       1.603  29.702   6.618  1.00  0.00     0.162 HD
HETATM    7  O1  UNL     1      -0.521  27.301   6.802  1.00  0.00    -0.271 OA
BRANCH   5   8
HETATM    8  C6  UNL     1       2.359  27.736   6.691  1.00  0.00     0.143 C 
BRANCH   8   9
HETATM    9  C5  UNL     1       3.281  27.930   5.527  1.00  0.00     0.148 C 
BRANCH   9  10
HETATM   10  N1  UNL     1       2.844  27.143   4.383  1.00  0.00    -0.359 N 
HETATM   11  C4  UNL     1       2.094  26.050   4.570  1.00  0.00     0.091 A 
HETATM   12  C3  UNL     1       1.638  25.289   3.520  1.00  0.00     0.024 A 
HETATM   13  C2  UNL     1       1.944  25.634   2.222  1.00  0.00    -0.059 A 
HETATM   14  C1  UNL     1       1.471  24.855   1.049  1.00  0.00     0.048 C 
HETATM   15  C21 UNL     1       2.728  26.776   2.056  1.00  0.00     0.031 A 
HETATM   16  C19 UNL     1       3.172  27.524   3.153  1.00  0.00     0.007 A 
HETATM   17  C20 UNL     1       3.978  28.714   2.888  1.00  0.00     0.068 C 
ENDBRANCH   9  10
ENDBRANCH   8   9
ENDBRANCH   5   8
ENDBRANCH   3   4
BRANCH   3  18
HETATM   18  N3  UNL     1      -0.411  30.820   6.499  1.00  0.00    -0.066 N 
ATOM     19  H33 UNL     1      -0.492  31.449   7.298  1.00  0.00     0.275 HD
ATOM     20  H32 UNL     1       0.605  30.720   6.494  1.00  0.00     0.275 HD
ATOM     21  H31 UNL     1      -0.761  31.241   5.639  1.00  0.00     0.275 HD
ENDBRANCH   3  18
ENDBRANCH   2   3
ENDBRANCH   1   2
BRANCH   1  22
HETATM   22  N4  UNL     1      -2.854  30.646   3.942  1.00  0.00    -0.075 N 
ATOM     23  H43 UNL     1      -3.260  30.450   3.027  1.00  0.00     0.274 HD
ATOM     24  H42 UNL     1      -3.707  30.690   4.500  1.00  0.00     0.274 HD
ATOM     25  H41 UNL     1      -2.376  31.547   3.941  1.00  0.00     0.274 HD
ENDBRANCH   1  22
BRANCH   1  26
HETATM   26  C11 UNL     1      -2.131  28.375   3.442  1.00  0.00     0.074 C 
BRANCH  26  27
HETATM   27  C12 UNL     1      -1.478  28.647   2.144  1.00  0.00    -0.025 A 
HETATM   28  C13 UNL     1      -0.131  28.967   2.089  1.00  0.00     0.097 A 
HETATM   29  N5  UNL     1       0.451  29.236   0.896  1.00  0.00    -0.361 N 
HETATM   30  C14 UNL     1      -0.234  29.201  -0.253  1.00  0.00     0.182 A 
ATOM     31  H5  UNL     1       1.443  29.472   0.873  1.00  0.00     0.166 HD
HETATM   32  N6  UNL     1      -1.531  28.899  -0.256  1.00  0.00    -0.344 N 
HETATM   33  C18 UNL     1      -2.131  28.627   0.935  1.00  0.00     0.100 A 
BRANCH  32  34
HETATM   34  C15 UNL     1      -2.362  28.842  -1.411  1.00  0.00     0.229 C 
BRANCH  34  35
HETATM   35  C16 UNL     1      -1.800  27.780  -2.351  1.00  0.00     0.211 C 
BRANCH  35  36
HETATM   36  O2  UNL     1      -1.797  26.556  -1.867  1.00  0.00    -0.338 OA
ATOM     37  H2  UNL     1      -2.612  26.285  -1.460  1.00  0.00     0.220 HD
ENDBRANCH  35  36
BRANCH  35  38
HETATM   38  N7  UNL     1      -1.340  27.993  -3.544  1.00  0.00    -0.353 NA
HETATM   39  C17 UNL     1      -0.918  28.328  -4.590  1.00  0.00     0.277 C 
HETATM   40  N8  UNL     1      -0.649  29.734  -4.877  1.00  0.00    -0.052 NA
HETATM   41  N9  UNL     1      -0.618  27.439  -5.696  1.00  0.00    -0.052 NA
ENDBRANCH  35  38
ENDBRANCH  34  35
ENDBRANCH  32  34
ENDBRANCH  26  27
ENDBRANCH   1  26
TORSDOF 14
ENDMDL
MODEL 5
REMARK VINA RESULT: -8.132903515      2.751      3.915
REMARK  14 active torsions:
REMARK  status: ('A' for Active; 'I' for Inactive)
REMARK    1  A    between atoms: N1_5  and  C5_6 
REMARK    2  A    between atoms: C5_6  and  C6_7 
REMARK    3  A    between atoms: C6_7  and  N2_8 
REMARK       I    between atoms: N2_8  and  C7_10 
REMARK    4  A    between atoms: C7_10  and  C8_12 
REMARK    5  A    between atoms: C8_12  and  N3_13 
REMARK    6  A    between atoms: C8_12  and  C9_17 
REMARK    7  A    between atoms: C9_17  and  C10_18 
REMARK    8  A    between atoms: C10_18  and  N4_19 
REMARK    9  A    between atoms: C10_18  and  C11_23 
REMARK   10  A    between atoms: C11_23  and  C12_24 
REMARK   11  A    between atoms: N6_29  and  C15_30 
REMARK   12  A    between atoms: C15_30  and  C16_31 
REMARK   13  A    between atoms: C16_31  and  O2_32 
REMARK   14  A    between atoms: C16_31  and  N7_34 
REMARK       I    between atoms: N7_34  and  C17_35 
ROOT
HETATM    1  C10 UNL     1      -2.164  30.593   6.229  1.00  0.00     0.190 C 
ENDROOT
BRANCH   1   2
HETATM    2  C9  UNL     1      -1.810  29.449   7.103  1.00  0.00     0.075 C 
BRANCH   2   3
HETATM    3  C8  UNL     1      -1.845  28.102   6.505  1.00  0.00     0.276 C 
BRANCH   3   4
HETATM    4  C7  UNL     1      -0.459  27.516   6.534  1.00  0.00     0.248 C 
HETATM    5  N2  UNL     1       0.678  28.323   6.681  1.00  0.00    -0.358 N 
ATOM      6  H2  UNL     1       0.527  29.328   6.762  1.00  0.00     0.162 HD
HETATM    7  O1  UNL     1      -0.388  26.270   6.419  1.00  0.00    -0.271 OA
BRANCH   5   8
HETATM    8  C6  UNL     1       2.037  27.858   6.727  1.00  0.00     0.143 C 
BRANCH   8   9
HETATM    9  C5  UNL     1       2.786  28.310   5.513  1.00  0.00     0.148 C 
BRANCH   9  10
HETATM   10  N1  UNL     1       2.500  27.445   4.376  1.00  0.00    -0.359 N 
HETATM   11  C4  UNL     1       2.399  26.123   4.551  1.00  0.00     0.091 A 
HETATM   12  C3  UNL     1       2.106  25.269   3.513  1.00  0.00     0.024 A 
HETATM   13  C2  UNL     1       1.905  25.758   2.242  1.00  0.00    -0.059 A 
HETATM   14  C1  UNL     1       1.576  24.885   1.086  1.00  0.00     0.048 C 
HETATM   15  C21 UNL     1       2.017  27.140   2.088  1.00  0.00     0.031 A 
HETATM   16  C19 UNL     1       2.316  27.975   3.172  1.00  0.00     0.007 A 
HETATM   17  C20 UNL     1       2.403  29.413   2.924  1.00  0.00     0.068 C 
ENDBRANCH   9  10
ENDBRANCH   8   9
ENDBRANCH   5   8
ENDBRANCH   3   4
BRANCH   3  18
HETATM   18  N3  UNL     1      -2.769  27.159   7.048  1.00  0.00    -0.066 N 
ATOM     19  H33 UNL     1      -2.707  26.250   6.589  1.00  0.00     0.275 HD
ATOM     20  H32 UNL     1      -2.511  26.864   7.990  1.00  0.00     0.275 HD
ATOM     21  H31 UNL     1      -3.711  27.548   7.010  1.00  0.00     0.275 HD
ENDBRANCH   3  18
ENDBRANCH   2   3
ENDBRANCH   1   2
BRANCH   1  22
HETATM   22  N4  UNL     1      -1.587  31.850   6.663  1.00  0.00    -0.075 N 
ATOM     23  H43 UNL     1      -0.733  32.054   6.143  1.00  0.00     0.274 HD
ATOM     24  H42 UNL     1      -2.162  32.636   6.360  1.00  0.00     0.274 HD
ATOM     25  H41 UNL     1      -1.417  31.892   7.668  1.00  0.00     0.274 HD
ENDBRANCH   1  22
BRANCH   1  26
HETATM   26  C11 UNL     1      -3.636  30.741   5.956  1.00  0.00     0.074 C 
BRANCH  26  27
HETATM   27  C12 UNL     1      -3.999  30.203   4.628  1.00  0.00    -0.025 A 
HETATM   28  C13 UNL     1      -3.873  30.991   3.494  1.00  0.00     0.097 A 
HETATM   29  N5  UNL     1      -4.229  30.494   2.285  1.00  0.00    -0.361 N 
HETATM   30  C14 UNL     1      -4.705  29.252   2.138  1.00  0.00     0.182 A 
ATOM     31  H5  UNL     1      -4.133  31.086   1.460  1.00  0.00     0.166 HD
HETATM   32  N6  UNL     1      -4.845  28.454   3.196  1.00  0.00    -0.344 N 
HETATM   33  C18 UNL     1      -4.492  28.939   4.418  1.00  0.00     0.100 A 
BRANCH  32  34
HETATM   34  C15 UNL     1      -5.348  27.123   3.164  1.00  0.00     0.229 C 
BRANCH  34  35
HETATM   35  C16 UNL     1      -4.167  26.164   3.279  1.00  0.00     0.211 C 
BRANCH  35  36
HETATM   36  O2  UNL     1      -3.942  25.706   4.492  1.00  0.00    -0.338 OA
ATOM     37  H2  UNL     1      -3.035  25.745   4.773  1.00  0.00     0.220 HD
ENDBRANCH  35  36
BRANCH  35  38
HETATM   38  N7  UNL     1      -3.400  25.788   2.304  1.00  0.00    -0.353 NA
HETATM   39  C17 UNL     1      -2.725  25.580   1.364  1.00  0.00     0.277 C 
HETATM   40  N8  UNL     1      -2.525  26.603   0.340  1.00  0.00    -0.052 NA
HETATM   41  N9  UNL     1      -2.026  24.339   1.092  1.00  0.00    -0.052 NA
ENDBRANCH  35  38
ENDBRANCH  34  35
ENDBRANCH  32  34
ENDBRANCH  26  27
ENDBRANCH   1  26
TORSDOF 14
ENDMDL
