MODEL 1
REMARK VINA RESULT: -6.903897314      0.000      0.000
REMARK  10 active torsions:
REMARK  status: ('A' for Active; 'I' for Inactive)
REMARK    1  A    between atoms: C4_4  and  C5_5 
REMARK    2  A    between atoms: C5_5  and  N1_6 
REMARK    3  A    between atoms: N1_6  and  C6_7 
REMARK    4  A    between atoms: C6_7  and  O1_8 
REMARK    5  A    between atoms: C6_7  and  N2_10 
REMARK       I    between atoms: N2_10  and  C7_12 
REMARK       I    between atoms: C7_12  and  N3_13 
REMARK    6  A    between atoms: C8_17  and  N5_18 
REMARK    7  A    between atoms: N5_18  and  C9_20 
REMARK    8  A    between atoms: C11_22  and  C13_24 
REMARK    9  A    between atoms: N6_27  and  C14_28 
REMARK   10  A    between atoms: C15_31  and  C16_32 
ROOT
HETATM    1  C9  UNL     1     -12.953   6.885  -1.500  1.00  0.00     0.178 C 
HETATM    2  C10 UNL     1     -13.883   6.114  -2.447  1.00  0.00     0.072 C 
HETATM    3  C11 UNL     1     -12.970   5.585  -3.500  1.00  0.00     0.115 C 
HETATM    4  C12 UNL     1     -13.066   6.520  -4.693  1.00  0.00     0.045 C 
HETATM    5  N6  UNL     1     -11.690   5.472  -2.911  1.00  0.00    -0.132 N 
HETATM    6  C18 UNL     1     -11.719   6.136  -1.656  1.00  0.00     0.262 C 
HETATM    7  O2  UNL     1     -10.800   6.108  -0.746  1.00  0.00    -0.270 OA
ENDROOT
BRANCH   1   8
HETATM    8  N5  UNL     1     -13.448   6.852  -0.172  1.00  0.00    -0.370 N 
ATOM      9  H5  UNL     1     -13.262   6.010   0.373  1.00  0.00     0.161 HD
BRANCH   8  10
HETATM   10  C8  UNL     1     -14.173   7.879   0.456  1.00  0.00     0.083 A 
HETATM   11  C4  UNL     1     -13.622   8.876   1.300  1.00  0.00     0.027 A 
HETATM   12  C3  UNL     1     -14.492   9.811   1.706  1.00  0.00     0.031 A 
HETATM   13  C2  UNL     1     -15.773   9.761   1.324  1.00  0.00    -0.018 A 
HETATM   14  C1  UNL     1     -16.920  10.691   1.661  1.00  0.00     0.056 C 
HETATM   15  S1  UNL     1     -15.798   8.352   0.338  1.00  0.00    -0.077 SA
BRANCH  11  16
HETATM   16  C5  UNL     1     -12.218   8.760   1.763  1.00  0.00     0.201 C 
BRANCH  16  17
HETATM   17  N1  UNL     1     -11.163   8.860   1.247  1.00  0.00    -0.377 NA
BRANCH  17  18
HETATM   18  C6  UNL     1      -9.962   9.137   0.726  1.00  0.00     0.300 C 
BRANCH  18  19
HETATM   19  O1  UNL     1      -9.166   9.916   1.472  1.00  0.00    -0.321 OA
ATOM     20  H1  UNL     1      -8.375  10.228   1.048  1.00  0.00     0.222 HD
ENDBRANCH  18  19
BRANCH  18  21
HETATM   21  N2  UNL     1      -9.426   8.716  -0.490  1.00  0.00    -0.285 N 
HETATM   22  C7  UNL     1      -9.932   9.206  -1.720  1.00  0.00     0.189 C 
HETATM   23  N3  UNL     1      -9.467   8.845  -2.841  1.00  0.00    -0.373 N 
HETATM   24  N4  UNL     1     -11.026  10.130  -1.727  1.00  0.00    -0.064 NA
ATOM     25  H32 UNL     1      -8.688   8.187  -2.835  1.00  0.00     0.158 HD
ATOM     26  H31 UNL     1      -9.831   9.198  -3.726  1.00  0.00     0.158 HD
ATOM     27  H2  UNL     1      -8.658   8.046  -0.495  1.00  0.00     0.173 HD
ENDBRANCH  18  21
ENDBRANCH  17  18
ENDBRANCH  16  17
ENDBRANCH  11  16
ENDBRANCH   8  10
ENDBRANCH   1   8
BRANCH   3  28
HETATM   28  C13 UNL     1     -13.497   4.218  -3.958  1.00  0.00     0.381 C 
HETATM   29  F1  UNL     1     -12.689   3.695  -4.944  1.00  0.00    -0.212 F 
HETATM   30  F2  UNL     1     -13.627   3.342  -2.910  1.00  0.00    -0.212 F 
ENDBRANCH   3  28
BRANCH   5  31
HETATM   31  C14 UNL     1     -10.455   4.826  -3.285  1.00  0.00     0.706 A 
HETATM   32  N7  UNL     1      -9.856   3.866  -2.511  1.00  0.00    -0.168 N 
HETATM   33  C15 UNL     1      -8.709   3.461  -3.063  1.00  0.00     0.220 A 
ATOM     34  H7  UNL     1     -10.234   3.509  -1.634  1.00  0.00     0.186 HD
HETATM   35  N8  UNL     1      -8.589   4.173  -4.196  1.00  0.00    -0.265 N 
HETATM   36  N9  UNL     1      -9.651   4.997  -4.324  1.00  0.00    -0.126 N 
ATOM     37  H8  UNL     1      -7.815   4.102  -4.857  1.00  0.00     0.189 HD
HETATM   38  C17 UNL     1      -9.790   5.900  -5.446  1.00  0.00     0.197 C 
BRANCH  33  39
HETATM   39  C16 UNL     1      -7.761   2.452  -2.501  1.00  0.00     0.451 C 
HETATM   40  F3  UNL     1      -7.075   1.789  -3.469  1.00  0.00    -0.163 F 
HETATM   41  F4  UNL     1      -6.886   3.098  -1.641  1.00  0.00    -0.163 F 
HETATM   42  F5  UNL     1      -8.444   1.521  -1.765  1.00  0.00    -0.163 F 
ENDBRANCH  33  39
ENDBRANCH   5  31
TORSDOF 10
ENDMDL
MODEL 2
REMARK VINA RESULT: -6.842246698      3.422      5.029
REMARK  10 active torsions:
REMARK  status: ('A' for Active; 'I' for Inactive)
REMARK    1  A    between atoms: C4_4  and  C5_5 
REMARK    2  A    between atoms: C5_5  and  N1_6 
REMARK    3  A    between atoms: N1_6  and  C6_7 
REMARK    4  A    between atoms: C6_7  and  O1_8 
REMARK    5  A    between atoms: C6_7  and  N2_10 
REMARK       I    between atoms: N2_10  and  C7_12 
REMARK       I    between atoms: C7_12  and  N3_13 
REMARK    6  A    between atoms: C8_17  and  N5_18 
REMARK    7  A    between atoms: N5_18  and  C9_20 
REMARK    8  A    between atoms: C11_22  and  C13_24 
REMARK    9  A    between atoms: N6_27  and  C14_28 
REMARK   10  A    between atoms: C15_31  and  C16_32 
ROOT
HETATM    1  C9  UNL     1     -13.374   7.657  -1.014  1.00  0.00     0.178 C 
HETATM    2  C10 UNL     1     -13.991   6.726  -2.068  1.00  0.00     0.072 C 
HETATM    3  C11 UNL     1     -12.832   6.308  -2.906  1.00  0.00     0.115 C 
HETATM    4  C12 UNL     1     -12.834   7.181  -4.149  1.00  0.00     0.045 C 
HETATM    5  N6  UNL     1     -11.682   6.406  -2.090  1.00  0.00    -0.132 N 
HETATM    6  C18 UNL     1     -12.039   7.097  -0.902  1.00  0.00     0.262 C 
HETATM    7  O2  UNL     1     -11.312   7.235   0.159  1.00  0.00    -0.270 OA
ENDROOT
BRANCH   1   8
HETATM    8  N5  UNL     1     -14.098   7.590   0.202  1.00  0.00    -0.370 N 
ATOM      9  H5  UNL     1     -14.076   6.705   0.710  1.00  0.00     0.161 HD
BRANCH   8  10
HETATM   10  C8  UNL     1     -14.845   8.637   0.768  1.00  0.00     0.083 A 
HETATM   11  C4  UNL     1     -16.235   8.849   0.584  1.00  0.00     0.027 A 
HETATM   12  C3  UNL     1     -16.749   9.856   1.303  1.00  0.00     0.031 A 
HETATM   13  C2  UNL     1     -15.970  10.581   2.113  1.00  0.00    -0.018 A 
HETATM   14  C1  UNL     1     -16.326  11.755   3.002  1.00  0.00     0.056 C 
HETATM   15  S1  UNL     1     -14.433   9.842   1.890  1.00  0.00    -0.077 SA
BRANCH  11  16
HETATM   16  C5  UNL     1     -16.973   8.067  -0.436  1.00  0.00     0.201 C 
BRANCH  16  17
HETATM   17  N1  UNL     1     -17.905   7.345  -0.414  1.00  0.00    -0.377 NA
BRANCH  17  18
HETATM   18  C6  UNL     1     -19.061   6.672  -0.377  1.00  0.00     0.300 C 
BRANCH  18  19
HETATM   19  O1  UNL     1     -19.363   6.089   0.793  1.00  0.00    -0.321 OA
ATOM     20  H1  UNL     1     -20.194   5.632   0.826  1.00  0.00     0.222 HD
ENDBRANCH  18  19
BRANCH  18  21
HETATM   21  N2  UNL     1     -19.998   6.502  -1.394  1.00  0.00    -0.285 N 
HETATM   22  C7  UNL     1     -21.039   7.443  -1.594  1.00  0.00     0.189 C 
HETATM   23  N3  UNL     1     -21.906   7.318  -2.508  1.00  0.00    -0.373 N 
HETATM   24  N4  UNL     1     -21.154   8.579  -0.729  1.00  0.00    -0.064 NA
ATOM     25  H32 UNL     1     -21.824   6.509  -3.124  1.00  0.00     0.158 HD
ATOM     26  H31 UNL     1     -22.655   7.996  -2.652  1.00  0.00     0.158 HD
ATOM     27  H2  UNL     1     -19.935   5.687  -2.004  1.00  0.00     0.173 HD
ENDBRANCH  18  21
ENDBRANCH  17  18
ENDBRANCH  16  17
ENDBRANCH  11  16
ENDBRANCH   8  10
ENDBRANCH   1   8
BRANCH   3  28
HETATM   28  C13 UNL     1     -13.065   4.864  -3.372  1.00  0.00     0.381 C 
HETATM   29  F1  UNL     1     -13.643   4.121  -2.366  1.00  0.00    -0.212 F 
HETATM   30  F2  UNL     1     -13.816   4.811  -4.519  1.00  0.00    -0.212 F 
ENDBRANCH   3  28
BRANCH   5  31
HETATM   31  C14 UNL     1     -10.320   5.942  -2.198  1.00  0.00     0.706 A 
HETATM   32  N7  UNL     1      -9.837   4.883  -1.472  1.00  0.00    -0.168 N 
HETATM   33  C15 UNL     1      -8.541   4.685  -1.727  1.00  0.00     0.220 A 
ATOM     34  H7  UNL     1     -10.392   4.323  -0.825  1.00  0.00     0.186 HD
HETATM   35  N8  UNL     1      -8.208   5.628  -2.625  1.00  0.00    -0.265 N 
HETATM   36  N9  UNL     1      -9.291   6.385  -2.905  1.00  0.00    -0.126 N 
ATOM     37  H8  UNL     1      -7.280   5.754  -3.031  1.00  0.00     0.189 HD
HETATM   38  C17 UNL     1      -9.232   7.494  -3.833  1.00  0.00     0.197 C 
BRANCH  33  39
HETATM   39  C16 UNL     1      -7.662   3.648  -1.106  1.00  0.00     0.451 C 
HETATM   40  F3  UNL     1      -6.345   3.975  -1.178  1.00  0.00    -0.163 F 
HETATM   41  F4  UNL     1      -8.049   3.474   0.213  1.00  0.00    -0.163 F 
HETATM   42  F5  UNL     1      -7.828   2.448  -1.743  1.00  0.00    -0.163 F 
ENDBRANCH  33  39
ENDBRANCH   5  31
TORSDOF 10
ENDMDL
MODEL 3
REMARK VINA RESULT: -6.642382447      1.917      2.543
REMARK  10 active torsions:
REMARK  status: ('A' for Active; 'I' for Inactive)
REMARK    1  A    between atoms: C4_4  and  C5_5 
REMARK    2  A    between atoms: C5_5  and  N1_6 
REMARK    3  A    between atoms: N1_6  and  C6_7 
REMARK    4  A    between atoms: C6_7  and  O1_8 
REMARK    5  A    between atoms: C6_7  and  N2_10 
REMARK       I    between atoms: N2_10  and  C7_12 
REMARK       I    between atoms: C7_12  and  N3_13 
REMARK    6  A    between atoms: C8_17  and  N5_18 
REMARK    7  A    between atoms: N5_18  and  C9_20 
REMARK    8  A    between atoms: C11_22  and  C13_24 
REMARK    9  A    between atoms: N6_27  and  C14_28 
REMARK   10  A    between atoms: C15_31  and  C16_32 
ROOT
HETATM    1  C9  UNL     1     -13.691   6.907  -2.610  1.00  0.00     0.178 C 
HETATM    2  C10 UNL     1     -14.014   5.805  -3.630  1.00  0.00     0.072 C 
HETATM    3  C11 UNL     1     -12.682   5.414  -4.174  1.00  0.00     0.115 C 
HETATM    4  C12 UNL     1     -12.506   6.136  -5.499  1.00  0.00     0.045 C 
HETATM    5  N6  UNL     1     -11.728   5.719  -3.177  1.00  0.00    -0.132 N 
HETATM    6  C18 UNL     1     -12.366   6.501  -2.177  1.00  0.00     0.262 C 
HETATM    7  O2  UNL     1     -11.877   6.830  -1.026  1.00  0.00    -0.270 OA
ENDROOT
BRANCH   1   8
HETATM    8  N5  UNL     1     -14.636   6.906  -1.553  1.00  0.00    -0.370 N 
ATOM      9  H5  UNL     1     -14.457   6.277  -0.770  1.00  0.00     0.161 HD
BRANCH   8  10
HETATM   10  C8  UNL     1     -15.796   7.696  -1.492  1.00  0.00     0.083 A 
HETATM   11  C4  UNL     1     -16.195   8.486  -0.386  1.00  0.00     0.027 A 
HETATM   12  C3  UNL     1     -17.287   9.234  -0.594  1.00  0.00     0.031 A 
HETATM   13  C2  UNL     1     -17.922   9.197  -1.771  1.00  0.00    -0.018 A 
HETATM   14  C1  UNL     1     -19.164   9.938  -2.224  1.00  0.00     0.056 C 
HETATM   15  S1  UNL     1     -16.967   8.077  -2.660  1.00  0.00    -0.077 SA
BRANCH  11  16
HETATM   16  C5  UNL     1     -15.491   8.351   0.912  1.00  0.00     0.201 C 
BRANCH  16  17
HETATM   17  N1  UNL     1     -14.369   8.446   1.261  1.00  0.00    -0.377 NA
BRANCH  17  18
HETATM   18  C6  UNL     1     -13.139   8.716   1.712  1.00  0.00     0.300 C 
BRANCH  18  19
HETATM   19  O1  UNL     1     -12.987   8.701   3.045  1.00  0.00    -0.321 OA
ATOM     20  H1  UNL     1     -12.110   8.877   3.364  1.00  0.00     0.222 HD
ENDBRANCH  18  19
BRANCH  18  21
HETATM   21  N2  UNL     1     -11.990   9.004   0.978  1.00  0.00    -0.285 N 
HETATM   22  C7  UNL     1     -10.703   8.879   1.557  1.00  0.00     0.189 C 
HETATM   23  N3  UNL     1      -9.639   9.132   0.918  1.00  0.00    -0.373 N 
HETATM   24  N4  UNL     1     -10.568   8.472   2.924  1.00  0.00    -0.064 NA
ATOM     25  H32 UNL     1      -9.735   9.422  -0.055  1.00  0.00     0.158 HD
ATOM     26  H31 UNL     1      -8.713   9.042   1.335  1.00  0.00     0.158 HD
ATOM     27  H2  UNL     1     -12.077   9.311   0.010  1.00  0.00     0.173 HD
ENDBRANCH  18  21
ENDBRANCH  17  18
ENDBRANCH  16  17
ENDBRANCH  11  16
ENDBRANCH   8  10
ENDBRANCH   1   8
BRANCH   3  28
HETATM   28  C13 UNL     1     -12.707   3.910  -4.483  1.00  0.00     0.381 C 
HETATM   29  F1  UNL     1     -11.600   3.552  -5.222  1.00  0.00    -0.212 F 
HETATM   30  F2  UNL     1     -12.802   3.155  -3.341  1.00  0.00    -0.212 F 
ENDBRANCH   3  28
BRANCH   5  31
HETATM   31  C14 UNL     1     -10.341   5.386  -2.966  1.00  0.00     0.706 A 
HETATM   32  N7  UNL     1      -9.939   4.388  -2.115  1.00  0.00    -0.168 N 
HETATM   33  C15 UNL     1      -8.606   4.311  -2.072  1.00  0.00     0.220 A 
ATOM     34  H7  UNL     1     -10.571   3.787  -1.587  1.00  0.00     0.186 HD
HETATM   35  N8  UNL     1      -8.167   5.269  -2.906  1.00  0.00    -0.265 N 
HETATM   36  N9  UNL     1      -9.225   5.914  -3.444  1.00  0.00    -0.126 N 
ATOM     37  H8  UNL     1      -7.187   5.476  -3.102  1.00  0.00     0.189 HD
HETATM   38  C17 UNL     1      -9.060   7.011  -4.375  1.00  0.00     0.197 C 
BRANCH  33  39
HETATM   39  C16 UNL     1      -7.798   3.371  -1.237  1.00  0.00     0.451 C 
HETATM   40  F3  UNL     1      -6.462   3.584  -1.364  1.00  0.00    -0.163 F 
HETATM   41  F4  UNL     1      -8.188   3.508   0.086  1.00  0.00    -0.163 F 
HETATM   42  F5  UNL     1      -8.050   2.077  -1.606  1.00  0.00    -0.163 F 
ENDBRANCH  33  39
ENDBRANCH   5  31
TORSDOF 10
ENDMDL
MODEL 4
REMARK VINA RESULT: -6.542858490      3.488      5.382
REMARK  10 active torsions:
REMARK  status: ('A' for Active; 'I' for Inactive)
REMARK    1  A    between atoms: C4_4  and  C5_5 
REMARK    2  A    between atoms: C5_5  and  N1_6 
REMARK    3  A    between atoms: N1_6  and  C6_7 
REMARK    4  A    between atoms: C6_7  and  O1_8 
REMARK    5  A    between atoms: C6_7  and  N2_10 
REMARK       I    between atoms: N2_10  and  C7_12 
REMARK       I    between atoms: C7_12  and  N3_13 
REMARK    6  A    between atoms: C8_17  and  N5_18 
REMARK    7  A    between atoms: N5_18  and  C9_20 
REMARK    8  A    between atoms: C11_22  and  C13_24 
REMARK    9  A    between atoms: N6_27  and  C14_28 
REMARK   10  A    between atoms: C15_31  and  C16_32 
ROOT
HETATM    1  C9  UNL     1     -16.007  11.418  -1.193  1.00  0.00     0.178 C 
HETATM    2  C10 UNL     1     -17.343  10.749  -0.841  1.00  0.00     0.072 C 
HETATM    3  C11 UNL     1     -17.398   9.557  -1.735  1.00  0.00     0.115 C 
HETATM    4  C12 UNL     1     -18.267   9.924  -2.925  1.00  0.00     0.045 C 
HETATM    5  N6  UNL     1     -16.060   9.211  -2.035  1.00  0.00    -0.132 N 
HETATM    6  C18 UNL     1     -15.219  10.266  -1.592  1.00  0.00     0.262 C 
HETATM    7  O2  UNL     1     -13.927  10.250  -1.533  1.00  0.00    -0.270 OA
ENDROOT
BRANCH   1   8
HETATM    8  N5  UNL     1     -15.466  12.085  -0.065  1.00  0.00    -0.370 N 
ATOM      9  H5  UNL     1     -14.525  12.468  -0.157  1.00  0.00     0.161 HD
BRANCH   8  10
HETATM   10  C8  UNL     1     -16.116  12.264   1.168  1.00  0.00     0.083 A 
HETATM   11  C4  UNL     1     -16.076  11.357   2.257  1.00  0.00     0.027 A 
HETATM   12  C3  UNL     1     -16.691  11.787   3.368  1.00  0.00     0.031 A 
HETATM   13  C2  UNL     1     -17.288  12.983   3.396  1.00  0.00    -0.018 A 
HETATM   14  C1  UNL     1     -18.041  13.662   4.522  1.00  0.00     0.056 C 
HETATM   15  S1  UNL     1     -16.988  13.572   1.808  1.00  0.00    -0.077 SA
BRANCH  11  16
HETATM   16  C5  UNL     1     -15.498  10.005   2.072  1.00  0.00     0.201 C 
BRANCH  16  17
HETATM   17  N1  UNL     1     -14.405   9.579   1.954  1.00  0.00    -0.377 NA
BRANCH  17  18
HETATM   18  C6  UNL     1     -13.228   8.945   1.887  1.00  0.00     0.300 C 
BRANCH  18  19
HETATM   19  O1  UNL     1     -12.721   8.527   3.056  1.00  0.00    -0.321 OA
ATOM     20  H1  UNL     1     -12.442   9.210   3.655  1.00  0.00     0.222 HD
ENDBRANCH  18  19
BRANCH  18  21
HETATM   21  N2  UNL     1     -12.462   8.656   0.760  1.00  0.00    -0.285 N 
HETATM   22  C7  UNL     1     -11.048   8.745   0.796  1.00  0.00     0.189 C 
HETATM   23  N3  UNL     1     -10.322   8.489  -0.210  1.00  0.00    -0.373 N 
HETATM   24  N4  UNL     1     -10.386   9.159   1.996  1.00  0.00    -0.064 NA
ATOM     25  H32 UNL     1     -10.794   8.193  -1.064  1.00  0.00     0.158 HD
ATOM     26  H31 UNL     1      -9.305   8.552  -0.184  1.00  0.00     0.158 HD
ATOM     27  H2  UNL     1     -12.925   8.376  -0.104  1.00  0.00     0.173 HD
ENDBRANCH  18  21
ENDBRANCH  17  18
ENDBRANCH  16  17
ENDBRANCH  11  16
ENDBRANCH   8  10
ENDBRANCH   1   8
BRANCH   3  28
HETATM   28  C13 UNL     1     -18.114   8.423  -0.988  1.00  0.00     0.381 C 
HETATM   29  F1  UNL     1     -18.438   7.404  -1.857  1.00  0.00    -0.212 F 
HETATM   30  F2  UNL     1     -17.371   7.954   0.066  1.00  0.00    -0.212 F 
ENDBRANCH   3  28
BRANCH   5  31
HETATM   31  C14 UNL     1     -15.419   8.062  -2.627  1.00  0.00     0.706 A 
HETATM   32  N7  UNL     1     -14.617   7.210  -1.911  1.00  0.00    -0.168 N 
HETATM   33  C15 UNL     1     -14.118   6.255  -2.700  1.00  0.00     0.220 A 
ATOM     34  H7  UNL     1     -14.427   7.295  -0.913  1.00  0.00     0.186 HD
HETATM   35  N8  UNL     1     -14.614   6.509  -3.923  1.00  0.00    -0.265 N 
HETATM   36  N9  UNL     1     -15.402   7.605  -3.869  1.00  0.00    -0.126 N 
ATOM     37  H8  UNL     1     -14.425   5.959  -4.762  1.00  0.00     0.189 HD
HETATM   38  C17 UNL     1     -16.067   8.129  -5.044  1.00  0.00     0.197 C 
BRANCH  33  39
HETATM   39  C16 UNL     1     -13.180   5.166  -2.292  1.00  0.00     0.451 C 
HETATM   40  F3  UNL     1     -13.759   3.938  -2.342  1.00  0.00    -0.163 F 
HETATM   41  F4  UNL     1     -12.064   5.212  -3.113  1.00  0.00    -0.163 F 
HETATM   42  F5  UNL     1     -12.750   5.371  -1.008  1.00  0.00    -0.163 F 
ENDBRANCH  33  39
ENDBRANCH   5  31
TORSDOF 10
ENDMDL
MODEL 5
REMARK VINA RESULT: -6.497043738      3.619      7.064
REMARK  10 active torsions:
REMARK  status: ('A' for Active; 'I' for Inactive)
REMARK    1  A    between atoms: C4_4  and  C5_5 
REMARK    2  A    between atoms: C5_5  and  N1_6 
REMARK    3  A    between atoms: N1_6  and  C6_7 
REMARK    4  A    between atoms: C6_7  and  O1_8 
REMARK    5  A    between atoms: C6_7  and  N2_10 
REMARK       I    between atoms: N2_10  and  C7_12 
REMARK       I    between atoms: C7_12  and  N3_13 
REMARK    6  A    between atoms: C8_17  and  N5_18 
REMARK    7  A    between atoms: N5_18  and  C9_20 
REMARK    8  A    between atoms: C11_22  and  C13_24 
REMARK    9  A    between atoms: N6_27  and  C14_28 
REMARK   10  A    between atoms: C15_31  and  C16_32 
ROOT
HETATM    1  C9  UNL     1     -11.522   5.229  -1.971  1.00  0.00     0.178 C 
HETATM    2  C10 UNL     1     -11.445   5.668  -3.441  1.00  0.00     0.072 C 
HETATM    3  C11 UNL     1     -12.817   6.166  -3.743  1.00  0.00     0.115 C 
HETATM    4  C12 UNL     1     -13.558   5.047  -4.455  1.00  0.00     0.045 C 
HETATM    5  N6  UNL     1     -13.376   6.589  -2.516  1.00  0.00    -0.132 N 
HETATM    6  C18 UNL     1     -12.532   6.141  -1.465  1.00  0.00     0.262 C 
HETATM    7  O2  UNL     1     -12.611   6.472  -0.217  1.00  0.00    -0.270 OA
ENDROOT
BRANCH   1   8
HETATM    8  N5  UNL     1     -10.268   5.393  -1.331  1.00  0.00    -0.370 N 
ATOM      9  H5  UNL     1     -10.275   5.768  -0.383  1.00  0.00     0.161 HD
BRANCH   8  10
HETATM   10  C8  UNL     1      -9.017   5.083  -1.892  1.00  0.00     0.083 A 
HETATM   11  C4  UNL     1      -8.021   6.026  -2.251  1.00  0.00     0.027 A 
HETATM   12  C3  UNL     1      -6.868   5.491  -2.676  1.00  0.00     0.031 A 
HETATM   13  C2  UNL     1      -6.719   4.163  -2.744  1.00  0.00    -0.018 A 
HETATM   14  C1  UNL     1      -5.526   3.346  -3.195  1.00  0.00     0.056 C 
HETATM   15  S1  UNL     1      -8.246   3.601  -2.186  1.00  0.00    -0.077 SA
BRANCH  11  16
HETATM   16  C5  UNL     1      -8.342   7.473  -2.257  1.00  0.00     0.201 C 
BRANCH  16  17
HETATM   17  N1  UNL     1      -9.161   8.145  -1.740  1.00  0.00    -0.377 NA
BRANCH  17  18
HETATM   18  C6  UNL     1      -9.991   8.895  -1.006  1.00  0.00     0.300 C 
BRANCH  18  19
HETATM   19  O1  UNL     1     -10.284  10.105  -1.507  1.00  0.00    -0.321 OA
ATOM     20  H1  UNL     1      -9.546  10.687  -1.643  1.00  0.00     0.222 HD
ENDBRANCH  18  19
BRANCH  18  21
HETATM   21  N2  UNL     1     -10.598   8.583   0.208  1.00  0.00    -0.285 N 
HETATM   22  C7  UNL     1     -10.086   9.083   1.431  1.00  0.00     0.189 C 
HETATM   23  N3  UNL     1     -10.613   8.820   2.551  1.00  0.00    -0.373 N 
HETATM   24  N4  UNL     1      -8.912   9.904   1.433  1.00  0.00    -0.064 NA
ATOM     25  H32 UNL     1     -11.449   8.235   2.550  1.00  0.00     0.158 HD
ATOM     26  H31 UNL     1     -10.244   9.180   3.431  1.00  0.00     0.158 HD
ATOM     27  H2  UNL     1     -11.425   7.986   0.218  1.00  0.00     0.173 HD
ENDBRANCH  18  21
ENDBRANCH  17  18
ENDBRANCH  16  17
ENDBRANCH  11  16
ENDBRANCH   8  10
ENDBRANCH   1   8
BRANCH   3  28
HETATM   28  C13 UNL     1     -12.703   7.332  -4.736  1.00  0.00     0.381 C 
HETATM   29  F1  UNL     1     -11.745   8.230  -4.316  1.00  0.00    -0.212 F 
HETATM   30  F2  UNL     1     -12.444   6.895  -6.010  1.00  0.00    -0.212 F 
ENDBRANCH   3  28
BRANCH   5  31
HETATM   31  C14 UNL     1     -14.535   7.365  -2.144  1.00  0.00     0.706 A 
HETATM   32  N7  UNL     1     -15.773   6.805  -1.954  1.00  0.00    -0.168 N 
HETATM   33  C15 UNL     1     -16.675   7.744  -1.656  1.00  0.00     0.220 A 
ATOM     34  H7  UNL     1     -15.976   5.809  -2.029  1.00  0.00     0.186 HD
HETATM   35  N8  UNL     1     -15.997   8.904  -1.657  1.00  0.00    -0.265 N 
HETATM   36  N9  UNL     1     -14.700   8.665  -1.953  1.00  0.00    -0.126 N 
ATOM     37  H8  UNL     1     -16.398   9.822  -1.465  1.00  0.00     0.189 HD
HETATM   38  C17 UNL     1     -13.726   9.731  -2.040  1.00  0.00     0.197 C 
BRANCH  33  39
HETATM   39  C16 UNL     1     -18.134   7.527  -1.412  1.00  0.00     0.451 C 
HETATM   40  F3  UNL     1     -18.398   6.287  -0.923  1.00  0.00    -0.163 F 
HETATM   41  F4  UNL     1     -18.585   8.501  -0.535  1.00  0.00    -0.163 F 
HETATM   42  F5  UNL     1     -18.833   7.672  -2.579  1.00  0.00    -0.163 F 
ENDBRANCH  33  39
ENDBRANCH   5  31
TORSDOF 10
ENDMDL
