MODEL 1
REMARK VINA RESULT: -6.767796965      0.000      0.000
REMARK  10 active torsions:
REMARK  status: ('A' for Active; 'I' for Inactive)
REMARK    1  A    between atoms: O1_2  and  C2_3 
REMARK    2  A    between atoms: C7_8  and  O2_9 
REMARK    3  A    between atoms: O2_9  and  C8_10 
REMARK       I    between atoms: N1_13  and  C11_14 
REMARK    4  A    between atoms: C11_14  and  O4_16 
REMARK    5  A    between atoms: O4_16  and  C12_17 
REMARK    6  A    between atoms: C12_17  and  C13_18 
REMARK    7  A    between atoms: C12_17  and  C16_23 
REMARK    8  A    between atoms: C13_18  and  O5_21 
REMARK    9  A    between atoms: C18_31  and  C19_32 
REMARK   10  A    between atoms: C20_36  and  N3_37 
ROOT
HETATM    1  C2  UNL     1      -9.232   5.727  -3.273  1.00  0.00     0.102 A 
HETATM    2  C3  UNL     1      -7.885   5.613  -3.439  1.00  0.00     0.049 A 
HETATM    3  C4  UNL     1      -7.180   4.428  -3.313  1.00  0.00    -0.029 A 
HETATM    4  C5  UNL     1      -7.878   3.294  -3.002  1.00  0.00     0.037 A 
HETATM    5  C6  UNL     1      -9.264   3.386  -2.826  1.00  0.00     0.069 A 
HETATM    6  C7  UNL     1      -9.945   4.566  -2.953  1.00  0.00     0.107 A 
HETATM    7  N2  UNL     1      -7.378   1.991  -2.825  1.00  0.00    -0.375 N 
ATOM      8  H2  UNL     1      -8.022   1.368  -2.339  1.00  0.00     0.160 HD
HETATM    9  C18 UNL     1      -6.124   1.358  -3.199  1.00  0.00     0.220 C 
HETATM   10  C20 UNL     1      -5.361   2.313  -4.048  1.00  0.00     0.215 C 
HETATM   11  C21 UNL     1      -4.933   3.486  -3.191  1.00  0.00     0.040 C 
HETATM   12  C22 UNL     1      -5.742   4.690  -3.565  1.00  0.00     0.043 C 
ENDROOT
BRANCH   6  13
HETATM   13  O2  UNL     1     -11.294   4.672  -2.785  1.00  0.00    -0.317 OA
BRANCH  13  14
HETATM   14  C8  UNL     1     -12.304   4.140  -3.573  1.00  0.00     0.270 C 
HETATM   15  C9  UNL     1     -12.658   5.070  -4.715  1.00  0.00     0.081 C 
HETATM   16  C10 UNL     1     -13.553   6.197  -4.335  1.00  0.00     0.135 C 
HETATM   17  N1  UNL     1     -13.997   6.182  -2.966  1.00  0.00    -0.306 N 
HETATM   18  C11 UNL     1     -14.789   7.250  -2.488  1.00  0.00     0.365 C 
HETATM   19  C17 UNL     1     -13.655   5.108  -2.074  1.00  0.00     0.301 C 
HETATM   20  O3  UNL     1     -15.097   8.196  -3.251  1.00  0.00    -0.238 OA
HETATM   21  O6  UNL     1     -13.469   3.932  -2.831  1.00  0.00    -0.342 OA
BRANCH  18  22
HETATM   22  O4  UNL     1     -15.260   7.315  -1.180  1.00  0.00    -0.286 OA
BRANCH  22  23
HETATM   23  C12 UNL     1     -15.134   8.514  -0.435  1.00  0.00     0.274 C 
BRANCH  23  24
HETATM   24  C13 UNL     1     -16.448   8.920   0.189  1.00  0.00     0.086 C 
HETATM   25  C14 UNL     1     -17.424   9.378  -0.857  1.00  0.00     0.048 C 
HETATM   26  C15 UNL     1     -16.310   9.912   1.292  1.00  0.00     0.048 C 
BRANCH  24  27
HETATM   27  O5  UNL     1     -16.986   7.735   0.747  1.00  0.00    -0.388 OA
ATOM     28  H5  UNL     1     -16.870   7.820   1.686  1.00  0.00     0.210 HD
ENDBRANCH  24  27
ENDBRANCH  23  24
BRANCH  23  29
HETATM   29  C16 UNL     1     -14.038   8.326   0.592  1.00  0.00     0.416 C 
HETATM   30  F1  UNL     1     -12.981   7.712  -0.095  1.00  0.00    -0.168 F 
HETATM   31  F2  UNL     1     -14.387   7.498   1.612  1.00  0.00    -0.168 F 
HETATM   32  F3  UNL     1     -13.544   9.545   1.006  1.00  0.00    -0.168 F 
ENDBRANCH  23  29
ENDBRANCH  22  23
ENDBRANCH  18  22
ENDBRANCH  13  14
ENDBRANCH   6  13
BRANCH   1  33
HETATM   33  O1  UNL     1      -9.903   6.938  -3.408  1.00  0.00    -0.353 OA
HETATM   34  C1  UNL     1      -9.866   7.836  -2.321  1.00  0.00     0.210 C 
ENDBRANCH   1  33
BRANCH   9  35
HETATM   35  C19 UNL     1      -6.410   0.039  -3.856  1.00  0.00     0.409 C 
HETATM   36  F4  UNL     1      -7.073   0.214  -5.055  1.00  0.00    -0.169 F 
HETATM   37  F5  UNL     1      -5.320  -0.739  -4.050  1.00  0.00    -0.169 F 
HETATM   38  F6  UNL     1      -7.293  -0.657  -3.030  1.00  0.00    -0.169 F 
ENDBRANCH   9  35
BRANCH  10  39
HETATM   39  N3  UNL     1      -4.173   1.754  -4.645  1.00  0.00    -0.073 N 
ATOM     40  H33 UNL     1      -3.414   1.721  -3.966  1.00  0.00     0.274 HD
ATOM     41  H32 UNL     1      -4.295   0.756  -4.817  1.00  0.00     0.274 HD
ATOM     42  H31 UNL     1      -3.871   2.228  -5.496  1.00  0.00     0.274 HD
ENDBRANCH  10  39
TORSDOF 10
ENDMDL
MODEL 2
REMARK VINA RESULT: -6.704728263      3.492      5.434
REMARK  10 active torsions:
REMARK  status: ('A' for Active; 'I' for Inactive)
REMARK    1  A    between atoms: O1_2  and  C2_3 
REMARK    2  A    between atoms: C7_8  and  O2_9 
REMARK    3  A    between atoms: O2_9  and  C8_10 
REMARK       I    between atoms: N1_13  and  C11_14 
REMARK    4  A    between atoms: C11_14  and  O4_16 
REMARK    5  A    between atoms: O4_16  and  C12_17 
REMARK    6  A    between atoms: C12_17  and  C13_18 
REMARK    7  A    between atoms: C12_17  and  C16_23 
REMARK    8  A    between atoms: C13_18  and  O5_21 
REMARK    9  A    between atoms: C18_31  and  C19_32 
REMARK   10  A    between atoms: C20_36  and  N3_37 
ROOT
HETATM    1  C2  UNL     1     -12.646   8.015  -0.558  1.00  0.00     0.102 A 
HETATM    2  C3  UNL     1     -11.417   7.513  -0.868  1.00  0.00     0.049 A 
HETATM    3  C4  UNL     1     -11.209   6.369  -1.619  1.00  0.00    -0.029 A 
HETATM    4  C5  UNL     1     -12.303   5.694  -2.083  1.00  0.00     0.037 A 
HETATM    5  C6  UNL     1     -13.577   6.191  -1.777  1.00  0.00     0.069 A 
HETATM    6  C7  UNL     1     -13.766   7.323  -1.034  1.00  0.00     0.107 A 
HETATM    7  N2  UNL     1     -12.332   4.521  -2.858  1.00  0.00    -0.375 N 
ATOM      8  H2  UNL     1     -13.239   4.052  -2.857  1.00  0.00     0.160 HD
HETATM    9  C18 UNL     1     -11.327   3.843  -3.659  1.00  0.00     0.220 C 
HETATM   10  C20 UNL     1     -10.122   4.715  -3.718  1.00  0.00     0.215 C 
HETATM   11  C21 UNL     1      -9.503   4.779  -2.337  1.00  0.00     0.040 C 
HETATM   12  C22 UNL     1      -9.750   6.135  -1.750  1.00  0.00     0.043 C 
ENDROOT
BRANCH   6  13
HETATM   13  O2  UNL     1     -14.999   7.819  -0.727  1.00  0.00    -0.317 OA
BRANCH  13  14
HETATM   14  C8  UNL     1     -16.241   7.343  -1.123  1.00  0.00     0.270 C 
HETATM   15  C9  UNL     1     -16.816   8.178  -2.248  1.00  0.00     0.081 C 
HETATM   16  C10 UNL     1     -17.449   9.451  -1.806  1.00  0.00     0.135 C 
HETATM   17  N1  UNL     1     -17.478   9.651  -0.381  1.00  0.00    -0.306 N 
HETATM   18  C11 UNL     1     -17.989  10.863   0.134  1.00  0.00     0.365 C 
HETATM   19  C17 UNL     1     -16.999   8.647   0.531  1.00  0.00     0.301 C 
HETATM   20  O3  UNL     1     -18.410  11.750  -0.645  1.00  0.00    -0.238 OA
HETATM   21  O6  UNL     1     -17.156   7.380  -0.069  1.00  0.00    -0.342 OA
BRANCH  18  22
HETATM   22  O4  UNL     1     -18.053  11.137   1.497  1.00  0.00    -0.286 OA
BRANCH  22  23
HETATM   23  C12 UNL     1     -17.340  12.235   2.039  1.00  0.00     0.274 C 
BRANCH  23  24
HETATM   24  C13 UNL     1     -18.228  13.105   2.896  1.00  0.00     0.086 C 
HETATM   25  C14 UNL     1     -18.397  14.468   2.288  1.00  0.00     0.048 C 
HETATM   26  C15 UNL     1     -17.800  13.183   4.321  1.00  0.00     0.048 C 
BRANCH  24  27
HETATM   27  O5  UNL     1     -19.503  12.493   2.867  1.00  0.00    -0.388 OA
ATOM     28  H5  UNL     1     -19.968  12.835   3.622  1.00  0.00     0.210 HD
ENDBRANCH  24  27
ENDBRANCH  23  24
BRANCH  23  29
HETATM   29  C16 UNL     1     -16.145  11.700   2.798  1.00  0.00     0.416 C 
HETATM   30  F1  UNL     1     -15.246  11.255   1.819  1.00  0.00    -0.168 F 
HETATM   31  F2  UNL     1     -16.436  10.634   3.589  1.00  0.00    -0.168 F 
HETATM   32  F3  UNL     1     -15.489  12.721   3.456  1.00  0.00    -0.168 F 
ENDBRANCH  23  29
ENDBRANCH  22  23
ENDBRANCH  18  22
ENDBRANCH  13  14
ENDBRANCH   6  13
BRANCH   1  33
HETATM   33  O1  UNL     1     -12.813   9.168   0.200  1.00  0.00    -0.353 OA
HETATM   34  C1  UNL     1     -12.843   9.035   1.604  1.00  0.00     0.210 C 
ENDBRANCH   1  33
BRANCH   9  35
HETATM   35  C19 UNL     1     -11.907   3.499  -4.999  1.00  0.00     0.409 C 
HETATM   36  F4  UNL     1     -12.009   4.620  -5.800  1.00  0.00    -0.169 F 
HETATM   37  F5  UNL     1     -11.244   2.525  -5.665  1.00  0.00    -0.169 F 
HETATM   38  F6  UNL     1     -13.215   3.062  -4.788  1.00  0.00    -0.169 F 
ENDBRANCH   9  35
BRANCH  10  39
HETATM   39  N3  UNL     1      -9.104   4.255  -4.630  1.00  0.00    -0.073 N 
ATOM     40  H33 UNL     1      -8.277   3.951  -4.118  1.00  0.00     0.274 HD
ATOM     41  H32 UNL     1      -9.379   3.370  -5.056  1.00  0.00     0.274 HD
ATOM     42  H31 UNL     1      -8.850   4.933  -5.349  1.00  0.00     0.274 HD
ENDBRANCH  10  39
TORSDOF 10
ENDMDL
MODEL 3
REMARK VINA RESULT: -6.688721899      5.013     11.818
REMARK  10 active torsions:
REMARK  status: ('A' for Active; 'I' for Inactive)
REMARK    1  A    between atoms: O1_2  and  C2_3 
REMARK    2  A    between atoms: C7_8  and  O2_9 
REMARK    3  A    between atoms: O2_9  and  C8_10 
REMARK       I    between atoms: N1_13  and  C11_14 
REMARK    4  A    between atoms: C11_14  and  O4_16 
REMARK    5  A    between atoms: O4_16  and  C12_17 
REMARK    6  A    between atoms: C12_17  and  C13_18 
REMARK    7  A    between atoms: C12_17  and  C16_23 
REMARK    8  A    between atoms: C13_18  and  O5_21 
REMARK    9  A    between atoms: C18_31  and  C19_32 
REMARK   10  A    between atoms: C20_36  and  N3_37 
ROOT
HETATM    1  C2  UNL     1     -15.675  11.052  -0.491  1.00  0.00     0.102 A 
HETATM    2  C3  UNL     1     -16.774  11.857  -0.464  1.00  0.00     0.049 A 
HETATM    3  C4  UNL     1     -17.414  12.263   0.695  1.00  0.00    -0.029 A 
HETATM    4  C5  UNL     1     -16.915  11.831   1.892  1.00  0.00     0.037 A 
HETATM    5  C6  UNL     1     -15.786  11.003   1.889  1.00  0.00     0.069 A 
HETATM    6  C7  UNL     1     -15.165  10.610   0.735  1.00  0.00     0.107 A 
HETATM    7  N2  UNL     1     -17.397  12.114   3.183  1.00  0.00    -0.375 N 
ATOM      8  H2  UNL     1     -17.044  11.479   3.900  1.00  0.00     0.160 HD
HETATM    9  C18 UNL     1     -18.298  13.132   3.698  1.00  0.00     0.220 C 
HETATM   10  C20 UNL     1     -18.591  14.087   2.595  1.00  0.00     0.215 C 
HETATM   11  C21 UNL     1     -19.415  13.372   1.544  1.00  0.00     0.040 C 
HETATM   12  C22 UNL     1     -18.564  13.128   0.335  1.00  0.00     0.043 C 
ENDROOT
BRANCH   6  13
HETATM   13  O2  UNL     1     -14.065   9.804   0.715  1.00  0.00    -0.317 OA
BRANCH  13  14
HETATM   14  C8  UNL     1     -13.548   9.028   1.743  1.00  0.00     0.270 C 
HETATM   15  C9  UNL     1     -12.034   9.060   1.747  1.00  0.00     0.081 C 
HETATM   16  C10 UNL     1     -11.397   8.157   0.749  1.00  0.00     0.135 C 
HETATM   17  N1  UNL     1     -12.316   7.347  -0.006  1.00  0.00    -0.306 N 
HETATM   18  C11 UNL     1     -11.815   6.512  -1.030  1.00  0.00     0.365 C 
HETATM   19  C17 UNL     1     -13.729   7.366   0.255  1.00  0.00     0.301 C 
HETATM   20  O3  UNL     1     -10.586   6.482  -1.274  1.00  0.00    -0.238 OA
HETATM   21  O6  UNL     1     -13.934   7.693   1.612  1.00  0.00    -0.342 OA
BRANCH  18  22
HETATM   22  O4  UNL     1     -12.632   5.697  -1.809  1.00  0.00    -0.286 OA
BRANCH  22  23
HETATM   23  C12 UNL     1     -12.518   5.711  -3.221  1.00  0.00     0.274 C 
BRANCH  23  24
HETATM   24  C13 UNL     1     -12.173   4.344  -3.763  1.00  0.00     0.086 C 
HETATM   25  C14 UNL     1     -11.664   4.436  -5.173  1.00  0.00     0.048 C 
HETATM   26  C15 UNL     1     -13.275   3.350  -3.635  1.00  0.00     0.048 C 
BRANCH  24  27
HETATM   27  O5  UNL     1     -11.091   3.885  -2.975  1.00  0.00    -0.388 OA
ATOM     28  H5  UNL     1     -10.662   3.216  -3.496  1.00  0.00     0.210 HD
ENDBRANCH  24  27
ENDBRANCH  23  24
BRANCH  23  29
HETATM   29  C16 UNL     1     -13.805   6.257  -3.799  1.00  0.00     0.416 C 
HETATM   30  F1  UNL     1     -14.709   6.302  -2.728  1.00  0.00    -0.168 F 
HETATM   31  F2  UNL     1     -14.354   5.457  -4.752  1.00  0.00    -0.168 F 
HETATM   32  F3  UNL     1     -13.644   7.568  -4.196  1.00  0.00    -0.168 F 
ENDBRANCH  23  29
ENDBRANCH  22  23
ENDBRANCH  18  22
ENDBRANCH  13  14
ENDBRANCH   6  13
BRANCH   1  33
HETATM   33  O1  UNL     1     -15.060  10.666  -1.677  1.00  0.00    -0.353 OA
HETATM   34  C1  UNL     1     -15.652   9.620  -2.416  1.00  0.00     0.210 C 
ENDBRANCH   1  33
BRANCH   9  35
HETATM   35  C19 UNL     1     -17.691  13.763   4.917  1.00  0.00     0.409 C 
HETATM   36  F4  UNL     1     -17.045  14.941   4.597  1.00  0.00    -0.169 F 
HETATM   37  F5  UNL     1     -18.563  13.984   5.928  1.00  0.00    -0.169 F 
HETATM   38  F6  UNL     1     -16.700  12.900   5.385  1.00  0.00    -0.169 F 
ENDBRANCH   9  35
BRANCH  10  39
HETATM   39  N3  UNL     1     -19.330  15.255   3.006  1.00  0.00    -0.073 N 
ATOM     40  H33 UNL     1     -19.591  15.816   2.195  1.00  0.00     0.274 HD
ATOM     41  H32 UNL     1     -20.257  14.992   3.340  1.00  0.00     0.274 HD
ATOM     42  H31 UNL     1     -18.851  15.830   3.698  1.00  0.00     0.274 HD
ENDBRANCH  10  39
TORSDOF 10
ENDMDL
MODEL 4
REMARK VINA RESULT: -6.619074835      4.451     11.884
REMARK  10 active torsions:
REMARK  status: ('A' for Active; 'I' for Inactive)
REMARK    1  A    between atoms: O1_2  and  C2_3 
REMARK    2  A    between atoms: C7_8  and  O2_9 
REMARK    3  A    between atoms: O2_9  and  C8_10 
REMARK       I    between atoms: N1_13  and  C11_14 
REMARK    4  A    between atoms: C11_14  and  O4_16 
REMARK    5  A    between atoms: O4_16  and  C12_17 
REMARK    6  A    between atoms: C12_17  and  C13_18 
REMARK    7  A    between atoms: C12_17  and  C16_23 
REMARK    8  A    between atoms: C13_18  and  O5_21 
REMARK    9  A    between atoms: C18_31  and  C19_32 
REMARK   10  A    between atoms: C20_36  and  N3_37 
ROOT
HETATM    1  C2  UNL     1     -15.581  11.409  -0.502  1.00  0.00     0.102 A 
HETATM    2  C3  UNL     1     -16.631  12.275  -0.438  1.00  0.00     0.049 A 
HETATM    3  C4  UNL     1     -17.285  12.622   0.732  1.00  0.00    -0.029 A 
HETATM    4  C5  UNL     1     -16.854  12.063   1.902  1.00  0.00     0.037 A 
HETATM    5  C6  UNL     1     -15.777  11.169   1.861  1.00  0.00     0.069 A 
HETATM    6  C7  UNL     1     -15.141  10.837   0.697  1.00  0.00     0.107 A 
HETATM    7  N2  UNL     1     -17.362  12.266   3.198  1.00  0.00    -0.375 N 
ATOM      8  H2  UNL     1     -17.072  11.554   3.867  1.00  0.00     0.160 HD
HETATM    9  C18 UNL     1     -18.218  13.291   3.771  1.00  0.00     0.220 C 
HETATM   10  C20 UNL     1     -18.417  14.351   2.745  1.00  0.00     0.215 C 
HETATM   11  C21 UNL     1     -19.245  13.779   1.613  1.00  0.00     0.040 C 
HETATM   12  C22 UNL     1     -18.369  13.584   0.413  1.00  0.00     0.043 C 
ENDROOT
BRANCH   6  13
HETATM   13  O2  UNL     1     -14.090   9.968   0.639  1.00  0.00    -0.317 OA
BRANCH  13  14
HETATM   14  C8  UNL     1     -13.811   8.900   1.480  1.00  0.00     0.270 C 
HETATM   15  C9  UNL     1     -12.369   8.928   1.944  1.00  0.00     0.081 C 
HETATM   16  C10 UNL     1     -11.393   8.400   0.953  1.00  0.00     0.135 C 
HETATM   17  N1  UNL     1     -11.978   7.881  -0.255  1.00  0.00    -0.306 N 
HETATM   18  C11 UNL     1     -11.130   7.427  -1.290  1.00  0.00     0.365 C 
HETATM   19  C17 UNL     1     -13.403   7.814  -0.435  1.00  0.00     0.301 C 
HETATM   20  O3  UNL     1      -9.886   7.477  -1.152  1.00  0.00    -0.238 OA
HETATM   21  O6  UNL     1     -14.013   7.680   0.830  1.00  0.00    -0.342 OA
BRANCH  18  22
HETATM   22  O4  UNL     1     -11.612   6.910  -2.490  1.00  0.00    -0.286 OA
BRANCH  22  23
HETATM   23  C12 UNL     1     -11.486   5.528  -2.773  1.00  0.00     0.274 C 
BRANCH  23  24
HETATM   24  C13 UNL     1     -12.835   4.863  -2.907  1.00  0.00     0.086 C 
HETATM   25  C14 UNL     1     -12.717   3.532  -3.593  1.00  0.00     0.048 C 
HETATM   26  C15 UNL     1     -13.871   5.724  -3.543  1.00  0.00     0.048 C 
BRANCH  24  27
HETATM   27  O5  UNL     1     -13.259   4.594  -1.583  1.00  0.00    -0.388 OA
ATOM     28  H5  UNL     1     -13.754   5.359  -1.313  1.00  0.00     0.210 HD
ENDBRANCH  24  27
ENDBRANCH  23  24
BRANCH  23  29
HETATM   29  C16 UNL     1     -10.637   5.369  -4.016  1.00  0.00     0.416 C 
HETATM   30  F1  UNL     1      -9.688   6.400  -3.957  1.00  0.00    -0.168 F 
HETATM   31  F2  UNL     1     -11.332   5.531  -5.172  1.00  0.00    -0.168 F 
HETATM   32  F3  UNL     1      -9.907   4.200  -3.962  1.00  0.00    -0.168 F 
ENDBRANCH  23  29
ENDBRANCH  22  23
ENDBRANCH  18  22
ENDBRANCH  13  14
ENDBRANCH   6  13
BRANCH   1  33
HETATM   33  O1  UNL     1     -14.950  11.086  -1.698  1.00  0.00    -0.353 OA
HETATM   34  C1  UNL     1     -15.604  10.186  -2.566  1.00  0.00     0.210 C 
ENDBRANCH   1  33
BRANCH   9  35
HETATM   35  C19 UNL     1     -17.617  13.780   5.056  1.00  0.00     0.409 C 
HETATM   36  F4  UNL     1     -16.623  12.928   5.496  1.00  0.00    -0.169 F 
HETATM   37  F5  UNL     1     -17.139  15.046   5.006  1.00  0.00    -0.169 F 
HETATM   38  F6  UNL     1     -18.616  13.735   6.029  1.00  0.00    -0.169 F 
ENDBRANCH   9  35
BRANCH  10  39
HETATM   39  N3  UNL     1     -19.099  15.525   3.232  1.00  0.00    -0.073 N 
ATOM     40  H33 UNL     1     -20.065  15.538   2.905  1.00  0.00     0.274 HD
ATOM     41  H32 UNL     1     -19.258  15.454   4.237  1.00  0.00     0.274 HD
ATOM     42  H31 UNL     1     -18.633  16.403   3.006  1.00  0.00     0.274 HD
ENDBRANCH  10  39
TORSDOF 10
ENDMDL
MODEL 5
REMARK VINA RESULT: -6.588378338      4.442     10.596
REMARK  10 active torsions:
REMARK  status: ('A' for Active; 'I' for Inactive)
REMARK    1  A    between atoms: O1_2  and  C2_3 
REMARK    2  A    between atoms: C7_8  and  O2_9 
REMARK    3  A    between atoms: O2_9  and  C8_10 
REMARK       I    between atoms: N1_13  and  C11_14 
REMARK    4  A    between atoms: C11_14  and  O4_16 
REMARK    5  A    between atoms: O4_16  and  C12_17 
REMARK    6  A    between atoms: C12_17  and  C13_18 
REMARK    7  A    between atoms: C12_17  and  C16_23 
REMARK    8  A    between atoms: C13_18  and  O5_21 
REMARK    9  A    between atoms: C18_31  and  C19_32 
REMARK   10  A    between atoms: C20_36  and  N3_37 
ROOT
HETATM    1  C2  UNL     1     -16.069  10.697  -0.436  1.00  0.00     0.102 A 
HETATM    2  C3  UNL     1     -17.323  10.864  -0.943  1.00  0.00     0.049 A 
HETATM    3  C4  UNL     1     -18.181   9.825  -1.261  1.00  0.00    -0.029 A 
HETATM    4  C5  UNL     1     -17.748   8.546  -1.054  1.00  0.00     0.037 A 
HETATM    5  C6  UNL     1     -16.463   8.348  -0.533  1.00  0.00     0.069 A 
HETATM    6  C7  UNL     1     -15.627   9.386  -0.224  1.00  0.00     0.107 A 
HETATM    7  N2  UNL     1     -18.441   7.347  -1.301  1.00  0.00    -0.375 N 
ATOM      8  H2  UNL     1     -17.838   6.524  -1.330  1.00  0.00     0.160 HD
HETATM    9  C18 UNL     1     -19.846   7.048  -1.523  1.00  0.00     0.220 C 
HETATM   10  C20 UNL     1     -20.625   8.292  -1.278  1.00  0.00     0.215 C 
HETATM   11  C21 UNL     1     -20.291   9.293  -2.364  1.00  0.00     0.040 C 
HETATM   12  C22 UNL     1     -19.450  10.388  -1.783  1.00  0.00     0.043 C 
ENDROOT
BRANCH   6  13
HETATM   13  O2  UNL     1     -14.373   9.211   0.283  1.00  0.00    -0.317 OA
BRANCH  13  14
HETATM   14  C8  UNL     1     -13.914   8.196   1.111  1.00  0.00     0.270 C 
HETATM   15  C9  UNL     1     -12.924   8.722   2.129  1.00  0.00     0.081 C 
HETATM   16  C10 UNL     1     -11.545   8.913   1.603  1.00  0.00     0.135 C 
HETATM   17  N1  UNL     1     -11.354   8.500   0.237  1.00  0.00    -0.306 N 
HETATM   18  C11 UNL     1     -10.100   8.710  -0.377  1.00  0.00     0.365 C 
HETATM   19  C17 UNL     1     -12.409   7.878  -0.516  1.00  0.00     0.301 C 
HETATM   20  O3  UNL     1      -9.168   9.251   0.264  1.00  0.00    -0.238 OA
HETATM   21  O6  UNL     1     -13.265   7.200   0.378  1.00  0.00    -0.342 OA
BRANCH  18  22
HETATM   22  O4  UNL     1      -9.831   8.341  -1.692  1.00  0.00    -0.286 OA
BRANCH  22  23
HETATM   23  C12 UNL     1      -8.854   7.353  -1.970  1.00  0.00     0.274 C 
BRANCH  23  24
HETATM   24  C13 UNL     1      -9.488   6.056  -2.413  1.00  0.00     0.086 C 
HETATM   25  C14 UNL     1      -8.465   5.130  -3.008  1.00  0.00     0.048 C 
HETATM   26  C15 UNL     1     -10.662   6.235  -3.312  1.00  0.00     0.048 C 
BRANCH  24  27
HETATM   27  O5  UNL     1      -9.949   5.434  -1.228  1.00  0.00    -0.388 OA
ATOM     28  H5  UNL     1      -9.571   4.562  -1.234  1.00  0.00     0.210 HD
ENDBRANCH  24  27
ENDBRANCH  23  24
BRANCH  23  29
HETATM   29  C16 UNL     1      -7.891   7.908  -2.997  1.00  0.00     0.416 C 
HETATM   30  F1  UNL     1      -7.690   9.248  -2.638  1.00  0.00    -0.168 F 
HETATM   31  F2  UNL     1      -8.385   7.902  -4.263  1.00  0.00    -0.168 F 
HETATM   32  F3  UNL     1      -6.653   7.310  -2.877  1.00  0.00    -0.168 F 
ENDBRANCH  23  29
ENDBRANCH  22  23
ENDBRANCH  18  22
ENDBRANCH  13  14
ENDBRANCH   6  13
BRANCH   1  33
HETATM   33  O1  UNL     1     -15.237  11.768  -0.129  1.00  0.00    -0.353 OA
HETATM   34  C1  UNL     1     -15.691  12.702   0.825  1.00  0.00     0.210 C 
ENDBRANCH   1  33
BRANCH   9  35
HETATM   35  C19 UNL     1     -20.249   5.887  -0.662  1.00  0.00     0.409 C 
HETATM   36  F4  UNL     1     -20.493   6.291   0.636  1.00  0.00    -0.169 F 
HETATM   37  F5  UNL     1     -21.311   5.187  -1.126  1.00  0.00    -0.169 F 
HETATM   38  F6  UNL     1     -19.159   5.019  -0.592  1.00  0.00    -0.169 F 
ENDBRANCH   9  35
BRANCH  10  39
HETATM   39  N3  UNL     1     -22.055   8.105  -1.283  1.00  0.00    -0.073 N 
ATOM     40  H33 UNL     1     -22.289   7.148  -1.547  1.00  0.00     0.274 HD
ATOM     41  H32 UNL     1     -22.420   8.116  -0.331  1.00  0.00     0.274 HD
ATOM     42  H31 UNL     1     -22.561   8.770  -1.867  1.00  0.00     0.274 HD
ENDBRANCH  10  39
TORSDOF 10
ENDMDL
