MODEL 1
REMARK VINA RESULT: -7.500291299      0.000      0.000
REMARK  7 active torsions:
REMARK  status: ('A' for Active; 'I' for Inactive)
REMARK    1  A    between atoms: C5_5  and  C6_6 
REMARK    2  A    between atoms: C6_6  and  O1_7 
REMARK    3  A    between atoms: C6_6  and  C7_9 
REMARK    4  A    between atoms: C7_9  and  O2_10 
REMARK    5  A    between atoms: O2_10  and  C8_11 
REMARK    6  A    between atoms: C8_11  and  C11_14 
REMARK    7  A    between atoms: C11_14  and  C12_15 
ROOT
HETATM    1  C1  UNL     1      -6.591  -9.418  11.531  1.00  0.00     0.017 C 
HETATM    2  C2  UNL     1      -6.332  -8.282  12.163  1.00  0.00    -0.058 C 
HETATM    3  C3  UNL     1      -7.253  -7.168  11.901  1.00  0.00     0.036 C 
HETATM    4  C4  UNL     1      -6.859  -5.802  12.267  1.00  0.00     0.011 C 
HETATM    5  C5  UNL     1      -7.111  -4.760  11.223  1.00  0.00     0.017 C 
HETATM    6  C14 UNL     1      -6.283  -4.958   9.977  1.00  0.00     0.011 C 
HETATM    7  C15 UNL     1      -4.809  -4.783  10.223  1.00  0.00     0.034 C 
HETATM    8  C16 UNL     1      -4.036  -5.397   9.107  1.00  0.00    -0.087 C 
HETATM    9  C17 UNL     1      -4.302  -4.829   7.730  1.00  0.00     0.043 C 
HETATM   10  C18 UNL     1      -3.166  -6.378   9.281  1.00  0.00    -0.024 C 
HETATM   11  C19 UNL     1      -2.835  -7.003  10.589  1.00  0.00     0.030 C 
HETATM   12  C20 UNL     1      -3.821  -8.136  10.908  1.00  0.00     0.044 C 
HETATM   13  C21 UNL     1      -3.873  -8.426  12.390  1.00  0.00     0.088 A 
HETATM   14  C22 UNL     1      -2.728  -9.204  12.948  1.00  0.00     0.049 C 
HETATM   15  O3  UNL     1      -4.227  -7.306  13.144  1.00  0.00    -0.365 OA
HETATM   16  C23 UNL     1      -5.155  -8.293  13.051  1.00  0.00     0.185 A 
ENDROOT
BRANCH   5  17
HETATM   17  C6  UNL     1      -8.569  -4.747  10.739  1.00  0.00     0.146 C 
BRANCH  17  18
HETATM   18  O1  UNL     1      -8.506  -5.480   9.529  1.00  0.00    -0.393 OA
ATOM     19  H1  UNL     1      -7.904  -6.185   9.740  1.00  0.00     0.210 HD
ENDBRANCH  17  18
BRANCH  17  20
HETATM   20  C7  UNL     1      -9.058  -3.381  10.431  1.00  0.00     0.200 C 
BRANCH  20  21
HETATM   21  O2  UNL     1      -9.171  -3.052   9.162  1.00  0.00    -0.378 OA
BRANCH  21  22
HETATM   22  C8  UNL     1      -8.432  -2.275   8.414  1.00  0.00     0.053 C 
HETATM   23  C9  UNL     1      -7.303  -1.581   9.114  1.00  0.00     0.045 C 
HETATM   24  C10 UNL     1      -7.778  -2.969   7.207  1.00  0.00     0.045 C 
BRANCH  22  25
HETATM   25  C11 UNL     1      -9.299  -1.183   7.744  1.00  0.00     0.037 C 
BRANCH  25  26
HETATM   26  C12 UNL     1      -8.657   0.160   7.797  1.00  0.00    -0.002 C 
HETATM   27  C13 UNL     1      -9.598   1.282   7.450  1.00  0.00     0.005 C 
ENDBRANCH  25  26
ENDBRANCH  22  25
ENDBRANCH  21  22
ENDBRANCH  20  21
ENDBRANCH  17  20
ENDBRANCH   5  17
TORSDOF 7
ENDMDL
MODEL 2
REMARK VINA RESULT: -7.439306334      2.571      5.176
REMARK  7 active torsions:
REMARK  status: ('A' for Active; 'I' for Inactive)
REMARK    1  A    between atoms: C5_5  and  C6_6 
REMARK    2  A    between atoms: C6_6  and  O1_7 
REMARK    3  A    between atoms: C6_6  and  C7_9 
REMARK    4  A    between atoms: C7_9  and  O2_10 
REMARK    5  A    between atoms: O2_10  and  C8_11 
REMARK    6  A    between atoms: C8_11  and  C11_14 
REMARK    7  A    between atoms: C11_14  and  C12_15 
ROOT
HETATM    1  C1  UNL     1      -6.033  -9.961  13.926  1.00  0.00     0.017 C 
HETATM    2  C2  UNL     1      -6.123  -9.469  12.697  1.00  0.00    -0.058 C 
HETATM    3  C3  UNL     1      -5.396  -8.218  12.444  1.00  0.00     0.036 C 
HETATM    4  C4  UNL     1      -5.712  -7.428  11.248  1.00  0.00     0.011 C 
HETATM    5  C5  UNL     1      -5.872  -5.957  11.474  1.00  0.00     0.017 C 
HETATM    6  C14 UNL     1      -7.055  -5.618  12.346  1.00  0.00     0.011 C 
HETATM    7  C15 UNL     1      -8.371  -5.964  11.704  1.00  0.00     0.034 C 
HETATM    8  C16 UNL     1      -9.440  -6.015  12.741  1.00  0.00    -0.087 C 
HETATM    9  C17 UNL     1      -9.674  -4.733  13.510  1.00  0.00     0.043 C 
HETATM   10  C18 UNL     1     -10.155  -7.100  12.994  1.00  0.00    -0.024 C 
HETATM   11  C19 UNL     1     -10.002  -8.404  12.296  1.00  0.00     0.030 C 
HETATM   12  C20 UNL     1      -8.912  -9.250  12.970  1.00  0.00     0.044 C 
HETATM   13  C21 UNL     1      -8.358 -10.293  12.028  1.00  0.00     0.088 A 
HETATM   14  C22 UNL     1      -9.213 -11.495  11.802  1.00  0.00     0.049 C 
HETATM   15  O3  UNL     1      -7.828  -9.738  10.863  1.00  0.00    -0.365 OA
HETATM   16  C23 UNL     1      -6.937 -10.251  11.749  1.00  0.00     0.185 A 
ENDROOT
BRANCH   5  17
HETATM   17  C6  UNL     1      -4.660  -5.332  12.181  1.00  0.00     0.146 C 
BRANCH  17  18
HETATM   18  O1  UNL     1      -5.174  -5.004  13.458  1.00  0.00    -0.393 OA
ATOM     19  H1  UNL     1      -5.763  -4.281  13.271  1.00  0.00     0.210 HD
ENDBRANCH  17  18
BRANCH  17  20
HETATM   20  C7  UNL     1      -4.198  -4.083  11.529  1.00  0.00     0.200 C 
BRANCH  20  21
HETATM   21  O2  UNL     1      -5.096  -3.374  10.878  1.00  0.00    -0.378 OA
BRANCH  21  22
HETATM   22  C8  UNL     1      -5.149  -3.010   9.623  1.00  0.00     0.053 C 
HETATM   23  C9  UNL     1      -6.382  -3.424   8.878  1.00  0.00     0.045 C 
HETATM   24  C10 UNL     1      -5.034  -1.496   9.381  1.00  0.00     0.045 C 
BRANCH  22  25
HETATM   25  C11 UNL     1      -3.933  -3.568   8.845  1.00  0.00     0.037 C 
BRANCH  25  26
HETATM   26  C12 UNL     1      -4.279  -4.775   8.045  1.00  0.00    -0.002 C 
HETATM   27  C13 UNL     1      -3.456  -5.982   8.405  1.00  0.00     0.005 C 
ENDBRANCH  25  26
ENDBRANCH  22  25
ENDBRANCH  21  22
ENDBRANCH  20  21
ENDBRANCH  17  20
ENDBRANCH   5  17
TORSDOF 7
ENDMDL
MODEL 3
REMARK VINA RESULT: -7.375276912      0.621      1.468
REMARK  7 active torsions:
REMARK  status: ('A' for Active; 'I' for Inactive)
REMARK    1  A    between atoms: C5_5  and  C6_6 
REMARK    2  A    between atoms: C6_6  and  O1_7 
REMARK    3  A    between atoms: C6_6  and  C7_9 
REMARK    4  A    between atoms: C7_9  and  O2_10 
REMARK    5  A    between atoms: O2_10  and  C8_11 
REMARK    6  A    between atoms: C8_11  and  C11_14 
REMARK    7  A    between atoms: C11_14  and  C12_15 
ROOT
HETATM    1  C1  UNL     1      -6.502  -9.452  11.558  1.00  0.00     0.017 C 
HETATM    2  C2  UNL     1      -6.266  -8.311  12.191  1.00  0.00    -0.058 C 
HETATM    3  C3  UNL     1      -7.218  -7.220  11.942  1.00  0.00     0.036 C 
HETATM    4  C4  UNL     1      -6.855  -5.846  12.309  1.00  0.00     0.011 C 
HETATM    5  C5  UNL     1      -7.145  -4.807  11.271  1.00  0.00     0.017 C 
HETATM    6  C14 UNL     1      -6.325  -4.980  10.016  1.00  0.00     0.011 C 
HETATM    7  C15 UNL     1      -4.853  -4.768  10.247  1.00  0.00     0.034 C 
HETATM    8  C16 UNL     1      -4.076  -5.358   9.122  1.00  0.00    -0.087 C 
HETATM    9  C17 UNL     1      -4.371  -4.793   7.749  1.00  0.00     0.043 C 
HETATM   10  C18 UNL     1      -3.179  -6.318   9.283  1.00  0.00    -0.024 C 
HETATM   11  C19 UNL     1      -2.819  -6.938  10.586  1.00  0.00     0.030 C 
HETATM   12  C20 UNL     1      -3.772  -8.096  10.911  1.00  0.00     0.044 C 
HETATM   13  C21 UNL     1      -3.801  -8.392  12.392  1.00  0.00     0.088 A 
HETATM   14  C22 UNL     1      -2.631  -9.143  12.936  1.00  0.00     0.049 C 
HETATM   15  O3  UNL     1      -4.176  -7.284  13.154  1.00  0.00    -0.365 OA
HETATM   16  C23 UNL     1      -5.080  -8.294  13.067  1.00  0.00     0.185 A 
ENDROOT
BRANCH   5  17
HETATM   17  C6  UNL     1      -8.607  -4.831  10.802  1.00  0.00     0.146 C 
BRANCH  17  18
HETATM   18  O1  UNL     1      -8.531  -5.518   9.567  1.00  0.00    -0.393 OA
ATOM     19  H1  UNL     1      -9.438  -5.741   9.391  1.00  0.00     0.210 HD
ENDBRANCH  17  18
BRANCH  17  20
HETATM   20  C7  UNL     1      -9.149  -3.473  10.548  1.00  0.00     0.200 C 
BRANCH  20  21
HETATM   21  O2  UNL     1      -9.317  -3.116   9.292  1.00  0.00    -0.378 OA
BRANCH  21  22
HETATM   22  C8  UNL     1      -8.661  -2.258   8.555  1.00  0.00     0.053 C 
HETATM   23  C9  UNL     1      -7.780  -2.852   7.497  1.00  0.00     0.045 C 
HETATM   24  C10 UNL     1      -9.540  -1.241   7.808  1.00  0.00     0.045 C 
BRANCH  22  25
HETATM   25  C11 UNL     1      -7.772  -1.352   9.438  1.00  0.00     0.037 C 
BRANCH  25  26
HETATM   26  C12 UNL     1      -6.365  -1.297   8.957  1.00  0.00    -0.002 C 
HETATM   27  C13 UNL     1      -5.360  -1.184  10.071  1.00  0.00     0.005 C 
ENDBRANCH  25  26
ENDBRANCH  22  25
ENDBRANCH  21  22
ENDBRANCH  20  21
ENDBRANCH  17  20
ENDBRANCH   5  17
TORSDOF 7
ENDMDL
MODEL 4
REMARK VINA RESULT: -7.249155369      1.952      6.775
REMARK  7 active torsions:
REMARK  status: ('A' for Active; 'I' for Inactive)
REMARK    1  A    between atoms: C5_5  and  C6_6 
REMARK    2  A    between atoms: C6_6  and  O1_7 
REMARK    3  A    between atoms: C6_6  and  C7_9 
REMARK    4  A    between atoms: C7_9  and  O2_10 
REMARK    5  A    between atoms: O2_10  and  C8_11 
REMARK    6  A    between atoms: C8_11  and  C11_14 
REMARK    7  A    between atoms: C11_14  and  C12_15 
ROOT
HETATM    1  C1  UNL     1      -7.762  -2.161  11.371  1.00  0.00     0.017 C 
HETATM    2  C2  UNL     1      -8.083  -3.397  11.015  1.00  0.00    -0.058 C 
HETATM    3  C3  UNL     1      -7.933  -4.431  12.048  1.00  0.00     0.036 C 
HETATM    4  C4  UNL     1      -7.925  -5.846  11.659  1.00  0.00     0.011 C 
HETATM    5  C5  UNL     1      -6.849  -6.678  12.282  1.00  0.00     0.017 C 
HETATM    6  C14 UNL     1      -5.461  -6.269  11.853  1.00  0.00     0.011 C 
HETATM    7  C15 UNL     1      -5.210  -6.508  10.388  1.00  0.00     0.034 C 
HETATM    8  C16 UNL     1      -4.031  -5.713   9.943  1.00  0.00    -0.087 C 
HETATM    9  C17 UNL     1      -2.727  -6.018  10.647  1.00  0.00     0.043 C 
HETATM   10  C18 UNL     1      -4.093  -4.793   8.994  1.00  0.00    -0.024 C 
HETATM   11  C19 UNL     1      -5.323  -4.421   8.245  1.00  0.00     0.030 C 
HETATM   12  C20 UNL     1      -6.114  -3.350   9.010  1.00  0.00     0.044 C 
HETATM   13  C21 UNL     1      -7.567  -3.333   8.596  1.00  0.00     0.088 A 
HETATM   14  C22 UNL     1      -7.870  -2.686   7.286  1.00  0.00     0.049 C 
HETATM   15  O3  UNL     1      -8.194  -4.566   8.786  1.00  0.00    -0.365 OA
HETATM   16  C23 UNL     1      -8.557  -3.565   9.629  1.00  0.00     0.185 A 
ENDROOT
BRANCH   5  17
HETATM   17  C6  UNL     1      -6.839  -6.580  13.815  1.00  0.00     0.146 C 
BRANCH  17  18
HETATM   18  O1  UNL     1      -5.548  -7.054  14.153  1.00  0.00    -0.393 OA
ATOM     19  H1  UNL     1      -5.025  -6.261  14.153  1.00  0.00     0.210 HD
ENDBRANCH  17  18
BRANCH  17  20
HETATM   20  C7  UNL     1      -7.843  -7.467  14.452  1.00  0.00     0.200 C 
BRANCH  20  21
HETATM   21  O2  UNL     1      -7.949  -8.692  13.984  1.00  0.00    -0.378 OA
BRANCH  21  22
HETATM   22  C8  UNL     1      -8.948  -9.297  13.396  1.00  0.00     0.053 C 
HETATM   23  C9  UNL     1      -9.616 -10.375  14.195  1.00  0.00     0.045 C 
HETATM   24  C10 UNL     1     -10.093  -8.373  12.949  1.00  0.00     0.045 C 
BRANCH  22  25
HETATM   25  C11 UNL     1      -8.487  -9.933  12.063  1.00  0.00     0.037 C 
BRANCH  25  26
HETATM   26  C12 UNL     1      -7.170 -10.614  12.186  1.00  0.00    -0.002 C 
HETATM   27  C13 UNL     1      -6.115 -10.037  11.280  1.00  0.00     0.005 C 
ENDBRANCH  25  26
ENDBRANCH  22  25
ENDBRANCH  21  22
ENDBRANCH  20  21
ENDBRANCH  17  20
ENDBRANCH   5  17
TORSDOF 7
ENDMDL
MODEL 5
REMARK VINA RESULT: -7.238240929      1.965      3.253
REMARK  7 active torsions:
REMARK  status: ('A' for Active; 'I' for Inactive)
REMARK    1  A    between atoms: C5_5  and  C6_6 
REMARK    2  A    between atoms: C6_6  and  O1_7 
REMARK    3  A    between atoms: C6_6  and  C7_9 
REMARK    4  A    between atoms: C7_9  and  O2_10 
REMARK    5  A    between atoms: O2_10  and  C8_11 
REMARK    6  A    between atoms: C8_11  and  C11_14 
REMARK    7  A    between atoms: C11_14  and  C12_15 
ROOT
HETATM    1  C1  UNL     1      -8.950  -6.569  11.187  1.00  0.00     0.017 C 
HETATM    2  C2  UNL     1      -8.439  -5.379  11.471  1.00  0.00    -0.058 C 
HETATM    3  C3  UNL     1      -8.665  -4.321  10.478  1.00  0.00     0.036 C 
HETATM    4  C4  UNL     1      -7.859  -3.096  10.530  1.00  0.00     0.011 C 
HETATM    5  C5  UNL     1      -7.305  -2.634   9.219  1.00  0.00     0.017 C 
HETATM    6  C14 UNL     1      -6.302  -3.596   8.629  1.00  0.00     0.011 C 
HETATM    7  C15 UNL     1      -5.050  -3.712   9.455  1.00  0.00     0.034 C 
HETATM    8  C16 UNL     1      -4.312  -4.950   9.079  1.00  0.00    -0.087 C 
HETATM    9  C17 UNL     1      -3.871  -5.042   7.635  1.00  0.00     0.043 C 
HETATM   10  C18 UNL     1      -4.046  -5.924   9.934  1.00  0.00    -0.024 C 
HETATM   11  C19 UNL     1      -4.435  -5.929  11.370  1.00  0.00     0.030 C 
HETATM   12  C20 UNL     1      -5.856  -6.486  11.539  1.00  0.00     0.044 C 
HETATM   13  C21 UNL     1      -6.480  -6.028  12.836  1.00  0.00     0.088 A 
HETATM   14  C22 UNL     1      -6.012  -6.722  14.072  1.00  0.00     0.049 C 
HETATM   15  O3  UNL     1      -6.534  -4.638  12.945  1.00  0.00    -0.365 OA
HETATM   16  C23 UNL     1      -7.717  -5.278  12.753  1.00  0.00     0.185 A 
ENDROOT
BRANCH   5  17
HETATM   17  C6  UNL     1      -8.389  -2.474   8.142  1.00  0.00     0.146 C 
BRANCH  17  18
HETATM   18  O1  UNL     1      -7.785  -3.049   6.998  1.00  0.00    -0.393 OA
ATOM     19  H1  UNL     1      -7.909  -2.380   6.334  1.00  0.00     0.210 HD
ENDBRANCH  17  18
BRANCH  17  20
HETATM   20  C7  UNL     1      -8.696  -1.054   7.845  1.00  0.00     0.200 C 
BRANCH  20  21
HETATM   21  O2  UNL     1      -7.960  -0.140   8.441  1.00  0.00    -0.378 OA
BRANCH  21  22
HETATM   22  C8  UNL     1      -7.727   1.107   8.125  1.00  0.00     0.053 C 
HETATM   23  C9  UNL     1      -6.391   1.380   7.502  1.00  0.00     0.045 C 
HETATM   24  C10 UNL     1      -8.746   1.732   7.157  1.00  0.00     0.045 C 
BRANCH  22  25
HETATM   25  C11 UNL     1      -7.847   2.014   9.372  1.00  0.00     0.037 C 
BRANCH  25  26
HETATM   26  C12 UNL     1      -8.737   3.185   9.137  1.00  0.00    -0.002 C 
HETATM   27  C13 UNL     1      -8.674   4.209  10.238  1.00  0.00     0.005 C 
ENDBRANCH  25  26
ENDBRANCH  22  25
ENDBRANCH  21  22
ENDBRANCH  20  21
ENDBRANCH  17  20
ENDBRANCH   5  17
TORSDOF 7
ENDMDL
