MODEL 1
REMARK VINA RESULT: -7.158809573      0.000      0.000
REMARK  5 active torsions:
REMARK  status: ('A' for Active; 'I' for Inactive)
REMARK    1  A    between atoms: N1_2  and  C2_5 
REMARK    2  A    between atoms: C2_5  and  C3_6 
REMARK    3  A    between atoms: C3_6  and  C4_7 
REMARK    4  A    between atoms: C5_8  and  O1_9 
REMARK    5  A    between atoms: C13_18  and  C14_19 
ROOT
HETATM    1  C4  UNL     1      -6.376  -7.916  12.909  1.00  0.00     0.010 A 
HETATM    2  C5  UNL     1      -5.385  -8.615  13.559  1.00  0.00     0.085 A 
HETATM    3  C7  UNL     1      -4.034  -8.534  13.252  1.00  0.00    -0.019 A 
HETATM    4  C8  UNL     1      -3.046  -9.307  13.998  1.00  0.00     0.052 C 
HETATM    5  C9  UNL     1      -3.665  -7.710  12.251  1.00  0.00    -0.018 A 
HETATM    6  C10 UNL     1      -2.226  -7.567  11.852  1.00  0.00     0.052 C 
HETATM    7  C11 UNL     1      -4.615  -6.971  11.568  1.00  0.00     0.094 A 
HETATM    8  O2  UNL     1      -4.453  -6.134  10.577  1.00  0.00    -0.308 OA
HETATM    9  C12 UNL     1      -5.606  -5.639  10.230  1.00  0.00     0.095 A 
HETATM   10  C13 UNL     1      -5.910  -4.702   9.226  1.00  0.00    -0.014 A 
HETATM   11  C17 UNL     1      -7.204  -4.315   9.066  1.00  0.00    -0.052 A 
HETATM   12  C18 UNL     1      -7.653  -3.382   8.003  1.00  0.00     0.049 C 
HETATM   13  C19 UNL     1      -8.166  -4.846   9.900  1.00  0.00     0.015 A 
HETATM   14  C20 UNL     1      -7.887  -5.779  10.908  1.00  0.00    -0.048 A 
HETATM   15  C21 UNL     1      -8.967  -5.936  11.902  1.00  0.00     0.049 C 
HETATM   16  C22 UNL     1      -6.588  -6.181  11.042  1.00  0.00     0.018 A 
HETATM   17  C23 UNL     1      -5.969  -7.056  11.892  1.00  0.00     0.025 A 
ENDROOT
BRANCH   1  18
HETATM   18  C3  UNL     1      -7.703  -8.463  12.965  1.00  0.00     0.015 C 
BRANCH  18  19
HETATM   19  C2  UNL     1      -8.132  -9.739  12.367  1.00  0.00     0.260 C 
BRANCH  19  20
HETATM   20  N1  UNL     1      -8.322 -10.762  13.446  1.00  0.00    -0.076 N 
HETATM   21  C1  UNL     1      -9.343 -10.197  14.344  1.00  0.00     0.267 C 
ATOM     22  H12 UNL     1      -7.457 -11.024  13.921  1.00  0.00     0.276 HD
ATOM     23  H11 UNL     1      -8.552 -11.692  13.096  1.00  0.00     0.276 HD
ENDBRANCH  19  20
ENDBRANCH  18  19
ENDBRANCH   1  18
BRANCH   2  24
HETATM   24  O1  UNL     1      -5.693  -9.463  14.610  1.00  0.00    -0.355 OA
HETATM   25  C6  UNL     1      -6.027  -8.778  15.849  1.00  0.00     0.210 C 
ENDBRANCH   2  24
BRANCH  10  26
HETATM   26  C14 UNL     1      -4.753  -4.271   8.422  1.00  0.00     0.014 C 
HETATM   27  C15 UNL     1      -3.814  -5.267   7.900  1.00  0.00     0.015 C 
HETATM   28  C16 UNL     1      -4.016  -3.115   9.146  1.00  0.00     0.015 C 
ENDBRANCH  10  26
TORSDOF 5
ENDMDL
MODEL 2
REMARK VINA RESULT: -6.711533740      4.498      6.728
REMARK  5 active torsions:
REMARK  status: ('A' for Active; 'I' for Inactive)
REMARK    1  A    between atoms: N1_2  and  C2_5 
REMARK    2  A    between atoms: C2_5  and  C3_6 
REMARK    3  A    between atoms: C3_6  and  C4_7 
REMARK    4  A    between atoms: C5_8  and  O1_9 
REMARK    5  A    between atoms: C13_18  and  C14_19 
ROOT
HETATM    1  C4  UNL     1      -7.150  -3.154  10.408  1.00  0.00     0.010 A 
HETATM    2  C5  UNL     1      -6.805  -3.749  11.600  1.00  0.00     0.085 A 
HETATM    3  C7  UNL     1      -6.549  -3.061  12.777  1.00  0.00    -0.019 A 
HETATM    4  C8  UNL     1      -6.194  -3.772  14.002  1.00  0.00     0.052 C 
HETATM    5  C9  UNL     1      -6.648  -1.717  12.754  1.00  0.00    -0.018 A 
HETATM    6  C10 UNL     1      -6.382  -0.896  13.981  1.00  0.00     0.052 C 
HETATM    7  C11 UNL     1      -7.003  -1.062  11.588  1.00  0.00     0.094 A 
HETATM    8  O2  UNL     1      -7.143   0.220  11.371  1.00  0.00    -0.308 OA
HETATM    9  C12 UNL     1      -7.503   0.417  10.135  1.00  0.00     0.095 A 
HETATM   10  C13 UNL     1      -7.772   1.624   9.466  1.00  0.00    -0.014 A 
HETATM   11  C17 UNL     1      -8.160   1.575   8.163  1.00  0.00    -0.052 A 
HETATM   12  C18 UNL     1      -8.412   2.782   7.338  1.00  0.00     0.049 C 
HETATM   13  C19 UNL     1      -8.283   0.344   7.551  1.00  0.00     0.015 A 
HETATM   14  C20 UNL     1      -8.020  -0.872   8.198  1.00  0.00    -0.048 A 
HETATM   15  C21 UNL     1      -8.556  -2.056   7.498  1.00  0.00     0.049 C 
HETATM   16  C22 UNL     1      -7.607  -0.808   9.499  1.00  0.00     0.018 A 
HETATM   17  C23 UNL     1      -7.267  -1.767  10.414  1.00  0.00     0.025 A 
ENDROOT
BRANCH   1  18
HETATM   18  C3  UNL     1      -6.882  -3.897   9.208  1.00  0.00     0.015 C 
BRANCH  18  19
HETATM   19  C2  UNL     1      -5.561  -4.052   8.572  1.00  0.00     0.260 C 
BRANCH  19  20
HETATM   20  N1  UNL     1      -4.937  -5.340   9.018  1.00  0.00    -0.076 N 
HETATM   21  C1  UNL     1      -3.743  -5.508   8.173  1.00  0.00     0.267 C 
ATOM     22  H12 UNL     1      -5.574  -6.137   8.993  1.00  0.00     0.276 HD
ATOM     23  H11 UNL     1      -4.741  -5.376  10.019  1.00  0.00     0.276 HD
ENDBRANCH  19  20
ENDBRANCH  18  19
ENDBRANCH   1  18
BRANCH   2  24
HETATM   24  O1  UNL     1      -6.707  -5.127  11.698  1.00  0.00    -0.355 OA
HETATM   25  C6  UNL     1      -7.986  -5.810  11.800  1.00  0.00     0.210 C 
ENDBRANCH   2  24
BRANCH  10  26
HETATM   26  C14 UNL     1      -7.560   2.834  10.278  1.00  0.00     0.014 C 
HETATM   27  C15 UNL     1      -8.498   3.954  10.180  1.00  0.00     0.015 C 
HETATM   28  C16 UNL     1      -6.089   3.307  10.135  1.00  0.00     0.015 C 
ENDBRANCH  10  26
TORSDOF 5
ENDMDL
MODEL 3
REMARK VINA RESULT: -6.594863030      1.998      3.738
REMARK  5 active torsions:
REMARK  status: ('A' for Active; 'I' for Inactive)
REMARK    1  A    between atoms: N1_2  and  C2_5 
REMARK    2  A    between atoms: C2_5  and  C3_6 
REMARK    3  A    between atoms: C3_6  and  C4_7 
REMARK    4  A    between atoms: C5_8  and  O1_9 
REMARK    5  A    between atoms: C13_18  and  C14_19 
ROOT
HETATM    1  C4  UNL     1      -5.606  -6.885  11.623  1.00  0.00     0.010 A 
HETATM    2  C5  UNL     1      -4.512  -7.175  10.840  1.00  0.00     0.085 A 
HETATM    3  C7  UNL     1      -4.109  -6.426   9.744  1.00  0.00    -0.019 A 
HETATM    4  C8  UNL     1      -2.930  -6.801   8.970  1.00  0.00     0.052 C 
HETATM    5  C9  UNL     1      -4.837  -5.337   9.424  1.00  0.00    -0.018 A 
HETATM    6  C10 UNL     1      -4.474  -4.476   8.251  1.00  0.00     0.052 C 
HETATM    7  C11 UNL     1      -5.942  -4.988  10.182  1.00  0.00     0.094 A 
HETATM    8  O2  UNL     1      -6.764  -3.984  10.026  1.00  0.00    -0.308 OA
HETATM    9  C12 UNL     1      -7.666  -4.008  10.966  1.00  0.00     0.095 A 
HETATM   10  C13 UNL     1      -8.737  -3.127  11.197  1.00  0.00    -0.014 A 
HETATM   11  C17 UNL     1      -9.541  -3.347  12.272  1.00  0.00    -0.052 A 
HETATM   12  C18 UNL     1     -10.736  -2.523  12.584  1.00  0.00     0.049 C 
HETATM   13  C19 UNL     1      -9.269  -4.418  13.099  1.00  0.00     0.015 A 
HETATM   14  C20 UNL     1      -8.207  -5.308  12.889  1.00  0.00    -0.048 A 
HETATM   15  C21 UNL     1      -7.876  -6.141  14.062  1.00  0.00     0.049 C 
HETATM   16  C22 UNL     1      -7.422  -5.092  11.791  1.00  0.00     0.018 A 
HETATM   17  C23 UNL     1      -6.330  -5.745  11.287  1.00  0.00     0.025 A 
ENDROOT
BRANCH   1  18
HETATM   18  C3  UNL     1      -6.188  -7.975  12.357  1.00  0.00     0.015 C 
BRANCH  18  19
HETATM   19  C2  UNL     1      -6.896  -9.126  11.768  1.00  0.00     0.260 C 
BRANCH  19  20
HETATM   20  N1  UNL     1      -8.335  -8.770  11.546  1.00  0.00    -0.076 N 
HETATM   21  C1  UNL     1      -9.057 -10.054  11.529  1.00  0.00     0.267 C 
ATOM     22  H12 UNL     1      -8.494  -8.199  10.716  1.00  0.00     0.276 HD
ATOM     23  H11 UNL     1      -8.703  -8.101  12.223  1.00  0.00     0.276 HD
ENDBRANCH  19  20
ENDBRANCH  18  19
ENDBRANCH   1  18
BRANCH   2  24
HETATM   24  O1  UNL     1      -3.709  -8.267  11.126  1.00  0.00    -0.355 OA
HETATM   25  C6  UNL     1      -2.740  -8.033  12.184  1.00  0.00     0.210 C 
ENDBRANCH   2  24
BRANCH  10  26
HETATM   26  C14 UNL     1      -8.881  -2.061  10.191  1.00  0.00     0.014 C 
HETATM   27  C15 UNL     1      -9.173  -2.406   8.798  1.00  0.00     0.015 C 
HETATM   28  C16 UNL     1      -7.685  -1.078  10.298  1.00  0.00     0.015 C 
ENDBRANCH  10  26
TORSDOF 5
ENDMDL
MODEL 4
REMARK VINA RESULT: -6.588841402      2.322      4.387
REMARK  5 active torsions:
REMARK  status: ('A' for Active; 'I' for Inactive)
REMARK    1  A    between atoms: N1_2  and  C2_5 
REMARK    2  A    between atoms: C2_5  and  C3_6 
REMARK    3  A    between atoms: C3_6  and  C4_7 
REMARK    4  A    between atoms: C5_8  and  O1_9 
REMARK    5  A    between atoms: C13_18  and  C14_19 
ROOT
HETATM    1  C4  UNL     1      -4.543  -7.699  10.837  1.00  0.00     0.010 A 
HETATM    2  C5  UNL     1      -4.851  -8.818  11.577  1.00  0.00     0.085 A 
HETATM    3  C7  UNL     1      -6.048  -9.009  12.254  1.00  0.00    -0.019 A 
HETATM    4  C8  UNL     1      -6.296 -10.231  13.012  1.00  0.00     0.052 C 
HETATM    5  C9  UNL     1      -6.974  -8.032  12.180  1.00  0.00    -0.018 A 
HETATM    6  C10 UNL     1      -8.292  -8.156  12.886  1.00  0.00     0.052 C 
HETATM    7  C11 UNL     1      -6.727  -6.888  11.441  1.00  0.00     0.094 A 
HETATM    8  O2  UNL     1      -7.491  -5.843  11.258  1.00  0.00    -0.308 OA
HETATM    9  C12 UNL     1      -6.886  -4.991  10.482  1.00  0.00     0.095 A 
HETATM   10  C13 UNL     1      -7.329  -3.741  10.014  1.00  0.00    -0.014 A 
HETATM   11  C17 UNL     1      -6.519  -3.032   9.182  1.00  0.00    -0.052 A 
HETATM   12  C18 UNL     1      -6.850  -1.678   8.673  1.00  0.00     0.049 C 
HETATM   13  C19 UNL     1      -5.300  -3.570   8.822  1.00  0.00     0.015 A 
HETATM   14  C20 UNL     1      -4.838  -4.814   9.275  1.00  0.00    -0.048 A 
HETATM   15  C21 UNL     1      -3.705  -5.357   8.500  1.00  0.00     0.049 C 
HETATM   16  C22 UNL     1      -5.650  -5.505  10.131  1.00  0.00     0.018 A 
HETATM   17  C23 UNL     1      -5.524  -6.714  10.758  1.00  0.00     0.025 A 
ENDROOT
BRANCH   1  18
HETATM   18  C3  UNL     1      -3.150  -7.412  10.641  1.00  0.00     0.015 C 
BRANCH  18  19
HETATM   19  C2  UNL     1      -2.238  -6.846  11.651  1.00  0.00     0.260 C 
BRANCH  19  20
HETATM   20  N1  UNL     1      -1.469  -7.952  12.309  1.00  0.00    -0.076 N 
HETATM   21  C1  UNL     1      -1.817  -7.873  13.738  1.00  0.00     0.267 C 
ATOM     22  H12 UNL     1      -0.465  -7.919  12.129  1.00  0.00     0.276 HD
ATOM     23  H11 UNL     1      -1.634  -8.870  11.896  1.00  0.00     0.276 HD
ENDBRANCH  19  20
ENDBRANCH  18  19
ENDBRANCH   1  18
BRANCH   2  24
HETATM   24  O1  UNL     1      -3.953  -9.867  11.676  1.00  0.00    -0.355 OA
HETATM   25  C6  UNL     1      -3.950 -10.760  10.529  1.00  0.00     0.210 C 
ENDBRANCH   2  24
BRANCH  10  26
HETATM   26  C14 UNL     1      -8.645  -3.325  10.529  1.00  0.00     0.014 C 
HETATM   27  C15 UNL     1      -9.687  -2.885   9.599  1.00  0.00     0.015 C 
HETATM   28  C16 UNL     1      -8.455  -2.318  11.694  1.00  0.00     0.015 C 
ENDBRANCH  10  26
TORSDOF 5
ENDMDL
MODEL 5
REMARK VINA RESULT: -6.565067134      4.810      7.135
REMARK  5 active torsions:
REMARK  status: ('A' for Active; 'I' for Inactive)
REMARK    1  A    between atoms: N1_2  and  C2_5 
REMARK    2  A    between atoms: C2_5  and  C3_6 
REMARK    3  A    between atoms: C3_6  and  C4_7 
REMARK    4  A    between atoms: C5_8  and  O1_9 
REMARK    5  A    between atoms: C13_18  and  C14_19 
ROOT
HETATM    1  C4  UNL     1      -7.117  -2.483  10.451  1.00  0.00     0.010 A 
HETATM    2  C5  UNL     1      -6.493  -2.912  11.600  1.00  0.00     0.085 A 
HETATM    3  C7  UNL     1      -5.969  -2.070  12.571  1.00  0.00    -0.019 A 
HETATM    4  C8  UNL     1      -5.327  -2.609  13.766  1.00  0.00     0.052 C 
HETATM    5  C9  UNL     1      -6.081  -0.741  12.378  1.00  0.00    -0.018 A 
HETATM    6  C10 UNL     1      -5.537   0.238  13.376  1.00  0.00     0.052 C 
HETATM    7  C11 UNL     1      -6.710  -0.249  11.247  1.00  0.00     0.094 A 
HETATM    8  O2  UNL     1      -6.908   0.992  10.888  1.00  0.00    -0.308 OA
HETATM    9  C12 UNL     1      -7.553   1.021   9.757  1.00  0.00     0.095 A 
HETATM   10  C13 UNL     1      -7.983   2.128   9.004  1.00  0.00    -0.014 A 
HETATM   11  C17 UNL     1      -8.670   1.905   7.851  1.00  0.00    -0.052 A 
HETATM   12  C18 UNL     1      -9.121   2.989   6.944  1.00  0.00     0.049 C 
HETATM   13  C19 UNL     1      -8.926   0.604   7.470  1.00  0.00     0.015 A 
HETATM   14  C20 UNL     1      -8.507  -0.515   8.204  1.00  0.00    -0.048 A 
HETATM   15  C21 UNL     1      -9.184  -1.772   7.829  1.00  0.00     0.049 C 
HETATM   16  C22 UNL     1      -7.796  -0.278   9.347  1.00  0.00     0.018 A 
HETATM   17  C23 UNL     1      -7.240  -1.106  10.284  1.00  0.00     0.025 A 
ENDROOT
BRANCH   1  18
HETATM   18  C3  UNL     1      -7.136  -3.395   9.342  1.00  0.00     0.015 C 
BRANCH  18  19
HETATM   19  C2  UNL     1      -5.990  -3.714   8.472  1.00  0.00     0.260 C 
BRANCH  19  20
HETATM   20  N1  UNL     1      -5.314  -4.957   8.967  1.00  0.00    -0.076 N 
HETATM   21  C1  UNL     1      -4.158  -5.154   8.076  1.00  0.00     0.267 C 
ATOM     22  H12 UNL     1      -5.932  -5.766   9.024  1.00  0.00     0.276 HD
ATOM     23  H11 UNL     1      -5.068  -4.924   9.957  1.00  0.00     0.276 HD
ENDBRANCH  19  20
ENDBRANCH  18  19
ENDBRANCH   1  18
BRANCH   2  24
HETATM   24  O1  UNL     1      -6.363  -4.264  11.870  1.00  0.00    -0.355 OA
HETATM   25  C6  UNL     1      -7.570  -4.887  12.388  1.00  0.00     0.210 C 
ENDBRANCH   2  24
BRANCH  10  26
HETATM   26  C14 UNL     1      -7.593   3.435   9.559  1.00  0.00     0.014 C 
HETATM   27  C15 UNL     1      -6.353   3.561  10.329  1.00  0.00     0.015 C 
HETATM   28  C16 UNL     1      -8.796   4.065  10.308  1.00  0.00     0.015 C 
ENDBRANCH  10  26
TORSDOF 5
ENDMDL
