MODEL 1
REMARK VINA RESULT: -8.167868120      0.000      0.000
REMARK  8 active torsions:
REMARK  status: ('A' for Active; 'I' for Inactive)
REMARK    1  A    between atoms: C2_2  and  C3_3 
REMARK    2  A    between atoms: C3_3  and  C4_4 
REMARK    3  A    between atoms: C4_4  and  C5_5 
REMARK    4  A    between atoms: C5_5  and  C6_6 
REMARK    5  A    between atoms: C6_6  and  C7_7 
REMARK    6  A    between atoms: C7_7  and  N1_8 
REMARK       I    between atoms: N1_8  and  C8_10 
REMARK    7  A    between atoms: C8_10  and  C9_12 
REMARK    8  A    between atoms: C26_31  and  C27_32 
ROOT
HETATM    1  C9  UNL     1      -2.717   4.767  13.715  1.00  0.00     0.087 C 
HETATM    2  C10 UNL     1      -3.436   5.256  14.980  1.00  0.00     0.015 C 
HETATM    3  C11 UNL     1      -3.136   6.703  14.949  1.00  0.00     0.007 C 
HETATM    4  C12 UNL     1      -2.878   7.128  13.510  1.00  0.00    -0.000 C 
HETATM    5  C13 UNL     1      -1.595   7.821  13.463  1.00  0.00    -0.005 C 
HETATM    6  C14 UNL     1      -1.530   8.741  14.696  1.00  0.00     0.007 C 
HETATM    7  C15 UNL     1      -1.292  10.190  14.328  1.00  0.00     0.026 C 
HETATM    8  C16 UNL     1      -0.037  10.431  13.579  1.00  0.00     0.095 C 
HETATM    9  N2  UNL     1       1.070  10.486  14.494  1.00  0.00    -0.351 N 
HETATM   10  C17 UNL     1       0.891  11.140  15.771  1.00  0.00     0.153 C 
HETATM   11  C18 UNL     1       2.340   9.937  14.222  1.00  0.00     0.219 C 
HETATM   12  O2  UNL     1       3.300  10.109  14.990  1.00  0.00    -0.273 OA
HETATM   13  C19 UNL     1       2.497   9.144  12.985  1.00  0.00     0.103 C 
HETATM   14  C20 UNL     1       1.199   8.369  12.820  1.00  0.00     0.020 C 
HETATM   15  C21 UNL     1       0.104   9.342  12.547  1.00  0.00    -0.019 C 
HETATM   16  C22 UNL     1       0.446  10.039  11.230  1.00  0.00     0.018 C 
HETATM   17  C23 UNL     1      -1.249   8.673  12.313  1.00  0.00     0.000 C 
HETATM   18  C24 UNL     1      -1.174   8.033  10.965  1.00  0.00     0.007 C 
HETATM   19  C25 UNL     1      -2.461   7.204  10.810  1.00  0.00     0.013 C 
HETATM   20  C26 UNL     1      -2.168   5.885  11.530  1.00  0.00     0.064 C 
HETATM   21  C29 UNL     1      -3.052   5.834  12.740  1.00  0.00    -0.018 C 
HETATM   22  C30 UNL     1      -4.522   5.789  12.407  1.00  0.00     0.017 C 
ENDROOT
BRANCH   1  23
HETATM   23  C8  UNL     1      -3.092   3.389  13.429  1.00  0.00     0.222 C 
HETATM   24  N1  UNL     1      -4.243   2.754  13.938  1.00  0.00    -0.361 N 
ATOM     25  H1  UNL     1      -4.857   3.286  14.554  1.00  0.00     0.162 HD
HETATM   26  O1  UNL     1      -2.363   2.696  12.684  1.00  0.00    -0.273 OA
BRANCH  24  27
HETATM   27  C7  UNL     1      -4.598   1.382  13.631  1.00  0.00     0.122 C 
BRANCH  27  28
HETATM   28  C6  UNL     1      -4.253   0.535  14.832  1.00  0.00     0.020 C 
BRANCH  28  29
HETATM   29  C5  UNL     1      -4.448   1.270  16.125  1.00  0.00     0.002 C 
BRANCH  29  30
HETATM   30  C4  UNL     1      -5.601   0.722  16.925  1.00  0.00     0.000 C 
BRANCH  30  31
HETATM   31  C3  UNL     1      -6.812   1.613  16.805  1.00  0.00    -0.000 C 
BRANCH  31  32
HETATM   32  C2  UNL     1      -6.482   2.991  17.354  1.00  0.00    -0.005 C 
HETATM   33  C1  UNL     1      -6.625   4.057  16.316  1.00  0.00     0.005 C 
ENDBRANCH  31  32
ENDBRANCH  30  31
ENDBRANCH  29  30
ENDBRANCH  28  29
ENDBRANCH  27  28
ENDBRANCH  24  27
ENDBRANCH   1  23
BRANCH  20  34
HETATM   34  C27 UNL     1      -2.268   4.836  10.543  1.00  0.00     0.128 C 
HETATM   35  C28 UNL     1      -3.458   4.445   9.768  1.00  0.00     0.091 C 
HETATM   36  O3  UNL     1      -1.255   4.163  10.286  1.00  0.00    -0.298 OA
ENDBRANCH  20  34
TORSDOF 8
ENDMDL
MODEL 2
REMARK VINA RESULT: -8.153782329      3.682      5.085
REMARK  8 active torsions:
REMARK  status: ('A' for Active; 'I' for Inactive)
REMARK    1  A    between atoms: C2_2  and  C3_3 
REMARK    2  A    between atoms: C3_3  and  C4_4 
REMARK    3  A    between atoms: C4_4  and  C5_5 
REMARK    4  A    between atoms: C5_5  and  C6_6 
REMARK    5  A    between atoms: C6_6  and  C7_7 
REMARK    6  A    between atoms: C7_7  and  N1_8 
REMARK       I    between atoms: N1_8  and  C8_10 
REMARK    7  A    between atoms: C8_10  and  C9_12 
REMARK    8  A    between atoms: C26_31  and  C27_32 
ROOT
HETATM    1  C9  UNL     1      -3.208   4.274  12.553  1.00  0.00     0.087 C 
HETATM    2  C10 UNL     1      -2.135   4.167  13.647  1.00  0.00     0.015 C 
HETATM    3  C11 UNL     1      -0.956   4.734  12.960  1.00  0.00     0.007 C 
HETATM    4  C12 UNL     1      -1.425   5.689  11.869  1.00  0.00    -0.000 C 
HETATM    5  C13 UNL     1      -0.787   5.296  10.617  1.00  0.00    -0.005 C 
HETATM    6  C14 UNL     1       0.679   4.955  10.942  1.00  0.00     0.007 C 
HETATM    7  C15 UNL     1       1.659   5.771  10.126  1.00  0.00     0.026 C 
HETATM    8  C16 UNL     1       1.522   5.604   8.660  1.00  0.00     0.095 C 
HETATM    9  N2  UNL     1       2.187   4.399   8.246  1.00  0.00    -0.351 N 
HETATM   10  C17 UNL     1       3.443   4.043   8.867  1.00  0.00     0.153 C 
HETATM   11  C18 UNL     1       1.686   3.528   7.256  1.00  0.00     0.219 C 
HETATM   12  O2  UNL     1       2.348   2.562   6.846  1.00  0.00    -0.273 OA
HETATM   13  C19 UNL     1       0.338   3.803   6.715  1.00  0.00     0.103 C 
HETATM   14  C20 UNL     1      -0.490   4.294   7.892  1.00  0.00     0.020 C 
HETATM   15  C21 UNL     1       0.052   5.611   8.329  1.00  0.00    -0.019 C 
HETATM   16  C22 UNL     1      -0.119   6.575   7.154  1.00  0.00     0.018 C 
HETATM   17  C23 UNL     1      -0.735   6.232   9.481  1.00  0.00     0.000 C 
HETATM   18  C24 UNL     1      -2.029   6.701   8.902  1.00  0.00     0.007 C 
HETATM   19  C25 UNL     1      -2.895   7.153  10.091  1.00  0.00     0.013 C 
HETATM   20  C26 UNL     1      -3.523   5.865  10.630  1.00  0.00     0.064 C 
HETATM   21  C29 UNL     1      -2.934   5.618  11.987  1.00  0.00    -0.018 C 
HETATM   22  C30 UNL     1      -3.283   6.686  12.995  1.00  0.00     0.017 C 
ENDROOT
BRANCH   1  23
HETATM   23  C8  UNL     1      -4.520   3.983  13.111  1.00  0.00     0.222 C 
HETATM   24  N1  UNL     1      -5.020   4.539  14.306  1.00  0.00    -0.361 N 
ATOM     25  H1  UNL     1      -4.427   5.187  14.824  1.00  0.00     0.162 HD
HETATM   26  O1  UNL     1      -5.280   3.187  12.512  1.00  0.00    -0.273 OA
BRANCH  24  27
HETATM   27  C7  UNL     1      -6.337   4.239  14.835  1.00  0.00     0.122 C 
BRANCH  27  28
HETATM   28  C6  UNL     1      -6.228   4.189  16.341  1.00  0.00     0.020 C 
BRANCH  28  29
HETATM   29  C5  UNL     1      -6.833   2.943  16.916  1.00  0.00     0.002 C 
BRANCH  29  30
HETATM   30  C4  UNL     1      -5.824   2.112  17.667  1.00  0.00     0.000 C 
BRANCH  30  31
HETATM   31  C3  UNL     1      -5.425   0.897  16.868  1.00  0.00    -0.000 C 
BRANCH  31  32
HETATM   32  C2  UNL     1      -4.189   1.217  16.045  1.00  0.00    -0.005 C 
HETATM   33  C1  UNL     1      -4.258   0.625  14.675  1.00  0.00     0.005 C 
ENDBRANCH  31  32
ENDBRANCH  30  31
ENDBRANCH  29  30
ENDBRANCH  28  29
ENDBRANCH  27  28
ENDBRANCH  24  27
ENDBRANCH   1  23
BRANCH  20  34
HETATM   34  C27 UNL     1      -4.954   6.010  10.502  1.00  0.00     0.128 C 
HETATM   35  C28 UNL     1      -5.793   7.107  11.012  1.00  0.00     0.091 C 
HETATM   36  O3  UNL     1      -5.589   5.129   9.896  1.00  0.00    -0.298 OA
ENDBRANCH  20  34
TORSDOF 8
ENDMDL
MODEL 3
REMARK VINA RESULT: -8.030098136      5.003      8.576
REMARK  8 active torsions:
REMARK  status: ('A' for Active; 'I' for Inactive)
REMARK    1  A    between atoms: C2_2  and  C3_3 
REMARK    2  A    between atoms: C3_3  and  C4_4 
REMARK    3  A    between atoms: C4_4  and  C5_5 
REMARK    4  A    between atoms: C5_5  and  C6_6 
REMARK    5  A    between atoms: C6_6  and  C7_7 
REMARK    6  A    between atoms: C7_7  and  N1_8 
REMARK       I    between atoms: N1_8  and  C8_10 
REMARK    7  A    between atoms: C8_10  and  C9_12 
REMARK    8  A    between atoms: C26_31  and  C27_32 
ROOT
HETATM    1  C9  UNL     1      -6.165   6.729   9.407  1.00  0.00     0.087 C 
HETATM    2  C10 UNL     1      -6.858   7.551  10.504  1.00  0.00     0.015 C 
HETATM    3  C11 UNL     1      -6.065   7.182  11.695  1.00  0.00     0.007 C 
HETATM    4  C12 UNL     1      -4.670   6.759  11.254  1.00  0.00    -0.000 C 
HETATM    5  C13 UNL     1      -4.390   5.447  11.828  1.00  0.00    -0.005 C 
HETATM    6  C14 UNL     1      -4.905   5.467  13.278  1.00  0.00     0.007 C 
HETATM    7  C15 UNL     1      -3.826   5.126  14.283  1.00  0.00     0.026 C 
HETATM    8  C16 UNL     1      -3.213   3.790  14.091  1.00  0.00     0.095 C 
HETATM    9  N2  UNL     1      -4.060   2.782  14.666  1.00  0.00    -0.351 N 
HETATM   10  C17 UNL     1      -4.733   3.060  15.915  1.00  0.00     0.153 C 
HETATM   11  C18 UNL     1      -4.281   1.517  14.082  1.00  0.00     0.219 C 
HETATM   12  O2  UNL     1      -4.926   0.634  14.669  1.00  0.00    -0.273 OA
HETATM   13  C19 UNL     1      -3.717   1.271  12.738  1.00  0.00     0.103 C 
HETATM   14  C20 UNL     1      -3.866   2.580  11.979  1.00  0.00     0.020 C 
HETATM   15  C21 UNL     1      -2.980   3.595  12.615  1.00  0.00    -0.019 C 
HETATM   16  C22 UNL     1      -1.545   3.087  12.469  1.00  0.00     0.018 C 
HETATM   17  C23 UNL     1      -3.007   4.946  11.904  1.00  0.00     0.000 C 
HETATM   18  C24 UNL     1      -2.258   4.763  10.625  1.00  0.00     0.007 C 
HETATM   19  C25 UNL     1      -2.446   6.064   9.825  1.00  0.00     0.013 C 
HETATM   20  C26 UNL     1      -3.803   5.907   9.134  1.00  0.00     0.064 C 
HETATM   21  C29 UNL     1      -4.732   6.912   9.747  1.00  0.00    -0.018 C 
HETATM   22  C30 UNL     1      -4.319   8.341   9.497  1.00  0.00     0.017 C 
ENDROOT
BRANCH   1  23
HETATM   23  C8  UNL     1      -6.650   7.135   8.096  1.00  0.00     0.222 C 
HETATM   24  N1  UNL     1      -6.803   8.474   7.683  1.00  0.00    -0.361 N 
ATOM     25  H1  UNL     1      -6.564   9.215   8.342  1.00  0.00     0.162 HD
HETATM   26  O1  UNL     1      -6.962   6.260   7.257  1.00  0.00    -0.273 OA
BRANCH  24  27
HETATM   27  C7  UNL     1      -7.280   8.853   6.366  1.00  0.00     0.122 C 
BRANCH  27  28
HETATM   28  C6  UNL     1      -8.424   9.822   6.551  1.00  0.00     0.020 C 
BRANCH  28  29
HETATM   29  C5  UNL     1      -9.472   9.297   7.486  1.00  0.00     0.002 C 
BRANCH  29  30
HETATM   30  C4  UNL     1     -10.778  10.037   7.353  1.00  0.00     0.000 C 
BRANCH  30  31
HETATM   31  C3  UNL     1     -10.694  11.091   6.278  1.00  0.00    -0.000 C 
BRANCH  31  32
HETATM   32  C2  UNL     1     -11.577  10.690   5.107  1.00  0.00    -0.005 C 
HETATM   33  C1  UNL     1     -10.846  10.754   3.806  1.00  0.00     0.005 C 
ENDBRANCH  31  32
ENDBRANCH  30  31
ENDBRANCH  29  30
ENDBRANCH  28  29
ENDBRANCH  27  28
ENDBRANCH  24  27
ENDBRANCH   1  23
BRANCH  20  34
HETATM   34  C27 UNL     1      -3.558   5.954   7.712  1.00  0.00     0.128 C 
HETATM   35  C28 UNL     1      -2.956   7.056   6.942  1.00  0.00     0.091 C 
HETATM   36  O3  UNL     1      -3.876   4.970   7.021  1.00  0.00    -0.298 OA
ENDBRANCH  20  34
TORSDOF 8
ENDMDL
MODEL 4
REMARK VINA RESULT: -7.974290103      2.067      8.270
REMARK  8 active torsions:
REMARK  status: ('A' for Active; 'I' for Inactive)
REMARK    1  A    between atoms: C2_2  and  C3_3 
REMARK    2  A    between atoms: C3_3  and  C4_4 
REMARK    3  A    between atoms: C4_4  and  C5_5 
REMARK    4  A    between atoms: C5_5  and  C6_6 
REMARK    5  A    between atoms: C6_6  and  C7_7 
REMARK    6  A    between atoms: C7_7  and  N1_8 
REMARK       I    between atoms: N1_8  and  C8_10 
REMARK    7  A    between atoms: C8_10  and  C9_12 
REMARK    8  A    between atoms: C26_31  and  C27_32 
ROOT
HETATM    1  C9  UNL     1       0.115   6.177  11.952  1.00  0.00     0.087 C 
HETATM    2  C10 UNL     1       0.382   5.196  10.801  1.00  0.00     0.015 C 
HETATM    3  C11 UNL     1      -0.854   4.387  10.810  1.00  0.00     0.007 C 
HETATM    4  C12 UNL     1      -1.987   5.212  11.406  1.00  0.00    -0.000 C 
HETATM    5  C13 UNL     1      -2.596   4.438  12.483  1.00  0.00    -0.005 C 
HETATM    6  C14 UNL     1      -2.708   2.985  11.990  1.00  0.00     0.007 C 
HETATM    7  C15 UNL     1      -4.127   2.461  12.043  1.00  0.00     0.026 C 
HETATM    8  C16 UNL     1      -4.733   2.476  13.396  1.00  0.00     0.095 C 
HETATM    9  N2  UNL     1      -4.287   1.330  14.139  1.00  0.00    -0.351 N 
HETATM   10  C17 UNL     1      -4.152   0.062  13.456  1.00  0.00     0.153 C 
HETATM   11  C18 UNL     1      -3.970   1.360  15.512  1.00  0.00     0.219 C 
HETATM   12  O2  UNL     1      -3.701   0.325  16.140  1.00  0.00    -0.273 OA
HETATM   13  C19 UNL     1      -3.966   2.675  16.189  1.00  0.00     0.103 C 
HETATM   14  C20 UNL     1      -3.402   3.661  15.178  1.00  0.00     0.020 C 
HETATM   15  C21 UNL     1      -4.369   3.783  14.052  1.00  0.00    -0.019 C 
HETATM   16  C22 UNL     1      -5.665   4.346  14.638  1.00  0.00     0.018 C 
HETATM   17  C23 UNL     1      -3.932   4.791  12.991  1.00  0.00     0.000 C 
HETATM   18  C24 UNL     1      -4.117   6.144  13.595  1.00  0.00     0.007 C 
HETATM   19  C25 UNL     1      -3.502   7.146  12.602  1.00  0.00     0.013 C 
HETATM   20  C26 UNL     1      -2.002   7.136  12.912  1.00  0.00     0.064 C 
HETATM   21  C29 UNL     1      -1.310   6.529  11.729  1.00  0.00    -0.018 C 
HETATM   22  C30 UNL     1      -1.451   7.344  10.468  1.00  0.00     0.017 C 
ENDROOT
BRANCH   1  23
HETATM   23  C8  UNL     1       1.122   7.228  11.956  1.00  0.00     0.222 C 
HETATM   24  N1  UNL     1       1.458   8.007  13.082  1.00  0.00    -0.361 N 
ATOM     25  H1  UNL     1       0.962   7.833  13.956  1.00  0.00     0.162 HD
HETATM   26  O1  UNL     1       1.751   7.481  10.903  1.00  0.00    -0.273 OA
BRANCH  24  27
HETATM   27  C7  UNL     1       2.473   9.043  13.062  1.00  0.00     0.122 C 
BRANCH  27  28
HETATM   28  C6  UNL     1       1.855  10.307  13.610  1.00  0.00     0.020 C 
BRANCH  28  29
HETATM   29  C5  UNL     1       2.027  10.429  15.095  1.00  0.00     0.002 C 
BRANCH  29  30
HETATM   30  C4  UNL     1       0.946  11.268  15.728  1.00  0.00     0.000 C 
BRANCH  30  31
HETATM   31  C3  UNL     1       0.196  12.057  14.686  1.00  0.00    -0.000 C 
BRANCH  31  32
HETATM   32  C2  UNL     1      -0.134  13.435  15.235  1.00  0.00    -0.005 C 
HETATM   33  C1  UNL     1       0.631  13.740  16.482  1.00  0.00     0.005 C 
ENDBRANCH  31  32
ENDBRANCH  30  31
ENDBRANCH  29  30
ENDBRANCH  28  29
ENDBRANCH  27  28
ENDBRANCH  24  27
ENDBRANCH   1  23
BRANCH  20  34
HETATM   34  C27 UNL     1      -1.649   8.474  13.323  1.00  0.00     0.128 C 
HETATM   35  C28 UNL     1      -1.923   9.733  12.608  1.00  0.00     0.091 C 
HETATM   36  O3  UNL     1      -1.045   8.627  14.399  1.00  0.00    -0.298 OA
ENDBRANCH  20  34
TORSDOF 8
ENDMDL
MODEL 5
REMARK VINA RESULT: -7.973351570      1.981      3.309
REMARK  8 active torsions:
REMARK  status: ('A' for Active; 'I' for Inactive)
REMARK    1  A    between atoms: C2_2  and  C3_3 
REMARK    2  A    between atoms: C3_3  and  C4_4 
REMARK    3  A    between atoms: C4_4  and  C5_5 
REMARK    4  A    between atoms: C5_5  and  C6_6 
REMARK    5  A    between atoms: C6_6  and  C7_7 
REMARK    6  A    between atoms: C7_7  and  N1_8 
REMARK       I    between atoms: N1_8  and  C8_10 
REMARK    7  A    between atoms: C8_10  and  C9_12 
REMARK    8  A    between atoms: C26_31  and  C27_32 
ROOT
HETATM    1  C9  UNL     1      -2.313   4.512  12.083  1.00  0.00     0.087 C 
HETATM    2  C10 UNL     1      -0.882   4.005  11.852  1.00  0.00     0.015 C 
HETATM    3  C11 UNL     1      -0.083   5.175  12.272  1.00  0.00     0.007 C 
HETATM    4  C12 UNL     1      -0.888   5.996  13.272  1.00  0.00    -0.000 C 
HETATM    5  C13 UNL     1      -0.924   7.377  12.802  1.00  0.00    -0.005 C 
HETATM    6  C14 UNL     1       0.486   7.719  12.288  1.00  0.00     0.007 C 
HETATM    7  C15 UNL     1       1.078   8.930  12.978  1.00  0.00     0.026 C 
HETATM    8  C16 UNL     1       0.281  10.170  12.824  1.00  0.00     0.095 C 
HETATM    9  N2  UNL     1       0.558  10.768  11.547  1.00  0.00    -0.351 N 
HETATM   10  C17 UNL     1       1.914  10.751  11.044  1.00  0.00     0.153 C 
HETATM   11  C18 UNL     1      -0.422  11.381  10.739  1.00  0.00     0.219 C 
HETATM   12  O2  UNL     1      -0.121  11.987   9.699  1.00  0.00    -0.273 OA
HETATM   13  C19 UNL     1      -1.832  11.281  11.172  1.00  0.00     0.103 C 
HETATM   14  C20 UNL     1      -1.988   9.888  11.762  1.00  0.00     0.020 C 
HETATM   15  C21 UNL     1      -1.172   9.813  13.006  1.00  0.00    -0.019 C 
HETATM   16  C22 UNL     1      -1.748  10.842  13.980  1.00  0.00     0.018 C 
HETATM   17  C23 UNL     1      -1.288   8.468  13.721  1.00  0.00     0.000 C 
HETATM   18  C24 UNL     1      -2.647   8.437  14.340  1.00  0.00     0.007 C 
HETATM   19  C25 UNL     1      -2.835   7.015  14.896  1.00  0.00     0.013 C 
HETATM   20  C26 UNL     1      -3.287   6.180  13.694  1.00  0.00     0.064 C 
HETATM   21  C29 UNL     1      -2.182   5.216  13.383  1.00  0.00    -0.018 C 
HETATM   22  C30 UNL     1      -1.927   4.220  14.488  1.00  0.00     0.017 C 
ENDROOT
BRANCH   1  23
HETATM   23  C8  UNL     1      -3.259   3.413  11.953  1.00  0.00     0.222 C 
HETATM   24  N1  UNL     1      -3.149   2.182  12.631  1.00  0.00    -0.361 N 
ATOM     25  H1  UNL     1      -2.353   2.041  13.253  1.00  0.00     0.162 HD
HETATM   26  O1  UNL     1      -4.247   3.539  11.195  1.00  0.00    -0.273 OA
BRANCH  24  27
HETATM   27  C7  UNL     1      -4.111   1.105  12.490  1.00  0.00     0.122 C 
BRANCH  27  28
HETATM   28  C6  UNL     1      -4.233   0.417  13.829  1.00  0.00     0.020 C 
BRANCH  28  29
HETATM   29  C5  UNL     1      -4.239   1.387  14.972  1.00  0.00     0.002 C 
BRANCH  29  30
HETATM   30  C4  UNL     1      -5.034   0.879  16.148  1.00  0.00     0.000 C 
BRANCH  30  31
HETATM   31  C3  UNL     1      -5.086   1.908  17.249  1.00  0.00    -0.000 C 
BRANCH  31  32
HETATM   32  C2  UNL     1      -6.533   2.154  17.642  1.00  0.00    -0.005 C 
HETATM   33  C1  UNL     1      -7.471   1.220  16.948  1.00  0.00     0.005 C 
ENDBRANCH  31  32
ENDBRANCH  30  31
ENDBRANCH  29  30
ENDBRANCH  28  29
ENDBRANCH  27  28
ENDBRANCH  24  27
ENDBRANCH   1  23
BRANCH  20  34
HETATM   34  C27 UNL     1      -4.599   5.667  14.009  1.00  0.00     0.128 C 
HETATM   35  C28 UNL     1      -5.039   5.042  15.268  1.00  0.00     0.091 C 
HETATM   36  O3  UNL     1      -5.491   5.744  13.146  1.00  0.00    -0.298 OA
ENDBRANCH  20  34
TORSDOF 8
ENDMDL
