MODEL 1
REMARK VINA RESULT: -9.399988843      0.000      0.000
REMARK  14 active torsions:
REMARK  status: ('A' for Active; 'I' for Inactive)
REMARK    1  A    between atoms: C2_2  and  O1_3 
REMARK    2  A    between atoms: O1_3  and  C3_4 
REMARK    3  A    between atoms: C3_4  and  C4_6 
REMARK       I    between atoms: C4_6  and  N1_8 
REMARK    4  A    between atoms: N1_8  and  N2_10 
REMARK    5  A    between atoms: N2_10  and  C6_12 
REMARK    6  A    between atoms: C7_15  and  N4_16 
REMARK    7  A    between atoms: N4_16  and  N5_18 
REMARK    8  A    between atoms: N5_18  and  C8_20 
REMARK    9  A    between atoms: C8_20  and  C9_21 
REMARK   10  A    between atoms: C10_26  and  N8_27 
REMARK   11  A    between atoms: C11_32  and  O4_33 
REMARK   12  A    between atoms: N10_35  and  N11_36 
REMARK   13  A    between atoms: N11_36  and  C12_38 
REMARK   14  A    between atoms: C12_38  and  O5_42 
ROOT
HETATM    1  C6  UNL     1     -12.150  -7.752 -32.975  1.00  0.00     0.730 A 
HETATM    2  N3  UNL     1     -12.764  -6.708 -32.395  1.00  0.00    -0.015 N 
ATOM      3  H3  UNL     1     -12.464  -6.244 -31.538  1.00  0.00     0.203 HD
HETATM    4  C7  UNL     1     -13.835  -6.377 -33.129  1.00  0.00     0.748 A 
HETATM    5  N10 UNL     1     -13.904  -7.225 -34.195  1.00  0.00    -0.001 N 
HETATM    6  N13 UNL     1     -12.880  -8.034 -34.068  1.00  0.00    -0.093 N 
ATOM      7  H13 UNL     1     -12.662  -8.787 -34.721  1.00  0.00     0.208 HD
ENDROOT
BRANCH   4   8
HETATM    8  N4  UNL     1     -14.644  -5.421 -32.856  1.00  0.00    -0.129 N 
ATOM      9  H4  UNL     1     -15.568  -5.628 -32.478  1.00  0.00     0.205 HD
BRANCH   8  10
HETATM   10  N5  UNL     1     -14.267  -4.109 -33.073  1.00  0.00    -0.295 N 
ATOM     11  H5  UNL     1     -13.283  -3.847 -32.997  1.00  0.00     0.186 HD
BRANCH  10  12
HETATM   12  C8  UNL     1     -15.151  -3.203 -33.373  1.00  0.00     0.143 C 
BRANCH  12  13
HETATM   13  C9  UNL     1     -15.476  -2.903 -34.755  1.00  0.00     0.116 A 
HETATM   14  N6  UNL     1     -14.950  -1.812 -35.321  1.00  0.00    -0.281 N 
HETATM   15  N7  UNL     1     -15.202  -1.482 -36.558  1.00  0.00    -0.132 N 
ATOM     16  H6  UNL     1     -14.332  -1.218 -34.769  1.00  0.00     0.188 HD
HETATM   17  C10 UNL     1     -16.008  -2.236 -37.319  1.00  0.00     0.692 A 
ATOM     18  H7  UNL     1     -14.779  -0.641 -36.952  1.00  0.00     0.205 HD
HETATM   19  N9  UNL     1     -16.556  -3.352 -36.766  1.00  0.00    -0.167 N 
HETATM   20  C11 UNL     1     -16.312  -3.713 -35.492  1.00  0.00     0.185 A 
ATOM     21  H9  UNL     1     -17.171  -3.933 -37.335  1.00  0.00     0.186 HD
BRANCH  17  22
HETATM   22  N8  UNL     1     -16.250  -1.904 -38.532  1.00  0.00    -0.233 N 
ATOM     23  H82 UNL     1     -17.196  -1.692 -38.847  1.00  0.00     0.174 HD
ATOM     24  H81 UNL     1     -15.491  -1.845 -39.211  1.00  0.00     0.174 HD
ENDBRANCH  17  22
BRANCH  20  25
HETATM   25  O4  UNL     1     -16.857  -4.842 -34.905  1.00  0.00    -0.344 OA
ATOM     26  H4  UNL     1     -17.799  -4.961 -34.907  1.00  0.00     0.219 HD
ENDBRANCH  20  25
ENDBRANCH  12  13
ENDBRANCH  10  12
ENDBRANCH   8  10
ENDBRANCH   4   8
BRANCH   5  27
HETATM   27  N11 UNL     1     -14.892  -7.192 -35.190  1.00  0.00    -0.229 N 
ATOM     28  H11 UNL     1     -14.879  -6.452 -35.893  1.00  0.00     0.193 HD
BRANCH  27  29
HETATM   29  C12 UNL     1     -15.904  -8.172 -35.225  1.00  0.00     0.231 C 
HETATM   30  N12 UNL     1     -17.048  -7.952 -35.779  1.00  0.00    -0.364 N 
ATOM     31 2H12 UNL     1     -17.200  -7.035 -36.198  1.00  0.00     0.159 HD
ATOM     32 1H12 UNL     1     -17.781  -8.661 -35.803  1.00  0.00     0.159 HD
BRANCH  29  33
HETATM   33  O5  UNL     1     -15.697  -9.421 -34.653  1.00  0.00    -0.332 OA
ATOM     34  H5  UNL     1     -16.426  -9.916 -34.299  1.00  0.00     0.221 HD
ENDBRANCH  29  33
ENDBRANCH  27  29
ENDBRANCH   5  27
BRANCH   1  35
HETATM   35  N2  UNL     1     -10.958  -8.438 -32.530  1.00  0.00    -0.123 N 
HETATM   36  C5  UNL     1      -9.761  -8.365 -33.340  1.00  0.00     0.197 C 
BRANCH  35  37
HETATM   37  N1  UNL     1     -10.965  -9.161 -31.332  1.00  0.00    -0.245 N 
HETATM   38  C4  UNL     1     -10.818  -8.499 -30.095  1.00  0.00     0.335 C 
HETATM   39  O3  UNL     1     -10.679  -7.257 -30.025  1.00  0.00    -0.260 OA
ATOM     40  H1  UNL     1     -11.076 -10.174 -31.353  1.00  0.00     0.191 HD
BRANCH  38  41
HETATM   41  C3  UNL     1     -10.829  -9.277 -28.867  1.00  0.00     0.353 C 
HETATM   42  O2  UNL     1     -10.319  -8.845 -27.795  1.00  0.00    -0.254 OA
BRANCH  41  43
HETATM   43  O1  UNL     1     -11.403 -10.519 -28.850  1.00  0.00    -0.314 OA
BRANCH  43  44
HETATM   44  C2  UNL     1     -12.728 -10.746 -28.396  1.00  0.00     0.175 C 
HETATM   45  C1  UNL     1     -13.617 -10.817 -29.614  1.00  0.00     0.034 C 
ENDBRANCH  43  44
ENDBRANCH  41  43
ENDBRANCH  38  41
ENDBRANCH  35  37
ENDBRANCH   1  35
TORSDOF 14
ENDMDL
MODEL 2
REMARK VINA RESULT: -9.367943899      1.907      2.471
REMARK  14 active torsions:
REMARK  status: ('A' for Active; 'I' for Inactive)
REMARK    1  A    between atoms: C2_2  and  O1_3 
REMARK    2  A    between atoms: O1_3  and  C3_4 
REMARK    3  A    between atoms: C3_4  and  C4_6 
REMARK       I    between atoms: C4_6  and  N1_8 
REMARK    4  A    between atoms: N1_8  and  N2_10 
REMARK    5  A    between atoms: N2_10  and  C6_12 
REMARK    6  A    between atoms: C7_15  and  N4_16 
REMARK    7  A    between atoms: N4_16  and  N5_18 
REMARK    8  A    between atoms: N5_18  and  C8_20 
REMARK    9  A    between atoms: C8_20  and  C9_21 
REMARK   10  A    between atoms: C10_26  and  N8_27 
REMARK   11  A    between atoms: C11_32  and  O4_33 
REMARK   12  A    between atoms: N10_35  and  N11_36 
REMARK   13  A    between atoms: N11_36  and  C12_38 
REMARK   14  A    between atoms: C12_38  and  O5_42 
ROOT
HETATM    1  C6  UNL     1     -11.645  -8.029 -33.070  1.00  0.00     0.730 A 
HETATM    2  N3  UNL     1     -12.412  -6.998 -32.679  1.00  0.00    -0.015 N 
ATOM      3  H3  UNL     1     -12.239  -6.403 -31.869  1.00  0.00     0.203 HD
HETATM    4  C7  UNL     1     -13.440  -6.879 -33.531  1.00  0.00     0.748 A 
HETATM    5  N10 UNL     1     -13.326  -7.853 -34.481  1.00  0.00    -0.001 N 
HETATM    6  N13 UNL     1     -12.241  -8.520 -34.171  1.00  0.00    -0.093 N 
ATOM      7  H13 UNL     1     -11.889  -9.317 -34.702  1.00  0.00     0.208 HD
ENDROOT
BRANCH   4   8
HETATM    8  N4  UNL     1     -14.363  -5.994 -33.447  1.00  0.00    -0.129 N 
ATOM      9  H4  UNL     1     -14.895  -5.734 -34.277  1.00  0.00     0.205 HD
BRANCH   8  10
HETATM   10  N5  UNL     1     -14.638  -5.391 -32.234  1.00  0.00    -0.295 N 
ATOM     11  H5  UNL     1     -15.124  -5.917 -31.507  1.00  0.00     0.186 HD
BRANCH  10  12
HETATM   12  C8  UNL     1     -14.285  -4.159 -32.008  1.00  0.00     0.143 C 
BRANCH  12  13
HETATM   13  C9  UNL     1     -15.253  -3.080 -32.064  1.00  0.00     0.116 A 
HETATM   14  N6  UNL     1     -15.576  -2.441 -30.934  1.00  0.00    -0.281 N 
HETATM   15  N7  UNL     1     -16.440  -1.463 -30.913  1.00  0.00    -0.132 N 
ATOM     16  H6  UNL     1     -15.132  -2.726 -30.061  1.00  0.00     0.188 HD
HETATM   17  C10 UNL     1     -17.045  -1.057 -32.038  1.00  0.00     0.692 A 
ATOM     18  H7  UNL     1     -16.657  -1.002 -30.029  1.00  0.00     0.205 HD
HETATM   19  N9  UNL     1     -16.734  -1.692 -33.200  1.00  0.00    -0.167 N 
HETATM   20  C11 UNL     1     -15.847  -2.704 -33.249  1.00  0.00     0.185 A 
ATOM     21  H9  UNL     1     -17.188  -1.392 -34.063  1.00  0.00     0.186 HD
BRANCH  17  22
HETATM   22  N8  UNL     1     -17.892  -0.098 -32.007  1.00  0.00    -0.233 N 
ATOM     23  H82 UNL     1     -18.511   0.041 -31.208  1.00  0.00     0.174 HD
ATOM     24  H81 UNL     1     -17.963   0.552 -32.789  1.00  0.00     0.174 HD
ENDBRANCH  17  22
BRANCH  20  25
HETATM   25  O4  UNL     1     -15.513  -3.367 -34.417  1.00  0.00    -0.344 OA
ATOM     26  H4  UNL     1     -16.010  -3.197 -35.208  1.00  0.00     0.219 HD
ENDBRANCH  20  25
ENDBRANCH  12  13
ENDBRANCH  10  12
ENDBRANCH   8  10
ENDBRANCH   4   8
BRANCH   5  27
HETATM   27  N11 UNL     1     -14.218  -8.050 -35.545  1.00  0.00    -0.229 N 
ATOM     28  H11 UNL     1     -14.036  -7.609 -36.447  1.00  0.00     0.193 HD
BRANCH  27  29
HETATM   29  C12 UNL     1     -15.364  -8.853 -35.376  1.00  0.00     0.231 C 
HETATM   30  N12 UNL     1     -16.522  -8.343 -35.125  1.00  0.00    -0.364 N 
ATOM     31 2H12 UNL     1     -16.585  -7.328 -35.053  1.00  0.00     0.159 HD
ATOM     32 1H12 UNL     1     -17.351  -8.924 -35.002  1.00  0.00     0.159 HD
BRANCH  29  33
HETATM   33  O5  UNL     1     -15.278 -10.235 -35.473  1.00  0.00    -0.332 OA
ATOM     34  H5  UNL     1     -15.137 -10.766 -34.698  1.00  0.00     0.221 HD
ENDBRANCH  29  33
ENDBRANCH  27  29
ENDBRANCH   5  27
BRANCH   1  35
HETATM   35  N2  UNL     1     -10.435  -8.518 -32.450  1.00  0.00    -0.123 N 
HETATM   36  C5  UNL     1      -9.170  -8.327 -33.128  1.00  0.00     0.197 C 
BRANCH  35  37
HETATM   37  N1  UNL     1     -10.489  -9.166 -31.211  1.00  0.00    -0.245 N 
HETATM   38  C4  UNL     1     -10.767  -8.439 -30.034  1.00  0.00     0.335 C 
HETATM   39  O3  UNL     1     -10.974  -7.205 -30.055  1.00  0.00    -0.260 OA
ATOM     40  H1  UNL     1     -10.326 -10.171 -31.158  1.00  0.00     0.191 HD
BRANCH  38  41
HETATM   41  C3  UNL     1     -10.816  -9.140 -28.762  1.00  0.00     0.353 C 
HETATM   42  O2  UNL     1     -10.125  -8.776 -27.768  1.00  0.00    -0.254 OA
BRANCH  41  43
HETATM   43  O1  UNL     1     -11.629 -10.231 -28.613  1.00  0.00    -0.314 OA
BRANCH  43  44
HETATM   44  C2  UNL     1     -12.812 -10.416 -29.374  1.00  0.00     0.175 C 
HETATM   45  C1  UNL     1     -13.599 -11.527 -28.721  1.00  0.00     0.034 C 
ENDBRANCH  43  44
ENDBRANCH  41  43
ENDBRANCH  38  41
ENDBRANCH  35  37
ENDBRANCH   1  35
TORSDOF 14
ENDMDL
MODEL 3
REMARK VINA RESULT: -9.114247858      2.006      2.840
REMARK  14 active torsions:
REMARK  status: ('A' for Active; 'I' for Inactive)
REMARK    1  A    between atoms: C2_2  and  O1_3 
REMARK    2  A    between atoms: O1_3  and  C3_4 
REMARK    3  A    between atoms: C3_4  and  C4_6 
REMARK       I    between atoms: C4_6  and  N1_8 
REMARK    4  A    between atoms: N1_8  and  N2_10 
REMARK    5  A    between atoms: N2_10  and  C6_12 
REMARK    6  A    between atoms: C7_15  and  N4_16 
REMARK    7  A    between atoms: N4_16  and  N5_18 
REMARK    8  A    between atoms: N5_18  and  C8_20 
REMARK    9  A    between atoms: C8_20  and  C9_21 
REMARK   10  A    between atoms: C10_26  and  N8_27 
REMARK   11  A    between atoms: C11_32  and  O4_33 
REMARK   12  A    between atoms: N10_35  and  N11_36 
REMARK   13  A    between atoms: N11_36  and  C12_38 
REMARK   14  A    between atoms: C12_38  and  O5_42 
ROOT
HETATM    1  C6  UNL     1     -11.717  -7.972 -33.064  1.00  0.00     0.730 A 
HETATM    2  N3  UNL     1     -12.522  -6.979 -32.654  1.00  0.00    -0.015 N 
ATOM      3  H3  UNL     1     -12.379  -6.401 -31.827  1.00  0.00     0.203 HD
HETATM    4  C7  UNL     1     -13.546  -6.872 -33.514  1.00  0.00     0.748 A 
HETATM    5  N10 UNL     1     -13.388  -7.814 -34.489  1.00  0.00    -0.001 N 
HETATM    6  N13 UNL     1     -12.283  -8.452 -34.184  1.00  0.00    -0.093 N 
ATOM      7  H13 UNL     1     -11.899  -9.222 -34.733  1.00  0.00     0.208 HD
ENDROOT
BRANCH   4   8
HETATM    8  N4  UNL     1     -14.499  -6.021 -33.417  1.00  0.00    -0.129 N 
ATOM      9  H4  UNL     1     -15.466  -6.341 -33.394  1.00  0.00     0.205 HD
BRANCH   8  10
HETATM   10  N5  UNL     1     -14.218  -4.669 -33.345  1.00  0.00    -0.295 N 
ATOM     11  H5  UNL     1     -13.300  -4.360 -33.024  1.00  0.00     0.186 HD
BRANCH  10  12
HETATM   12  C8  UNL     1     -15.112  -3.785 -33.683  1.00  0.00     0.143 C 
BRANCH  12  13
HETATM   13  C9  UNL     1     -15.812  -3.008 -32.678  1.00  0.00     0.116 A 
HETATM   14  N6  UNL     1     -16.210  -1.767 -32.981  1.00  0.00    -0.281 N 
HETATM   15  N7  UNL     1     -16.843  -1.013 -32.124  1.00  0.00    -0.132 N 
ATOM     16  H6  UNL     1     -16.012  -1.398 -33.911  1.00  0.00     0.188 HD
HETATM   17  C10 UNL     1     -17.122  -1.459 -30.892  1.00  0.00     0.692 A 
ATOM     18  H7  UNL     1     -17.128  -0.072 -32.397  1.00  0.00     0.205 HD
HETATM   19  N9  UNL     1     -16.728  -2.719 -30.559  1.00  0.00    -0.167 N 
HETATM   20  C11 UNL     1     -16.074  -3.516 -31.425  1.00  0.00     0.185 A 
ATOM     21  H9  UNL     1     -16.936  -3.070 -29.624  1.00  0.00     0.186 HD
BRANCH  17  22
HETATM   22  N8  UNL     1     -17.743  -0.712 -30.058  1.00  0.00    -0.233 N 
ATOM     23  H82 UNL     1     -18.338   0.055 -30.371  1.00  0.00     0.174 HD
ATOM     24  H81 UNL     1     -17.653  -0.873 -29.055  1.00  0.00     0.174 HD
ENDBRANCH  17  22
BRANCH  20  25
HETATM   25  O4  UNL     1     -15.662  -4.800 -31.112  1.00  0.00    -0.344 OA
ATOM     26  H4  UNL     1     -16.312  -5.472 -30.946  1.00  0.00     0.219 HD
ENDBRANCH  20  25
ENDBRANCH  12  13
ENDBRANCH  10  12
ENDBRANCH   8  10
ENDBRANCH   4   8
BRANCH   5  27
HETATM   27  N11 UNL     1     -14.261  -8.012 -35.568  1.00  0.00    -0.229 N 
ATOM     28  H11 UNL     1     -14.036  -7.617 -36.481  1.00  0.00     0.193 HD
BRANCH  27  29
HETATM   29  C12 UNL     1     -15.448  -8.753 -35.399  1.00  0.00     0.231 C 
HETATM   30  N12 UNL     1     -15.530  -9.995 -35.737  1.00  0.00    -0.364 N 
ATOM     31 2H12 UNL     1     -14.699 -10.431 -36.135  1.00  0.00     0.159 HD
ATOM     32 1H12 UNL     1     -16.389 -10.531 -35.615  1.00  0.00     0.159 HD
BRANCH  29  33
HETATM   33  O5  UNL     1     -16.580  -8.159 -34.857  1.00  0.00    -0.332 OA
ATOM     34  H5  UNL     1     -16.504  -7.531 -34.148  1.00  0.00     0.221 HD
ENDBRANCH  29  33
ENDBRANCH  27  29
ENDBRANCH   5  27
BRANCH   1  35
HETATM   35  N2  UNL     1     -10.498  -8.437 -32.443  1.00  0.00    -0.123 N 
HETATM   36  C5  UNL     1      -9.233  -8.185 -33.101  1.00  0.00     0.197 C 
BRANCH  35  37
HETATM   37  N1  UNL     1     -10.543  -9.119 -31.223  1.00  0.00    -0.245 N 
HETATM   38  C4  UNL     1     -10.768  -8.421 -30.018  1.00  0.00     0.335 C 
HETATM   39  O3  UNL     1     -10.935  -7.181 -29.998  1.00  0.00    -0.260 OA
ATOM     40  H1  UNL     1     -10.411 -10.131 -31.204  1.00  0.00     0.191 HD
BRANCH  38  41
HETATM   41  C3  UNL     1     -10.809  -9.158 -28.766  1.00  0.00     0.353 C 
HETATM   42  O2  UNL     1     -10.153  -8.792 -27.750  1.00  0.00    -0.254 OA
BRANCH  41  43
HETATM   43  O1  UNL     1     -11.576 -10.287 -28.663  1.00  0.00    -0.314 OA
BRANCH  43  44
HETATM   44  C2  UNL     1     -12.858 -10.401 -29.259  1.00  0.00     0.175 C 
HETATM   45  C1  UNL     1     -13.527 -11.615 -28.660  1.00  0.00     0.034 C 
ENDBRANCH  43  44
ENDBRANCH  41  43
ENDBRANCH  38  41
ENDBRANCH  35  37
ENDBRANCH   1  35
TORSDOF 14
ENDMDL
MODEL 4
REMARK VINA RESULT: -9.079652896      2.239      8.646
REMARK  14 active torsions:
REMARK  status: ('A' for Active; 'I' for Inactive)
REMARK    1  A    between atoms: C2_2  and  O1_3 
REMARK    2  A    between atoms: O1_3  and  C3_4 
REMARK    3  A    between atoms: C3_4  and  C4_6 
REMARK       I    between atoms: C4_6  and  N1_8 
REMARK    4  A    between atoms: N1_8  and  N2_10 
REMARK    5  A    between atoms: N2_10  and  C6_12 
REMARK    6  A    between atoms: C7_15  and  N4_16 
REMARK    7  A    between atoms: N4_16  and  N5_18 
REMARK    8  A    between atoms: N5_18  and  C8_20 
REMARK    9  A    between atoms: C8_20  and  C9_21 
REMARK   10  A    between atoms: C10_26  and  N8_27 
REMARK   11  A    between atoms: C11_32  and  O4_33 
REMARK   12  A    between atoms: N10_35  and  N11_36 
REMARK   13  A    between atoms: N11_36  and  C12_38 
REMARK   14  A    between atoms: C12_38  and  O5_42 
ROOT
HETATM    1  C6  UNL     1     -13.975  -5.630 -32.720  1.00  0.00     0.730 A 
HETATM    2  N3  UNL     1     -12.726  -6.000 -32.395  1.00  0.00    -0.015 N 
ATOM      3  H3  UNL     1     -12.029  -5.409 -31.942  1.00  0.00     0.203 HD
HETATM    4  C7  UNL     1     -12.546  -7.277 -32.763  1.00  0.00     0.748 A 
HETATM    5  N10 UNL     1     -13.702  -7.726 -33.332  1.00  0.00    -0.001 N 
HETATM    6  N13 UNL     1     -14.532  -6.712 -33.289  1.00  0.00    -0.093 N 
ATOM      7  H13 UNL     1     -15.488  -6.742 -33.644  1.00  0.00     0.208 HD
ENDROOT
BRANCH   4   8
HETATM    8  N4  UNL     1     -11.463  -7.941 -32.598  1.00  0.00    -0.129 N 
ATOM      9  H4  UNL     1     -10.633  -7.705 -33.141  1.00  0.00     0.205 HD
BRANCH   8  10
HETATM   10  N5  UNL     1     -11.418  -8.979 -31.686  1.00  0.00    -0.295 N 
ATOM     11  H5  UNL     1     -10.890  -9.824 -31.908  1.00  0.00     0.186 HD
BRANCH  10  12
HETATM   12  C8  UNL     1     -12.040  -8.892 -30.547  1.00  0.00     0.143 C 
BRANCH  12  13
HETATM   13  C9  UNL     1     -12.778 -10.018 -30.009  1.00  0.00     0.116 A 
HETATM   14  N6  UNL     1     -13.820 -10.498 -30.697  1.00  0.00    -0.281 N 
HETATM   15  N7  UNL     1     -14.529 -11.507 -30.270  1.00  0.00    -0.132 N 
ATOM     16  H6  UNL     1     -14.069 -10.060 -31.584  1.00  0.00     0.188 HD
HETATM   17  C10 UNL     1     -14.235 -12.110 -29.110  1.00  0.00     0.692 A 
ATOM     18  H7  UNL     1     -15.316 -11.841 -30.827  1.00  0.00     0.205 HD
HETATM   19  N9  UNL     1     -13.180 -11.641 -28.390  1.00  0.00    -0.167 N 
HETATM   20  C11 UNL     1     -12.434 -10.601 -28.809  1.00  0.00     0.185 A 
ATOM     21  H9  UNL     1     -12.946 -12.092 -27.506  1.00  0.00     0.186 HD
BRANCH  17  22
HETATM   22  N8  UNL     1     -14.937 -13.099 -28.699  1.00  0.00    -0.233 N 
ATOM     23  H82 UNL     1     -15.941 -13.147 -28.871  1.00  0.00     0.174 HD
ATOM     24  H81 UNL     1     -14.498 -13.864 -28.187  1.00  0.00     0.174 HD
ENDBRANCH  17  22
BRANCH  20  25
HETATM   25  O4  UNL     1     -11.355 -10.104 -28.096  1.00  0.00    -0.344 OA
ATOM     26  H4  UNL     1     -11.218 -10.386 -27.200  1.00  0.00     0.219 HD
ENDBRANCH  20  25
ENDBRANCH  12  13
ENDBRANCH  10  12
ENDBRANCH   8  10
ENDBRANCH   4   8
BRANCH   5  27
HETATM   27  N11 UNL     1     -13.900  -9.017 -33.843  1.00  0.00    -0.229 N 
ATOM     28  H11 UNL     1     -13.746  -9.828 -33.244  1.00  0.00     0.193 HD
BRANCH  27  29
HETATM   29  C12 UNL     1     -14.311  -9.201 -35.178  1.00  0.00     0.231 C 
HETATM   30  N12 UNL     1     -13.632  -8.733 -36.171  1.00  0.00    -0.364 N 
ATOM     31 2H12 UNL     1     -12.778  -8.220 -35.957  1.00  0.00     0.159 HD
ATOM     32 1H12 UNL     1     -13.930  -8.866 -37.137  1.00  0.00     0.159 HD
BRANCH  29  33
HETATM   33  O5  UNL     1     -15.475  -9.900 -35.470  1.00  0.00    -0.332 OA
ATOM     34  H5  UNL     1     -16.137  -9.521 -36.035  1.00  0.00     0.221 HD
ENDBRANCH  29  33
ENDBRANCH  27  29
ENDBRANCH   5  27
BRANCH   1  35
HETATM   35  N2  UNL     1     -14.601  -4.344 -32.509  1.00  0.00    -0.123 N 
HETATM   36  C5  UNL     1     -15.220  -4.064 -31.230  1.00  0.00     0.197 C 
BRANCH  35  37
HETATM   37  N1  UNL     1     -14.605  -3.385 -33.527  1.00  0.00    -0.245 N 
HETATM   38  C4  UNL     1     -15.636  -3.368 -34.491  1.00  0.00     0.335 C 
HETATM   39  O3  UNL     1     -16.572  -4.198 -34.468  1.00  0.00    -0.260 OA
ATOM     40  H1  UNL     1     -13.857  -2.694 -33.574  1.00  0.00     0.191 HD
BRANCH  38  41
HETATM   41  C3  UNL     1     -15.613  -2.360 -35.537  1.00  0.00     0.353 C 
HETATM   42  O2  UNL     1     -14.622  -1.597 -35.712  1.00  0.00    -0.254 OA
BRANCH  41  43
HETATM   43  O1  UNL     1     -16.689  -2.216 -36.371  1.00  0.00    -0.314 OA
BRANCH  43  44
HETATM   44  C2  UNL     1     -16.556  -1.924 -37.753  1.00  0.00     0.175 C 
HETATM   45  C1  UNL     1     -17.914  -1.497 -38.256  1.00  0.00     0.034 C 
ENDBRANCH  43  44
ENDBRANCH  41  43
ENDBRANCH  38  41
ENDBRANCH  35  37
ENDBRANCH   1  35
TORSDOF 14
ENDMDL
MODEL 5
REMARK VINA RESULT: -9.077302739      2.153      8.450
REMARK  14 active torsions:
REMARK  status: ('A' for Active; 'I' for Inactive)
REMARK    1  A    between atoms: C2_2  and  O1_3 
REMARK    2  A    between atoms: O1_3  and  C3_4 
REMARK    3  A    between atoms: C3_4  and  C4_6 
REMARK       I    between atoms: C4_6  and  N1_8 
REMARK    4  A    between atoms: N1_8  and  N2_10 
REMARK    5  A    between atoms: N2_10  and  C6_12 
REMARK    6  A    between atoms: C7_15  and  N4_16 
REMARK    7  A    between atoms: N4_16  and  N5_18 
REMARK    8  A    between atoms: N5_18  and  C8_20 
REMARK    9  A    between atoms: C8_20  and  C9_21 
REMARK   10  A    between atoms: C10_26  and  N8_27 
REMARK   11  A    between atoms: C11_32  and  O4_33 
REMARK   12  A    between atoms: N10_35  and  N11_36 
REMARK   13  A    between atoms: N11_36  and  C12_38 
REMARK   14  A    between atoms: C12_38  and  O5_42 
ROOT
HETATM    1  C6  UNL     1     -13.811  -5.831 -32.645  1.00  0.00     0.730 A 
HETATM    2  N3  UNL     1     -12.568  -6.246 -32.353  1.00  0.00    -0.015 N 
ATOM      3  H3  UNL     1     -11.853  -5.694 -31.880  1.00  0.00     0.203 HD
HETATM    4  C7  UNL     1     -12.422  -7.506 -32.786  1.00  0.00     0.748 A 
HETATM    5  N10 UNL     1     -13.595  -7.900 -33.363  1.00  0.00    -0.001 N 
HETATM    6  N13 UNL     1     -14.400  -6.870 -33.260  1.00  0.00    -0.093 N 
ATOM      7  H13 UNL     1     -15.360  -6.860 -33.606  1.00  0.00     0.208 HD
ENDROOT
BRANCH   4   8
HETATM    8  N4  UNL     1     -11.354  -8.204 -32.666  1.00  0.00    -0.129 N 
ATOM      9  H4  UNL     1     -10.618  -8.132 -33.369  1.00  0.00     0.205 HD
BRANCH   8  10
HETATM   10  N5  UNL     1     -11.197  -9.054 -31.587  1.00  0.00    -0.295 N 
ATOM     11  H5  UNL     1     -10.500  -9.798 -31.628  1.00  0.00     0.186 HD
BRANCH  10  12
HETATM   12  C8  UNL     1     -11.927  -8.915 -30.519  1.00  0.00     0.143 C 
BRANCH  12  13
HETATM   13  C9  UNL     1     -12.718 -10.017 -30.006  1.00  0.00     0.116 A 
HETATM   14  N6  UNL     1     -13.746 -10.470 -30.732  1.00  0.00    -0.281 N 
HETATM   15  N7  UNL     1     -14.499 -11.457 -30.329  1.00  0.00    -0.132 N 
ATOM     16  H6  UNL     1     -13.947 -10.031 -31.630  1.00  0.00     0.188 HD
HETATM   17  C10 UNL     1     -14.268 -12.062 -29.155  1.00  0.00     0.692 A 
ATOM     18  H7  UNL     1     -15.273 -11.771 -30.915  1.00  0.00     0.205 HD
HETATM   19  N9  UNL     1     -13.229 -11.619 -28.397  1.00  0.00    -0.167 N 
HETATM   20  C11 UNL     1     -12.437 -10.603 -28.791  1.00  0.00     0.185 A 
ATOM     21  H9  UNL     1     -13.043 -12.072 -27.502  1.00  0.00     0.186 HD
BRANCH  17  22
HETATM   22  N8  UNL     1     -15.013 -13.028 -28.768  1.00  0.00    -0.233 N 
ATOM     23  H82 UNL     1     -15.048 -13.911 -29.277  1.00  0.00     0.174 HD
ATOM     24  H81 UNL     1     -15.591 -12.930 -27.933  1.00  0.00     0.174 HD
ENDBRANCH  17  22
BRANCH  20  25
HETATM   25  O4  UNL     1     -11.373 -10.134 -28.039  1.00  0.00    -0.344 OA
ATOM     26  H4  UNL     1     -10.712 -10.743 -27.736  1.00  0.00     0.219 HD
ENDBRANCH  20  25
ENDBRANCH  12  13
ENDBRANCH  10  12
ENDBRANCH   8  10
ENDBRANCH   4   8
BRANCH   5  27
HETATM   27  N11 UNL     1     -13.829  -9.159 -33.934  1.00  0.00    -0.229 N 
ATOM     28  H11 UNL     1     -13.607 -10.004 -33.407  1.00  0.00     0.193 HD
BRANCH  27  29
HETATM   29  C12 UNL     1     -14.370  -9.265 -35.232  1.00  0.00     0.231 C 
HETATM   30  N12 UNL     1     -13.833  -8.673 -36.244  1.00  0.00    -0.364 N 
ATOM     31 2H12 UNL     1     -12.993  -8.119 -36.076  1.00  0.00     0.159 HD
ATOM     32 1H12 UNL     1     -14.224  -8.749 -37.183  1.00  0.00     0.159 HD
BRANCH  29  33
HETATM   33  O5  UNL     1     -15.513 -10.019 -35.461  1.00  0.00    -0.332 OA
ATOM     34  H5  UNL     1     -15.982  -9.947 -36.284  1.00  0.00     0.221 HD
ENDBRANCH  29  33
ENDBRANCH  27  29
ENDBRANCH   5  27
BRANCH   1  35
HETATM   35  N2  UNL     1     -14.403  -4.543 -32.364  1.00  0.00    -0.123 N 
HETATM   36  C5  UNL     1     -14.644  -4.164 -30.987  1.00  0.00     0.197 C 
BRANCH  35  37
HETATM   37  N1  UNL     1     -14.737  -3.676 -33.410  1.00  0.00    -0.245 N 
HETATM   38  C4  UNL     1     -15.986  -3.780 -34.057  1.00  0.00     0.335 C 
HETATM   39  O3  UNL     1     -16.831  -4.641 -33.722  1.00  0.00    -0.260 OA
ATOM     40  H1  UNL     1     -14.072  -2.962 -33.707  1.00  0.00     0.191 HD
BRANCH  38  41
HETATM   41  C3  UNL     1     -16.304  -2.866 -35.141  1.00  0.00     0.353 C 
HETATM   42  O2  UNL     1     -17.474  -2.756 -35.605  1.00  0.00    -0.254 OA
BRANCH  41  43
HETATM   43  O1  UNL     1     -15.320  -2.090 -35.691  1.00  0.00    -0.314 OA
BRANCH  43  44
HETATM   44  C2  UNL     1     -15.280  -1.765 -37.072  1.00  0.00     0.175 C 
HETATM   45  C1  UNL     1     -14.384  -2.776 -37.746  1.00  0.00     0.034 C 
ENDBRANCH  43  44
ENDBRANCH  41  43
ENDBRANCH  38  41
ENDBRANCH  35  37
ENDBRANCH   1  35
TORSDOF 14
ENDMDL
