MODEL 1
REMARK VINA RESULT: -7.391137239      0.000      0.000
REMARK  12 active torsions:
REMARK  status: ('A' for Active; 'I' for Inactive)
REMARK    1  A    between atoms: C2_2  and  C3_4 
REMARK    2  A    between atoms: C6_8  and  O3_9 
REMARK    3  A    between atoms: N1_11  and  O4_12 
REMARK    4  A    between atoms: O4_12  and  C7_13 
REMARK    5  A    between atoms: C7_13  and  C8_14 
REMARK    6  A    between atoms: C8_14  and  C9_15 
REMARK    7  A    between atoms: C9_15  and  C10_16 
REMARK    8  A    between atoms: C10_16  and  C11_17 
REMARK    9  A    between atoms: C11_17  and  C12_18 
REMARK   10  A    between atoms: C18_24  and  O5_25 
REMARK   11  A    between atoms: C20_29  and  O7_30 
REMARK   12  A    between atoms: C21_32  and  O8_34 
ROOT
HETATM    1  C3  UNL     1      68.183  37.148  26.572  1.00  0.00     0.266 C 
HETATM    2  O2  UNL     1      68.208  36.820  25.197  1.00  0.00    -0.299 OA
HETATM    3  C4  UNL     1      67.062  37.154  24.451  1.00  0.00     0.139 A 
HETATM    4  C5  UNL     1      65.942  37.617  25.114  1.00  0.00     0.064 A 
HETATM    5  C6  UNL     1      64.951  37.878  24.191  1.00  0.00     0.182 A 
HETATM    6  N1  UNL     1      65.454  37.580  22.979  1.00  0.00    -0.173 N 
HETATM    7  C18 UNL     1      66.735  37.139  23.117  1.00  0.00     0.204 A 
HETATM    8  C19 UNL     1      66.026  37.731  26.583  1.00  0.00     0.198 C 
HETATM    9  O6  UNL     1      66.907  36.748  27.031  1.00  0.00    -0.333 OA
HETATM   10  C20 UNL     1      66.767  38.991  26.914  1.00  0.00     0.192 C 
HETATM   11  C21 UNL     1      68.232  38.624  26.796  1.00  0.00     0.147 C 
HETATM   12  C22 UNL     1      68.781  39.380  25.605  1.00  0.00     0.055 C 
ENDROOT
BRANCH   6  13
HETATM   13  O4  UNL     1      64.845  37.675  21.750  1.00  0.00    -0.269 OA
BRANCH  13  14
HETATM   14  C7  UNL     1      64.476  36.582  20.960  1.00  0.00     0.202 C 
BRANCH  14  15
HETATM   15  C8  UNL     1      63.269  35.933  21.660  1.00  0.00     0.029 C 
BRANCH  15  16
HETATM   16  C9  UNL     1      63.642  34.596  22.220  1.00  0.00     0.002 C 
BRANCH  16  17
HETATM   17  C10 UNL     1      63.424  34.564  23.704  1.00  0.00     0.000 C 
BRANCH  17  18
HETATM   18  C11 UNL     1      64.686  34.205  24.410  1.00  0.00     0.004 C 
BRANCH  18  19
HETATM   19  C12 UNL     1      64.451  33.929  25.891  1.00  0.00    -0.014 C 
HETATM   20  C13 UNL     1      62.993  33.769  26.207  1.00  0.00     0.004 C 
HETATM   21  C14 UNL     1      62.702  32.510  26.977  1.00  0.00     0.000 C 
HETATM   22  C15 UNL     1      63.666  32.376  28.148  1.00  0.00     0.000 C 
HETATM   23  C16 UNL     1      65.091  32.323  27.693  1.00  0.00     0.000 C 
HETATM   24  C17 UNL     1      65.240  32.681  26.229  1.00  0.00     0.004 C 
ENDBRANCH  18  19
ENDBRANCH  17  18
ENDBRANCH  16  17
ENDBRANCH  15  16
ENDBRANCH  14  15
ENDBRANCH  13  14
ENDBRANCH   6  13
BRANCH   5  25
HETATM   25  O3  UNL     1      63.654  38.364  24.450  1.00  0.00    -0.344 OA
ATOM     26  H3  UNL     1      63.047  38.055  25.112  1.00  0.00     0.219 HD
ENDBRANCH   5  25
BRANCH   7  27
HETATM   27  O5  UNL     1      67.599  36.731  22.092  1.00  0.00    -0.342 OA
ATOM     28  H5  UNL     1      67.755  37.221  21.294  1.00  0.00     0.219 HD
ENDBRANCH   7  27
BRANCH  10  29
HETATM   29  O7  UNL     1      66.431  39.400  28.200  1.00  0.00    -0.389 OA
ATOM     30  H7  UNL     1      67.066  40.038  28.504  1.00  0.00     0.210 HD
ENDBRANCH  10  29
BRANCH   1  31
HETATM   31  C2  UNL     1      69.163  36.360  27.299  1.00  0.00     0.188 C 
HETATM   32  C1  UNL     1      70.139  35.423  26.678  1.00  0.00     0.097 C 
HETATM   33  O1  UNL     1      69.198  36.468  28.513  1.00  0.00    -0.292 OA
ENDBRANCH   1  31
BRANCH  11  34
HETATM   34  O8  UNL     1      68.868  39.019  27.938  1.00  0.00    -0.381 OA
ATOM     35  H8  UNL     1      69.193  39.911  27.933  1.00  0.00     0.211 HD
ENDBRANCH  11  34
TORSDOF 12
ENDMDL
MODEL 2
REMARK VINA RESULT: -6.977434773      2.583      5.004
REMARK  12 active torsions:
REMARK  status: ('A' for Active; 'I' for Inactive)
REMARK    1  A    between atoms: C2_2  and  C3_4 
REMARK    2  A    between atoms: C6_8  and  O3_9 
REMARK    3  A    between atoms: N1_11  and  O4_12 
REMARK    4  A    between atoms: O4_12  and  C7_13 
REMARK    5  A    between atoms: C7_13  and  C8_14 
REMARK    6  A    between atoms: C8_14  and  C9_15 
REMARK    7  A    between atoms: C9_15  and  C10_16 
REMARK    8  A    between atoms: C10_16  and  C11_17 
REMARK    9  A    between atoms: C11_17  and  C12_18 
REMARK   10  A    between atoms: C18_24  and  O5_25 
REMARK   11  A    between atoms: C20_29  and  O7_30 
REMARK   12  A    between atoms: C21_32  and  O8_34 
ROOT
HETATM    1  C3  UNL     1      67.607  41.717  26.930  1.00  0.00     0.266 C 
HETATM    2  O2  UNL     1      67.981  40.772  27.912  1.00  0.00    -0.299 OA
HETATM    3  C4  UNL     1      68.095  39.434  27.485  1.00  0.00     0.139 A 
HETATM    4  C5  UNL     1      67.684  39.101  26.208  1.00  0.00     0.064 A 
HETATM    5  C6  UNL     1      67.887  37.752  26.011  1.00  0.00     0.182 A 
HETATM    6  N1  UNL     1      68.414  37.262  27.148  1.00  0.00    -0.173 N 
HETATM    7  C18 UNL     1      68.548  38.270  28.054  1.00  0.00     0.204 A 
HETATM    8  C19 UNL     1      67.146  40.188  25.368  1.00  0.00     0.198 C 
HETATM    9  O6  UNL     1      66.544  41.116  26.215  1.00  0.00    -0.333 OA
HETATM   10  C20 UNL     1      68.298  40.969  24.813  1.00  0.00     0.192 C 
HETATM   11  C21 UNL     1      68.684  41.930  25.918  1.00  0.00     0.147 C 
HETATM   12  C22 UNL     1      70.049  41.505  26.416  1.00  0.00     0.055 C 
ENDROOT
BRANCH   6  13
HETATM   13  O4  UNL     1      68.787  35.971  27.435  1.00  0.00    -0.269 OA
BRANCH  13  14
HETATM   14  C7  UNL     1      69.935  35.345  26.938  1.00  0.00     0.202 C 
BRANCH  14  15
HETATM   15  C8  UNL     1      69.445  34.229  25.999  1.00  0.00     0.029 C 
BRANCH  15  16
HETATM   16  C9  UNL     1      68.046  33.828  26.342  1.00  0.00     0.002 C 
BRANCH  16  17
HETATM   17  C10 UNL     1      67.297  33.409  25.111  1.00  0.00     0.000 C 
BRANCH  17  18
HETATM   18  C11 UNL     1      66.818  32.004  25.244  1.00  0.00     0.004 C 
BRANCH  18  19
HETATM   19  C12 UNL     1      65.346  31.939  25.637  1.00  0.00    -0.014 C 
HETATM   20  C13 UNL     1      65.168  31.688  27.106  1.00  0.00     0.004 C 
HETATM   21  C14 UNL     1      64.241  32.678  27.755  1.00  0.00     0.000 C 
HETATM   22  C15 UNL     1      62.966  32.820  26.934  1.00  0.00     0.000 C 
HETATM   23  C16 UNL     1      63.249  33.292  25.543  1.00  0.00     0.000 C 
HETATM   24  C17 UNL     1      64.726  33.254  25.213  1.00  0.00     0.004 C 
ENDBRANCH  18  19
ENDBRANCH  17  18
ENDBRANCH  16  17
ENDBRANCH  15  16
ENDBRANCH  14  15
ENDBRANCH  13  14
ENDBRANCH   6  13
BRANCH   5  25
HETATM   25  O3  UNL     1      67.602  37.010  24.847  1.00  0.00    -0.344 OA
ATOM     26  H3  UNL     1      67.927  36.145  24.625  1.00  0.00     0.219 HD
ENDBRANCH   5  25
BRANCH   7  27
HETATM   27  O5  UNL     1      69.057  38.168  29.356  1.00  0.00    -0.342 OA
ATOM     28  H5  UNL     1      68.666  38.578  30.119  1.00  0.00     0.219 HD
ENDBRANCH   7  27
BRANCH  10  29
HETATM   29  O7  UNL     1      67.896  41.630  23.659  1.00  0.00    -0.389 OA
ATOM     30  H7  UNL     1      68.081  41.086  22.902  1.00  0.00     0.210 HD
ENDBRANCH  10  29
BRANCH   1  31
HETATM   31  C2  UNL     1      67.075  42.915  27.556  1.00  0.00     0.188 C 
HETATM   32  C1  UNL     1      67.431  43.398  28.918  1.00  0.00     0.097 C 
HETATM   33  O1  UNL     1      66.274  43.583  26.925  1.00  0.00    -0.292 OA
ENDBRANCH   1  31
BRANCH  11  34
HETATM   34  O8  UNL     1      68.748  43.188  25.391  1.00  0.00    -0.381 OA
ATOM     35  H8  UNL     1      68.748  43.231  24.442  1.00  0.00     0.211 HD
ENDBRANCH  11  34
TORSDOF 12
ENDMDL
MODEL 3
REMARK VINA RESULT: -6.914300727      1.720      2.753
REMARK  12 active torsions:
REMARK  status: ('A' for Active; 'I' for Inactive)
REMARK    1  A    between atoms: C2_2  and  C3_4 
REMARK    2  A    between atoms: C6_8  and  O3_9 
REMARK    3  A    between atoms: N1_11  and  O4_12 
REMARK    4  A    between atoms: O4_12  and  C7_13 
REMARK    5  A    between atoms: C7_13  and  C8_14 
REMARK    6  A    between atoms: C8_14  and  C9_15 
REMARK    7  A    between atoms: C9_15  and  C10_16 
REMARK    8  A    between atoms: C10_16  and  C11_17 
REMARK    9  A    between atoms: C11_17  and  C12_18 
REMARK   10  A    between atoms: C18_24  and  O5_25 
REMARK   11  A    between atoms: C20_29  and  O7_30 
REMARK   12  A    between atoms: C21_32  and  O8_34 
ROOT
HETATM    1  C3  UNL     1      68.536  40.586  26.320  1.00  0.00     0.266 C 
HETATM    2  O2  UNL     1      68.430  40.157  24.977  1.00  0.00    -0.299 OA
HETATM    3  C4  UNL     1      67.842  38.894  24.766  1.00  0.00     0.139 A 
HETATM    4  C5  UNL     1      67.563  38.094  25.858  1.00  0.00     0.064 A 
HETATM    5  C6  UNL     1      66.997  36.917  25.417  1.00  0.00     0.182 A 
HETATM    6  N1  UNL     1      66.928  36.992  24.075  1.00  0.00    -0.173 N 
HETATM    7  C18 UNL     1      67.437  38.186  23.662  1.00  0.00     0.204 A 
HETATM    8  C19 UNL     1      67.906  38.627  27.190  1.00  0.00     0.198 C 
HETATM    9  O6  UNL     1      69.011  39.463  27.037  1.00  0.00    -0.333 OA
HETATM   10  C20 UNL     1      66.836  39.593  27.600  1.00  0.00     0.192 C 
HETATM   11  C21 UNL     1      67.203  40.894  26.916  1.00  0.00     0.147 C 
HETATM   12  C22 UNL     1      66.139  41.158  25.872  1.00  0.00     0.055 C 
ENDROOT
BRANCH   6  13
HETATM   13  O4  UNL     1      66.440  36.063  23.187  1.00  0.00    -0.269 OA
BRANCH  13  14
HETATM   14  C7  UNL     1      65.577  36.355  22.125  1.00  0.00     0.202 C 
BRANCH  14  15
HETATM   15  C8  UNL     1      64.153  36.328  22.708  1.00  0.00     0.029 C 
BRANCH  15  16
HETATM   16  C9  UNL     1      63.527  34.985  22.505  1.00  0.00     0.002 C 
BRANCH  16  17
HETATM   17  C10 UNL     1      63.165  34.364  23.822  1.00  0.00     0.000 C 
BRANCH  17  18
HETATM   18  C11 UNL     1      64.341  33.658  24.407  1.00  0.00     0.004 C 
BRANCH  18  19
HETATM   19  C12 UNL     1      64.259  33.581  25.929  1.00  0.00    -0.014 C 
HETATM   20  C13 UNL     1      62.840  33.489  26.409  1.00  0.00     0.004 C 
HETATM   21  C14 UNL     1      62.624  32.346  27.363  1.00  0.00     0.000 C 
HETATM   22  C15 UNL     1      63.704  32.348  28.437  1.00  0.00     0.000 C 
HETATM   23  C16 UNL     1      65.073  32.211  27.851  1.00  0.00     0.000 C 
HETATM   24  C17 UNL     1      65.073  32.373  26.345  1.00  0.00     0.004 C 
ENDBRANCH  18  19
ENDBRANCH  17  18
ENDBRANCH  16  17
ENDBRANCH  15  16
ENDBRANCH  14  15
ENDBRANCH  13  14
ENDBRANCH   6  13
BRANCH   5  25
HETATM   25  O3  UNL     1      66.566  35.833  26.206  1.00  0.00    -0.344 OA
ATOM     26  H3  UNL     1      66.370  34.951  25.911  1.00  0.00     0.219 HD
ENDBRANCH   5  25
BRANCH   7  27
HETATM   27  O5  UNL     1      67.544  38.644  22.342  1.00  0.00    -0.342 OA
ATOM     28  H5  UNL     1      67.255  39.498  22.044  1.00  0.00     0.219 HD
ENDBRANCH   7  27
BRANCH  10  29
HETATM   29  O7  UNL     1      66.827  39.712  28.985  1.00  0.00    -0.389 OA
ATOM     30  H7  UNL     1      67.692  39.963  29.287  1.00  0.00     0.210 HD
ENDBRANCH  10  29
BRANCH   1  31
HETATM   31  C2  UNL     1      69.544  41.625  26.441  1.00  0.00     0.188 C 
HETATM   32  C1  UNL     1      69.867  42.631  25.392  1.00  0.00     0.097 C 
HETATM   33  O1  UNL     1      70.180  41.687  27.480  1.00  0.00    -0.292 OA
ENDBRANCH   1  31
BRANCH  11  34
HETATM   34  O8  UNL     1      67.199  41.888  27.853  1.00  0.00    -0.381 OA
ATOM     35  H8  UNL     1      66.679  42.652  27.632  1.00  0.00     0.211 HD
ENDBRANCH  11  34
TORSDOF 12
ENDMDL
MODEL 4
REMARK VINA RESULT: -6.873281304      4.529      7.744
REMARK  12 active torsions:
REMARK  status: ('A' for Active; 'I' for Inactive)
REMARK    1  A    between atoms: C2_2  and  C3_4 
REMARK    2  A    between atoms: C6_8  and  O3_9 
REMARK    3  A    between atoms: N1_11  and  O4_12 
REMARK    4  A    between atoms: O4_12  and  C7_13 
REMARK    5  A    between atoms: C7_13  and  C8_14 
REMARK    6  A    between atoms: C8_14  and  C9_15 
REMARK    7  A    between atoms: C9_15  and  C10_16 
REMARK    8  A    between atoms: C10_16  and  C11_17 
REMARK    9  A    between atoms: C11_17  and  C12_18 
REMARK   10  A    between atoms: C18_24  and  O5_25 
REMARK   11  A    between atoms: C20_29  and  O7_30 
REMARK   12  A    between atoms: C21_32  and  O8_34 
ROOT
HETATM    1  C3  UNL     1      65.687  34.056  24.901  1.00  0.00     0.266 C 
HETATM    2  O2  UNL     1      66.499  34.899  24.109  1.00  0.00    -0.299 OA
HETATM    3  C4  UNL     1      65.851  35.606  23.077  1.00  0.00     0.139 A 
HETATM    4  C5  UNL     1      64.529  35.318  22.795  1.00  0.00     0.064 A 
HETATM    5  C6  UNL     1      64.107  36.123  21.759  1.00  0.00     0.182 A 
HETATM    6  N1  UNL     1      65.152  36.896  21.409  1.00  0.00    -0.173 N 
HETATM    7  C18 UNL     1      66.220  36.595  22.199  1.00  0.00     0.204 A 
HETATM    8  C19 UNL     1      63.879  34.272  23.607  1.00  0.00     0.198 C 
HETATM    9  O6  UNL     1      64.863  33.361  23.986  1.00  0.00    -0.333 OA
HETATM   10  C20 UNL     1      63.486  34.875  24.922  1.00  0.00     0.192 C 
HETATM   11  C21 UNL     1      64.746  34.831  25.762  1.00  0.00     0.147 C 
HETATM   12  C22 UNL     1      65.187  36.264  25.971  1.00  0.00     0.055 C 
ENDROOT
BRANCH   6  13
HETATM   13  O4  UNL     1      65.220  37.856  20.428  1.00  0.00    -0.269 OA
BRANCH  13  14
HETATM   14  C7  UNL     1      65.761  37.653  19.154  1.00  0.00     0.202 C 
BRANCH  14  15
HETATM   15  C8  UNL     1      65.089  38.686  18.232  1.00  0.00     0.029 C 
BRANCH  15  16
HETATM   16  C9  UNL     1      65.233  40.065  18.792  1.00  0.00     0.002 C 
BRANCH  16  17
HETATM   17  C10 UNL     1      64.857  41.095  17.767  1.00  0.00     0.000 C 
BRANCH  17  18
HETATM   18  C11 UNL     1      65.258  42.457  18.224  1.00  0.00     0.004 C 
BRANCH  18  19
HETATM   19  C12 UNL     1      64.084  43.223  18.825  1.00  0.00    -0.014 C 
HETATM   20  C13 UNL     1      64.531  44.471  19.529  1.00  0.00     0.004 C 
HETATM   21  C14 UNL     1      63.773  45.691  19.083  1.00  0.00     0.000 C 
HETATM   22  C15 UNL     1      62.277  45.410  19.089  1.00  0.00     0.000 C 
HETATM   23  C16 UNL     1      61.918  44.282  18.175  1.00  0.00     0.000 C 
HETATM   24  C17 UNL     1      63.138  43.530  17.683  1.00  0.00     0.004 C 
ENDBRANCH  18  19
ENDBRANCH  17  18
ENDBRANCH  16  17
ENDBRANCH  15  16
ENDBRANCH  14  15
ENDBRANCH  13  14
ENDBRANCH   6  13
BRANCH   5  25
HETATM   25  O3  UNL     1      62.829  36.148  21.167  1.00  0.00    -0.344 OA
ATOM     26  H3  UNL     1      62.263  36.903  21.055  1.00  0.00     0.219 HD
ENDBRANCH   5  25
BRANCH   7  27
HETATM   27  O5  UNL     1      67.493  37.178  22.150  1.00  0.00    -0.342 OA
ATOM     28  H5  UNL     1      67.655  38.111  22.068  1.00  0.00     0.219 HD
ENDBRANCH   7  27
BRANCH  10  29
HETATM   29  O7  UNL     1      62.455  34.130  25.483  1.00  0.00    -0.389 OA
ATOM     30  H7  UNL     1      62.811  33.336  25.866  1.00  0.00     0.210 HD
ENDBRANCH  10  29
BRANCH   1  31
HETATM   31  C2  UNL     1      66.501  33.062  25.580  1.00  0.00     0.188 C 
HETATM   32  C1  UNL     1      66.521  31.609  25.259  1.00  0.00     0.097 C 
HETATM   33  O1  UNL     1      67.228  33.438  26.484  1.00  0.00    -0.292 OA
ENDBRANCH   1  31
BRANCH  11  34
HETATM   34  O8  UNL     1      64.444  34.253  26.962  1.00  0.00    -0.381 OA
ATOM     35  H8  UNL     1      63.799  34.716  27.484  1.00  0.00     0.211 HD
ENDBRANCH  11  34
TORSDOF 12
ENDMDL
MODEL 5
REMARK VINA RESULT: -6.744298546      3.018      5.049
REMARK  12 active torsions:
REMARK  status: ('A' for Active; 'I' for Inactive)
REMARK    1  A    between atoms: C2_2  and  C3_4 
REMARK    2  A    between atoms: C6_8  and  O3_9 
REMARK    3  A    between atoms: N1_11  and  O4_12 
REMARK    4  A    between atoms: O4_12  and  C7_13 
REMARK    5  A    between atoms: C7_13  and  C8_14 
REMARK    6  A    between atoms: C8_14  and  C9_15 
REMARK    7  A    between atoms: C9_15  and  C10_16 
REMARK    8  A    between atoms: C10_16  and  C11_17 
REMARK    9  A    between atoms: C11_17  and  C12_18 
REMARK   10  A    between atoms: C18_24  and  O5_25 
REMARK   11  A    between atoms: C20_29  and  O7_30 
REMARK   12  A    between atoms: C21_32  and  O8_34 
ROOT
HETATM    1  C3  UNL     1      69.105  42.210  28.544  1.00  0.00     0.266 C 
HETATM    2  O2  UNL     1      69.132  40.860  28.962  1.00  0.00    -0.299 OA
HETATM    3  C4  UNL     1      68.518  39.925  28.106  1.00  0.00     0.139 A 
HETATM    4  C5  UNL     1      67.798  40.383  27.020  1.00  0.00     0.064 A 
HETATM    5  C6  UNL     1      67.291  39.302  26.330  1.00  0.00     0.182 A 
HETATM    6  N1  UNL     1      67.695  38.196  26.982  1.00  0.00    -0.173 N 
HETATM    7  C18 UNL     1      68.441  38.555  28.063  1.00  0.00     0.204 A 
HETATM    8  C19 UNL     1      67.720  41.844  26.829  1.00  0.00     0.198 C 
HETATM    9  O6  UNL     1      67.785  42.436  28.089  1.00  0.00    -0.333 OA
HETATM   10  C20 UNL     1      68.998  42.305  26.199  1.00  0.00     0.192 C 
HETATM   11  C21 UNL     1      69.973  42.444  27.351  1.00  0.00     0.147 C 
HETATM   12  C22 UNL     1      71.025  41.371  27.171  1.00  0.00     0.055 C 
ENDROOT
BRANCH   6  13
HETATM   13  O4  UNL     1      67.442  36.879  26.678  1.00  0.00    -0.269 OA
BRANCH  13  14
HETATM   14  C7  UNL     1      68.100  36.153  25.679  1.00  0.00     0.202 C 
BRANCH  14  15
HETATM   15  C8  UNL     1      69.044  35.180  26.407  1.00  0.00     0.029 C 
BRANCH  15  16
HETATM   16  C9  UNL     1      68.744  33.766  26.018  1.00  0.00     0.002 C 
BRANCH  16  17
HETATM   17  C10 UNL     1      67.404  33.673  25.351  1.00  0.00     0.000 C 
BRANCH  17  18
HETATM   18  C11 UNL     1      66.937  32.257  25.312  1.00  0.00     0.004 C 
BRANCH  18  19
HETATM   19  C12 UNL     1      65.444  32.142  25.603  1.00  0.00    -0.014 C 
HETATM   20  C13 UNL     1      65.179  31.741  27.024  1.00  0.00     0.004 C 
HETATM   21  C14 UNL     1      64.200  32.653  27.711  1.00  0.00     0.000 C 
HETATM   22  C15 UNL     1      62.977  32.868  26.830  1.00  0.00     0.000 C 
HETATM   23  C16 UNL     1      63.339  33.482  25.515  1.00  0.00     0.000 C 
HETATM   24  C17 UNL     1      64.834  33.489  25.276  1.00  0.00     0.004 C 
ENDBRANCH  18  19
ENDBRANCH  17  18
ENDBRANCH  16  17
ENDBRANCH  15  16
ENDBRANCH  14  15
ENDBRANCH  13  14
ENDBRANCH   6  13
BRANCH   5  25
HETATM   25  O3  UNL     1      66.501  39.330  25.164  1.00  0.00    -0.344 OA
ATOM     26  H3  UNL     1      65.637  38.954  25.048  1.00  0.00     0.219 HD
ENDBRANCH   5  25
BRANCH   7  27
HETATM   27  O5  UNL     1      69.042  37.696  28.993  1.00  0.00    -0.342 OA
ATOM     28  H5  UNL     1      69.120  37.880  29.922  1.00  0.00     0.219 HD
ENDBRANCH   7  27
BRANCH  10  29
HETATM   29  O7  UNL     1      68.783  43.512  25.545  1.00  0.00    -0.389 OA
ATOM     30  H7  UNL     1      69.586  43.790  25.121  1.00  0.00     0.210 HD
ENDBRANCH  10  29
BRANCH   1  31
HETATM   31  C2  UNL     1      69.324  43.095  29.674  1.00  0.00     0.188 C 
HETATM   32  C1  UNL     1      68.254  43.820  30.413  1.00  0.00     0.097 C 
HETATM   33  O1  UNL     1      70.469  43.264  30.056  1.00  0.00    -0.292 OA
ENDBRANCH   1  31
BRANCH  11  34
HETATM   34  O8  UNL     1      70.547  43.681  27.282  1.00  0.00    -0.381 OA
ATOM     35  H8  UNL     1      71.237  43.773  26.636  1.00  0.00     0.211 HD
ENDBRANCH  11  34
TORSDOF 12
ENDMDL
