MODEL 1
REMARK VINA RESULT: -6.515984522      0.000      0.000
REMARK  2 active torsions:
REMARK  status: ('A' for Active; 'I' for Inactive)
REMARK    1  A    between atoms: O1_2  and  N1_3 
REMARK    2  A    between atoms: N1_3  and  C2_5 
ROOT
HETATM    1  C2  UNL     1      20.241 126.535  -9.162  1.00  0.00     0.196 C 
HETATM    2  N2  UNL     1      21.137 125.717  -9.749  1.00  0.00    -0.324 N 
ATOM      3  H2  UNL     1      21.606 126.122 -10.560  1.00  0.00     0.169 HD
HETATM    4  C3  UNL     1      21.525 124.456  -9.455  1.00  0.00     0.144 C 
HETATM    5  N3  UNL     1      22.616 123.892 -10.148  1.00  0.00    -0.081 NA
HETATM    6  C4  UNL     1      20.934 123.645  -8.510  1.00  0.00     0.153 C 
HETATM    7  C5  UNL     1      21.315 122.269  -8.618  1.00  0.00     0.108 C 
HETATM    8  N4  UNL     1      21.627 121.156  -8.700  1.00  0.00    -0.191 NA
HETATM    9  C6  UNL     1      20.037 123.952  -7.483  1.00  0.00     0.272 C 
HETATM   10  O2  UNL     1      19.900 123.059  -6.600  1.00  0.00    -0.266 OA
HETATM   11  N5  UNL     1      19.328 125.088  -7.364  1.00  0.00    -0.286 N 
ATOM     12  H5  UNL     1      18.696 125.142  -6.564  1.00  0.00     0.172 HD
HETATM   13  C7  UNL     1      19.352 126.162  -8.174  1.00  0.00     0.294 C 
HETATM   14  O3  UNL     1      18.408 126.977  -8.018  1.00  0.00    -0.264 OA
ENDROOT
BRANCH   1  15
HETATM   15  N1  UNL     1      20.236 127.759  -9.575  1.00  0.00    -0.246 N 
ATOM     16  H1  UNL     1      19.600 128.028 -10.326  1.00  0.00     0.196 HD
BRANCH  15  17
HETATM   17  O1  UNL     1      21.054 128.695  -9.035  1.00  0.00    -0.284 OA
HETATM   18  C1  UNL     1      20.632 129.769  -8.243  1.00  0.00     0.237 C 
ENDBRANCH  15  17
ENDBRANCH   1  15
TORSDOF 2
ENDMDL
MODEL 2
REMARK VINA RESULT: -6.477330401      1.029      1.029
REMARK  2 active torsions:
REMARK  status: ('A' for Active; 'I' for Inactive)
REMARK    1  A    between atoms: O1_2  and  N1_3 
REMARK    2  A    between atoms: N1_3  and  C2_5 
ROOT
HETATM    1  C2  UNL     1      21.101 126.973  -8.490  1.00  0.00     0.196 C 
HETATM    2  N2  UNL     1      21.886 126.287  -9.343  1.00  0.00    -0.324 N 
ATOM      3  H2  UNL     1      22.498 126.871  -9.913  1.00  0.00     0.169 HD
HETATM    4  C3  UNL     1      22.007 124.961  -9.578  1.00  0.00     0.144 C 
HETATM    5  N3  UNL     1      23.040 124.503 -10.423  1.00  0.00    -0.081 NA
HETATM    6  C4  UNL     1      21.189 123.984  -9.052  1.00  0.00     0.153 C 
HETATM    7  C5  UNL     1      21.323 122.715  -9.702  1.00  0.00     0.108 C 
HETATM    8  N4  UNL     1      21.433 121.686 -10.222  1.00  0.00    -0.191 NA
HETATM    9  C6  UNL     1      20.267 124.041  -8.003  1.00  0.00     0.272 C 
HETATM   10  O2  UNL     1      19.884 122.922  -7.559  1.00  0.00    -0.266 OA
HETATM   11  N5  UNL     1      19.769 125.158  -7.446  1.00  0.00    -0.286 N 
ATOM     12  H5  UNL     1      19.082 125.022  -6.703  1.00  0.00     0.172 HD
HETATM   13  C7  UNL     1      20.067 126.433  -7.752  1.00  0.00     0.294 C 
HETATM   14  O3  UNL     1      19.276 127.297  -7.295  1.00  0.00    -0.264 OA
ENDROOT
BRANCH   1  15
HETATM   15  N1  UNL     1      21.360 128.234  -8.372  1.00  0.00    -0.246 N 
ATOM     16  H1  UNL     1      21.898 128.557  -7.569  1.00  0.00     0.196 HD
BRANCH  15  17
HETATM   17  O1  UNL     1      20.932 129.136  -9.288  1.00  0.00    -0.284 OA
HETATM   18  C1  UNL     1      20.206 130.295  -8.994  1.00  0.00     0.237 C 
ENDBRANCH  15  17
ENDBRANCH   1  15
TORSDOF 2
ENDMDL
MODEL 3
REMARK VINA RESULT: -6.435846845      1.462      1.480
REMARK  2 active torsions:
REMARK  status: ('A' for Active; 'I' for Inactive)
REMARK    1  A    between atoms: O1_2  and  N1_3 
REMARK    2  A    between atoms: N1_3  and  C2_5 
ROOT
HETATM    1  C2  UNL     1      20.924 127.619  -8.417  1.00  0.00     0.196 C 
HETATM    2  N2  UNL     1      21.690 126.810  -9.175  1.00  0.00    -0.324 N 
ATOM      3  H2  UNL     1      22.341 127.302  -9.787  1.00  0.00     0.169 HD
HETATM    4  C3  UNL     1      21.750 125.463  -9.268  1.00  0.00     0.144 C 
HETATM    5  N3  UNL     1      22.775 124.871 -10.036  1.00  0.00    -0.081 NA
HETATM    6  C4  UNL     1      20.874 124.587  -8.664  1.00  0.00     0.153 C 
HETATM    7  C5  UNL     1      20.957 123.252  -9.175  1.00  0.00     0.108 C 
HETATM    8  N4  UNL     1      21.026 122.169  -9.583  1.00  0.00    -0.191 NA
HETATM    9  C6  UNL     1      19.936 124.797  -7.649  1.00  0.00     0.272 C 
HETATM   10  O2  UNL     1      19.490 123.749  -7.101  1.00  0.00    -0.266 OA
HETATM   11  N5  UNL     1      19.483 125.988  -7.223  1.00  0.00    -0.286 N 
ATOM     12  H5  UNL     1      18.777 125.963  -6.487  1.00  0.00     0.172 HD
HETATM   13  C7  UNL     1      19.850 127.209  -7.652  1.00  0.00     0.294 C 
HETATM   14  O3  UNL     1      19.095 128.153  -7.306  1.00  0.00    -0.264 OA
ENDROOT
BRANCH   1  15
HETATM   15  N1  UNL     1      21.242 128.871  -8.424  1.00  0.00    -0.246 N 
ATOM     16  H1  UNL     1      20.840 129.482  -9.135  1.00  0.00     0.196 HD
BRANCH  15  17
HETATM   17  O1  UNL     1      22.097 129.393  -7.511  1.00  0.00    -0.284 OA
HETATM   18  C1  UNL     1      22.559 128.726  -6.371  1.00  0.00     0.237 C 
ENDBRANCH  15  17
ENDBRANCH   1  15
TORSDOF 2
ENDMDL
MODEL 4
REMARK VINA RESULT: -6.329761617      2.192      4.556
REMARK  2 active torsions:
REMARK  status: ('A' for Active; 'I' for Inactive)
REMARK    1  A    between atoms: O1_2  and  N1_3 
REMARK    2  A    between atoms: N1_3  and  C2_5 
ROOT
HETATM    1  C2  UNL     1      22.325 124.750  -8.268  1.00  0.00     0.196 C 
HETATM    2  N2  UNL     1      22.224 126.093  -8.300  1.00  0.00    -0.324 N 
ATOM      3  H2  UNL     1      23.109 126.577  -8.453  1.00  0.00     0.169 HD
HETATM    4  C3  UNL     1      21.158 126.914  -8.165  1.00  0.00     0.144 C 
HETATM    5  N3  UNL     1      21.317 128.295  -8.408  1.00  0.00    -0.081 NA
HETATM    6  C4  UNL     1      19.891 126.514  -7.800  1.00  0.00     0.153 C 
HETATM    7  C5  UNL     1      19.037 127.599  -7.417  1.00  0.00     0.108 C 
HETATM    8  N4  UNL     1      18.342 128.474  -7.113  1.00  0.00    -0.191 NA
HETATM    9  C6  UNL     1      19.322 125.239  -7.745  1.00  0.00     0.272 C 
HETATM   10  O2  UNL     1      18.062 125.212  -7.658  1.00  0.00    -0.266 OA
HETATM   11  N5  UNL     1      19.989 124.072  -7.777  1.00  0.00    -0.286 N 
ATOM     12  H5  UNL     1      19.421 123.228  -7.702  1.00  0.00     0.172 HD
HETATM   13  C7  UNL     1      21.316 123.886  -7.895  1.00  0.00     0.294 C 
HETATM   14  O3  UNL     1      21.725 122.729  -7.621  1.00  0.00    -0.264 OA
ENDROOT
BRANCH   1  15
HETATM   15  N1  UNL     1      23.468 124.260  -8.620  1.00  0.00    -0.246 N 
ATOM     16  H1  UNL     1      24.096 123.900  -7.902  1.00  0.00     0.196 HD
BRANCH  15  17
HETATM   17  O1  UNL     1      23.851 124.210  -9.919  1.00  0.00    -0.284 OA
HETATM   18  C1  UNL     1      23.156 123.548 -10.936  1.00  0.00     0.237 C 
ENDBRANCH  15  17
ENDBRANCH   1  15
TORSDOF 2
ENDMDL
MODEL 5
REMARK VINA RESULT: -6.252828693      1.595      1.598
REMARK  2 active torsions:
REMARK  status: ('A' for Active; 'I' for Inactive)
REMARK    1  A    between atoms: O1_2  and  N1_3 
REMARK    2  A    between atoms: N1_3  and  C2_5 
ROOT
HETATM    1  C2  UNL     1      21.201 127.386  -7.608  1.00  0.00     0.196 C 
HETATM    2  N2  UNL     1      22.306 126.760  -8.056  1.00  0.00    -0.324 N 
ATOM      3  H2  UNL     1      23.111 127.373  -8.187  1.00  0.00     0.169 HD
HETATM    4  C3  UNL     1      22.539 125.464  -8.364  1.00  0.00     0.144 C 
HETATM    5  N3  UNL     1      23.856 125.052  -8.658  1.00  0.00    -0.081 NA
HETATM    6  C4  UNL     1      21.579 124.477  -8.417  1.00  0.00     0.153 C 
HETATM    7  C5  UNL     1      22.021 123.283  -9.072  1.00  0.00     0.108 C 
HETATM    8  N4  UNL     1      22.379 122.314  -9.596  1.00  0.00    -0.191 NA
HETATM    9  C6  UNL     1      20.265 124.463  -7.941  1.00  0.00     0.272 C 
HETATM   10  O2  UNL     1      19.726 123.322  -7.874  1.00  0.00    -0.266 OA
HETATM   11  N5  UNL     1      19.548 125.534  -7.560  1.00  0.00    -0.286 N 
ATOM     12  H5  UNL     1      18.590 125.351  -7.260  1.00  0.00     0.172 HD
HETATM   13  C7  UNL     1      19.944 126.819  -7.527  1.00  0.00     0.294 C 
HETATM   14  O3  UNL     1      19.022 127.666  -7.404  1.00  0.00    -0.264 OA
ENDROOT
BRANCH   1  15
HETATM   15  N1  UNL     1      21.358 128.611  -7.228  1.00  0.00    -0.246 N 
ATOM     16  H1  UNL     1      21.322 128.831  -6.233  1.00  0.00     0.196 HD
BRANCH  15  17
HETATM   17  O1  UNL     1      21.567 129.610  -8.118  1.00  0.00    -0.284 OA
HETATM   18  C1  UNL     1      20.564 130.259  -8.848  1.00  0.00     0.237 C 
ENDBRANCH  15  17
ENDBRANCH   1  15
TORSDOF 2
ENDMDL
